#------------------------------------------------------------------------------
#$Date: 2021-10-01 01:20:31 +0300 (Fri, 01 Oct 2021) $
#$Revision: 269409 $
#$URL: file:///home/coder/svn-repositories/cod/cif/1/56/47/1564789.cif $
#------------------------------------------------------------------------------
#
# This file is available in the Crystallography Open Database (COD),
# http://www.crystallography.net/
#
# All data on this site have been placed in the public domain by the
# contributors.
#
data_1564789
loop_
_publ_author_name
'YIN, HUAQING'
'Tan, Kui'
'Jensen, Stephanie'
'Teat, Simon'
'Ullah, Saif'
'Hei, Xiuze'
'Velasco, Ever'
'Oyekan, Kolade'
'Meyer, Noah'
'Wang, Xin-Yao'
'Thonhauser, Timo'
'Yin, Xue-Bo'
'Li, Jing'
_publ_section_title
;
 Switchable sensor and scavenger: detection and removal of fluorinated
 chemical species by luminescent metal-organic framework
;
_journal_name_full               'Chemical Science'
_journal_paper_doi               10.1039/D1SC04070G
_journal_year                    2021
_chemical_formula_sum            'C16 H9 In N O5'
_chemical_formula_weight         410.06
_chemical_name_systematic        In(tcpp)
_chemical_properties_physical    'Methanol and ethanol sensitive'
_space_group_crystal_system      orthorhombic
_space_group_IT_number           65
_space_group_name_Hall           '-C 2 2'
_space_group_name_H-M_alt        'C m m m'
_atom_sites_solution_hydrogens   geom
_atom_sites_solution_primary     'Dual space'
_atom_sites_solution_secondary   difmap
_audit_creation_method           SHELXL-2018/1
_audit_update_record
;
2021-01-19 deposited with the CCDC.	2021-09-30 downloaded from the CCDC.
;
_cell_angle_alpha                90
_cell_angle_beta                 90
_cell_angle_gamma                90
_cell_formula_units_Z            4
_cell_length_a                   7.2195(3)
_cell_length_b                   22.5222(10)
_cell_length_c                   15.7802(7)
_cell_measurement_reflns_used    9897
_cell_measurement_temperature    298(2)
_cell_measurement_theta_max      31.4342
_cell_measurement_theta_min      3.0384
_cell_volume                     2565.85(19)
_computing_cell_refinement       'Bruker SAINT v8.38a'
_computing_data_collection       'Bruker APEX 3'
_computing_data_reduction        'Bruker SAINT v8.38a'
_computing_molecular_graphics    'Bruker SHELXTL'
_computing_publication_material  'Bruker SHELXTL & local programs'
_computing_structure_refinement  'SHELXL-2018/1 (Sheldrick, 2018)'
_computing_structure_solution    'SHELXT 2014/5 (Sheldrick, 2014)'
_diffrn_ambient_temperature      298(2)
_diffrn_detector_area_resol_mean 7.39
_diffrn_measured_fraction_theta_full 0.996
_diffrn_measured_fraction_theta_max 0.996
_diffrn_measurement_device_type  'Bruker D8 with PHOTONII detector'
_diffrn_measurement_method       '\w/\q shutterless scans'
_diffrn_radiation_type           synchrotron
_diffrn_radiation_wavelength     0.7288
_diffrn_reflns_av_R_equivalents  0.0738
_diffrn_reflns_av_unetI/netI     0.0455
_diffrn_reflns_Laue_measured_fraction_full 0.996
_diffrn_reflns_Laue_measured_fraction_max 0.996
_diffrn_reflns_limit_h_max       10
_diffrn_reflns_limit_h_min       -9
_diffrn_reflns_limit_k_max       31
_diffrn_reflns_limit_k_min       -32
_diffrn_reflns_limit_l_max       22
_diffrn_reflns_limit_l_min       -22
_diffrn_reflns_number            17781
_diffrn_reflns_point_group_measured_fraction_full 0.996
_diffrn_reflns_point_group_measured_fraction_max 0.996
_diffrn_reflns_theta_full        25.930
_diffrn_reflns_theta_max         31.434
_diffrn_reflns_theta_min         2.647
_diffrn_source                   'Advanced Light Source beamline 12.2.1'
_exptl_absorpt_coefficient_mu    0.987
_exptl_absorpt_correction_T_max  0.962
_exptl_absorpt_correction_T_min  0.868
_exptl_absorpt_correction_type   multi-scan
_exptl_absorpt_process_details   'SADABS 2016/2 Bruker AXS Madison WI USA'
_exptl_crystal_colour            colourless
_exptl_crystal_density_diffrn    1.062
_exptl_crystal_description       rod
_exptl_crystal_F_000             804
_exptl_crystal_preparation       Luminescent
_exptl_crystal_size_max          0.190
_exptl_crystal_size_mid          0.060
_exptl_crystal_size_min          0.040
_refine_diff_density_max         0.599
_refine_diff_density_min         -0.674
_refine_diff_density_rms         0.156
_refine_ls_extinction_coef       0.0060(7)
_refine_ls_extinction_expression Fc^*^=kFc[1+0.001xFc^2^\l^3^/sin(2\q)]^-1/4^
_refine_ls_extinction_method     'SHELXL-2018/1 (Sheldrick 2018)'
_refine_ls_goodness_of_fit_ref   1.100
_refine_ls_hydrogen_treatment    constr
_refine_ls_matrix_type           full
_refine_ls_number_parameters     83
_refine_ls_number_reflns         2229
_refine_ls_number_restraints     0
_refine_ls_restrained_S_all      1.100
_refine_ls_R_factor_all          0.0394
_refine_ls_R_factor_gt           0.0337
_refine_ls_shift/su_max          0.000
_refine_ls_shift/su_mean         0.000
_refine_ls_structure_factor_coef Fsqd
_refine_ls_weighting_details
'w=1/[\s^2^(Fo^2^)+(0.0464P)^2^+1.6869P] where P=(Fo^2^+2Fc^2^)/3'
_refine_ls_weighting_scheme      calc
_refine_ls_wR_factor_gt          0.0879
_refine_ls_wR_factor_ref         0.0942
_reflns_Friedel_coverage         0.000
_reflns_number_gt                1804
_reflns_number_total             2229
_reflns_threshold_expression     'I > 2\s(I)'
_cod_data_source_file            d1sc04070g2.cif
_cod_data_source_block           HQ1-15b3_a_sq
_cod_database_code               1564789
_shelx_shelxl_version_number     2018/1
_shelx_space_group_comment
;
The symmetry employed for this shelxl refinement is uniquely defined
by the following loop, which should always be used as a source of
symmetry information in preference to the above space-group names.
They are only intended as comments.
;
_shelx_estimated_absorpt_t_min   0.835
_shelx_estimated_absorpt_t_max   0.962
_shelx_res_file
;
TITL hq1-15b3_a.res in Cmmm
    HQ1-15b3_a_sq.res
    created by SHELXL-2018/1 at 15:06:54 on 15-Oct-2019
REM Old TITL hq1-15b3 in Cmmm

REM SHELXT solution in Cmmm
REM R1 0.125,  Rweak 0.002,  Alpha 0.054,  Orientation as input
REM Formula found by SHELXT:  C35 N10 O10 Cl2 In2

CELL  0.7288   7.2195  22.5222  15.7802   90.000   90.000   90.000
ZERR   4.000   0.0003   0.0010   0.0007    0.000    0.000    0.000
LATT  7
SYMM -X, -Y, Z
SYMM -X, Y, -Z
SYMM X, -Y, -Z
SFAC C H N O IN
DISP    C     0.00337    0.00172        11.92
DISP    H     0.00000    0.00000         0.67
DISP    N     0.00654    0.00351        20.58
DISP    O     0.01151    0.00644        34.18
DISP    In   -0.65422    1.37594      5944.77
UNIT 64 36 4 20 4

ACTA

OMIT 0   0   1
OMIT 0   2   1
OMIT 2   0   0
OMIT 2   0   2

TEMP 25
SIZE 0.190 0.060 0.040

REM Colourless Rod

EQIV $5 1-x, y, z

FREE C3 C7_$5
FREE C3 C6_$5
FREE C4 C7_$5
FREE C4 C6_$5
FREE C6 C4_$5
FREE C6 C3_$5
FREE C7 C4_$5
FREE C7 C3_$5

L.S. 5 0   16
BOND $H
FMAP 2
PLAN 20
ABIN
WGHT    0.046400    1.686900
EXTI    0.005994
FVAR       0.25191
IN01  5    0.250000    0.250000    0.000000    10.25000    0.02203    0.02523 =
         0.01445    0.00000    0.00000   -0.00178
O1    4    0.500000    0.204170    0.000000    10.25000    0.02606    0.02796 =
         0.03437    0.00000    0.00000    0.00000
N1    3    0.500000    0.438698    0.500000    10.25000    0.07838    0.02629 =
         0.01796    0.00000    0.00000    0.00000
C1    1    0.500000    0.468993    0.427670    10.50000    0.05760    0.02638 =
         0.01461   -0.00188    0.00000    0.00000
C2    1    0.500000    0.433135    0.347779    10.50000    0.05913    0.02729 =
         0.01711   -0.00470    0.00000    0.00000
C3    1    0.660476    0.402441    0.324297    10.50000    0.07007    0.06270 =
         0.03444   -0.02697   -0.02393    0.01771
AFIX  43
H3A   2    0.767328    0.405651    0.356894    10.50000   -1.20000
AFIX   0
C4    1    0.659586    0.367591    0.252994    10.50000    0.04913    0.06210 =
         0.04258   -0.02739   -0.01068    0.02004
AFIX  43
H4A   2    0.766755    0.347595    0.237029    10.50000   -1.20000
AFIX   0
C5    1    0.500000    0.361888    0.204388    10.50000    0.03974    0.03429 =
         0.02098   -0.00832    0.00000    0.00000
C6    1    0.344498    0.391466    0.228488    10.50000    0.04293    0.06752 =
         0.03537   -0.03143   -0.00564    0.00803
AFIX  43
H6A   2    0.236329    0.387315    0.197037    10.50000   -1.20000
AFIX   0
C7    1    0.345522    0.427884    0.299722    10.50000    0.04591    0.06325 =
         0.03462   -0.02858   -0.00273    0.01584
AFIX  43
H7A   2    0.239198    0.448791    0.314442    10.50000   -1.20000
AFIX   0
C8    1    0.500000    0.323054    0.127225    10.50000    0.04062    0.02978 =
         0.02126   -0.00826    0.00000    0.00000
O2    4    0.346461    0.308911    0.098074    11.00000    0.04006    0.06617 =
         0.04693   -0.03509   -0.01118    0.00812

HKLF 4




REM  hq1-15b3_a.res in Cmmm
REM R1 =  0.0337 for    1804 Fo > 4sig(Fo)  and  0.0394 for all    2229 data
REM     83 parameters refined using      0 restraints

END

WGHT      0.0464      1.6869

REM Highest difference peak  0.599,  deepest hole -0.674,  1-sigma level  0.156
Q1    1   0.5000  0.2460 -0.0630  10.50000  0.05    0.60
Q2    1   0.6529  0.3744  0.3027  11.00000  0.05    0.58
Q3    1   0.6979  0.3864  0.2898  11.00000  0.05    0.56
Q4    1   0.6609  0.5000  0.5000  10.25000  0.05    0.53
Q5    1   0.8580  0.3704  0.2981  11.00000  0.05    0.50
Q6    1   0.9520  0.3812  0.2992  11.00000  0.05    0.45
Q7    1   0.1761  0.2435  0.0678  11.00000  0.05    0.43
Q8    1   0.5000  0.2022 -0.0230  10.50000  0.05    0.41
Q9    1   0.4221  0.2021  0.0000  10.50000  0.05    0.41
Q10   1   0.5000  0.5000  0.4483  10.25000  0.05    0.39
Q11   1   0.8270  0.3182  0.2150  11.00000  0.05    0.38
Q12   1   0.2068  0.3782  0.1396  11.00000  0.05    0.38
Q13   1   0.5000  0.3532  0.2648  10.50000  0.05    0.38
Q14   1   0.5000  0.3469  0.1606  10.50000  0.05    0.37
Q15   1   0.5000  0.2436  0.0000  10.25000  0.05    0.37
Q16   1   0.5000  0.4488  0.3969  10.50000  0.05    0.37
Q17   1   0.5837  0.4074  0.3223  11.00000  0.05    0.36
Q18   1   1.0000  0.4678  0.4250  10.50000  0.05    0.36
Q19   1   1.0000  0.3501  0.2644  10.50000  0.05    0.35
Q20   1   0.0000  0.5000  0.4493  10.25000  0.05    0.35
;
_shelx_res_checksum              19242
_shelx_hkl_file
;
  -2   0   0   75.29    7.10
  -2   0   0   62.49    6.90
   2   0   0   62.59    7.70
   2   0   0   81.59    7.10
   2   0   0   72.09    7.00
  -2   0   0   68.69    7.80
   4   0   0 1892.71  162.48
   6   0   0   28.70    4.90
   6   0   0   35.20    5.20
   6   0   0   28.10    4.80
  -6   0   0   36.70    5.70
   6   0   0   32.00    6.30
   8   0   0  470.55   42.00
   8   0   0  428.56   40.90
   8   0   0  419.86   44.00
  10   0   0   76.59   11.30
  10   0   0   84.49   11.30
  10   0   0   69.79   12.70
   1   1   0  696.83   55.89
  -1   1   0  634.64   73.79
   1  -1   0  729.23   57.89
  -1  -1   0  624.14   68.99
  -1  -1   0  628.44   64.29
  -1   1   0  754.62   88.09
   1  -1   0  677.53   75.19
   1   1   0  522.05   67.99
   1   1   0  673.13   64.69
  -1   1   0  619.04   57.39
  -1  -1   0  645.84   55.89
   3   1   0  256.87   23.60
  -3   1   0  278.17   25.40
   3  -1   0  268.27   23.70
  -3  -1   0  220.78   24.40
   3   1   0  288.77   24.00
   3  -1   0  281.47   24.00
  -3   1   0  230.48   23.50
  -3  -1   0  266.47   23.80
   3  -1   0  276.57   25.40
   3  -1   0  255.47   23.60
   3   1   0  297.37   25.50
  -3  -1   0  263.07   23.90
  -5   1   0   61.19    6.70
   5  -1   0   46.00    6.00
   5  -1   0   43.70    5.90
   5   1   0   44.20    6.10
   5   1   0   47.00    6.30
   5   1   0   49.50    6.10
   5   1   0   60.09    8.30
  -5   1   0   41.10    7.10
   5  -1   0   39.00    6.70
   5  -1   0   52.99    6.40
  -5  -1   0   39.00    6.00
   7  -1   0   66.59    8.50
   7   1   0   71.99    9.30
   7  -1   0   64.09    8.40
   7   1   0   63.59    8.60
   9  -1   0    0.80    1.50
   9  -1   0    0.30    1.20
   9   1   0    6.10    3.40
   9   1   0    1.80    1.50
   9   1   0    0.00    1.10
   9  -1   0   -4.70    2.20
  -2   2   0 1481.95  126.29
   4   2   0  465.45   40.10
  -4  -2   0  443.06   40.40
  -4   2   0  460.55   40.30
  -4  -2   0  433.16   40.60
   4  -2   0  455.05   40.60
   4  -2   0  419.76   39.90
   4   2   0  441.66   42.10
   4  -2   0  527.05   43.00
   4  -2   0  476.55   40.40
   6   2   0  337.47   31.00
   6   2   0  330.57   30.90
   6   2   0  353.66   33.40
  -6   2   0  268.57   30.20
  -6   2   0  261.67   32.10
   6   2   0  340.87   30.40
   6  -2   0  325.07   30.30
   6  -2   0  316.47   30.20
  -6  -2   0  388.26   31.80
   6  -2   0  340.17   30.90
   6   2   0  353.56   31.30
   8   2   0  225.78   21.90
   8  -2   0  172.78   21.30
   8   2   0  231.08   21.80
   8  -2   0  212.18   21.20
   8   2   0  208.18   23.90
   8  -2   0  181.08   23.50
  10  -2   0   87.49   11.40
  10   2   0   63.29   13.20
  10   2   0   80.59   11.30
  10   2   0   89.89   11.90
  10  -2   0   90.49   12.10
  -1   3   0  507.95   38.90
   1  -3   0  381.96   38.30
  -3  -3   0  570.94   46.90
  -3  -3   0  481.95   46.20
   3   3   0  577.24   47.00
   3  -3   0  520.75   45.90
   3   3   0  563.14   47.70
   3   3   0  491.15   46.00
   3   3   0  531.15   46.30
  -3   3   0  545.55   46.10
   5  -3   0    0.80    0.80
   5   3   0    1.70    1.20
   5   3   0    4.00    2.60
  -5   3   0    3.90    1.70
   5  -3   0    3.70    1.80
   5  -3   0    6.10    4.30
   5  -3   0    4.80    2.30
  -5  -3   0    1.80    1.20
  -5  -3   0    2.90    1.20
   5   3   0    2.90    1.30
  -5   3   0    0.40    1.00
   5   3   0    7.70    2.60
   7  -3   0   31.40    5.50
   7  -3   0   34.90    5.60
  -7   3   0   38.80    7.50
   7   3   0   40.80    6.30
   7   3   0   35.80    5.90
   9   3   0    6.00    2.70
   9  -3   0    4.80    3.90
   9   3   0   -0.90    2.90
   9  -3   0    2.50    1.50
   9   3   0    0.80    1.10
   9  -3   0   -0.60    1.30
   0   4   0  641.94  122.89
  -2  -4   0  631.64   52.39
  -2   4   0  526.65   52.29
   2  -4   0  573.34   51.79
   2  -4   0  707.33   54.19
   2   4   0  616.94   52.19
   2  -4   0  655.53   52.49
  -2   4   0  555.94   53.79
   2   4   0  639.44   52.89
   4  -4   0 1207.78  105.39
  -4   4   0 1180.98  105.59
   4   4   0 1292.67  107.79
   4  -4   0 1341.07  106.69
   4  -4   0 1199.38  105.79
  -4  -4   0 1189.58  106.19
   4   4   0 1286.77  105.69
   6   4   0  485.65   51.49
   6  -4   0  594.34   51.19
   6   4   0  627.84   51.19
   6  -4   0  579.64   50.89
   6   4   0  600.34   51.59
  -6   4   0  598.84   51.39
  -6   4   0  539.75   54.09
   6  -4   0  573.14   51.89
  -6  -4   0  592.64   51.99
   6   4   0  552.74   53.89
   8  -4   0  195.58   19.60
   8   4   0  174.18   19.60
   8   4   0  214.68   23.50
   8   4   0  178.18   19.50
  10  -4   0   63.59    9.60
  10  -4   0   48.90    9.00
  10   4   0   72.19    9.80
  10   4   0   74.89   10.30
  -1  -5   0  228.38   19.60
   1   5   0  224.48   21.00
   1   5   0  247.78   19.60
  -1   5   0  194.68   20.00
  -1   5   0  243.38   21.20
  -1   5   0  232.98   19.70
   1   5   0  246.98   20.60
   1  -5   0  225.58   20.90
   1   5   0  227.08   20.00
   1  -5   0  207.08   19.70
  -1  -5   0  236.48   20.00
   3   5   0   55.29    5.90
  -3   5   0   44.80    7.20
  -3  -5   0   51.89    6.10
   3  -5   0   39.10    6.70
   3  -5   0   55.89    5.50
  -3  -5   0   60.19    6.80
   3   5   0   42.40    6.20
  -3   5   0   66.29    6.60
   3  -5   0   52.39    6.00
  -3   5   0   59.89    5.80
   3   5   0   60.99    6.00
   3   5   0   60.39    7.00
   5  -5   0   19.90    4.50
   5   5   0   16.10    3.00
   5   5   0   20.20    4.30
   5  -5   0   15.70    3.00
   5  -5   0    9.10    3.10
   5   5   0   14.80    4.10
  -5  -5   0   16.80    3.20
   5  -5   0   15.80    2.80
  -5   5   0   12.70    2.60
   5   5   0   14.20    2.80
  -5   5   0   10.70    4.30
   7   5   0    0.70    1.10
   7  -5   0    2.00    1.50
   7  -5   0    0.00    1.20
  -7   5   0    2.00    1.90
   9  -5   0    0.90    3.40
   9   5   0   -2.30    1.10
   9   5   0    3.50    1.60
   9  -5   0   -1.20    1.30
   9  -5   0   -0.70    1.30
   9   5   0    5.10    3.30
   0   6   0  999.90   84.99
  -2   6   0 2007.30  180.18
  -2  -6   0 1898.81  275.17
   2   6   0 2303.57  253.07
   2  -6   0 2550.84  280.87
   2  -6   0 2474.25  339.67
   2  -6   0 1955.50  179.38
  -2  -6   0 1727.13  238.78
   4   6   0  579.74   51.19
  -4   6   0  610.44   54.69
   4   6   0  510.05   50.99
  -4   6   0  672.43   52.59
   4   6   0  598.84   53.19
  -4  -6   0  598.44   51.99
   4  -6   0  529.85   50.59
   4  -6   0  612.94   51.59
  -4   6   0  622.14   51.19
   6   6   0  427.16   40.60
  -6   6   0  413.86   40.70
  -6  -6   0  453.45   41.90
   6   6   0  440.86   44.00
   6  -6   0  489.75   41.40
   6   6   0  507.55   41.40
   6  -6   0  431.36   41.80
   6   6   0  465.25   44.50
   6  -6   0  461.35   40.60
   8   6   0  117.09   13.60
   8   6   0  125.39   16.40
   8  -6   0  113.19   13.40
  -8   6   0  120.39   16.60
   8   6   0  116.69   14.30
  10  -6   0   72.69   10.40
  10  -6   0   62.99   10.70
  10   6   0   78.59   13.60
  10   6   0   80.79   11.40
  10   6   0   95.29   11.50
   1   7   0   67.49    6.80
  -1  -7   0   67.09    5.70
   1   7   0   52.69    5.90
   1  -7   0   59.29    6.10
  -1   7   0   51.79    6.90
  -1   7   0   64.09    6.00
  -1   7   0   74.89    6.50
  -1  -7   0   49.99    6.00
   1   7   0   62.39    7.20
   1  -7   0   52.99    6.10
   1   7   0   63.09    5.80
   1  -7   0   57.09    6.80
  -3   7   0  117.99   10.80
   3   7   0  120.09   12.00
  -3  -7   0   99.49   11.20
  -3   7   0  106.69   11.50
   3   7   0  112.59   10.80
   3   7   0  120.29   11.10
  -3   7   0  113.69   13.50
   3  -7   0  110.89   10.50
   3  -7   0  115.19   11.30
   3  -7   0  141.59   13.60
  -5   7   0    2.00    1.20
   5  -7   0    2.60    1.10
  -5   7   0    0.50    1.60
   5   7   0    2.00    2.10
   5  -7   0    1.50    1.50
   5  -7   0    1.30    1.30
   5   7   0    1.10    1.00
  -5  -7   0    1.10    1.10
   5   7   0    2.10    1.40
   5   7   0   -0.40    1.30
   7  -7   0    0.60    1.00
   7   7   0    2.20    1.40
   7   7   0    3.90    2.30
  -7   7   0    1.80    1.60
  -7  -7   0    1.90    1.40
   9   7   0    2.70    2.00
   9   7   0    7.10    3.50
   9  -7   0    5.60    2.60
   9   7   0    2.10    2.70
   0  -8   0   76.59    7.90
   0   8   0   82.09    8.30
   0   8   0   89.09    8.60
   0  -8   0   79.99    7.80
   0  -8   0   77.19    8.50
   0   8   0   76.69    7.80
   2  -8   0 1735.83  150.38
   2   8   0 1789.52  150.68
   4   8   0  600.24   60.29
   4   8   0  774.12   64.09
   4  -8   0  666.03   59.89
  -4   8   0  623.64   61.09
  -4   8   0  777.92   64.79
   4  -8   0  730.23   60.99
   4   8   0  745.23   60.49
  -4   8   0  745.73   60.39
  -4  -8   0  711.93   61.39
   4   8   0  672.93   62.19
   6   8   0  539.95   51.99
  -6   8   0  541.75   53.09
   6   8   0  573.24   49.00
   6   8   0  619.64   53.09
   6  -8   0  560.14   48.40
  -6   8   0  543.25   48.90
   6  -8   0  578.54   49.50
   6   8   0  499.15   48.60
  -6  -8   0  519.25   49.99
   8   8   0   96.89   11.40
   8  -8   0   93.49   11.50
  -8   8   0   93.79   14.20
   8   8   0   98.79   14.50
  10  -8   0   79.49   11.80
  -1  -9   0  358.56   31.10
  -1   9   0  380.96   32.00
   1   9   0  305.67   32.20
  -1   9   0  383.16   33.30
   1   9   0  396.06   31.60
   1   9   0  325.57   32.80
  -1   9   0  391.26   31.70
   1   9   0  334.57   31.60
   1  -9   0  390.76   32.80
   1  -9   0  371.86   32.00
  -1  -9   0  349.27   31.70
   3   9   0  278.67   26.50
  -3   9   0  312.67   27.30
   3   9   0  323.37   26.10
  -3  -9   0  310.27   27.20
   3  -9   0  261.27   26.70
   3  -9   0  281.77   25.90
  -3   9   0  315.67   26.20
   5  -9   0   30.40    4.80
   5   9   0   22.70    6.40
   5   9   0   56.39   10.10
   5  -9   0   32.90    4.20
   5   9   0   41.90    4.90
   5   9   0   38.80    4.90
   5   9   0   35.10    6.30
  -5   9   0   26.40    6.40
  -5  -9   0   39.50    5.70
  -7  -9   0    5.40    2.30
  -7   9   0   11.60    4.80
   7  -9   0   18.00    3.40
   7   9   0    9.60    4.50
   7   9   0    8.40    2.80
   9   9   0    4.80    4.20
   9   9   0   13.90    5.10
   9  -9   0   15.90    3.40
   0 -10   0  262.87   24.90
   0 -10   0  286.57   25.00
   0  10   0  294.97   25.80
   0  10   0  296.37   25.80
   0 -10   0  264.67   25.80
   2 -10   0  504.65   41.60
   2  10   0  448.56   43.60
   2 -10   0  466.55   43.20
  -2  10   0  489.85   41.20
   2  10   0  517.25   41.20
   2  10   0  461.15   41.60
  -2 -10   0  518.95   41.30
  -2 -10   0  477.65   41.90
   2 -10   0  491.25   42.00
  -2  10   0  427.86   43.70
   2  10   0  528.75   43.00
  -2  10   0  400.26   41.80
   4  10   0 1077.49   96.69
   4 -10   0 1129.79   94.09
  -4 -10   0 1070.99   94.39
   4  10   0 1123.69   93.69
   4  10   0 1061.09   95.09
   4 -10   0 1107.19   92.99
   6  10   0  395.66   44.20
   6  10   0  495.45   45.00
  -6 -10   0  547.45   43.50
   6 -10   0  440.96   41.50
   6  10   0  468.85   41.20
   6  10   0  438.66   41.70
   6 -10   0  448.76   40.50
   8 -10   0  150.48   16.50
   8  10   0  176.08   20.60
   8  10   0  166.08   16.80
  -8  10   0  131.19   19.40
   1  11   0   -0.50    0.40
  -1  11   0   -0.70    0.50
   1 -11   0   -0.40    0.30
   1  11   0    0.00    0.60
  -1 -11   0    0.70    0.50
  -1  11   0    0.60    0.80
  -1 -11   0    0.50    0.50
   1  11   0   -0.30    0.50
  -1  11   0    0.90    0.50
   1  11   0    0.40    0.60
   1 -11   0    0.80    0.70
  -3  11   0  199.78   20.20
   3  11   0  243.88   20.10
   3 -11   0  213.38   19.30
   3  11   0  185.18   21.70
  -3  11   0  229.68   19.20
  -3 -11   0  204.08   20.10
  -3  11   0  232.08   23.20
   3  11   0  206.58   18.90
  -3 -11   0  235.58   20.40
   3 -11   0  186.08   19.80
  -5  11   0    1.50    1.40
   5 -11   0    1.60    1.00
   5  11   0    5.30    2.50
  -5  11   0    2.30    2.20
   5  11   0    3.90    1.50
   5  11   0    5.10    1.90
   5 -11   0    3.10    1.00
   5  11   0    6.10    2.80
  -5 -11   0    2.10    1.40
  -7  11   0   -1.90    1.60
   7 -11   0    1.30    1.30
   7  11   0    2.00    2.80
   9 -11   0    0.40    1.60
   9  11   0   -0.20    2.60
  -9  11   0    1.80    2.30
   0 -12   0  633.94   54.59
   0  12   0  638.24   55.59
   0  12   0  562.84   55.19
   0 -12   0  691.23   54.79
   2  12   0  888.41   67.69
   2 -12   0  799.32   67.79
   2 -12   0  740.13   68.99
  -2 -12   0  893.51   67.89
   2  12   0  867.81   68.99
   2  12   0  704.73   69.29
  -2  12   0  740.73   69.99
  -2  12   0  709.13   67.79
  -2  12   0  763.52   66.89
   2  12   0  790.12   66.99
   2 -12   0  776.82   67.59
  -2 -12   0  745.63   66.79
   4  12   0  505.25   42.30
  -4  12   0  512.25   46.60
   4 -12   0  510.05   45.10
  -4  12   0  471.85   41.40
  -4 -12   0  506.25   43.10
   4  12   0  470.25   41.30
   4 -12   0  441.86   41.30
   4  12   0  463.45   43.40
   4 -12   0  484.65   42.50
   4  12   0  415.26   44.70
   6  12   0  296.07   34.40
   6 -12   0  327.17   31.60
   6  12   0  363.16   31.20
   6  12   0  328.97   34.40
  -6  12   0  383.26   36.90
  -6 -12   0  328.47   32.90
   6 -12   0  365.96   32.10
  -8  12   0  133.59   18.20
   8 -12   0  114.99   14.10
   8  12   0  151.48   18.10
   8  12   0  127.79   14.10
  -1 -13   0  101.29   10.20
   1 -13   0  117.79   11.80
   1  13   0  114.79   11.30
   1  13   0  101.99   10.70
   1 -13   0  126.29   11.20
  -1  13   0  102.19   12.40
  -1  13   0  117.39   11.20
   1 -13   0  100.69   11.40
  -1 -13   0   87.49   10.60
  -1  13   0  122.09   11.30
   1  13   0  112.79   11.70
   1  13   0  105.09   12.10
  -3 -13   0   78.99    8.20
   3  13   0   53.99    7.20
   3  13   0   70.49    9.60
   3  13   0   69.09    7.00
  -3  13   0   59.89    9.70
  -3  13   0   74.19    8.20
   3 -13   0   62.49    7.60
   3 -13   0   66.09    7.30
   5  13   0    1.80    1.60
   5  13   0    2.80    2.20
   5 -13   0    2.50    1.50
  -5 -13   0    3.90    2.10
   5 -13   0    3.10    1.40
   5  13   0    3.60    1.40
   5  13   0    2.80    1.40
  -5  13   0    1.80    2.30
  -7  13   0    3.10    2.90
  -7 -13   0    1.90    2.90
   7  13   0    2.90    1.60
   7 -13   0    2.10    1.40
   7  13   0    2.00    1.80
   9 -13   0   -1.60    1.30
  -9  13   0   -1.30    1.70
   9  13   0    0.00    1.90
   0 -14   0  634.94   53.89
   0 -14   0  579.14   53.59
   0  14   0  638.54   55.19
   0  14   0  626.54   54.69
   2  14   0 1007.60   80.99
  -2  14   0  979.50   84.19
  -2 -14   0 1018.40   81.49
   2  14   0 1005.40   81.09
   2  14   0  902.81   83.09
  -2  14   0  824.22   81.19
   2 -14   0  972.60   81.59
   2 -14   0  849.41   82.59
   2 -14   0  893.31   81.09
  -2  14   0  980.60   80.69
   4  14   0  212.38   22.80
   4  14   0  222.28   25.60
  -4  14   0  295.97   28.10
  -4 -14   0  272.37   24.20
   4 -14   0  272.17   23.70
   4 -14   0  238.98   22.50
   4  14   0  241.68   22.30
   6  14   0  224.68   26.80
   6 -14   0  256.07   24.10
   6  14   0  233.08   23.00
  -6  14   0  304.17   29.70
   8 -14   0  100.39   11.80
   8  14   0   80.89   13.70
  -8  14   0  115.79   16.20
   1 -15   0   14.70    2.70
   1  15   0    7.90    2.40
   1 -15   0   16.50    3.50
   1  15   0   13.20    2.90
  -1  15   0   16.30    2.80
   1  15   0   15.00    3.10
  -1  15   0   12.50    2.70
   1  15   0   17.50    3.70
  -1 -15   0   12.20    2.60
  -1  15   0   14.90    4.40
  -3  15   0   11.70    4.40
   3  15   0   21.00    4.40
   3  15   0   16.70    3.00
   3 -15   0   15.60    3.00
  -3  15   0   18.00    3.60
   3  15   0   18.50    2.80
  -3 -15   0   10.70    3.30
   3 -15   0   14.20    3.00
   5  15   0    0.30    0.70
  -5  15   0    7.30    3.70
   5 -15   0    0.00    0.80
   5  15   0   -0.60    1.10
  -5 -15   0   -0.80    1.00
   5 -15   0    0.80    0.90
   7  15   0    1.50    1.10
   7  15   0    2.20    1.20
   7 -15   0    0.80    1.10
   9 -15   0   -1.80    1.60
  -9  15   0   -2.70    1.50
   9  15   0   -1.50    2.30
   0 -16   0 1351.96  107.99
   0  16   0 1167.48  108.49
   0 -16   0 1237.58  107.89
   0  16   0 1333.07  108.99
   0  16   0 1224.48  109.39
  -2  16   0  445.86   38.90
   2 -16   0  451.25   39.80
   2 -16   0  422.86   39.00
  -2  16   0  429.66   42.00
   2  16   0  452.55   41.40
   2  16   0  410.76   38.80
  -2 -16   0  406.46   39.10
   2  16   0  487.05   39.50
   4  16   0  264.87   27.70
  -4 -16   0  279.57   25.80
   4 -16   0  253.77   24.90
   4  16   0  273.37   24.30
   4 -16   0  258.27   24.40
  -4  16   0  262.77   28.90
   6  16   0   94.29   10.30
  -6  16   0   99.79   14.80
   6  16   0  102.29   13.80
  -8  16   0  120.59   16.80
   8  16   0   87.09   14.00
   8 -16   0  107.09   12.30
  -1  17   0    8.60    2.60
  -1 -17   0   14.10    2.80
   1  17   0   15.50    3.50
  -1  17   0   15.00    4.80
   1  17   0   13.30    2.80
   1 -17   0   18.70    3.20
   1  17   0   10.00    3.30
  -1 -17   0   15.10    2.40
  -1  17   0   16.60    3.10
  -3  17   0   14.40    5.70
  -3 -17   0   14.60    3.30
   3  17   0   19.10    3.30
   3 -17   0   18.90    3.70
   3 -17   0   21.10    3.60
   3  17   0   15.70    4.90
   5  17   0    0.30    1.40
  -5 -17   0    1.40    1.10
   5 -17   0    0.10    1.10
  -5  17   0   -1.80    1.10
   5  17   0    1.30    0.90
   7  17   0    8.20    3.30
   7 -17   0   -0.10    0.80
  -7  17   0    2.20    2.70
   0 -18   0  797.32   71.59
   0  18   0  829.82   72.89
   0  18   0  798.82   72.29
   0  18   0  877.81   73.89
  -2  18   0  339.17   32.30
  -2 -18   0  275.27   28.40
   2  18   0  285.77   30.60
   2  18   0  313.17   29.20
  -2  18   0  331.07   28.60
   2 -18   0  318.27   28.60
  -4  18   0  236.08   28.30
   4 -18   0  251.77   24.40
   4  18   0  276.17   24.40
   4  18   0  302.77   28.20
  -4 -18   0  239.98   25.10
   6 -18   0   68.09    9.20
  -6  18   0   84.39   13.20
   6  18   0   92.49   12.30
   8 -18   0   83.39   10.70
   8  18   0   99.79   14.30
  -1  19   0   58.69    8.60
   1 -19   0   37.10    5.70
   1  19   0   52.99    7.40
  -1  19   0   44.30    6.20
  -1 -19   0   44.20    6.00
  -1 -19   0   43.30    5.40
   1  19   0   37.00    6.50
  -3 -19   0    1.30    1.20
   3  19   0    2.50    1.60
   3  19   0    5.40    2.00
   3 -19   0    4.00    1.70
  -3 -19   0    2.80    1.40
   5 -19   0   16.80    4.40
  -5  19   0   14.80    5.70
   5  19   0   14.10    4.90
   5  19   0   13.80    3.00
   7  19   0    7.90    3.90
  -7  19   0   16.90    5.50
   7 -19   0    9.10    2.90
   0  20   0  306.37   29.80
   0 -20   0  338.57   29.00
   0 -20   0  295.57   28.50
   0  20   0  297.77   30.80
   2  20   0  394.76   36.10
  -2  20   0  366.66   38.40
  -2  20   0  352.06   35.00
   2  20   0  377.26   37.10
  -2 -20   0  391.76   35.20
   2 -20   0  446.86   35.40
  -2 -20   0  356.76   34.00
   4 -20   0  115.79   13.50
   4  20   0  124.69   15.00
   4  20   0  134.29   16.40
  -4  20   0  157.78   18.60
  -4 -20   0  137.09   14.60
  -6  20   0  117.89   17.80
   6 -20   0  144.09   15.00
   6  20   0  148.19   18.00
   8 -20   0   60.19    8.50
  -8  20   0   55.89   10.90
   1 -21   0    3.20    1.50
  -1  21   0    1.70    2.80
   1  21   0    2.80    1.70
  -1 -21   0    4.00    1.60
   1 -21   0    2.20    1.50
  -1 -21   0    8.70    2.70
   1  21   0    1.40    1.70
  -3 -21   0   13.80    4.10
  -3  21   0   26.00    8.20
   3  21   0   10.50    3.70
   3 -21   0   22.00    3.80
   3  21   0   21.30    4.30
  -5  21   0    3.10    1.80
   5  21   0    2.90    1.80
   5 -21   0    3.40    1.50
   7  21   0    0.80    1.90
   7 -21   0    1.10    1.40
   0  22   0  241.78   26.60
   0 -22   0  260.37   24.40
  -2  22   0  241.98   24.60
   2  22   0  217.88   21.50
   2  22   0  220.98   22.20
  -2 -22   0  172.78   19.60
   2 -22   0  175.88   19.40
   4  22   0  182.58   20.10
  -4  22   0  185.58   21.50
  -4 -22   0  140.59   16.90
   4 -22   0  154.18   16.50
   6 -22   0  103.09   11.40
   6  22   0  109.49   14.20
  -6  22   0   74.69   14.10
   1  23   0    8.80    3.50
   1 -23   0    6.10    2.40
  -1  23   0    5.90    3.40
  -1 -23   0    2.90    1.60
  -3 -23   0    0.50    1.00
   3  23   0    1.90    1.50
  -3  23   0   -3.10    1.70
   3 -23   0   -0.20    0.70
   5 -23   0    0.20    1.00
   5  23   0    0.10    1.50
  -5  23   0   -1.60    1.80
   7  23   0    1.80    1.90
  -7  23   0   -0.20    1.50
   7 -23   0    1.40    1.40
   0 -24   0   70.79    9.20
   0  24   0   91.99   12.60
   2 -24   0  158.58   18.00
   2  24   0  192.48   20.60
  -2  24   0  176.58   22.30
  -2 -24   0  179.98   18.40
   2  24   0  204.78   20.80
  -4 -24   0  118.29   14.00
  -4  24   0  129.19   17.90
   4  24   0  129.69   16.00
   4 -24   0  118.19   13.30
   6  24   0  110.69   14.40
   6 -24   0  100.79   11.80
  -6  24   0   97.69   15.80
   1 -25   0   37.10    5.40
   1  25   0   41.90    7.90
  -1  25   0   34.10    9.50
  -1 -25   0   28.30    5.10
  -3  25   0   14.40    5.10
  -3 -25   0   15.20    4.60
  -5  25   0    3.90    3.90
   5 -25   0   12.50    3.70
   0  26   0  177.58   23.40
   0 -26   0  218.28   20.50
  -2  26   0   77.69   12.60
   2 -26   0   61.59    8.00
  -2 -26   0   57.99    8.10
   4 -26   0  139.19   15.00
  -4  26   0  143.29   20.00
   6 -26   0   46.70    6.40
  -6  26   0   34.80   10.90
  -1  27   0    5.30    3.40
  -1 -27   0    7.50    2.50
   1 -27   0    8.00    2.70
  -3  27   0    2.70    3.40
   5 -27   0    0.50    1.40
   5  27   0    2.70    3.00
  -5  27   0    1.50    4.60
   0  28   0  183.38   23.50
   0 -28   0  193.58   19.50
  -2  28   0   45.60   10.00
   2 -28   0   51.19    7.20
   4 -28   0  115.69   12.50
  -4  28   0   89.29   16.30
  -1  29   0    9.70    5.70
  -1 -29   0   18.30    3.40
   1 -29   0   14.60    4.60
  -3  29   0    5.40    4.20
   3 -29   0    3.70    1.50
   0 -30   0   19.30    4.00
  -2  30   0  138.49   19.30
  -2 -30   0  111.69   13.80
   2 -30   0  113.79   13.40
  -1 -31   0    6.60    2.50
   1 -31   0    0.40    1.50
   0 -32   0   66.99    8.90
   0   0   1    0.00    0.10
   0   0   1   -0.10    0.10
  -2   0   1 4125.49  392.66
   2   0   1 4482.15  420.66
  -2   0  -1 4745.73  403.26
   2   0   1 4608.14  410.16
  -2   0  -1 4944.01  412.66
   2   0  -1 4461.15  396.06
   2   0  -1 4018.40  389.26
   4   0   1  292.77   25.60
   4   0   1  248.28   27.40
   4   0  -1  237.88   26.90
  -4   0  -1  275.37   26.00
   4   0  -1  313.37   26.20
  -4   0   1  324.97   28.10
  -4   0   1  323.57   26.30
   4   0   1  267.97   25.60
   4   0  -1  265.97   25.70
   6   0   1  305.27   29.20
  -6   0  -1  374.96   30.50
   6   0   1  333.97   29.40
   6   0  -1  299.97   29.40
   6   0  -1  308.57   29.50
   6   0  -1  314.37   29.50
  -6   0   1  351.46   32.40
   6   0  -1  332.17   32.10
   6   0   1  279.57   29.70
   6   0   1  270.77   31.60
   6   0   1  304.87   29.40
   8   0  -1  261.27   27.50
   8   0  -1  266.37   25.40
   8   0  -1  247.28   24.40
   8   0   1  243.58   24.20
   8   0   1  196.28   24.00
  10   0  -1   82.49   10.80
  10   0  -1   74.09   13.60
  10   0   1   80.89   11.30
  10   0   1   64.89   13.50
  10   0  -1   74.59   11.20
  10   0   1   82.49   11.30
   1  -1   1  116.39   10.50
  -1  -1  -1  118.69   10.20
  -1   1   1  103.99   10.90
  -1  -1  -1  128.79   10.70
  -1  -1  -1  137.39   10.70
   1   1  -1  114.69   10.60
   1  -1   1  100.59   11.00
   1  -1   1  128.19   10.30
   1   1  -1  106.39   10.80
   1   1  -1  121.59   10.60
  -1   1  -1  117.49   10.50
  -1  -1   1  123.59   10.60
  -1  -1   1  123.09   10.70
  -1   1  -1   96.59   10.90
   1   1   1  119.19   10.20
   1   1   1  136.19   10.60
  -1  -1   1  119.19   10.90
   1  -1  -1  119.99   10.70
   1   1   1   99.69   10.50
   1  -1  -1  121.49   10.40
  -1   1  -1  117.59   10.30
   1  -1  -1  122.49   10.30
   1  -1  -1  113.49   10.90
   3   1  -1   57.89    6.40
   3   1  -1   66.19    7.40
   3  -1   1   55.69    6.20
  -3   1   1   60.29    6.30
  -3  -1  -1   69.79    6.80
  -3  -1  -1   56.69    6.20
  -3   1   1   50.89    7.30
   3  -1   1   59.29    6.10
   3  -1   1   66.49    6.50
   3   1  -1   56.19    6.50
  -3  -1   1   71.29    6.80
  -3   1  -1   51.49    6.30
  -3  -1   1   58.39    6.60
  -3   1  -1   47.50    7.20
   3   1   1   59.79    6.20
  -3  -1   1   59.59    7.30
   3  -1  -1   68.29    7.70
   3   1   1   44.60    7.00
   3  -1  -1   69.79    6.90
   3  -1  -1   49.50    6.30
   3  -1  -1   54.69    6.10
   3   1   1   42.90    7.40
   5   1  -1    4.90    2.00
  -5  -1  -1    6.20    2.30
   5  -1   1    7.20    2.30
   5   1  -1    7.70    3.30
   5  -1   1    8.50    3.50
   5  -1   1    4.70    1.90
  -5   1   1    5.20    2.60
   5   1  -1    5.10    1.90
  -5   1   1    6.90    2.50
   5  -1   1    4.20    1.70
   5  -1  -1    4.60    1.90
   5   1   1    3.70    1.60
   5  -1  -1    5.80    2.30
  -5   1  -1    4.30    1.80
   5   1   1    2.60    1.50
   5  -1  -1    5.60    1.90
   5   1   1    6.50    2.50
   5  -1  -1   10.50    3.10
  -5   1  -1    3.70    2.50
   5   1   1    4.90    2.40
  -5  -1   1    3.70    2.00
   5   1   1    2.40    1.30
   7  -1   1   -0.20    0.80
   7  -1   1    0.70    1.80
   7   1  -1    1.70    2.10
   7  -1   1   -0.20    1.30
   7   1  -1    0.80    2.30
   7   1  -1   -0.40    0.60
   7  -1  -1    1.20    1.40
   7  -1  -1    6.00    3.00
   7  -1  -1    1.70    1.50
   7   1   1    0.60    1.00
   7   1   1    1.50    1.20
   7   1   1    1.40    1.70
   9  -1   1    0.30    1.20
   9  -1   1   -0.40    1.30
   9   1  -1    3.00    1.40
   9  -1   1    5.90    3.10
   9   1  -1   -2.40    1.80
   9   1  -1    3.00    2.20
   9  -1  -1    2.00    1.70
   9  -1  -1   -0.80    2.40
   9   1   1    0.60    1.40
   9   1   1    1.70    1.90
   9   1   1    1.20    3.30
   9  -1  -1   -0.20    1.30
   0   2  -1 2219.48  228.28
   0  -2   1 2021.50  200.78
   0  -2  -1 1796.42  200.38
   2  -2   1  709.43   67.29
   2   2  -1  679.13   66.19
  -2  -2  -1  771.22   65.89
  -2   2   1  870.71   67.69
   2   2  -1  761.32   66.59
   2   2   1  833.62   67.19
  -2  -2   1  841.82   66.69
  -2  -2   1  699.93   66.09
   2   2   1  688.73   66.19
   2  -2  -1  890.61   67.39
  -2   2  -1  817.82   67.59
   4  -2   1 1091.99   95.89
   4   2  -1 1148.19   97.69
  -4  -2  -1 1149.19   95.89
  -4   2   1 1009.50   97.79
   4  -2   1 1139.29   95.59
  -4  -2  -1 1204.38   96.49
   4  -2   1 1057.79   95.59
   4  -2   1  984.40   97.79
  -4  -2   1  992.20   95.99
   4   2   1 1188.08   95.59
   4   2   1 1165.18   98.19
   4  -2  -1 1201.78   96.49
  -4  -2   1 1198.68   97.59
   4  -2  -1 1069.89   97.59
  -4   2  -1 1216.18   98.49
   6  -2   1  125.79   12.40
  -6  -2  -1  105.99   12.60
   6  -2   1  111.79   12.20
  -6   2   1  112.99   14.60
   6   2  -1  116.69   14.40
   6   2  -1  117.89   12.30
   6   2  -1  116.59   12.80
   6  -2   1  116.59   12.50
   6   2  -1  130.29   14.90
   6  -2  -1  107.79   12.00
  -6   2  -1  127.79   12.80
   6   2   1   97.69   12.20
   6   2   1   86.69   13.90
   6  -2  -1  117.19   12.40
   6   2   1  106.69   11.80
   6  -2  -1   95.69   13.70
   6  -2  -1  100.79   12.30
   6   2   1  130.59   13.00
   6   2   1  118.69   12.50
   8   2  -1  314.17   28.50
   8   2  -1  279.07   28.30
   8  -2   1  261.07   27.30
   8   2  -1  301.67   31.30
   8  -2   1  318.97   29.00
   8   2   1  288.17   27.90
   8   2   1  246.28   27.50
   8  -2  -1  261.77   29.90
   8  -2  -1  287.07   27.80
  10  -2   1   79.69   10.60
  10  -2   1   35.30   13.50
  10   2  -1   60.39   12.10
  10   2  -1   61.19    9.90
  10   2  -1   78.19   10.50
  10  -2   1   55.79    9.60
  10  -2  -1   72.09    9.90
  10   2   1   57.39   12.60
  10  -2  -1   59.39   10.00
  10   2   1   74.39   12.00
  10   2   1   69.99   10.20
   1  -3   1  712.23   61.19
   3   3  -1   26.10    4.20
   3  -3   1   27.20    3.40
   3  -3   1   26.80    4.70
  -3  -3  -1   21.00    3.50
   3   3  -1   20.60    4.20
  -3   3   1   22.00    4.50
  -3   3   1   26.40    3.20
   3   3  -1   27.20    3.50
   3  -3   1   25.30    3.30
  -3  -3  -1   28.00    3.50
   3   3   1   25.00    3.20
   3  -3  -1   23.60    4.20
   3   3   1   17.90    3.40
   3  -3  -1   29.60    3.30
   3   3   1   25.60    4.20
  -3  -3   1   30.40    3.90
   3  -3  -1   32.70    4.20
  -3   3  -1   23.30    3.40
   3   3   1   24.90    3.40
  -3  -3   1   28.40    4.20
  -3   3  -1   29.80    4.90
   3  -3  -1   28.50    3.70
  -5  -3  -1    9.30    2.70
   5  -3   1   12.90    3.40
   5  -3   1   10.20    2.20
  -5   3   1    9.60    3.40
   5  -3   1    4.10    2.00
  -5   3   1    4.10    1.70
  -5  -3  -1    9.00    2.70
   5   3  -1    7.00    2.10
   5   3  -1    5.50    2.20
   5   3  -1    8.40    3.70
   5  -3   1    6.90    2.20
  -5   3  -1    8.20    3.10
   5  -3  -1    9.30    2.70
   5  -3  -1    8.20    3.10
   5   3   1   10.40    2.10
   5   3   1   12.10    3.30
   5  -3  -1    6.60    2.00
   5   3   1   13.40    4.70
  -5   3  -1    7.00    2.40
  -5  -3   1    8.40    2.60
   5  -3  -1   11.10    3.00
   5   3   1   11.90    2.60
   7  -3   1   20.70    5.00
   7  -3   1   11.40    4.00
   7   3  -1   22.00    4.30
  -7   3   1   23.60    5.40
   7   3  -1   19.70    4.30
   7  -3   1   23.00    4.10
   7   3  -1   18.70    6.40
   7   3   1   16.20    3.60
   7  -3  -1   19.50    4.20
   7   3   1   23.70    4.20
   7  -3  -1   18.50    6.00
   7  -3  -1   27.40    4.50
   7   3   1   20.80    4.30
   9  -3   1    0.40    2.90
   9  -3   1   -1.20    1.10
   9   3  -1   -1.10    1.70
   9   3  -1    2.00    1.90
   9  -3   1   -1.30    1.40
   9   3  -1   -0.40    1.40
   9   3   1   -0.40    1.10
   9  -3  -1    1.00    1.30
   9  -3  -1    1.70    1.30
   9   3   1   -2.90    1.70
   9   3   1    0.00    2.30
   0  -4  -1 1183.78   92.89
   0  -4  -1  860.81  134.09
   0  -4   1  904.91  138.09
   0  -4   1  966.20  193.98
   0  -4   1 1195.28   92.99
   0   4   1 1019.20  169.28
   0   4  -1 1126.09   92.89
   2   4  -1 2516.65  271.97
   2  -4   1 2741.03  227.48
   2  -4   1 2935.91  300.07
  -2   4   1 2881.31  343.67
   2  -4   1 2286.57  325.77
  -2  -4  -1 2445.06  290.67
  -2  -4  -1 2992.40  279.27
   2   4  -1 2268.67  288.47
   2   4   1 2329.87  300.37
   2  -4  -1 3309.07  358.56
  -2   4  -1 2214.48  281.87
  -2   4  -1 3039.40  346.47
  -2  -4   1 2653.93  300.77
  -4  -4  -1  479.55   39.40
   4  -4   1  356.26   40.60
   4   4  -1  477.45   39.30
   4  -4   1  456.95   39.60
   4   4  -1  484.05   40.90
   4  -4   1  467.85   38.90
   4   4  -1  414.46   40.80
  -4  -4  -1  480.95   40.00
   4  -4   1  435.26   38.80
   4   4  -1  432.96   38.90
  -4   4   1  457.95   38.70
   4   4  -1  395.46   39.50
   4   4   1  470.15   39.90
  -4  -4   1  420.66   39.50
  -4   4  -1  428.46   38.90
   4   4   1  452.45   38.60
   4  -4  -1  438.56   38.50
   4   4   1  484.65   41.40
   4  -4  -1  422.36   39.10
   4  -4  -1  487.45   39.90
   4  -4  -1  393.26   40.60
   4   4   1  449.86   39.10
  -4   4  -1  363.66   40.80
   6  -4   1  442.26   40.60
   6   4  -1  421.76   42.30
   6  -4   1  462.95   39.90
   6   4  -1  434.06   40.30
   6   4  -1  471.35   41.10
   6   4  -1  404.66   42.20
  -6  -4  -1  419.56   40.90
  -6   4   1  388.26   42.50
   6   4  -1  429.16   39.80
   6  -4   1  451.35   39.90
   6   4   1  378.36   40.30
  -6   4  -1  509.25   40.70
   6   4   1  422.46   39.50
  -6  -4   1  470.65   41.10
   6  -4  -1  498.75   40.50
   6   4   1  467.55   40.40
   6  -4  -1  442.96   40.80
   6  -4  -1  455.45   39.60
  -6   4  -1  433.06   43.00
   6   4   1  417.96   42.90
  -8   4   1  129.09   18.60
   8   4  -1  153.28   16.70
   8   4  -1  156.18   17.00
   8   4  -1  145.39   19.20
   8  -4   1  140.09   16.20
   8  -4  -1  164.98   16.70
   8   4   1  171.28   17.00
   8   4   1  141.99   19.50
   8  -4  -1  148.69   18.50
   8   4   1  149.59   16.50
  10   4  -1  106.99   12.70
  10  -4   1   89.59   11.80
  10   4  -1   86.89   14.30
  10  -4   1   64.79   11.20
  10   4  -1   97.69   12.10
  10  -4  -1   90.49   11.70
  10   4   1   60.79   13.70
  10   4   1   87.59   11.80
  -1  -5  -1  437.06   38.70
   1   5  -1  486.65   38.90
   1  -5   1  504.65   38.90
  -1   5   1  468.75   40.00
  -1   5   1  444.16   39.00
   1  -5   1  454.35   38.80
   1  -5   1  468.45   39.90
   1   5  -1  484.25   39.90
  -1   5  -1  414.76   39.80
   1   5   1  393.06   38.60
  -1   5  -1  471.35   38.70
  -1   5  -1  445.46   38.90
   1  -5  -1  480.75   38.50
   1  -5  -1  475.75   39.00
   1  -5  -1  378.56   39.40
  -3   5   1  170.48   14.50
  -3  -5  -1  137.29   13.60
   3   5  -1  149.79   14.50
   3   5  -1  151.38   13.70
  -3   5   1  150.08   13.10
   3  -5   1  168.68   16.00
   3   5  -1  175.88   14.80
  -3  -5  -1  114.49   13.90
   3   5  -1  138.39   13.30
   3  -5   1  137.59   13.30
  -3   5   1  182.78   16.70
   3  -5   1  144.59   13.60
   3   5   1  130.89   13.30
  -3   5  -1  126.59   15.40
  -3   5  -1  144.19   13.60
   3  -5  -1  115.79   13.50
  -3   5  -1  126.29   13.60
  -3  -5   1  160.88   14.20
   3   5   1  172.98   14.80
   3   5   1  144.09   13.60
   3  -5  -1  140.09   12.90
   3   5   1  140.69   14.70
   5   5  -1    3.40    1.60
  -5   5   1    4.70    2.40
  -5   5   1    1.90    1.20
   5   5  -1    1.80    1.50
   5  -5   1    1.80    1.10
  -5  -5  -1    3.70    1.70
   5   5  -1    1.20    0.90
   5   5  -1    2.20    1.20
  -5  -5  -1    2.10    1.30
   5  -5   1    3.80    1.40
   5   5  -1    5.30    3.20
   5  -5   1    2.40    1.50
   5   5   1    3.20    1.20
  -5  -5   1    5.00    2.10
   5  -5  -1    2.60    1.70
   5   5   1    4.70    2.30
   5   5   1    3.40    1.50
   5  -5  -1    1.40    1.60
   5  -5  -1    4.50    1.60
   5  -5  -1    5.60    2.00
   5   5   1    1.40    1.20
  -5   5  -1    4.00    1.90
  -5   5  -1    1.20    1.40
  -7   5   1    4.20    2.40
   7   5  -1   14.70    3.40
   7   5  -1   12.50    5.30
   7  -5   1    9.00    3.10
   7  -5  -1    8.40    2.70
   7   5   1   15.10    3.40
   7  -5  -1    7.20    2.50
  -7   5  -1    6.50    3.80
   7   5   1   10.50    2.80
   9  -5   1    1.00    1.40
   9   5  -1    6.40    2.60
   9   5  -1    4.90    2.20
   9  -5   1    2.20    2.30
   9   5  -1    1.80    1.60
   9   5   1    0.90    2.50
   9  -5  -1   -2.90    3.30
   9  -5  -1    1.80    2.00
   9   5   1    2.70    2.30
   9   5   1    2.20    2.00
   0   6   1  342.37   28.80
   0  -6   1  338.87   28.90
   0  -6  -1  346.27   28.80
   0   6   1  354.46   29.20
   0   6  -1  332.67   28.70
   0  -6   1  308.97   28.70
   0  -6   1  310.27   29.30
   0   6  -1  340.27   29.30
   0  -6  -1  308.67   28.80
   0   6  -1  327.47   29.10
   0   6   1  354.46   29.30
   2   6  -1 1162.68   85.19
   2  -6   1  936.91   84.59
  -2  -6   1  998.40   83.39
  -2   6  -1  833.22   82.99
   4   6  -1 1025.10   85.49
   4   6  -1  996.30   83.79
  -4  -6  -1  992.00   84.19
  -4   6   1  941.91   83.09
  -4  -6  -1  969.00   84.89
   4  -6   1  970.10   83.89
   4  -6   1  968.10   83.39
  -4   6  -1 1067.59   84.59
   4  -6  -1  955.00   82.99
   4   6   1 1006.70   85.89
   4   6   1 1034.90   83.59
  -4   6  -1 1001.40   83.89
  -4  -6   1  902.61   84.29
   4  -6  -1  870.41   83.79
  -6   6   1  530.65   52.69
   6   6  -1  613.64   49.30
  -6  -6  -1  576.54   49.90
   6  -6   1  548.65   49.90
   6  -6   1  570.34   49.00
   6   6  -1  535.95   48.70
   6   6  -1  548.25   51.89
   6  -6   1  515.65   48.40
   6   6  -1  501.05   51.49
  -6   6  -1  477.35   51.79
   6  -6  -1  461.05   49.50
   6  -6  -1  557.54   48.40
  -6   6  -1  577.14   49.40
  -6  -6   1  581.84   50.29
   6   6   1  535.65   52.09
   6   6   1  592.94   49.30
   6  -6  -1  592.34   49.40
   6   6   1  562.24   48.70
   8   6  -1  145.79   18.60
  -8   6   1  114.49   17.70
   8   6  -1  139.29   15.70
   8  -6   1  147.89   15.80
   8  -6  -1  174.98   16.30
   8   6   1  147.49   15.90
   8  -6  -1  125.69   17.20
   8   6   1  152.68   18.90
   8   6   1  129.29   15.80
  10   6  -1   72.79    9.80
  10  -6   1   46.00    9.20
  10  -6   1   46.40    8.80
  10   6  -1   68.99   12.30
  10   6  -1   61.49   10.10
  10   6   1   55.69   11.70
  10  -6  -1   82.09   10.10
  10  -6  -1   85.99   11.30
  10   6   1   56.69    9.20
   1  -7   1  487.55   37.60
  -1  -7  -1  413.06   35.90
   1   7  -1  447.86   37.60
   1  -7   1  437.76   36.50
   1   7  -1  420.96   35.80
  -1   7   1  478.55   36.70
   1   7  -1  432.96   36.40
  -1   7   1  373.46   37.30
   1  -7   1  458.55   36.40
  -1   7   1  408.46   35.90
  -1  -7  -1  361.36   36.10
   1  -7  -1  450.85   36.50
   1  -7  -1  393.86   36.10
   1   7   1  381.96   36.10
   1   7   1  374.26   36.60
  -1  -7   1  393.06   35.50
   1  -7  -1  373.26   37.00
  -1  -7   1  457.75   36.50
  -1  -7   1  453.95   37.80
  -1   7  -1  467.95   36.50
   1   7   1  420.26   36.10
  -1   7  -1  431.36   36.30
  -1   7  -1  369.96   37.30
   3   7  -1  339.37   29.40
  -3  -7  -1  383.76   30.90
   3  -7   1  319.07   28.90
   3   7  -1  313.27   29.90
   3   7  -1  307.77   28.70
   3  -7   1  294.37   29.20
  -3   7   1  367.16   32.60
   3  -7   1  369.86   32.00
  -3   7   1  335.57   28.50
   3   7  -1  344.77   31.60
   3   7  -1  366.26   30.60
  -3  -7  -1  318.27   29.50
  -3   7  -1  337.17   29.70
  -3  -7   1  317.27   29.70
   3   7   1  350.36   30.50
   3   7   1  307.17   28.90
   3  -7  -1  311.97   28.30
  -3   7  -1  325.17   29.10
   3  -7  -1  343.27   29.80
   3   7   1  305.47   29.00
   3  -7  -1  353.96   31.50
  -5  -7  -1   54.89    7.00
   5  -7   1   42.90    7.40
   5   7  -1   45.80    5.60
   5   7  -1   45.00    7.20
   5  -7   1   47.30    5.80
   5   7  -1   50.29    5.70
  -5   7   1   31.90    6.90
   5  -7   1   41.50    5.20
   5   7  -1   30.50    6.30
  -5  -7  -1   43.30    5.90
  -5   7  -1   31.80    6.90
   5   7   1   34.60    4.90
  -5   7  -1   38.00    5.50
   5  -7  -1   39.30    4.80
   5   7   1   32.70    6.70
   5  -7  -1   39.30    7.00
   5   7   1   43.20    5.50
   5   7   1   47.30    6.50
   5  -7  -1   43.20    5.80
   5  -7  -1   42.40    6.40
  -5  -7   1   47.90    6.30
   7   7  -1    4.40    2.40
   7   7  -1   -0.30    1.60
  -7   7   1    3.10    3.10
   7   7  -1    5.90    2.80
   7  -7   1    0.70    1.10
  -7  -7   1    2.30    1.30
   7  -7  -1    0.50    1.10
   7   7   1    3.60    2.40
  -7   7  -1    2.90    1.60
   7   7   1    3.20    1.80
   9   7  -1    7.60    5.20
   9  -7   1    6.00    2.30
   9   7  -1    2.20    2.00
   9  -7   1    6.10    2.70
   9   7  -1    8.50    3.00
   9   7   1    2.40    1.90
   9   7   1    4.00    2.20
   9  -7  -1    2.80    1.90
   9   7   1    4.40    2.40
   0   8  -1  352.76   32.10
   0   8   1  389.66   32.30
   0   8  -1  368.16   32.30
   0   8   1  368.96   31.90
   0   8   1  391.96   32.40
   0   8   1  303.97   31.60
   0  -8  -1  351.76   31.70
   0  -8   1  372.96   31.80
   0  -8   1  320.67   31.60
   0  -8  -1  381.46   31.80
   0  -8   1  423.36   32.80
   2   8  -1  999.90   79.09
  -2  -8   1  815.82   76.99
  -4   8   1  797.62   76.79
  -4  -8  -1  875.51   77.59
  -4   8   1  912.51   75.39
   4   8  -1  841.42   76.09
  -4  -8  -1  931.81   76.79
   4  -8   1  919.21   76.39
   4  -8   1  893.81   75.79
   4   8  -1  906.61   77.59
   4   8  -1  911.11   75.79
   4   8   1  939.81   76.09
   4   8   1  853.11   75.89
  -4   8  -1  879.91   76.79
   4  -8  -1  908.81   75.19
   4  -8  -1  841.92   76.59
  -4   8  -1  892.51   79.89
  -4  -8   1  835.32   76.79
  -4   8  -1  913.31   76.19
   4   8   1  905.71   78.19
   6   8  -1  474.55   44.90
  -6   8   1  503.55   49.50
   6   8  -1  459.35   47.30
   6   8  -1  557.34   45.40
   6   8  -1  455.25   48.00
   6  -8   1  495.45   45.10
   6  -8   1  468.45   44.60
  -6  -8  -1  479.05   46.00
  -6   8  -1  558.14   45.70
   6   8   1  503.65   45.20
  -6  -8   1  537.15   46.70
   6   8   1  477.25   48.00
   6  -8  -1  550.74   45.70
   6  -8  -1  514.95   44.30
   6   8   1  524.45   44.90
  -8   8   1  121.89   17.40
   8   8  -1  141.39   14.80
   8  -8   1  125.99   14.40
   8   8  -1  116.09   16.70
   8  -8  -1  127.79   14.60
   8   8   1  144.19   14.90
   8  -8  -1  122.39   16.10
   8   8   1  155.18   18.50
  -8   8  -1  108.89   16.80
   1   9  -1    3.10    1.00
  -1  -9  -1    2.70    1.00
  -1   9   1    4.40    1.90
   1   9  -1    1.90    1.10
   1  -9   1    3.00    1.30
   1  -9   1    3.80    1.20
  -1   9   1    3.50    1.30
  -1   9   1    3.70    1.20
   1   9  -1    2.60    1.10
  -1  -9  -1    3.10    1.20
   1  -9   1    4.70    1.60
   1   9   1    2.30    1.40
  -1   9  -1    4.20    1.40
  -1  -9   1    3.20    0.70
   1  -9  -1    3.10    1.10
  -1  -9   1    2.80    1.40
  -1   9  -1    5.60    2.30
   1  -9  -1    3.00    1.30
   1   9   1    3.60    1.10
  -1   9  -1    4.80    1.40
   1   9   1    2.80    1.20
   1   9   1    3.20    1.10
  -1  -9   1    2.10    1.00
   3  -9   1   20.00    2.70
   3   9  -1   18.50    2.30
  -3  -9  -1   18.90    3.00
  -3   9   1   10.30    4.00
   3   9  -1   14.10    2.60
   3  -9   1   22.20    3.20
  -3   9   1   20.20    3.20
  -3  -9  -1   15.50    2.70
   3  -9   1   10.80    3.60
   3   9  -1   17.00    3.20
  -3   9   1   19.60    2.20
   3   9   1   19.70    2.90
  -3   9  -1   12.80    4.00
  -3  -9   1   17.10    3.20
  -3   9  -1   17.50    2.60
   3  -9  -1   25.20    3.40
   3   9   1   19.90    2.70
   3  -9  -1   25.20    4.40
  -3   9  -1   21.10    3.30
   3  -9  -1   19.60    2.20
   5   9  -1    1.20    1.70
   5  -9   1    0.60    1.10
  -5   9   1    0.70    1.50
   5   9  -1    0.60    0.70
   5  -9   1    0.60    0.80
   5   9  -1   -0.70    1.50
   5   9  -1    1.70    1.80
   5   9  -1    0.50    0.80
  -5  -9  -1    0.80    1.00
   5  -9  -1    0.90    0.60
   5   9   1    1.00    1.00
   5   9   1   -0.40    0.40
  -5  -9   1    0.60    1.10
  -5   9  -1    0.60    0.70
   5  -9  -1    0.70    0.90
   5   9   1    1.60    1.30
  -7   9   1    3.10    2.30
   7   9  -1   -1.40    0.70
   7   9  -1    0.60    1.40
   7  -9   1   -0.70    1.20
   7  -9  -1   -0.60    1.60
   7  -9  -1    1.80    1.20
   7   9   1   -0.40    1.80
   7   9   1    0.30    0.90
  -7   9  -1   -0.60    1.60
   9   9  -1   -2.00    1.60
   9  -9   1   -0.70    1.10
   9   9  -1    5.50    2.20
   9   9   1    3.00    1.90
   9   9   1    0.40    2.30
   9  -9  -1    0.20    2.10
   9   9   1    1.70    1.70
   0  10  -1  194.28   17.50
   0  10   1  193.58   17.10
   0  10  -1  151.38   16.50
   0  10   1  207.48   17.00
   0 -10  -1  184.98   16.70
   0 -10   1  181.18   16.80
   0 -10  -1  184.68   16.80
   0  10   1  172.98   17.30
   0  10  -1  182.68   17.40
   0  10   1  180.68   17.40
   0 -10   1  177.78   16.70
   2 -10   1 1558.14  116.29
  -2  10   1 1404.76  113.09
  -2  10   1 1486.65  116.89
   2  10  -1 1131.19  115.29
   2  10   1 1238.68  115.79
  -2  10  -1 1147.19  115.99
   2 -10  -1 1493.55  115.89
  -2  10  -1 1290.27  114.19
   4 -10   1  540.95   46.30
   4  10  -1  479.85   46.60
   4  10  -1  517.95   45.90
  -4 -10  -1  561.94   47.50
   4 -10   1  593.24   50.09
   4  10  -1  577.64   48.20
   4 -10   1  517.85   46.90
   4  10  -1  484.45   49.30
  -4  10   1  527.45   45.70
   4 -10  -1  547.85   45.60
  -4  10  -1  482.65   49.99
   4  10   1  499.95   46.50
   4  10   1  562.14   48.70
   4  10   1  530.65   46.30
  -4  10  -1  598.94   46.90
  -4 -10   1  520.15   47.60
   6 -10   1  510.35   42.90
  -6 -10  -1  492.45   43.80
  -6  10   1  442.46   46.90
   6  10  -1  464.95   45.10
   6 -10   1  456.45   41.80
   6  10  -1  510.85   42.30
  -6 -10   1  458.55   43.70
   6  10   1  419.16   42.00
   6 -10  -1  475.55   41.30
   6 -10  -1  524.55   43.10
   6  10   1  517.55   42.50
   6  10   1  456.75   45.50
   6  10   1  399.36   45.20
   8  10  -1  116.49   12.80
   8 -10   1  117.89   13.00
  -8  10   1  123.59   16.50
   8  10   1  119.29   16.70
  -8  10  -1   76.59   14.30
   8  10   1  114.19   12.70
   8 -10  -1  109.49   12.80
   1 -11   1   42.20    5.80
   1  11  -1   54.29    5.50
  -1 -11  -1   49.90    5.50
  -1 -11  -1   41.00    4.80
   1  11  -1   45.10    5.20
  -1  11   1   49.00    6.60
  -1  11   1   41.90    5.40
   1 -11   1   57.19    5.60
   1  11  -1   50.99    6.60
   1 -11   1   43.60    5.70
  -1  11   1   54.09    5.50
   1  11   1   46.50    5.20
   1 -11  -1   39.80    5.70
   1  11   1   41.10    6.20
  -1 -11   1   35.20    5.10
   1 -11  -1   47.70    5.50
   1  11   1   48.50    5.50
   1  11   1   42.30    5.60
  -1  11  -1   49.00    5.50
  -1 -11   1   43.60    4.60
  -1  11  -1   50.39    5.60
  -1  11  -1   46.60    6.50
   3 -11   1    5.00    2.60
  -3 -11  -1    7.90    2.60
   3 -11   1    8.70    2.40
  -3  11   1    9.00    1.30
  -3  11   1    7.50    2.40
   3  11  -1    7.60    2.10
   3 -11   1    6.90    1.90
  -3  11   1    4.50    2.80
   3  11  -1    7.60    3.00
   3  11  -1    7.70    1.40
  -3 -11   1    8.20    2.30
   3  11   1    6.60    2.90
   3  11   1    8.50    1.60
   3 -11  -1    7.20    1.50
   3  11   1    5.90    1.80
  -3  11  -1    7.70    1.60
  -3  11  -1    5.80    2.60
   3 -11  -1    7.00    2.20
  -3  11  -1    6.50    2.10
   5  11  -1    6.30    3.20
   5 -11   1    3.80    1.60
   5 -11   1    4.90    1.70
  -5  11   1    3.80    2.40
   5  11  -1    4.40    1.90
   5  11  -1    4.60    1.50
   5  11  -1    5.10    3.30
  -5 -11  -1    2.90    1.70
   5  11   1    4.30    1.70
  -5 -11   1    2.20    1.90
   5  11   1    2.60    1.40
  -5  11  -1    2.90    1.90
   5  11   1    2.30    2.10
   5  11   1    2.40    2.60
   5 -11  -1    6.10    2.00
  -5  11  -1    6.40    3.20
  -7  11   1    6.40    3.00
   7 -11   1    8.80    2.90
   7  11  -1    5.10    2.00
   7  11   1    4.30    1.80
   7 -11  -1    3.90    2.10
  -7  11  -1    3.10    2.60
   7 -11  -1    5.00    2.40
   7  11   1    6.70    3.90
   9 -11   1   -0.60    1.20
   9  11  -1   -1.60    2.00
   9  11   1   -2.80    2.30
   9 -11  -1    1.10    1.30
   9  11   1    0.00    1.40
   0 -12   1  880.31   72.99
   0 -12  -1  772.32   70.99
   0  12  -1  861.71   72.19
   0 -12   1  854.31   71.19
   0 -12   1  838.82   71.19
   0  12   1  783.22   71.99
   0  12   1  913.11   71.49
   0  12   1  794.92   71.99
   0  12   1  775.42   71.29
   0 -12  -1  839.22   71.29
   0  12  -1  775.52   70.99
   0  12  -1  873.81   72.09
  -2  12   1  488.45   50.99
  -2 -12  -1  593.34   49.10
  -2 -12  -1  531.75   48.30
   2 -12   1  508.95   48.80
   2  12  -1  596.14   48.40
   2 -12   1  550.14   49.10
   2  12  -1  621.14   51.29
   2  12  -1  563.34   50.09
   2 -12   1  544.85   50.49
  -2  12   1  576.04   48.20
  -2  12   1  611.44   49.60
   2  12  -1  522.15   48.80
   2  12   1  597.94   48.70
  -2  12  -1  589.14   49.40
   2 -12  -1  628.64   50.79
   2  12   1  592.34   51.39
  -2  12  -1  588.34   51.89
  -2  12  -1  567.34   48.60
  -2 -12   1  586.44   48.00
   2  12   1  495.05   48.60
  -2 -12   1  586.34   49.30
   2 -12  -1  534.95   48.70
   2 -12  -1  477.45   48.80
  -4 -12  -1  508.35   49.60
   4 -12   1  605.44   52.39
  -4  12   1  572.14   47.80
   4 -12   1  569.14   48.80
   4  12  -1  579.24   48.20
  -4  12   1  657.83   54.49
   4  12  -1  507.05   49.00
   4 -12   1  532.65   49.40
   4  12  -1  558.74   50.19
   4 -12  -1  576.34   48.00
  -4  12  -1  455.95   52.09
   4  12   1  577.14   52.49
   4  12   1  611.84   49.30
   4 -12  -1  584.04   51.79
  -4 -12   1  502.85   49.80
   4  12   1  587.04   48.60
  -6  12   1  329.57   33.80
   6  12  -1  326.87   28.40
   6 -12   1  319.97   29.20
   6 -12   1  331.47   30.50
   6  12  -1  282.07   32.00
  -6 -12  -1  315.67   30.30
   6  12   1  357.16   33.40
   6 -12  -1  310.57   29.30
   6  12   1  325.17   28.60
  -6  12  -1  241.78   31.90
   6 -12  -1  305.17   27.50
  -6 -12   1  303.57   30.30
   6  12   1  279.57   31.70
  -8  12   1  151.08   18.20
   8 -12   1  105.49   13.20
   8  12  -1   92.19   14.90
   8  12  -1  133.59   13.50
   8  12   1   88.29   15.30
   8  12   1  141.79   13.80
  -8  12  -1   91.99   15.50
   8 -12  -1  128.99   13.70
   1  13  -1    6.70    2.10
  -1  13   1    7.80    2.20
  -1 -13  -1    5.40    1.60
  -1 -13  -1    5.10    1.70
   1 -13   1    4.50    1.80
   1  13  -1    5.80    1.80
   1 -13   1    6.00    2.00
  -1  13   1    7.50    3.10
   1 -13   1    5.60    1.80
   1  13  -1    5.00    1.90
  -1 -13   1    4.60    1.30
   1  13   1    6.10    1.90
  -1  13  -1    4.80    1.60
   1  13   1    4.80    2.10
   1  13   1    4.10    1.50
  -1  13  -1    7.80    2.30
  -1  13  -1   11.40    3.60
  -1 -13   1    5.50    1.90
   1 -13  -1    3.20    1.70
   1  13   1    5.00    1.90
   1 -13  -1    6.30    1.90
  -3  13   1   90.69   11.20
  -3 -13  -1  108.89   11.40
   3 -13   1   87.29   10.60
   3  13  -1  126.49   11.40
   3 -13   1   91.19   10.80
  -3  13   1  106.99   10.00
  -3  13   1  127.89   14.40
   3  13  -1  121.59   13.40
   3  13  -1  111.99   10.20
   3 -13  -1  108.99   10.40
  -3  13  -1   96.49   13.30
   3  13   1  101.39   13.10
  -3 -13   1  100.39   11.30
  -3  13  -1  101.09   10.50
   3  13   1  130.09   13.00
   3  13   1  111.89   10.70
  -3  13  -1  102.99   11.50
   3  13   1   98.99   10.80
   3 -13  -1  119.79   12.90
   3 -13  -1  129.89   11.70
   5 -13   1   -0.50    0.60
   5 -13   1    1.90    1.10
   5  13  -1   -0.80    1.10
   5  13  -1    0.90    0.50
   5  13  -1    0.50    1.10
  -5 -13  -1    0.20    0.90
  -5  13   1   -1.70    1.00
   5 -13  -1    2.30    1.40
   5  13   1    0.20    1.20
  -5 -13   1   -0.20    0.90
  -5  13  -1    1.20    0.80
  -5  13  -1   -2.40    1.30
   5  13   1    1.40    1.10
   5  13   1    0.30    0.60
   5  13   1   -1.00    1.50
   7  13  -1   -0.80    0.80
   7  13  -1   -0.90    1.80
  -7  13   1    0.30    2.70
   7  13   1    4.70    2.60
  -7  13  -1   -0.90    2.10
   7 -13  -1   -0.50    0.80
   7  13   1   -0.20    0.60
   9  13  -1   -1.70    1.60
  -9  13   1    3.90    2.80
   9 -13   1    0.40    1.20
   9  13   1    2.20    2.60
   9 -13  -1    1.50    1.60
   0  14   1 1107.59   91.69
   0  14  -1 1071.29   91.29
   0  14  -1 1132.29   91.69
   0 -14   1 1029.40   91.69
   0  14   1 1096.69   90.69
   0 -14  -1  931.71   89.99
   0  14   1 1071.79   91.19
   0 -14  -1 1064.39   90.29
   0  14   1  987.00   90.99
   2 -14   1  584.64   53.29
  -2  14   1  588.74   55.69
   2 -14   1  670.83   53.09
  -2  14   1  655.13   53.69
  -2  14   1  598.74   52.29
  -2 -14  -1  548.95   52.79
   2  14  -1  604.04   52.59
   2 -14   1  572.64   54.39
   2  14  -1  639.54   52.99
   2  14  -1  539.45   54.49
   2  14   1  594.14   52.79
   2  14   1  613.34   52.79
  -2  14  -1  583.54   55.69
  -2  14  -1  648.74   53.49
   2 -14  -1  659.23   54.59
   2 -14  -1  620.64   53.09
   2  14   1  656.13   55.59
  -2  14  -1  577.84   52.59
  -2 -14   1  577.44   52.99
   4 -14   1  341.67   31.50
   4  14  -1  344.77   31.70
   4  14  -1  330.27   34.20
   4 -14   1  302.87   31.50
  -4 -14  -1  365.66   32.50
   4  14  -1  352.56   30.60
  -4  14   1  412.26   37.00
  -4 -14   1  354.46   32.50
   4 -14  -1  352.96   30.40
   4  14   1  369.76   31.20
   4 -14  -1  378.36   32.20
  -4  14  -1  370.36   35.90
   4  14   1  286.87   34.00
   4  14   1  335.87   31.50
  -6 -14  -1  185.88   19.90
   6 -14   1  195.38   19.00
  -6  14   1  161.58   22.00
   6  14  -1  200.68   17.70
   6  14  -1  235.88   22.80
   6  14   1  182.78   21.90
  -6  14  -1  150.78   21.60
   6  14   1  183.48   18.00
   6 -14  -1  177.08   18.70
   8 -14   1  114.19   13.70
   8  14  -1   86.49   15.10
   8 -14  -1  134.29   14.30
   8  14   1  154.88   17.90
  -8  14  -1  123.49   17.90
   8  14   1  135.59   14.30
  -1 -15  -1    3.30    1.60
   1 -15   1    4.10    2.10
  -1  15   1    6.10    2.90
  -1  15   1    3.10    1.30
   1  15  -1    3.20    1.80
   1 -15   1    2.30    1.10
   1  15  -1    1.30    1.50
   1 -15   1    2.00    1.20
   1  15   1    3.40    1.50
  -1 -15   1    4.80    1.70
   1  15   1    6.90    2.10
   1 -15  -1    1.60    1.00
  -1  15  -1    2.40    1.40
  -1  15  -1    3.80    1.70
   1  15   1    2.30    1.50
   1  15   1    4.80    2.30
  -1  15  -1    1.70    1.10
  -3  15   1   34.60    5.00
  -3  15   1   31.00    3.60
   3 -15   1   27.80    4.50
   3  15  -1   23.00    5.20
  -3  15   1   39.00    7.00
   3  15  -1   41.20    6.10
   3  15  -1   32.50    4.50
   3  15  -1   29.90    3.90
  -3 -15  -1   33.30    4.80
   3 -15   1   27.20    4.30
   3  15   1   31.90    6.20
   3  15   1   31.30    4.40
   3  15   1   18.80    4.40
   3  15   1   30.00    4.20
  -3  15  -1   24.50    5.70
   3 -15  -1   29.80    4.50
  -3 -15   1   36.40    5.10
   5  15  -1   -0.80    1.30
  -5 -15  -1   -0.50    1.30
   5 -15   1    0.80    0.80
   5  15  -1   -1.40    1.60
   5  15  -1    0.90    0.80
   5 -15   1   -0.80    1.10
  -5  15   1    1.40    1.40
   5  15   1   -0.10    1.50
   5  15   1    3.60    1.40
   5  15   1   -0.30    0.60
  -5  15  -1   -0.50    0.90
  -5 -15   1   -0.50    0.90
   5 -15  -1    0.40    0.80
   7 -15   1    1.50    1.30
   7  15  -1    0.00    1.30
   7  15  -1    1.90    1.80
   7 -15  -1    0.00    1.20
  -7  15  -1    0.60    1.70
   7  15   1   -1.30    2.20
   7  15   1    0.90    1.00
  -9  15   1   -1.70    2.10
   9  15  -1   -1.40    1.80
   9 -15   1    0.20    1.40
  -9  15  -1    2.00    3.00
   9  15   1   -0.80    2.40
   9 -15  -1   -0.50    1.40
   0  16   1  842.22   75.69
   0  16  -1  858.01   77.29
   0  16  -1  844.42   76.69
   0 -16   1  836.42   75.69
   0 -16  -1  827.82   75.69
   0  16   1  963.60   77.79
   0  16   1  906.41   76.29
   0 -16  -1  936.81   75.89
   0  16   1  892.11   76.89
   2 -16   1  562.44   51.59
   2 -16   1  591.14   52.59
  -2  16   1  685.13   55.79
   2  16  -1  512.65   51.39
  -2  16   1  601.14   51.49
   2  16  -1  637.84   51.89
  -2  16   1  496.25   51.89
  -2 -16  -1  584.24   51.89
   2  16  -1  610.24   54.19
  -2  16  -1  589.74   54.99
  -2  16  -1  631.54   51.79
   2  16   1  513.05   51.29
   2  16   1  663.63   52.39
   2 -16  -1  630.64   51.89
  -2 -16   1  584.74   51.89
   2  16   1  563.94   53.79
   4  16  -1  232.98   22.30
  -4  16   1  276.97   27.10
   4 -16   1  246.58   22.20
   4  16  -1  217.88   20.90
  -4 -16  -1  210.68   22.30
  -4 -16  -1  206.28   21.70
   4 -16   1  226.48   21.90
   4  16  -1  260.67   25.20
  -4 -16   1  221.98   22.80
   4  16   1  291.17   26.30
  -4  16  -1  224.18   21.50
  -4  16  -1  270.47   26.90
   4  16   1  235.08   21.70
   4 -16  -1  192.58   21.80
   6  16  -1  132.29   13.20
   6 -16   1  135.99   14.50
   6  16  -1   98.59   15.60
   6  16   1  144.49   14.00
   6 -16  -1  155.58   14.80
   6  16   1  158.58   18.20
  -6  16  -1  102.89   16.70
   8 -16   1   90.89   11.00
  -8  16   1   64.79   13.20
   8  16  -1   91.79   13.90
   8 -16  -1   81.49   10.80
   8  16   1   96.69   14.30
  -8  16  -1  105.59   15.00
   1  17  -1   32.00    4.90
   1  17  -1   29.60    5.10
   1 -17   1   23.20    4.70
   1 -17   1   35.80    5.50
  -1  17   1   26.50    4.20
   1  17  -1   24.80    3.90
   1 -17   1   24.40    4.10
  -1 -17  -1   21.60    3.40
  -1  17   1   29.00    4.20
  -1  17   1   31.80    5.80
  -1 -17  -1   22.20    3.90
   1  17   1   25.50    5.10
   1 -17  -1   26.80    4.10
  -1  17  -1   30.90    4.50
  -1  17  -1   30.40    5.60
  -1  17  -1   18.90    4.00
  -1 -17   1   24.00    4.10
   1  17   1   28.30    4.30
   1  17   1   26.00    4.70
   3  17  -1   19.40    3.20
  -3  17   1   16.40    6.20
  -3 -17  -1   13.00    3.40
   3  17  -1   21.00    6.00
  -3 -17  -1   17.00    3.10
   3 -17   1   21.30    3.60
   3 -17   1   18.40    3.70
   3  17   1   21.20    3.50
   3  17   1   14.70    4.60
  -3  17  -1   15.50    5.30
  -3 -17   1   18.60    3.60
  -3  17  -1   21.80    3.40
   3 -17  -1   20.10    3.60
   3  17   1   19.00    4.70
   5  17  -1    2.00    2.50
   5 -17   1    3.80    1.70
   5  17   1    5.90    2.00
  -5  17  -1    0.00    2.00
   5 -17  -1    3.30    1.60
  -5 -17   1    7.60    2.90
   5  17   1    2.90    2.80
   7  17  -1   11.80    4.70
   7 -17   1    6.60    2.50
   7 -17  -1    5.40    2.60
   7  17   1    7.20    3.00
   0  18  -1  588.64   52.59
   0  18   1  529.65   50.79
   0  18   1  574.24   51.59
   0 -18   1  526.85   50.39
   0 -18  -1  625.94   50.69
   0  18  -1  517.05   51.19
   0 -18   1  569.04   50.29
   0  18   1  661.53   53.19
  -2  18   1  388.36   38.90
   2 -18   1  366.26   36.70
  -2 -18  -1  380.86   35.00
   2 -18   1  359.46   35.40
   2  18  -1  432.86   36.30
   2  18  -1  361.76   37.40
  -2 -18  -1  400.46   35.80
   2  18   1  412.76   36.50
  -2  18  -1  383.66   39.00
   2 -18  -1  385.36   35.60
   2  18   1  387.66   37.90
  -2 -18   1  447.46   36.10
  -2  18  -1  410.76   35.70
   4 -18   1  237.58   21.80
   4 -18   1  197.28   21.70
   4  18  -1  220.98   21.80
  -4  18   1  239.98   26.40
   4  18  -1  224.08   20.90
  -4 -18  -1  242.08   22.60
   4  18  -1  264.97   25.20
  -4 -18  -1  216.58   21.60
  -4  18  -1  221.58   25.70
   4 -18  -1  246.08   22.10
   4  18   1  223.48   21.40
   4  18   1  231.68   24.70
  -4 -18   1  187.88   21.90
   6  18  -1  128.59   16.10
  -6  18   1  108.39   16.50
   6 -18   1  107.39   12.80
  -6  18  -1  111.29   16.60
   6  18   1  128.49   13.00
   6  18   1  106.29   15.40
   6 -18  -1  131.69   13.40
   8 -18   1   89.59   10.60
   8  18  -1   63.29   11.70
  -8  18   1   80.39   13.70
   8 -18  -1   81.59   10.40
   8  18   1   94.39   13.40
   1 -19   1   14.60    3.30
   1  19  -1   17.60    3.90
  -1 -19  -1   20.90    3.20
  -1 -19  -1   15.60    3.20
  -1  19   1   25.20    5.40
   1  19  -1   19.20    4.20
  -1  19   1   19.90    3.60
  -1 -19   1   20.30    3.70
   1  19   1   21.80    4.40
   1 -19  -1   15.70    3.40
   1  19   1   16.00    4.60
  -1  19  -1   27.50    4.20
  -1  19  -1   24.30    5.30
   3  19  -1   -0.90    0.80
  -3 -19  -1    0.40    0.80
  -3  19   1    0.90    1.60
  -3 -19  -1   -0.20    0.70
   3 -19   1   -0.40    0.70
   3 -19   1   -0.90    1.50
   3  19  -1    1.30    1.10
   3  19   1   -1.60    1.10
  -3  19  -1   -2.50    1.20
   3  19   1   -0.40    1.00
  -3 -19   1   -0.40    0.70
   3 -19  -1   -0.70    0.90
   5  19  -1   -0.50    1.50
   5 -19   1   -0.20    0.60
  -5  19   1   -1.40    1.60
   5  19   1   -0.50    0.70
  -5 -19   1    1.80    1.60
   5 -19  -1    1.30    1.20
   5  19   1    1.50    2.60
  -5  19  -1   -1.00    1.50
   7  19  -1   -0.60    2.30
   7 -19   1    0.90    1.30
  -7  19   1    4.40    3.70
   7 -19  -1    4.90    2.10
   7  19   1    3.00    2.70
  -7  19  -1    5.50    3.00
   0  20   1  469.45   43.10
   0  20  -1  457.45   41.60
   0 -20   1  455.35   40.70
   0  20   1  492.95   42.10
   0 -20  -1  375.76   40.10
   0 -20   1  436.46   40.40
   0  20  -1  483.95   43.20
   2  20  -1  250.17   24.70
   2 -20   1  226.58   22.30
   2 -20   1  223.98   23.80
  -2 -20  -1  250.97   22.80
   2 -20   1  210.58   23.30
  -2  20   1  235.18   25.90
  -2 -20  -1  216.68   21.90
  -2 -20   1  268.57   23.00
  -2  20  -1  235.88   26.00
   2  20   1  239.38   23.70
  -2  20  -1  222.38   22.80
   2 -20  -1  242.88   22.40
  -2 -20   1  219.08   21.10
   2  20   1  264.27   25.40
   4  20  -1  262.97   25.70
   4 -20   1  214.98   21.80
   4  20  -1  215.08   21.30
  -4 -20  -1  215.98   22.50
  -4  20   1  215.28   25.90
  -4  20  -1  195.28   25.40
   4 -20  -1  246.98   22.30
   4  20   1  251.67   25.40
   4  20   1  240.28   22.50
  -4 -20   1  216.78   22.60
   6  20  -1   84.29   12.50
   6 -20   1   77.29   10.10
  -6  20   1   97.89   14.60
   6 -20  -1   82.19   10.30
  -6  20  -1   84.89   13.80
   6  20   1  105.19   13.50
   8 -20   1   53.59    8.90
  -8  20   1   70.39   12.80
   8 -20  -1   84.79    9.50
  -8  20  -1   78.39   12.90
   1  21  -1   25.00    5.10
  -1 -21  -1   25.80    5.30
   1  21  -1   23.70    5.00
  -1 -21  -1   28.40    4.50
   1 -21   1   22.20    4.10
   1 -21   1   18.80    3.70
  -1  21   1   18.90    6.10
   1  21   1   30.40    5.60
  -1  21  -1   18.80    4.00
  -1 -21   1   17.10    3.60
  -1  21  -1   15.70    5.90
   1 -21  -1   19.90    4.00
   1  21   1   17.20    5.20
   1 -21  -1   17.00    3.60
   3  21  -1    4.40    2.20
  -3 -21  -1    1.70    1.20
  -3  21   1   -0.80    2.40
   3 -21   1    1.10    1.10
   3  21   1    0.60    1.10
   3  21   1    1.00    1.00
  -3 -21   1    3.70    2.00
   3 -21  -1    3.20    1.50
  -3  21  -1    0.90    1.60
   5 -21   1    0.10    1.10
  -5  21   1   -1.80    1.30
   5  21  -1    2.20    2.20
   5 -21  -1    1.30    1.30
   5  21   1    1.40    1.60
  -5  21  -1    0.40    2.30
  -5 -21   1    0.10    1.00
   7 -21   1    3.70    1.60
   7  21  -1    2.60    2.10
   7  21   1    1.70    2.30
   7 -21  -1    2.40    1.70
  -7  21  -1   -0.30    1.70
   0 -22   1  135.19   14.30
   0 -22  -1  128.29   14.40
   0 -22  -1  134.79   14.40
   0 -22   1  151.88   14.90
   0  22   1  136.19   16.90
   0  22  -1  162.68   17.70
   2 -22   1  259.97   27.80
  -2 -22  -1  289.97   28.30
   2  22  -1  302.87   29.50
   2  22  -1  317.77   30.50
  -2  22   1  298.97   32.00
  -2 -22   1  280.77   28.10
   2 -22  -1  332.97   28.50
  -2  22  -1  332.67   33.00
   2  22   1  304.07   30.00
  -4  22   1  135.09   18.80
   4 -22   1  160.48   15.00
  -4  22  -1  114.19   17.80
  -4 -22   1  135.09   15.30
   4 -22  -1  145.09   14.80
   4  22   1  136.19   15.50
   4  22   1  142.79   17.40
  -6  22   1  108.89   17.30
   6  22  -1  131.89   16.80
   6 -22   1  135.59   14.00
   6  22   1  131.79   16.90
   6 -22  -1  118.59   13.70
  -6  22  -1  125.39   18.00
  -1  23   1    1.70    2.50
  -1 -23  -1    6.50    2.20
   1 -23   1    3.80    2.10
   1  23  -1   11.00    3.60
   1 -23  -1    5.00    2.20
  -1  23  -1    4.00    3.00
   1  23   1    5.70    3.00
  -1 -23   1    4.60    1.80
  -3 -23  -1   12.00    4.10
  -3  23   1   18.30    6.80
   3 -23   1   13.10    2.80
   3  23   1   14.00    4.80
  -3 -23   1   17.50    4.70
  -3  23  -1    6.70    3.80
   3 -23  -1   15.30    3.90
   3  23   1   10.80    3.90
   5  23  -1    3.40    2.00
  -5  23   1    4.70    3.00
   5 -23  -1    5.40    2.00
  -5 -23   1    5.50    2.80
  -5  23  -1    3.60    2.60
   5  23   1    8.20    3.20
   7  23  -1    0.70    1.90
   7 -23   1   -1.10    1.30
  -7  23  -1   -0.90    2.00
   7 -23  -1    0.70    1.20
   0  24   1  238.48   26.50
   0 -24  -1  236.68   23.30
   0  24  -1  269.47   27.00
   0 -24   1  218.88   23.00
  -2 -24  -1   89.19   10.20
  -2  24   1   74.19   12.70
   2  24  -1   83.29   11.50
   2  24  -1   82.59   11.30
   2 -24   1   75.99    9.80
   2  24   1   83.89   11.70
  -2 -24   1   81.49   10.10
  -2  24  -1   96.99   13.90
   2  24   1  110.39   14.50
   2 -24  -1   83.39   10.00
   4  24  -1  190.08   21.30
   4 -24   1  186.58   18.80
  -4  24   1  183.28   23.30
   4 -24  -1  193.58   18.90
   4  24   1  180.08   21.50
  -4 -24   1  186.28   19.60
  -4  24  -1  165.88   23.00
   6 -24   1   61.09    8.10
   6  24  -1   62.39   10.00
  -6  24   1   68.69   12.70
   6 -24  -1   45.90    7.40
   6  24   1   67.49   10.80
  -6  24  -1   63.59   11.80
   1  25  -1    1.20    1.30
  -1 -25  -1    2.50    1.50
   1  25  -1    1.80    2.20
   1 -25   1    1.10    1.20
  -1  25   1    2.70    2.30
   1 -25  -1   -0.20    0.70
  -1  25  -1    2.10    2.30
  -1 -25   1    1.00    1.20
   1  25   1    0.60    2.30
   1  25   1   -0.30    1.60
   3  25  -1    0.00    1.60
  -3 -25  -1    0.30    0.70
  -3  25   1    1.40    2.40
   3 -25   1    1.20    1.30
  -3  25  -1    1.40    2.70
  -3 -25   1   -0.10    1.10
   3 -25  -1    0.50    1.00
  -5  25   1    1.60    2.10
   5  25  -1    0.80    1.20
   5 -25   1   -0.50    0.70
   5 -25  -1   -1.40    0.70
  -5  25  -1    5.80    4.00
   5  25   1    3.60    1.90
   0 -26   1  190.78   17.30
   0 -26  -1  155.08   16.70
   0  26   1  145.59   19.90
   0  26  -1  142.19   19.70
  -2 -26  -1   86.59   11.00
  -2  26   1   82.59   13.80
   2 -26   1   89.59   10.40
  -2 -26   1   87.09   10.60
   2  26   1  106.19   13.60
   2 -26  -1   80.79   10.20
  -2  26  -1   75.69   13.50
   4 -26   1  139.39   14.20
  -4  26   1  134.89   18.40
  -4  26  -1  128.99   18.50
   4 -26  -1  108.39   13.40
   6 -26   1   66.29    8.50
   6 -26  -1   59.09    8.00
   6  26   1   41.40   13.60
   1 -27   1    1.30    1.10
  -1 -27  -1    2.30    1.90
  -1  27   1    4.90    2.80
   1  27   1    3.70    3.20
  -1 -27   1    2.50    1.70
   1 -27  -1    0.60    1.10
  -1  27  -1    5.20    3.20
   3 -27   1    0.30    0.80
  -3  27   1   -2.80    2.40
   3 -27  -1    0.30    1.00
  -3  27  -1    0.30    3.00
   5  27  -1   -1.30    1.00
   5 -27   1    3.00    1.70
  -5  27   1    0.70    3.20
   5 -27  -1    1.00    1.20
  -5  27  -1   -0.80    4.10
   5  27   1    0.00    1.30
   0  28  -1   62.59   12.30
   0 -28   1   77.49    9.10
   0  28   1   77.69   13.00
   0 -28  -1   56.29    8.30
   2 -28   1   74.99   10.40
  -2  28   1   95.89   15.00
   2 -28  -1  103.09   11.10
  -2 -28   1   82.39   10.80
  -2  28  -1   99.49   15.60
  -4  28   1   65.49   12.10
   4 -28   1   80.89    9.20
   4 -28  -1   65.09    8.50
  -4  28  -1   47.00   11.80
   1 -29   1    3.60    1.80
  -1  29   1    3.00    3.00
  -1  29  -1   -1.30    3.30
  -1 -29   1    3.60    2.00
   1 -29  -1    2.20    1.20
   3 -29   1    0.60    0.90
  -3  29   1    0.30    2.90
  -3 -29   1   -0.70    1.40
   3 -29  -1    2.70    1.20
   0 -30  -1  108.69   13.20
   0 -30   1  128.59   13.80
  -2  30   1   45.00   10.80
   2 -30   1   51.79    6.80
  -2  30  -1   60.49   11.80
   2 -30  -1   39.90    6.40
  -2 -30   1   34.80    6.50
  -1 -31  -1    4.10    1.90
   1 -31   1    4.30    2.00
  -1 -31   1    1.90    1.50
   1 -31  -1    5.00    2.50
   0 -32   1   28.30    4.90
   0 -32  -1   20.30    5.10
   0   0  -2 2582.14  253.67
   0   0  -2 2150.48  241.28
   2   0   2   31.40    4.50
  -2   0   2   29.60    4.00
  -2   0  -2   27.50    3.60
   2   0  -2   28.80    3.90
   2   0  -2   25.40    3.50
   2   0  -2   31.30    3.40
  -2   0   2   21.50    3.40
   2   0   2   26.60    3.00
   2   0   2   25.10    2.90
   2   0  -2   29.70    3.70
   2   0   2   30.70    3.50
   4   0   2 2256.57  170.08
   4   0  -2 1826.02  167.68
  -4   0   2 1844.12  168.68
  -6   0   2  460.55   43.60
   6   0   2  439.06   41.00
   6   0  -2  523.45   43.40
   6   0  -2  416.76   40.90
   6   0   2  404.36   40.30
   6   0  -2  477.65   41.20
   6   0  -2  442.96   41.00
   6   0   2  460.25   40.60
   8   0   2  278.77   25.10
   8   0  -2  255.67   27.10
   8   0  -2  233.08   24.30
  -8   0  -2  210.88   25.00
   8   0   2  230.18   24.00
  10   0  -2   51.59    8.60
  10   0   2   47.70   12.30
  10   0   2   51.59    8.40
  10   0  -2   53.79    8.80
   1  -1  -2  629.74   55.49
  -1  -1   2  675.23   55.69
   3  -1   2   22.00    3.00
   3  -1   2   23.40    3.10
   3  -1   2   29.30    4.80
   3   1  -2   23.30    3.50
  -3  -1  -2   24.50    3.60
  -3   1   2   27.70    4.50
   3   1  -2   32.50    3.70
   3   1  -2   25.80    4.00
   3   1  -2   24.80    4.00
   3  -1  -2   26.20    3.70
   3   1   2   23.20    4.10
   3   1   2   17.50    3.20
   3   1   2   20.60    2.90
   3  -1  -2   30.90    4.30
  -3  -1   2   25.40    3.70
  -3  -1   2   17.90    3.70
   3  -1  -2   21.60    3.50
   3   1   2   27.00    3.60
   3  -1  -2   24.20    3.20
  -3   1  -2   23.80    3.50
   5   1  -2   15.90    4.60
  -5   1   2   17.60    4.10
  -5  -1  -2   19.20    3.50
   5  -1   2   17.90    6.00
   5   1  -2   14.70    3.10
   5   1  -2   18.20    3.10
   5  -1   2   13.90    3.40
   5   1  -2   15.70    4.60
   5  -1   2   17.40    3.10
   5  -1   2   17.60    2.90
   5   1   2   17.60    2.90
   5  -1  -2   13.50    3.90
   5  -1  -2   16.00    5.00
   5   1   2   13.90    3.20
  -5  -1   2   15.40    4.60
   5  -1  -2   15.00    3.30
   5   1   2   15.80    3.20
   5  -1  -2   17.00    3.30
   5  -1  -2   16.90    3.20
  -5   1  -2   17.00    3.30
   5   1   2   17.80    3.00
   5   1   2   13.40    5.10
   7  -1   2   17.70    3.80
   7  -1   2   11.60    3.40
   7   1  -2   16.00    3.40
   7  -1   2   14.00    3.50
  -7   1   2   16.50    5.60
   7   1  -2   17.50    4.80
   7   1  -2   18.60    5.60
   7   1   2    8.10    2.60
   7  -1  -2   13.60    4.80
   7   1   2   10.10    3.20
   7  -1  -2    8.00    2.80
   7   1   2   12.50    3.60
   7  -1  -2   16.60    4.50
   9   1  -2    2.00    2.70
   9   1  -2    0.70    1.60
   9   1  -2    1.90    1.70
   9  -1   2    0.90    1.40
   9  -1   2    0.10    1.30
   9   1   2   -1.10    1.40
   9   1   2   -0.60    1.10
   9  -1  -2   -0.10    1.20
   9  -1  -2    0.40    1.20
   9  -1  -2    2.40    2.50
   0   2  -2 1612.14  223.68
   0  -2  -2 1950.40  214.58
   0  -2   2 2209.28  215.58
   2  -2   2 1693.63  144.29
   4  -2   2  515.15   49.20
   4   2  -2  514.35   47.90
   4  -2   2  496.85   46.60
   4  -2   2  562.64   46.40
  -4  -2  -2  444.16   46.80
   4   2  -2  537.55   48.10
   4  -2   2  530.05   46.70
  -4   2   2  496.35   48.70
   4   2  -2  528.85   46.90
   4   2  -2  520.55   47.60
  -4   2  -2  596.94   49.40
   4  -2  -2  499.75   47.20
   4   2   2  511.25   46.90
   4  -2  -2  618.64   47.30
   4   2   2  505.05   46.00
  -4   2  -2  559.94   47.10
  -4  -2   2  523.85   48.10
   4   2   2  550.04   47.20
   4  -2  -2  544.05   46.50
   4   2   2  609.24   49.50
  -4  -2   2  543.05   47.30
   4  -2  -2  539.75   47.30
  -6  -2  -2  330.77   30.20
   6   2  -2  304.37   29.20
   6   2  -2  370.66   32.30
   6  -2   2  297.57   29.20
   6  -2   2  300.67   29.20
   6  -2   2  372.16   30.80
  -6   2   2  284.87   31.60
   6   2  -2  277.37   30.80
   6  -2   2  328.97   29.00
   6   2  -2  307.57   29.70
   6  -2  -2  320.17   29.90
   6   2   2  291.27   28.60
   6   2   2  297.77   29.50
   6   2   2  279.37   29.20
  -6   2  -2  363.56   30.30
   6  -2  -2  303.37   29.00
   6   2   2  304.17   28.90
   6  -2  -2  305.77   29.40
   6   2   2  329.47   32.70
  -6  -2   2  324.77   31.60
   6  -2  -2  307.27   30.60
   8  -2   2  186.48   20.40
   8   2  -2  191.58   22.50
   8   2  -2  183.58   20.00
   8   2  -2  191.38   20.40
   8  -2   2  180.28   19.50
   8  -2  -2  199.08   20.10
  -8   2  -2  159.58   20.20
   8  -2  -2  175.88   21.60
   8   2   2  213.58   20.40
   8   2   2  217.18   20.20
  10   2  -2   87.29   11.80
  10   2  -2   67.49   11.00
  10   2  -2   69.39   13.10
  10  -2   2   75.59   14.30
  10  -2   2   94.59   11.90
  10  -2  -2   74.29   11.40
  10   2   2   73.99   14.00
  10   2   2   99.69   11.90
  10  -2  -2   79.69   11.10
   1  -3   2  379.56   35.60
  -1   3   2  419.06   34.90
   1   3  -2  449.36   35.50
  -1  -3  -2  414.26   35.00
  -1  -3  -2  389.06   34.20
  -1  -3   2  461.25   35.00
  -1  -3   2  388.96   35.30
  -1   3  -2  368.46   34.60
  -1   3  -2  437.36   35.70
  -1  -3   2  381.76   34.20
  -1   3  -2  377.86   34.40
   1  -3  -2  372.36   34.80
   1  -3  -2  432.76   34.00
   3   3  -2   97.89   10.40
   3   3  -2  105.29   11.00
   3  -3   2  105.89   10.50
  -3   3   2   88.69   11.80
   3  -3   2  126.09   12.80
  -3  -3  -2  105.39   11.00
   3   3  -2  122.19   12.00
  -3  -3  -2  113.59   10.30
   3  -3   2  116.59   10.30
   3  -3  -2  104.09   10.40
  -3   3  -2  113.09   10.70
   3   3   2   92.09   10.70
   3  -3  -2  121.59   11.00
   3   3   2  119.99   12.00
  -3   3  -2  104.79   10.40
  -3  -3   2  103.89   11.10
   3  -3  -2  108.39   10.00
   3   3   2  125.19   10.80
   3  -3  -2   92.89   11.40
  -3  -3   2   86.49   10.50
   3   3   2  101.39    9.90
   3  -3  -2   97.89   10.90
   5   3  -2   46.70    7.30
   5   3  -2   42.00    6.90
   5   3  -2   45.60    5.90
   5  -3   2   48.80    5.80
  -5  -3  -2   60.39    7.00
   5  -3   2   41.90    6.00
   5   3  -2   38.50    6.00
   5  -3   2   50.29    6.00
  -5   3   2   43.60    7.60
   5  -3   2   50.59    8.10
  -5   3  -2   43.90    7.50
   5   3   2   42.90    5.40
  -5   3  -2   52.79    6.60
   5  -3  -2   38.60    6.00
   5  -3  -2   40.30    5.80
   5   3   2   46.70    7.70
   5  -3  -2   51.49    7.40
  -5  -3   2   50.39    6.60
   5  -3  -2   42.50    6.50
  -5  -3   2   48.70    7.30
   5   3   2   48.70    6.40
   5   3   2   43.00    6.00
   5  -3  -2   38.70    5.50
   7  -3   2    5.70    2.10
   7  -3   2    3.20    2.00
   7   3  -2    6.50    3.70
  -7  -3  -2    1.90    1.50
   7   3  -2    6.30    2.70
   7  -3   2    2.70    2.30
   7   3  -2    2.90    2.00
  -7   3   2   12.10    4.40
   7  -3   2    5.70    2.60
   7  -3  -2    9.50    3.60
   7  -3  -2    6.70    3.20
   7   3   2    5.90    2.20
   7   3   2    8.40    3.10
   7   3   2    6.00    1.90
   7  -3  -2    5.50    2.00
   9   3  -2    2.40    1.70
   9   3  -2    1.50    2.80
   9  -3   2    1.60    1.50
   9   3  -2    2.20    1.70
   9  -3  -2   -2.20    2.40
   9   3   2    1.00    1.30
   9   3   2    3.80    3.70
   9  -3  -2    2.40    1.80
   9   3   2    2.00    1.60
   0  -4   2 8929.11  901.01
   0  -4  -2 9379.06  916.81
   0   4  -2 9999.00  908.91
   0  -4   2 9078.79  850.21
   2   4  -2  769.22   72.19
  -2  -4  -2  951.90   72.09
  -2   4   2  791.12   72.69
   4   4  -2  923.91   77.89
   4   4  -2  792.62   76.89
   4   4  -2  892.01   78.39
   4   4  -2  760.52   78.49
   4  -4   2  926.71   76.89
  -4  -4  -2  904.31   77.09
  -4  -4  -2  972.50   78.09
  -4   4   2  817.72   79.69
   4  -4   2  859.51   86.99
   4  -4   2  932.01   77.09
   4  -4  -2  998.50   77.69
   4   4   2  812.32   76.39
  -4   4  -2 1025.70   77.79
   4  -4  -2  955.90   78.19
   4   4   2  985.50   79.59
   4  -4  -2  841.82   76.39
  -4  -4   2  854.81   77.69
  -6   4   2  131.09   17.00
   6   4  -2  165.38   17.40
  -6  -4  -2  145.19   15.30
   6  -4   2  129.89   14.10
   6  -4   2  144.19   14.30
   6   4  -2  142.29   14.80
   6   4  -2  136.49   14.40
   6   4  -2  157.88   15.50
   6   4  -2  125.29   15.90
   6  -4   2  121.39   14.40
   6   4   2  147.49   14.80
   6  -4  -2  148.59   15.60
  -6   4  -2  135.19   14.80
   6  -4  -2  132.99   15.10
   6  -4  -2  139.99   14.60
   6  -4  -2  131.79   13.90
   6   4   2  138.79   17.10
   6   4   2  129.29   13.70
  -6  -4   2  136.89   15.20
   8   4  -2  275.77   26.90
   8  -4   2  212.08   22.60
   8   4  -2  238.58   23.60
  -8   4   2  230.18   26.40
   8   4  -2  232.38   23.80
   8  -4   2  225.88   24.00
  -8   4  -2  186.98   23.20
   8   4   2  225.18   23.20
   8  -4  -2  253.57   25.40
   8   4   2  237.28   23.30
   8  -4  -2  217.88   22.80
  10   4  -2   68.69   10.50
  10  -4   2   64.29    9.90
  10   4  -2   69.39   10.50
  10   4  -2   72.49   12.20
  10  -4  -2   67.59    9.80
  10   4   2   75.49   10.30
  10  -4  -2   62.09   10.30
  -1   5   2  214.98   17.70
   1  -5   2  192.48   18.20
   1  -5   2  217.88   19.50
   1   5  -2  232.98   18.50
  -1  -5  -2  204.58   18.20
   1   5  -2  241.98   19.50
  -1  -5  -2  225.78   18.80
  -1  -5  -2  220.58   18.10
  -1   5   2  239.48   18.70
   1  -5   2  193.98   18.10
   1   5   2  190.48   18.60
  -1   5  -2  225.68   19.50
   1   5   2  187.98   18.00
   1  -5  -2  183.48   18.40
   1  -5  -2  176.28   18.70
   1   5   2  212.88   18.00
  -1   5  -2  208.28   18.30
  -1   5  -2  172.28   18.10
  -3  -5  -2  456.55   39.00
  -3  -5  -2  435.06   38.00
   3   5  -2  419.96   38.20
   3  -5   2  395.06   37.80
   3   5  -2  467.95   39.10
   3   5  -2  430.96   38.60
   3  -5   2  499.55   41.10
  -3   5   2  492.55   39.30
   3  -5   2  409.76   37.90
  -3   5   2  468.95   40.80
  -3   5  -2  416.96   38.20
   3  -5  -2  502.65   40.30
  -3   5  -2  398.16   38.10
   3   5   2  403.06   38.80
   3  -5  -2  395.46   37.10
   3   5   2  427.26   37.60
  -3  -5   2  457.55   38.80
   3  -5  -2  467.25   38.70
   3   5   2  411.16   38.10
   5  -5   2    0.40    0.60
   5  -5   2   -0.50    0.80
  -5   5   2   -1.30    0.70
  -5  -5  -2    0.50    0.70
  -5  -5  -2   -0.50    0.40
   5  -5   2   -0.20    0.70
   5   5  -2    0.50    0.80
   5   5  -2    0.80    1.20
   5   5  -2    0.10    0.90
   5   5  -2    0.40    0.50
   5  -5  -2   -1.40    1.10
   5  -5  -2    2.10    1.40
  -5   5  -2   -0.70    0.50
   5   5   2    0.70    1.30
   5   5   2    0.50    0.50
   5  -5  -2   -0.90    0.70
   5   5   2    0.40    1.20
   5  -5  -2   -0.40    0.50
   7   5  -2    4.20    4.70
   7   5  -2    7.60    2.70
   7   5  -2   11.10    4.20
   7  -5   2   11.90    3.40
   7  -5   2    9.60    3.00
  -7   5   2    7.10    3.30
   7  -5   2    2.00    1.70
  -7  -5  -2    5.10    2.60
   7  -5  -2    4.70    2.60
   7   5   2    6.60    3.10
   7  -5  -2    8.00    2.80
   7   5   2    6.20    2.30
   7   5   2    8.00    2.30
   9   5  -2    6.30    3.00
   9   5  -2    1.50    2.30
   9   5  -2    9.20    3.20
   9  -5   2    5.40    2.80
   9  -5   2    3.50    2.10
   9   5   2    7.90    4.90
   9  -5  -2    4.70    2.70
   9   5   2    6.60    3.00
   9   5   2   13.20    4.70
   0  -6   2  463.75   40.50
   0   6  -2  456.95   40.90
   0  -6   2  473.45   41.10
   0   6   2  472.85   40.50
   0   6   2  465.05   40.50
   0   6   2  431.76   40.70
   0  -6   2  516.45   40.60
   0  -6  -2  425.96   40.30
   0   6  -2  516.65   40.50
   0  -6  -2  467.65   40.40
   0  -6  -2  519.55   40.70
   0   6  -2  455.25   40.70
   2  -6   2  871.01   83.49
   2   6  -2  998.10   83.29
   2   6  -2  978.50   81.49
   2  -6   2  963.10   81.69
  -2   6  -2  929.31   83.79
   2   6   2 1037.00   82.79
   4  -6   2 1033.20   93.29
  -4  -6  -2 1167.08   94.79
  -4  -6  -2 1157.98   93.89
   4  -6   2 1071.39   93.39
   4   6  -2 1162.98   94.79
  -4   6   2  972.90   96.39
   4   6  -2 1001.00   93.39
   4   6   2 1040.00   92.99
  -4   6  -2 1264.57   97.19
   4  -6  -2 1119.39   92.59
  -4  -6   2 1000.20   94.19
  -4   6  -2 1104.59   93.79
   4  -6  -2 1211.38   94.19
  -4   6  -2 1080.39   93.89
   4   6   2 1046.50   95.49
   6  -6   2  467.85   46.20
   6  -6   2  551.14   45.90
   6   6  -2  460.65   48.10
   6   6  -2  569.74   46.50
  -6  -6  -2  515.45   46.20
  -6  -6  -2  508.05   47.00
  -6   6   2  421.26   48.70
   6   6  -2  503.65   48.00
   6  -6   2  504.45   45.40
   6   6  -2  479.65   45.60
  -6  -6   2  555.04   47.20
   6  -6  -2  559.14   46.80
   6  -6  -2  573.34   46.30
   6  -6  -2  483.45   44.90
   6   6   2  518.25   45.90
   6   6   2  542.65   45.30
   6   6   2  466.55   48.60
  -6   6  -2  506.95   46.20
   8  -6   2  217.88   20.50
   8  -6   2  171.18   17.90
   8   6  -2  168.68   18.20
   8   6  -2  176.88   21.20
  -8   6   2  162.48   21.30
   8   6   2  162.48   17.90
   8   6   2  138.49   17.90
   8  -6  -2  172.88   19.50
   8  -6  -2  182.98   18.40
  10   6  -2   46.80   10.90
  10   6  -2   74.79   14.70
  10  -6   2   43.00    8.60
  10   6   2   81.09   13.20
  10  -6  -2   58.39    8.80
  10   6   2   60.19    9.10
  -1  -7  -2   21.20    3.00
  -1  -7  -2   18.10    2.40
  -1  -7  -2   19.00    2.50
   1  -7   2   17.90    2.60
  -1   7   2   21.70    2.20
  -1   7   2   19.50    2.80
  -1   7   2   18.60    3.40
   1   7  -2   19.40    2.10
   1  -7   2   18.80    2.70
   1   7  -2   16.20    3.10
   1  -7   2   15.80    3.00
   1   7  -2   24.80    2.90
  -1   7   2   19.90    2.30
  -1   7  -2   18.30    2.70
  -1   7  -2   21.10    3.50
   1  -7  -2   17.60    2.70
   1  -7  -2   24.10    3.30
   1   7   2   21.20    2.60
   1   7   2   20.00    3.10
  -1   7  -2   15.70    2.50
  -1  -7   2   16.20    3.20
   1   7   2   19.70    2.50
   3  -7   2    2.40    1.20
  -3   7   2    0.20    1.30
   3   7  -2    1.70    1.00
   3  -7   2    2.40    1.00
   3   7  -2    3.10    1.40
  -3  -7  -2    2.30    1.30
  -3  -7  -2    3.20    1.30
   3   7  -2    1.30    0.70
   3   7  -2    3.90    1.60
  -3   7   2    1.70    1.10
   3  -7   2    5.20    2.10
   3   7  -2    2.70    1.50
  -3  -7  -2    2.30    1.20
  -3  -7   2    2.70    1.30
   3  -7  -2    1.80    1.30
  -3   7  -2    2.10    1.80
   3  -7  -2    1.80    1.00
   3   7   2    3.40    1.10
   3   7   2    1.60    0.90
  -3   7  -2    2.50    1.20
   3   7   2    2.20    1.20
  -3   7  -2    2.30    1.00
  -5  -7  -2    0.80    0.90
  -5   7   2   -1.20    0.80
   5   7  -2    1.00    0.80
   5   7  -2    1.50    1.40
   5  -7   2    1.80    1.10
  -5  -7  -2    0.40    0.70
   5   7  -2    0.30    0.80
   5  -7   2   -2.50    1.50
   5  -7   2    1.30    0.90
   5   7  -2   -0.70    1.20
   5   7   2   -0.50    1.10
  -5  -7   2   -1.00    0.80
   5  -7  -2    3.00    1.70
   5   7   2    0.00    0.60
   5   7   2   -1.20    1.20
   5  -7  -2    0.60    0.50
  -5   7  -2    0.40    2.00
   5  -7  -2    2.40    1.40
   5  -7  -2    0.20    0.70
  -5   7  -2    2.00    1.40
  -7   7   2    1.70    2.20
   7  -7   2    1.00    1.10
   7   7  -2    2.40    1.30
   7   7  -2    1.30    1.90
   7   7   2    0.80    1.20
   7  -7  -2   -0.40    1.30
   7  -7  -2    1.20    1.30
  -7   7  -2    0.40    1.30
   7   7   2    1.80    1.50
   9  -7   2    0.70    1.40
   9   7  -2    3.20    2.30
   9  -7   2    0.90    1.40
  -9   7   2   -2.50    1.40
   9   7  -2    0.90    1.70
   9   7  -2   -1.60    1.00
   9   7   2   -3.20    1.40
   9   7   2   -3.00    2.00
   9   7   2    0.90    1.40
   9  -7  -2   -0.90    0.90
   0  -8   2  131.39   12.20
   0  -8  -2  121.09   12.20
   0   8  -2  132.59   12.60
   0  -8   2  116.79   12.10
   0  -8  -2  128.59   12.10
   0   8   2  133.69   12.20
   0   8  -2  124.79   12.60
   0   8   2  136.69   12.20
   0  -8   2  125.79   12.90
   0   8   2  127.69   12.60
   0   8  -2  153.08   12.30
  -2  -8  -2 1074.89   97.19
   2  -8   2 1137.59   98.39
   2  -8   2 1163.18   96.39
  -2   8   2 1063.19   98.49
  -2   8  -2 1222.98   98.99
  -2  -8   2 1204.38   96.99
  -2   8  -2 1092.79   96.59
  -4   8   2  582.04   58.89
   4  -8   2  669.53   58.19
  -4  -8  -2  696.03   58.59
   4   8  -2  699.93   58.39
   4   8  -2  696.63   59.19
  -4  -8  -2  627.44   59.19
   4  -8   2  687.63   57.99
   4   8  -2  592.44   60.19
   4   8  -2  666.13   57.49
   4  -8  -2  673.93   56.79
  -4  -8   2  694.53   59.19
   4   8   2  721.53   57.89
  -4   8  -2  752.72   62.19
  -4   8  -2  693.03   58.49
   4  -8  -2  575.24   58.29
   4   8   2  706.83   58.09
   6   8  -2  467.45   48.20
   6  -8   2  540.25   46.30
   6  -8   2  529.85   46.40
  -6   8   2  432.06   49.70
  -6  -8  -2  538.55   47.40
   6   8  -2  570.74   46.50
   6  -8   2  505.75   47.40
  -6  -8  -2  475.75   47.60
   6   8  -2  549.25   49.90
   6   8   2  545.55   46.70
  -6   8  -2  428.56   49.20
   6   8   2  538.65   46.00
   6   8   2  492.65   49.60
   6  -8  -2  582.84   47.10
  -6   8  -2  546.35   47.70
   6  -8  -2  528.35   45.40
   6  -8  -2  519.65   46.80
  -6  -8   2  534.55   47.90
  -8   8   2  127.69   17.70
   8   8  -2  125.79   14.10
   8  -8   2  115.29   13.80
   8   8  -2  106.69   15.90
   8   8   2  130.69   14.30
   8  -8  -2  123.59   14.10
   8   8   2  145.59   18.30
  -1   9   2  100.99    9.00
  -1   9   2   98.09    8.80
   1   9  -2  101.59   10.40
   1  -9   2   86.09    9.90
  -1   9   2   89.89   10.30
   1   9  -2  109.69    9.40
   1   9  -2   92.79    8.70
  -1  -9  -2   89.59    8.90
   1  -9   2   99.39    9.30
   1  -9   2   87.49    9.40
  -1   9   2   87.79    9.40
  -1  -9  -2   90.89    9.00
  -1   9  -2   94.09    9.30
   1   9   2   89.79    9.60
   1   9   2   86.59    8.90
  -1   9  -2   91.69   10.50
   1  -9  -2  100.39   10.00
  -1   9  -2   93.59    9.40
   1  -9  -2   85.29    9.30
  -1  -9   2   82.49    9.10
   1   9   2   97.49    9.30
  -1  -9   2   89.69    8.20
  -1  -9   2  109.29   10.90
   3  -9   2    5.00    1.70
   3  -9   2    3.00    1.20
  -3  -9  -2    3.30    1.90
  -3   9   2    2.50    1.40
   3   9  -2    3.60    0.80
  -3  -9  -2    3.60    1.50
   3   9  -2    3.60    2.30
   3  -9   2    1.70    1.40
   3   9  -2    7.00    1.50
   3   9  -2    3.00    1.30
  -3   9   2    5.30    2.70
  -3  -9  -2    2.50    1.10
   3   9   2    5.20    1.50
  -3  -9   2    5.20    1.80
   3   9   2    3.50    1.30
   3  -9  -2    2.20    2.00
   3  -9  -2    4.80    1.80
  -3   9  -2    2.40    1.40
  -3   9  -2    5.70    2.70
   5   9  -2   11.40    4.10
   5   9  -2    8.60    2.60
   5   9  -2    5.90    3.20
   5  -9   2   14.50    3.60
  -5  -9  -2   12.00    3.50
  -5   9   2   18.80    6.10
   5  -9   2   15.80    2.80
  -5  -9  -2   15.90    3.60
   5   9  -2   14.70    2.60
   5   9   2   13.60    2.50
   5   9   2   15.40    2.80
  -5  -9   2   18.50    3.80
   5   9   2   14.20    4.70
   5  -9  -2   14.20    2.60
  -5   9  -2   16.70    3.10
   5  -9  -2   11.40    1.80
   5  -9  -2   16.00    3.20
  -5   9  -2    8.70    4.10
   7  -9   2    2.80    1.70
   7   9  -2    1.40    2.10
  -7   9   2    2.70    1.70
   7   9  -2    3.60    1.60
   7  -9  -2    3.90    1.90
  -7   9  -2    1.90    2.10
   7  -9  -2    1.00    1.90
   7   9   2    4.50    2.10
   9  -9   2    0.70    1.70
   9   9  -2    0.20    1.70
   9   9  -2    0.40    1.70
   9  -9   2    2.50    1.40
   9   9   2    2.10    2.40
   9   9   2    0.20    1.30
   9  -9  -2    1.30    1.40
   9   9   2    4.10    2.40
   0  10   2  649.64   65.29
   0 -10  -2  736.63   65.39
   0  10   2  810.02   66.39
   0  10   2  807.52   65.69
   0  10   2  763.82   66.19
   0  10  -2  854.21   65.59
   0 -10  -2  748.23   65.59
   0  10  -2  742.23   66.09
   0 -10   2  747.43   65.59
   0  10  -2  796.62   66.29
  -2  10   2 1012.60   95.69
   2 -10   2 1251.97   95.59
  -2  10   2 1106.79   97.69
   2 -10   2 1071.09   96.99
  -2  10  -2 1157.48   97.89
   4  10  -2  438.46   39.80
   4  10  -2  426.76   38.10
  -4  10   2  375.16   42.20
   4 -10   2  447.46   39.40
   4 -10   2  416.66   38.90
  -4 -10  -2  445.66   39.60
  -4 -10  -2  504.25   41.20
   4 -10   2  444.76   42.10
   4  10  -2  446.46   39.30
  -4 -10   2  487.05   40.50
   4 -10  -2  468.25   39.80
   4  10   2  426.96   38.90
  -4  10  -2  437.46   42.70
  -4  10  -2  432.26   39.20
   4  10   2  453.25   38.90
   6  10  -2  338.97   35.30
  -6 -10  -2  376.36   34.70
   6  10  -2  373.36   33.10
   6 -10   2  364.26   33.60
  -6  10   2  350.66   37.70
   6 -10   2  356.06   33.10
   6  10   2  307.67   36.00
   6 -10  -2  369.86   31.90
   6 -10  -2  387.56   33.00
   6  10   2  371.86   33.40
   6  10   2  316.17   32.80
  -6 -10   2  429.56   35.70
   6 -10  -2  420.96   34.40
   8  10  -2  103.49   11.80
   8  10  -2  112.39   14.80
   8 -10   2  100.09   11.70
  -8  10   2   90.19   14.20
   8  10   2   91.49   11.40
   8 -10  -2   95.59   11.70
   8  10   2  101.29   14.60
   1 -11   2   10.00    2.30
  -1 -11  -2    8.70    1.60
  -1  11   2    5.60    1.90
  -1 -11  -2    9.30    1.90
   1  11  -2    7.00    2.30
  -1  11   2    8.10    1.60
   1 -11   2    8.60    2.50
   1  11  -2    9.80    1.90
  -1  11   2   10.50    1.80
  -1  11   2    8.40    3.00
   1  11  -2    9.30    1.90
   1 -11   2   13.40    2.60
   1  11   2    9.70    2.10
   1  11   2    9.70    2.00
   1 -11  -2   10.70    2.20
   1  11   2    9.20    3.00
  -1  11  -2    8.90    2.00
  -1 -11   2    6.30    2.00
   1  11   2    9.30    1.80
  -1 -11   2    8.60    1.30
  -1  11  -2    7.10    2.80
  -1  11  -2    9.50    2.00
   1 -11  -2    6.40    2.00
  -1 -11   2    9.80    3.20
   3 -11   2    4.30    1.80
   3  11  -2    6.10    1.80
   3 -11   2    4.90    1.40
  -3 -11  -2    5.40    1.90
   3  11  -2    4.60    2.50
  -3 -11  -2    5.70    1.90
  -3  11   2    1.80    1.90
   3  11  -2    3.60    0.90
   3 -11   2    3.10    2.10
   3  11   2    5.30    1.60
  -3 -11   2    3.10    1.40
  -3  11  -2    4.00    2.50
  -3  11  -2    6.80    1.50
  -3  11  -2    3.80    1.50
   3 -11  -2    5.60    2.00
   3  11   2    5.90    1.80
  -5  11   2    1.30    1.50
   5 -11   2    0.00    0.60
   5  11  -2   -1.80    1.00
  -5 -11  -2    1.20    1.00
   5  11  -2    0.00    0.50
   5 -11   2    0.70    0.90
   5  11   2   -0.20    1.20
   5  11   2    1.00    1.10
  -5  11  -2    0.50    0.60
   5  11   2   -0.30    0.60
   5 -11  -2   -0.20    0.80
  -5 -11   2    0.10    0.80
  -7  11   2   -0.30    1.60
   7 -11   2   -0.40    0.90
   7  11  -2    2.20    2.20
   7  11   2   -0.20    1.00
  -7  11  -2    2.30    2.10
   7 -11  -2    0.90    1.10
   9  11  -2    1.00    1.80
   9 -11   2   -1.40    1.20
   9  11   2    0.40    1.80
   9 -11  -2    1.20    1.40
   9  11   2    4.70    3.00
   0  12  -2  721.33   65.99
   0  12   2  773.92   65.39
   0 -12  -2  752.32   65.39
   0 -12   2  819.12   65.39
   0  12   2  709.03   66.09
   0  12  -2  828.32   65.29
   0 -12  -2  706.03   64.99
   0  12   2  816.52   65.39
   0  12   2  738.33   65.99
   0 -12   2  737.23   65.29
   0  12  -2  733.63   65.89
  -2  12   2  911.71   76.09
   2 -12   2  768.42   76.79
   2  12  -2  790.82   78.69
   2  12  -2  981.90   76.19
  -2 -12  -2  972.40   77.19
   2  12  -2 1005.90   77.29
  -2 -12  -2  840.82   76.49
  -2  12   2  934.51   75.99
  -2  12   2  953.30   79.89
   2 -12   2  911.91   77.39
  -2  12  -2  890.21   76.99
  -2  12  -2  940.91   77.39
  -2 -12   2  872.21   77.39
   2 -12  -2  740.73   77.89
  -2 -12   2  881.71   75.69
  -2  12  -2  970.80   80.09
   2  12   2  948.91   76.89
   2 -12  -2  808.42   77.09
   2  12   2  949.51   76.99
  -4 -12  -2  365.76   36.10
   4  12  -2  421.76   37.90
  -4  12   2  472.05   37.50
  -4 -12  -2  384.76   36.20
  -4  12   2  477.75   41.00
   4 -12   2  378.26   35.50
   4 -12   2  365.46   38.20
   4  12  -2  357.56   34.30
   4 -12   2  411.06   36.10
   4  12   2  399.56   35.60
  -4 -12   2  374.66   36.50
  -4  12  -2  407.96   36.00
   4 -12  -2  396.16   36.20
  -4  12  -2  464.55   40.50
   4  12   2  398.96   35.30
   6  12  -2  281.27   23.90
  -6  12   2  263.47   29.10
   6 -12   2  265.17   24.80
   6  12  -2  224.38   26.90
  -6 -12   2  257.07   26.10
  -6  12  -2  282.27   29.10
   6 -12  -2  246.18   24.70
   6  12   2  233.78   27.30
   6  12   2  258.97   24.30
   6  12   2  262.17   24.20
   8 -12   2  106.59   12.50
  -8  12   2  103.09   15.80
   8  12  -2  110.09   14.90
  -8  12  -2  142.29   17.30
   8 -12  -2   90.89   12.10
   8  12   2   99.29   15.20
   8  12   2  117.69   12.80
   1  13  -2   48.60    5.50
   1 -13   2   41.70    5.90
  -1  13   2   37.10    6.20
  -1 -13  -2   43.30    5.30
  -1 -13  -2   45.00    5.00
   1  13  -2   39.00    6.00
   1 -13   2   48.40    6.10
  -1  13   2   46.70    5.40
  -1  13  -2   44.40    6.70
   1 -13  -2   41.90    5.60
  -1  13  -2   44.50    5.50
   1  13   2   52.69    6.10
   1  13   2   43.70    5.60
  -1 -13   2   43.70    5.40
  -1 -13   2   43.80    4.50
   1  13   2   38.80    6.30
   1 -13  -2   43.70    5.30
  -1 -13   2   34.90    6.10
  -1  13  -2   37.10    5.20
   1  13   2   33.40    4.90
  -3  13   2    1.40    1.20
   3  13  -2    1.50    1.20
   3 -13   2    0.10    0.70
   3  13  -2    1.70    1.10
   3  13  -2   -0.20    0.40
   3 -13   2    0.00    0.60
  -3 -13  -2   -0.80    0.60
  -3 -13  -2   -0.20    0.50
   3 -13   2    0.70    0.70
   3  13  -2    0.20    0.60
  -3  13  -2    0.00    0.90
   3  13   2    1.60    1.20
   3  13   2   -0.30    0.60
  -3  13  -2    0.60    0.90
  -3  13  -2    1.00    0.70
   3  13   2    0.30    0.60
   3 -13  -2   -1.10    0.80
   5  13  -2    1.10    1.80
   5 -13   2    2.30    1.10
   5 -13   2    1.90    1.40
  -5  13   2    3.50    2.20
  -5 -13  -2    3.10    2.70
   5  13  -2    2.10    1.60
   5 -13  -2    2.90    1.50
  -5 -13   2   -0.60    0.90
   5  13   2    2.80    2.50
   5  13   2    0.40    0.90
   5  13   2    1.10    1.10
  -5  13  -2    1.50    1.00
  -5  13  -2    3.60    2.20
   5  13   2    3.30    1.40
   7 -13   2    1.40    1.30
   7  13  -2   -0.30    0.80
   7  13  -2   -3.00    1.30
  -7  13  -2    0.40    1.80
   7  13   2    4.00    2.70
   9 -13   2    0.70    1.50
   9  13  -2   -1.00    2.60
  -9  13   2   -0.90    1.40
   9  13   2   -0.80    1.70
   9 -13  -2   -1.70    1.10
   0 -14  -2  800.92   75.29
   0  14   2  897.21   75.49
   0  14   2 1003.10   76.59
   0  14  -2  893.91   76.09
   0 -14  -2  891.11   75.09
   0 -14   2  742.43   74.89
   0  14   2  839.52   76.39
   0  14  -2  865.41   76.29
   0 -14   2  947.61   77.19
   2  14  -2  597.64   49.50
   2 -14   2  638.14   49.00
   2 -14   2  476.55   49.00
  -2 -14  -2  585.94   48.90
   2  14  -2  510.65   49.90
   2 -14   2  482.05   50.29
  -2  14   2  477.25   48.90
  -2  14   2  559.54   47.80
   2  14  -2  594.54   48.10
   2  14  -2  653.53   51.29
  -2  14   2  585.94   51.69
   2 -14  -2  627.44   49.10
   2  14   2  554.84   48.60
   2  14   2  561.24   48.60
  -2  14  -2  557.64   48.70
  -2 -14   2  536.15   49.00
  -2  14  -2  568.44   51.69
  -2  14  -2  491.85   48.80
   2  14   2  522.05   50.89
   4 -14   2  414.16   33.60
  -4 -14  -2  380.36   33.90
  -4  14   2  358.46   37.10
   4 -14   2  334.97   32.90
  -4 -14  -2  347.77   33.30
   4  14  -2  390.96   31.80
   4  14   2  315.97   32.60
   4  14   2  360.66   36.20
  -4  14  -2  387.66   37.50
  -4  14  -2  382.36   33.20
   4 -14  -2  396.46   33.70
  -4 -14   2  335.77   33.80
   4  14   2  363.16   32.70
   6  14  -2  183.78   16.50
   6 -14   2  183.78   18.00
   6  14  -2  145.19   19.70
  -6  14   2  226.48   23.60
   6  14   2  181.88   17.40
  -6  14  -2  181.08   21.50
   6 -14  -2  164.08   17.80
   6  14   2  155.68   20.40
  -6 -14   2  163.78   19.00
   8  14  -2   99.99   15.40
  -8  14   2  117.09   17.30
   8 -14   2  122.29   13.70
  -8  14  -2  144.39   18.20
   8  14   2  101.59   16.00
   8 -14  -2  120.39   13.70
   8  14   2  121.39   13.50
  -1  15   2   38.40    5.10
   1 -15   2   37.40    5.70
   1 -15   2   42.20    5.10
  -1  15   2   33.20    6.20
   1 -15   2   38.60    5.40
  -1 -15  -2   32.80    4.70
  -1  15   2   37.00    4.90
   1  15  -2   46.10    5.20
   1  15  -2   44.30    6.10
   1  15  -2   29.40    4.80
   1 -15  -2   31.70    5.50
  -1  15  -2   35.90    6.20
   1  15   2   38.60    5.30
  -1  15  -2   41.20    5.30
  -1  15  -2   27.00    4.60
   1  15   2   33.20    4.70
   1  15   2   37.00    5.40
  -1 -15   2   29.60    5.70
  -1 -15   2   38.00    5.00
   1  15   2   29.10    5.40
   1 -15  -2   33.90    4.70
   3  15  -2   26.50    3.10
   3 -15   2   25.30    3.80
  -3 -15  -2   18.60    3.30
   3  15  -2   24.50    3.50
   3  15  -2   28.90    5.30
   3 -15   2   20.30    3.90
  -3  15   2   11.40    4.50
  -3 -15  -2   19.60    3.60
   3 -15  -2   21.10    5.60
  -3 -15   2   22.60    4.00
   3  15   2   23.30    3.60
   3 -15  -2   28.20    4.20
   3  15   2   23.10    3.70
  -3  15  -2   24.30    3.60
  -3  15  -2   22.70    5.20
   3  15   2   15.10    4.80
   5 -15   2    6.50    2.30
   5  15  -2   13.20    3.40
   5 -15   2    9.60    2.60
  -5 -15  -2    6.20    2.60
   5  15  -2    6.00    2.70
   5  15  -2    9.40    1.80
  -5  15   2    7.80    4.10
   5  15   2    1.60    2.50
  -5  15  -2   18.70    6.40
   5 -15  -2    7.10    2.50
  -5 -15   2    6.50    2.80
   5  15   2    8.60    2.10
   5  15   2   13.30    4.40
  -7  15   2    6.00    4.00
   7 -15   2    6.80    2.50
   7  15  -2   10.40    4.60
   7  15   2    7.70    2.50
   7 -15  -2   11.70    3.40
   7  15   2    6.50    3.60
   9 -15   2    1.60    2.10
   9  15  -2    9.10    3.90
  -9  15   2   -3.10    2.00
   9 -15  -2    1.40    1.40
   0  16   2  475.85   45.20
   0  16   2  507.25   46.50
   0  16   2  501.65   46.10
   0  16  -2  475.05   45.60
   0 -16  -2  556.44   45.10
   0  16   2  499.55   45.10
   0 -16   2  445.86   46.30
   0 -16   2  580.74   45.40
   0  16  -2  538.05   46.70
   2  16  -2  615.94   51.19
   2  16  -2  607.54   50.69
  -2 -16  -2  551.44   50.99
   2 -16   2  557.84   50.99
  -2  16   2  631.54   50.59
   2  16  -2  648.64   53.59
  -2  16   2  643.34   52.09
  -2 -16  -2  583.44   50.69
   2 -16   2  595.84   52.19
  -2  16   2  578.44   54.19
  -2  16  -2  620.54   54.69
  -2 -16   2  562.74   51.29
   2  16   2  535.55   53.29
   2  16   2  554.34   51.29
  -2  16  -2  500.25   51.09
   2 -16  -2  540.85   50.99
   2  16   2  587.64   50.99
  -2  16  -2  569.54   51.09
   4 -16   2  251.97   23.30
  -4 -16  -2  215.88   25.70
  -4 -16  -2  231.98   23.30
   4  16  -2  263.07   21.50
   4 -16   2  282.67   23.30
   4  16  -2  237.78   25.50
  -4  16   2  231.58   26.70
   4  16   2  268.37   26.60
  -4  16  -2  253.67   23.00
   4  16   2  245.38   22.60
  -4  16  -2  234.18   26.60
   4 -16  -2  198.38   22.70
   4  16   2  207.28   22.40
  -4 -16   2  253.47   23.90
  -6  16   2  231.08   25.70
   6 -16   2  184.28   20.60
   6  16  -2  238.68   21.20
   6  16   2  222.08   24.70
  -6  16  -2  218.28   25.10
   6 -16  -2  200.48   20.90
   6  16   2  202.08   20.30
   8  16  -2  111.29   14.50
   8 -16   2   82.29   10.50
   8  16   2   94.39   13.90
   8 -16  -2   92.99   11.00
  -8  16  -2   65.19   12.90
  -1  17   2    8.00    3.20
   1 -17   2    9.70    2.60
  -1  17   2    7.10    2.40
   1 -17   2    5.30    2.40
   1  17  -2    8.00    2.90
  -1 -17  -2    2.60    1.60
   1  17  -2    7.10    2.60
   1  17  -2   10.20    2.10
  -1  17   2    7.50    2.40
  -1  17  -2    6.50    2.70
   1  17   2    6.50    2.90
   1  17   2    4.10    1.90
   1  17   2    5.80    2.70
  -1  17  -2    8.40    2.60
  -1 -17   2    5.10    1.80
  -1  17  -2    5.40    2.10
  -1 -17   2    7.10    1.50
   1  17   2    5.10    2.10
   1 -17  -2    6.50    2.20
  -3 -17  -2    8.10    2.60
   3  17  -2   10.80    2.00
   3  17  -2   13.30    4.40
   3 -17   2    6.20    2.60
  -3  17   2   11.40    4.20
   3 -17   2   13.70    4.40
   3 -17   2    8.90    2.70
   3  17   2   10.90    2.60
   3  17   2    9.10    2.60
  -3 -17   2   15.10    4.10
   3 -17  -2    7.80    2.50
  -3  17  -2   11.80    2.40
  -3  17  -2    7.90    3.40
   3  17   2    7.30    3.60
  -5  17   2    2.60    1.80
   5  17  -2    0.00    0.70
   5  17  -2    2.40    1.60
   5 -17   2   -0.30    0.70
  -5  17  -2    0.20    1.70
   5  17   2   -0.60    1.30
   5 -17  -2    1.30    1.00
   5  17   2   -0.60    0.70
  -5 -17   2    0.50    1.50
   7 -17   2    1.60    1.30
  -7  17   2    2.10    2.30
   7  17  -2    3.40    3.20
   7 -17  -2    4.20    2.00
  -7  17  -2    3.10    2.80
   7  17   2    2.40    1.40
   7  17   2    1.60    1.60
   0 -18  -2  514.45   44.20
   0  18   2  496.35   46.20
   0  18   2  498.85   45.30
   0 -18   2  471.25   43.80
   0  18  -2  543.45   46.50
   0 -18   2  488.55   46.30
   0  18  -2  430.96   44.70
   0 -18   2  533.95   44.40
  -2 -18  -2  319.97   31.10
  -2  18   2  367.26   32.00
   2 -18   2  291.87   32.40
  -2 -18  -2  391.56   32.10
   2  18  -2  369.96   31.80
  -2  18   2  305.07   34.20
   2 -18   2  303.97   31.40
   2  18  -2  318.97   33.20
  -2  18  -2  391.76   32.20
   2 -18  -2  358.86   32.80
   2  18   2  369.36   32.60
  -2 -18   2  353.36   32.00
   2  18   2  336.47   33.90
   2 -18  -2  350.56   31.70
  -2  18  -2  374.56   35.40
   4 -18   2  227.88   23.40
   4 -18   2  240.98   22.60
  -4  18   2  229.78   26.70
  -4 -18  -2  196.18   22.30
   4  18  -2  214.38   24.90
  -4 -18  -2  245.58   23.30
  -4 -18   2  227.58   23.40
  -4  18  -2  258.97   27.30
   4 -18  -2  261.97   23.00
   4  18   2  258.37   22.80
   4  18   2  235.88   25.70
   6  18  -2  124.19   16.70
  -6  18   2  113.99   17.20
   6 -18   2  134.49   14.30
   6 -18  -2  143.59   14.60
   6  18   2  164.68   18.40
   6  18   2  133.99   14.10
  -6  18  -2  107.49   17.10
   8 -18   2   67.19    9.40
   8  18  -2   56.89   11.40
  -8  18   2   88.19   13.90
   8  18   2   78.29   12.30
   8 -18  -2   74.19    9.60
  -1 -19  -2    0.20    0.80
  -1 -19  -2   -0.40    0.40
   1 -19   2   -0.70    0.50
   1  19  -2    1.00    1.30
  -1  19   2    2.10    1.60
  -1  19   2    0.60    0.70
   1 -19   2    0.20    1.60
   1  19  -2   -0.70    1.00
   1 -19   2    0.40    1.10
   1 -19  -2   -0.10    0.70
  -1 -19   2    1.30    1.00
  -1  19  -2    2.10    2.10
   1  19   2   -0.20    0.80
  -1  19  -2   -0.10    0.60
   3 -19   2    0.20    1.00
  -3 -19  -2    1.30    1.00
   3  19  -2    0.70    1.50
   3 -19   2    1.10    1.70
  -3  19   2   -0.20    1.10
  -3 -19  -2    1.80    1.50
  -3  19  -2    2.90    2.70
  -3 -19   2    1.20    1.10
   3  19   2    1.20    1.00
   3 -19  -2    1.80    1.10
  -5  19   2    0.00    1.70
   5 -19   2    0.80    1.40
   5  19  -2    0.70    1.70
   5  19   2   -0.60    1.20
   5 -19  -2    0.30    0.80
  -5 -19   2    2.10    2.00
  -5  19  -2    6.20    3.50
   5  19   2    0.20    1.00
   7  19  -2   -1.20    2.20
   7 -19   2   -1.30    1.20
  -7  19   2    3.50    3.00
   7 -19  -2    1.90    1.10
   7  19   2    1.80    2.10
  -7  19  -2   -3.70    1.70
   0  20   2  396.16   39.60
   0  20   2  449.16   41.40
   0  20  -2  411.46   39.60
   0 -20  -2  438.86   38.70
   0 -20  -2  392.56   38.40
   0  20  -2  417.96   41.00
   0 -20   2  495.05   39.20
  -2  20   2  225.98   26.70
   2  20  -2  260.87   29.70
   2 -20   2  247.48   25.70
   2 -20   2  265.27   24.10
  -2 -20  -2  250.97   23.60
  -2 -20  -2  273.87   24.30
   2 -20   2  234.78   24.90
   2  20  -2  264.17   24.30
   2  20   2  265.07   26.40
  -2  20  -2  243.78   27.10
   2 -20  -2  233.98   23.70
  -2 -20   2  252.57   24.20
   2  20   2  250.27   25.10
  -4  20   2  227.48   26.90
   4  20  -2  229.58   25.20
   4 -20   2  253.37   22.90
   4  20   2  223.98   22.90
  -4 -20   2  229.38   23.60
  -4  20  -2  198.58   26.00
   4 -20  -2  261.67   23.10
   4  20   2  247.18   25.80
  -6  20   2   82.29   13.50
   6  20  -2   61.79   11.50
   6 -20   2   92.89   10.40
   6  20   2   87.39   12.20
   6 -20  -2   99.59   10.70
  -6  20  -2   81.39   13.10
   8 -20   2   47.30    7.60
  -8  20   2   58.49   11.20
  -8  20  -2   75.49   13.80
   8 -20  -2   55.89    7.90
   1  21  -2    4.00    2.00
   1 -21   2    5.60    2.30
   1  21  -2   11.20    3.50
  -1  21   2    7.00    3.10
   1 -21   2    8.20    2.80
   1 -21   2    2.80    2.40
  -1 -21  -2    7.40    2.70
  -1  21  -2    3.20    2.80
   1  21   2    6.30    3.20
  -1 -21   2    8.10    2.80
   1 -21  -2    9.50    3.00
   3 -21   2    6.00    2.30
  -3  21   2   11.70    5.30
   3  21  -2    4.50    3.00
  -3 -21  -2    7.50    2.50
  -3 -21   2    6.20    2.50
  -3  21  -2    6.10    3.10
   3 -21  -2    5.20    2.00
   3  21   2    7.00    2.60
   3  21   2    8.50    4.00
  -5  21   2    6.30    3.20
   5 -21   2    3.10    1.90
  -5 -21   2    3.00    2.10
   5  21   2    0.80    1.60
  -5  21  -2   -0.80    1.60
   5 -21  -2    4.30    1.70
   7  21  -2   -1.60    1.20
  -7  21   2   -0.20    1.70
   7 -21   2   -1.00    1.30
   7 -21  -2    0.50    1.00
  -7  21  -2    0.40    2.60
   7  21   2    1.60    1.50
   0 -22   2  318.67   26.40
   0 -22  -2  243.38   25.40
   0 -22   2  285.67   25.80
   0 -22  -2  225.78   25.40
   0  22  -2  284.17   28.70
   0  22   2  295.57   29.00
   2  22  -2  140.99   17.00
   2 -22   2  131.29   15.20
  -2  22   2  143.19   18.70
  -2 -22  -2  147.69   15.60
   2 -22  -2  159.88   15.60
  -2  22  -2  177.48   19.90
  -2 -22   2  163.08   16.00
   2  22   2  143.79   17.00
  -4  22   2  217.18   27.00
   4 -22   2  199.38   22.30
   4 -22  -2  248.58   22.90
   4  22   2  259.27   24.20
   4  22   2  261.97   27.20
  -4  22  -2  241.68   27.60
  -4 -22   2  216.08   23.30
   6 -22   2   68.39    8.70
  -6  22   2   70.19   12.00
   6  22  -2   48.70    9.60
   6  22   2   83.09   11.60
   6 -22  -2   80.09    9.20
  -6  22  -2   58.89   11.30
  -1 -23  -2    2.80    1.60
   1 -23   2    1.30    1.30
  -1  23   2    1.20    1.50
   1  23  -2   -0.40    2.20
  -1  23  -2   -0.90    2.30
   1  23   2   -0.40    1.30
   1 -23  -2    1.50    1.00
  -1 -23   2    1.60    1.20
  -3 -23  -2    1.40    1.20
   3 -23   2    0.00    0.90
  -3  23   2   -2.20    1.40
  -3 -23   2    0.20    0.90
   3 -23  -2    0.20    1.10
  -3  23  -2    0.80    2.40
   5  23  -2   -1.10    1.00
  -5  23   2    0.70    2.20
  -5 -23   2    0.50    1.50
   5  23   2    3.40    2.30
  -5  23  -2    2.00    2.00
   5 -23  -2   -0.40    0.80
   7  23  -2   -2.20    1.60
   7 -23   2    1.30    1.10
   7  23   2    3.60    2.80
  -7  23  -2    1.40    3.30
   0 -24  -2  204.88   20.80
   0  24  -2  198.68   23.60
   0  24   2  187.28   23.30
   0 -24   2  247.48   21.50
  -2  24   2  112.49   16.70
   2  24  -2  110.59   15.00
   2 -24   2  125.09   13.70
  -2 -24  -2  114.49   13.60
   2 -24  -2  140.99   13.90
   2  24   2  127.79   15.80
  -2 -24   2  141.89   14.30
  -2  24  -2  130.99   17.40
  -4  24   2  151.88   19.70
   4 -24   2  130.79   14.60
   4  24  -2  135.59   16.80
  -4  24  -2  131.99   18.60
   4 -24  -2  143.39   14.80
   4  24   2  130.29   17.20
   6 -24   2   58.79    7.70
  -6  24   2   69.09   11.60
   6  24  -2   63.29   10.00
   6 -24  -2   45.20    7.00
   6  24   2   49.30    9.20
  -6  24  -2   38.60    9.60
   1  25  -2    2.60    1.50
  -1  25   2   -0.10    1.10
  -1 -25  -2    0.20    1.10
   1  25  -2    0.40    2.10
   1 -25   2   -0.40    0.90
   1 -25  -2   -0.90    0.60
   1  25   2    0.10    1.10
   1  25   2    1.70    1.30
  -1  25  -2   -2.40    1.40
  -1 -25   2   -0.10    1.20
   3  25  -2   -1.30    1.10
   3 -25   2    0.70    1.20
   3 -25  -2   -1.20    0.60
   3  25   2    0.50    2.10
  -3 -25   2    2.70    1.40
  -3  25  -2    1.20    1.90
   5 -25   2   -0.50    0.80
  -5  25   2   -3.50    1.80
   5  25  -2    0.90    1.70
   5 -25  -2    2.20    1.50
  -5  25  -2   -0.50    2.30
   0  26  -2  120.09   16.80
   0  26   2  117.79   16.50
   0 -26  -2  115.59   13.50
   0 -26   2  141.69   14.10
  -2 -26  -2  116.99   13.60
   2 -26   2  124.39   13.60
  -2  26   2  116.09   17.30
   2  26   2  121.29   16.10
  -2  26  -2  120.89   17.00
  -2 -26   2  139.49   14.40
   2 -26  -2  122.59   13.50
   4  26  -2   75.49   13.00
   4 -26   2   91.79   10.80
  -4  26   2  103.69   15.80
  -4  26  -2   68.09   13.40
   4 -26  -2  109.79   11.10
   6 -26   2   55.29    7.60
  -6  26   2   61.39   12.20
  -6  26  -2   62.79   11.90
   6  26   2   30.20   10.20
  -1  27   2    4.00    3.50
   1 -27   2    3.20    1.60
  -1 -27   2    0.00    1.40
  -1  27  -2    3.20    3.40
   1 -27  -2    1.90    1.40
   1  27   2    3.00    3.00
   3 -27   2    1.20    0.90
  -3  27   2    1.40    2.90
  -3  27  -2    3.50    3.90
  -5  27   2    1.70    2.60
   5 -27   2    0.50    1.10
   5  27   2   -1.80    1.10
   5 -27  -2    1.30    1.20
  -5  27  -2   -1.10    3.00
   0  28   2   66.19   12.50
   0 -28   2   79.19    9.70
   0 -28  -2   80.99    9.80
   2 -28   2   75.59   10.50
  -2  28   2   87.29   15.10
   2 -28  -2  117.69   11.70
  -2  28  -2  113.09   16.50
  -2 -28   2   87.89   11.40
   4  28  -2   54.29    9.80
   4 -28   2   59.59    7.90
  -4  28   2   71.19   12.90
   4 -28  -2   57.59    7.90
  -4  28  -2   48.10   11.40
  -1  29   2    1.80    3.70
   1 -29   2    0.90    1.00
   1 -29  -2    2.90    1.50
  -1 -29   2    3.20    1.80
  -1  29  -2    2.00    4.10
   3 -29   2   -0.70    0.90
  -3  29   2    7.90    4.30
   3 -29  -2    3.10    1.40
  -3 -29   2    1.60    1.40
  -3  29  -2   -5.30    2.80
   0  30   2   62.79   13.20
   0 -30  -2   65.89    8.70
   0 -30   2   60.29    8.30
  -2  30   2   78.69   14.80
   2 -30   2   85.39   10.70
  -2 -30   2   92.19   11.30
  -2  30  -2   98.29   19.00
   2 -30  -2   91.59   10.90
   1 -31   2    3.00    2.10
  -1  31   2   -0.90    3.60
  -1 -31   2    0.60    1.00
   1 -31  -2   -1.10    0.80
   0 -32  -2   64.19    9.10
   0 -32   2   73.39    9.30
   0   0   3 1460.55  199.88
   0   0  -3 1752.72  204.38
   2   0  -3 2831.62  210.78
   2   0  -3 2204.18  261.07
  -2   0   3 3049.29  293.67
   2   0   3 2135.89  276.67
   2   0  -3 2152.88  267.37
   2   0   3 2272.87  292.47
   4   0   3  531.65   46.20
  -4   0  -3  553.14   47.40
   4   0   3  623.74   50.09
   4   0   3  590.84   47.60
   4   0  -3  445.66   47.50
   4   0  -3  477.55   47.00
   4   0  -3  533.45   46.80
   4   0   3  537.05   46.10
  -4   0   3  535.55   48.70
   4   0  -3  557.14   47.70
   4   0   3  501.25   46.90
   6   0  -3  440.16   43.80
   6   0   3  438.76   41.90
   6   0  -3  463.25   42.80
   6   0   3  477.75   42.90
   6   0  -3  522.25   45.90
   6   0   3  475.35   42.10
   6   0  -3  538.85   43.60
  -6   0   3  435.86   44.80
   8   0   3  165.98   17.10
   8   0   3  133.19   16.90
   8   0  -3  170.98   17.90
  -8   0  -3  186.48   24.80
   8   0  -3  172.28   19.50
  10   0  -3   77.29   11.60
  10   0  -3   67.29   10.50
  10   0   3   74.59   13.50
  10   0   3   85.19   11.20
   1  -1   3   11.30    2.00
  -1   1   3   12.70    2.20
   1   1  -3   13.80    2.10
  -1  -1  -3   15.10    2.30
   1  -1   3   15.50    2.10
  -1   1   3   12.30    1.80
   1   1  -3   14.30    1.80
   1   1  -3   12.30    2.00
  -1   1   3   12.90    2.20
  -1  -1  -3   17.60    2.20
  -1   1  -3   16.30    2.20
  -1   1  -3   10.50    2.00
   1  -1  -3   15.60    2.10
   1   1   3   15.40    2.20
  -1  -1   3   12.50    2.10
  -1  -1   3   15.60    2.20
   1  -1  -3   12.70    1.80
   1   1   3   15.10    2.10
  -1  -1   3   12.60    1.90
   1  -1  -3   18.80    2.40
  -1   1  -3   14.80    1.40
   3  -1   3   48.80    5.10
  -3   1   3   34.60    6.00
   3  -1   3   44.80    4.80
   3  -1   3   55.59    6.10
  -3  -1  -3   40.10    5.60
   3   1  -3   45.50    5.90
   3  -1   3   36.80    6.40
   3   1  -3   53.29    5.70
   3   1  -3   52.59    6.10
   3   1  -3   58.99    6.10
   3   1   3   51.49    5.80
   3   1   3   46.50    4.80
  -3   1  -3   49.10    5.80
   3   1   3   44.80    4.80
   3   1   3   59.59    7.20
   3  -1  -3   39.90    5.80
   3  -1  -3   52.79    5.70
   3  -1  -3   42.80    5.10
  -3  -1   3   44.40    6.20
   3  -1  -3   50.09    6.00
  -3  -1   3   44.70    5.80
   5  -1   3    0.80    1.00
   5  -1   3    2.80    1.20
   5  -1   3    1.10    0.90
   5   1  -3    1.30    1.70
   5  -1   3    1.50    1.00
   5  -1   3   -1.60    1.20
  -5   1   3    1.20    1.50
   5   1  -3    1.50    1.50
  -5  -1  -3    5.30    1.80
   5   1  -3    0.90    0.90
   5   1  -3    1.90    0.90
   5  -1  -3    1.90    1.00
   5   1   3    2.90    1.60
   5   1   3    1.60    0.90
   5  -1  -3    1.50    1.30
   5  -1  -3    1.50    1.10
   5   1   3    3.20    2.10
   5  -1  -3    2.30    1.70
   5  -1  -3    1.80    1.20
  -5   1  -3    1.10    1.10
   5   1   3    0.00    0.60
  -5  -1   3    3.40    2.20
   5   1   3    2.70    1.40
   7  -1   3   -0.60    1.30
   7  -1   3   -0.20    0.60
   7  -1   3    0.50    1.10
   7   1  -3    0.10    1.20
   7   1  -3    0.40    1.60
   7   1   3   -1.20    0.80
   7   1   3   -1.50    1.00
   7  -1  -3   -1.70    1.00
   7   1   3    0.30    0.90
   7  -1  -3    0.20    1.10
  -7  -1   3    1.30    1.30
   9  -1   3    1.00    1.40
   9   1  -3    2.90    2.30
   9   1  -3   -1.10    2.50
   9   1  -3    1.60    1.50
   9  -1  -3   -1.60    2.30
   9   1   3    0.20    1.40
   9  -1  -3    1.60    2.00
   9   1   3    1.90    1.50
   0   2   3  727.73  126.49
   0   2   3  660.63   59.99
   0  -2   3  714.73   59.49
   0  -2  -3  839.42  123.39
   0  -2   3  617.54  107.19
  -2  -2  -3  894.61   69.79
   2  -2   3  737.33   71.69
  -2   2   3  930.31   70.49
  -2   2   3  776.42   71.49
   2  -2  -3  905.91   71.19
   2  -2  -3  720.83   70.69
  -2  -2   3  895.31   70.99
  -2  -2   3  748.43   71.19
   4  -2   3 1029.80   85.79
   4   2  -3  925.41   86.59
  -4   2   3 1110.39   89.49
   4  -2   3  979.20   86.49
   4  -2   3 1024.40   86.29
   4   2  -3  921.21   86.59
  -4  -2  -3 1005.80   87.19
   4   2  -3  961.60   87.59
   4   2  -3 1047.70   87.69
   4   2   3  914.51   86.69
  -4  -2   3 1016.80   88.09
   4   2   3 1176.98   89.59
   4  -2  -3 1135.89   87.19
   4   2   3 1042.20   85.69
   4  -2  -3 1049.20   86.19
  -4  -2   3 1054.59   87.39
   4  -2  -3  866.01   87.49
  -4   2  -3  918.41   86.79
   6   2  -3  453.05   42.40
  -6   2   3  446.96   44.90
   6  -2   3  497.65   42.10
   6   2  -3  456.25   43.90
   6  -2   3  451.75   42.10
   6  -2   3  499.95   41.60
   6   2  -3  505.35   44.30
  -6  -2  -3  494.15   43.00
  -6  -2   3  459.05   44.20
   6  -2  -3  491.45   42.00
   6   2   3  466.45   41.60
   6  -2  -3  438.96   42.10
  -6   2  -3  464.95   42.60
   6  -2  -3  400.16   43.60
   6   2   3  429.86   41.10
   6  -2  -3  502.75   43.50
   6   2   3  398.76   41.80
   6   2   3  540.95   46.40
   8   2  -3  174.98   19.10
  -8  -2  -3  169.88   19.50
   8  -2   3  161.58   19.00
   8   2  -3  190.98   21.30
   8   2  -3  194.88   20.00
   8  -2   3  202.78   18.90
   8  -2  -3  202.88   19.40
   8   2   3  186.88   18.80
   8  -2  -3  173.28   20.50
  -8   2  -3  158.28   19.60
   8   2   3  153.98   18.50
  10   2  -3   65.19    9.50
  10   2  -3   68.69    9.90
  10   2  -3   53.79   11.20
  10  -2   3   55.89    8.90
  10   2   3   58.79    9.10
  10   2   3   65.99   14.80
  10  -2  -3   51.09    8.70
  10  -2  -3   48.90    9.30
  -1  -3  -3  626.74   49.30
   1   3  -3  511.65   49.20
   1  -3   3  599.24   49.90
  -1   3   3  576.74   49.10
  -1   3   3  579.64   49.40
   1   3   3  597.74   49.10
   1   3   3  581.34   48.20
  -1  -3   3  516.65   49.30
   1  -3  -3  528.75   48.90
   1  -3  -3  597.04   48.30
  -3  -3  -3   60.59    5.90
   3  -3   3   56.09    5.80
   3  -3   3   61.69    8.20
  -3  -3  -3   61.89    7.00
  -3   3   3   44.40    7.20
   3   3  -3   59.19    7.20
   3   3  -3   49.90    6.50
   3   3  -3   58.49    6.50
  -3  -3   3   43.60    6.40
  -3   3  -3   56.19    6.50
  -3  -3   3   54.39    6.80
   3  -3  -3   53.19    5.70
   3   3   3   56.89    6.50
  -3   3  -3   55.89    6.20
   3  -3  -3   73.29    7.80
   3  -3  -3   60.49    7.00
   3   3   3   64.49    5.70
   3  -3  -3   66.79    6.90
   3  -3  -3   58.59    6.10
   5   3  -3   45.30    6.50
   5  -3   3   50.19    6.30
  -5   3   3   52.49    8.20
   5  -3   3   47.80    5.80
   5  -3   3   43.20    6.00
   5   3  -3   38.70    5.90
   5   3  -3   45.50    7.20
   5   3  -3   49.40    7.30
  -5  -3  -3   50.99    6.80
   5   3   3   52.09    8.20
   5  -3  -3   53.19    7.70
   5  -3  -3   47.10    5.90
   5  -3  -3   46.70    6.60
   5   3   3   47.70    6.50
   5   3   3   45.70    5.50
  -5  -3   3   47.20    6.70
   5  -3  -3   46.40    6.30
   5  -3  -3   51.39    6.80
  -5   3  -3   56.89    6.90
   5   3   3   53.79    6.60
  -5  -3   3   50.19    7.40
   7  -3   3   18.50    3.80
   7  -3   3   25.50    4.80
   7   3  -3   27.40    7.60
   7  -3   3   10.90    3.50
   7   3  -3   17.90    4.80
  -7  -3  -3   21.00    4.50
   7   3   3   16.10    3.40
   7  -3  -3   17.90    3.90
   7  -3  -3   18.40    5.80
   7   3   3   16.80    3.60
   7   3   3   16.10    4.80
   7  -3  -3   18.60    3.70
   9   3  -3    3.20    2.00
   9   3  -3    7.20    4.80
   9   3  -3    2.00    1.90
   9  -3   3    2.70    2.20
   9  -3   3    2.40    2.20
   9  -3  -3    0.40    1.50
   9  -3  -3    0.50    3.80
   9   3   3    7.90    3.60
   9   3   3    1.40    1.90
   0   4   3  886.61  170.98
   0  -4   3  990.60  179.08
   0  -4  -3 1124.69  180.68
   2   4  -3  788.82   70.99
  -2   4   3  810.82   70.59
  -2   4   3  852.81   71.69
  -2  -4   3  816.72   70.39
  -2   4  -3  750.82   71.39
   2  -4  -3  755.02   70.19
  -2  -4   3  957.20   69.99
  -2  -4   3  829.32   71.39
   4   4  -3 1172.48   95.79
  -4  -4  -3 1064.09   95.09
   4  -4   3 1097.49   95.29
   4  -4   3 1174.88   94.99
   4   4  -3 1040.30   96.19
   4   4  -3 1193.48   97.39
  -4  -4  -3  947.61   95.89
  -4  -4   3 1118.29   96.59
   4  -4  -3 1119.59   94.79
   4  -4  -3 1091.29   95.29
  -4  -4   3 1174.28   96.49
   4  -4  -3 1083.59   95.79
   4   4   3  938.11   95.29
  -4   4  -3 1263.07   98.69
  -4   4  -3 1189.88   96.09
   4   4   3 1129.89   94.69
   4   4   3 1222.98   98.19
   6   4  -3  385.86   35.40
   6  -4   3  336.77   34.40
   6  -4   3  363.16   34.40
   6   4  -3  412.46   37.20
  -6   4   3  418.26   38.80
   6   4  -3  332.27   36.10
  -6  -4  -3  407.76   35.80
   6  -4  -3  409.06   35.00
   6   4   3  418.66   34.90
   6   4   3  369.16   33.60
  -6  -4   3  360.16   35.30
   6  -4  -3  383.96   35.30
   6  -4  -3  352.56   33.80
   6   4   3  381.36   38.00
   6   4   3  371.66   34.70
  -6   4  -3  338.17   34.90
  -8   4   3  194.38   24.10
   8   4  -3  181.38   22.60
   8  -4   3  208.28   22.00
  -8  -4  -3  177.98   21.70
   8  -4   3  212.38   20.90
   8   4  -3  197.68   21.70
   8   4  -3  227.38   22.00
   8  -4  -3  222.58   21.40
   8  -4  -3  173.48   21.90
   8   4   3  229.68   21.70
   8   4   3  213.58   21.20
  10   4  -3   62.99    9.50
  10  -4   3   64.79    9.20
  10   4  -3   47.60    8.90
  10   4   3   44.40   10.10
  10   4   3   53.39    8.60
  10  -4  -3   54.09    8.50
   1  -5   3  223.88   19.90
   1  -5   3  204.78   21.00
   1  -5   3  224.68   20.30
  -1  -5  -3  242.48   20.20
  -1   5   3  250.07   20.50
  -1   5   3  229.08   19.40
  -1   5   3  187.08   20.70
  -1  -5  -3  246.18   19.70
   1   5  -3  245.58   21.10
  -1  -5  -3  250.07   20.70
  -1  -5   3  210.28   20.30
   1   5   3  240.48   19.80
  -1  -5   3  208.68   21.10
  -1   5  -3  213.08   21.00
   1   5   3  216.08   20.50
   1  -5  -3  216.38   19.40
  -1   5  -3  227.98   20.30
   1  -5  -3  261.27   20.90
   1  -5  -3  215.58   20.30
  -1   5  -3  234.48   19.90
   3   5  -3   12.40    3.50
   3  -5   3   13.10    2.10
  -3  -5  -3   16.00    3.00
  -3   5   3   15.30    4.40
  -3  -5  -3   16.10    2.70
   3  -5   3   10.30    3.60
   3   5  -3   16.70    2.60
   3   5  -3   12.90    2.40
   3  -5   3   13.30    2.20
  -3  -5  -3   14.70    2.20
   3   5  -3   18.00    3.10
   3   5   3   14.20    2.50
   3  -5  -3   11.90    2.50
   3  -5  -3   13.90    1.80
   3  -5  -3   16.40    3.30
  -3   5  -3   12.20    2.40
   3   5   3   11.40    1.80
  -3  -5   3   13.40    2.40
   3   5   3   11.50    2.70
  -3   5  -3    8.80    3.30
  -3  -5   3    8.30    2.60
   3  -5  -3   13.90    1.70
   5   5  -3   29.50    4.70
  -5  -5  -3   27.80    4.50
  -5   5   3   14.10    4.80
   5  -5   3   22.70    5.40
   5  -5   3   19.70    3.60
  -5  -5  -3   24.40    3.90
   5  -5   3   27.80    3.80
   5  -5   3   22.20    4.00
   5   5  -3   26.80    4.50
   5   5  -3   26.10    4.00
   5   5  -3   30.80    5.50
  -5  -5   3   23.60    4.30
   5  -5  -3   18.50    3.90
  -5   5  -3   27.20    4.40
   5   5   3   21.30    3.90
   5  -5  -3   24.50    3.90
   5  -5  -3   32.90    4.60
   5  -5  -3   24.90    3.40
   5   5   3   26.30    3.50
   5   5   3   27.50    5.50
   5   5   3   19.40    4.10
   7   5  -3    9.30    3.20
   7  -5   3   15.50    3.90
   7  -5   3   13.30    3.60
  -7  -5  -3    8.60    3.00
   7  -5   3   11.00    3.40
   7  -5   3   17.20    5.30
   7   5  -3    8.90    3.90
  -7   5   3   12.20    4.80
   7   5  -3    3.60    3.00
  -7  -5   3   16.70    4.90
   7  -5  -3   10.80    3.30
   7  -5  -3   14.30    4.00
   7   5   3   11.10    3.60
   7   5   3   14.50    4.10
   9  -5   3   -0.50    1.40
   9   5  -3    2.50    1.60
   9  -5   3    0.90    1.50
   9   5  -3   -0.80    1.00
   9   5  -3   -2.00    2.80
   9  -5  -3   -0.70    1.00
   9   5   3   -0.20    1.20
   9   5   3   -1.70    1.60
   0   6  -3 4874.91  612.74
   0   6   3 5170.08  576.54
   0  -6   3 5971.20  575.34
   0  -6  -3 5738.83  627.44
   0  -6  -3 6036.40  580.64
   0   6  -3 5464.55  575.64
   2  -6   3  733.73   65.39
  -2   6   3  861.71   66.29
   2   6  -3  777.52   65.59
   2   6  -3  803.12   64.49
   2  -6   3  802.72   65.19
   2  -6   3  649.54   66.99
  -2  -6  -3  823.72   66.39
  -2  -6   3  672.53   65.79
  -2   6  -3  825.22   67.59
   2  -6  -3  655.33   65.59
  -2   6  -3  735.03   65.29
  -2  -6   3  870.41   67.59
  -4  -6  -3  853.61   77.79
  -4  -6  -3  863.61   76.79
   4  -6   3  871.61   76.49
  -4   6   3  836.22   79.89
   4  -6   3  899.01   76.79
   4   6  -3  905.01   76.99
   4   6  -3  896.71   77.49
   4  -6  -3  831.22   75.59
   4   6   3  922.71   76.19
  -4   6  -3  890.91   76.99
   4  -6  -3 1010.10   77.69
  -4   6  -3  928.21   77.39
   4  -6  -3  915.01   76.09
   4   6   3  839.12   76.89
  -4  -6   3  962.20   78.09
   6   6  -3  177.68   17.80
  -6  -6  -3  190.88   18.90
   6  -6   3  167.58   17.50
   6  -6   3  182.48   17.40
   6   6  -3  166.28   19.00
  -6   6   3  141.59   20.10
   6  -6   3  168.98   18.10
   6   6  -3  219.38   20.90
   6   6   3  175.88   16.90
   6  -6  -3  164.38   16.60
   6   6   3  195.08   18.00
  -6  -6   3  154.68   18.40
   6   6   3  171.98   20.60
   6  -6  -3  181.58   17.90
   6  -6  -3  199.78   18.30
   8   6  -3  202.38   22.80
   8  -6   3  154.18   20.40
   8  -6   3  188.48   19.80
  -8   6   3  162.38   22.70
   8   6  -3  230.98   21.10
   8  -6  -3  198.58   21.20
   8  -6  -3  210.08   20.40
   8   6   3  210.98   20.50
   8   6   3  198.28   20.50
  10   6  -3   52.79   11.30
  10  -6  -3   68.69    9.40
  10   6   3   57.19    9.30
  10   6   3   66.49   12.50
  -1   7   3   14.70    2.40
  -1  -7  -3   11.40    2.30
  -1   7   3   15.20    3.00
   1  -7   3   15.70    2.90
  -1   7   3   13.90    1.70
   1   7  -3   11.50    2.60
   1  -7   3   11.70    2.20
  -1  -7  -3   15.90    2.20
   1  -7   3   12.00    2.00
  -1  -7  -3   15.70    2.10
   1   7  -3   14.10    2.30
  -1   7  -3   12.30    2.00
   1  -7  -3   14.90    2.30
   1  -7  -3   10.30    2.20
   1   7   3   13.60    2.00
  -1   7  -3   12.90    2.80
  -1   7  -3   13.60    2.30
   1   7   3   20.40    2.80
  -1  -7   3   14.00    2.90
   1   7   3   14.90    2.20
  -1  -7   3   12.40    2.30
   3  -7   3    1.30    1.40
  -3  -7  -3    1.00    0.70
  -3   7   3    0.70    0.50
  -3  -7  -3    0.70    0.80
   3   7  -3   -1.00    0.60
   3  -7   3    0.70    0.50
   3  -7   3    0.50    0.50
  -3  -7  -3   -0.60    0.50
   3   7  -3    0.40    0.50
   3   7  -3    0.70    0.70
  -3   7   3    0.30    0.70
   3   7  -3    0.80    0.60
   3   7  -3    1.10    0.70
   3  -7  -3    1.00    1.10
   3   7   3    1.10    0.60
  -3  -7   3    1.20    1.10
   3  -7  -3    1.60    0.90
   3   7   3    1.20    0.80
  -3   7  -3    0.80    0.90
  -3   7  -3    0.60    1.10
   3   7   3   -0.10    0.50
  -5  -7  -3    0.30    0.70
   5   7  -3    1.30    1.40
  -5  -7  -3    0.40    0.50
   5  -7   3    1.00    0.80
   5  -7   3    0.50    0.70
  -5   7   3    1.40    1.60
   5   7  -3   -0.30    0.40
   5   7  -3   -1.50    0.80
   5   7  -3    0.60    1.00
   5   7  -3    0.40    0.80
   5   7   3   -0.30    0.30
  -5   7  -3   -0.70    0.90
   5  -7  -3    1.90    1.20
   5  -7  -3   -1.90    1.00
   5   7   3    0.40    0.80
  -5  -7   3    1.10    1.20
   5   7   3    1.10    1.50
   5  -7  -3    0.60    0.60
  -5   7  -3   -0.50    0.50
   5   7   3    0.60    1.30
   5  -7  -3   -0.10    0.40
   7   7  -3    0.00    1.50
  -7  -7  -3    1.30    1.30
   7   7  -3    1.70    1.50
  -7   7   3    1.10    1.70
   7  -7   3    1.40    1.20
  -7  -7   3    0.90    1.10
   7   7   3    0.70    1.10
   7  -7  -3    1.50    1.50
   7  -7  -3    1.10    1.20
   9   7  -3    4.60    3.10
   9  -7   3    0.60    1.20
  -9   7   3    3.00    2.40
   9   7  -3   -0.60    1.60
   9   7  -3    4.10    2.00
   9  -7   3    2.50    1.90
   9   7   3    1.40    1.20
   9   7   3   -0.50    1.90
   9  -7  -3   -0.90    1.10
   9   7   3    1.90    1.80
   0   8   3  622.24   50.89
   0   8  -3  519.35   51.19
   0   8   3  630.64   50.99
   0  -8  -3  594.74   50.79
   0  -8  -3  575.84   50.99
   0  -8  -3  584.54   50.79
   0   8  -3  529.35   50.69
   0   8   3  550.84   51.19
   0  -8   3  594.34   50.99
   0  -8   3  658.83   50.99
   0   8  -3  586.34   51.09
   0  -8   3  666.63   51.99
   2   8  -3 1238.68  108.59
   2  -8   3 1451.85  109.79
  -2   8   3 1396.16  107.99
   2  -8  -3 1212.18  107.39
  -2   8  -3 1168.88  109.09
   2  -8  -3 1299.37  108.49
  -2  -8   3 1079.69  108.69
   4   8  -3  427.46   37.00
   4   8  -3  484.45   38.40
   4   8  -3  379.06   37.70
  -4  -8  -3  484.05   38.30
   4  -8   3  391.36   40.40
  -4  -8  -3  378.56   38.70
   4  -8   3  414.46   37.70
   4  -8   3  431.06   37.70
  -4   8   3  373.76   40.70
  -4   8  -3  452.25   41.20
  -4   8  -3  446.16   38.30
   4   8   3  467.65   37.40
   4   8   3  411.66   37.50
  -4  -8   3  436.86   38.90
   4  -8  -3  412.46   38.30
  -6  -8  -3  352.26   34.40
   6   8  -3  383.16   33.80
   6  -8   3  344.87   33.60
   6   8  -3  404.56   36.00
   6  -8   3  320.17   34.50
   6   8  -3  420.36   37.30
  -6   8   3  286.97   36.80
   6  -8   3  391.36   34.00
   6  -8  -3  332.97   34.10
   6   8   3  389.86   34.20
   6   8   3  330.37   36.70
   6  -8  -3  386.46   33.50
   6   8   3  381.16   33.40
  -6  -8   3  422.76   36.00
   6  -8  -3  406.96   32.70
  -8   8   3  145.09   18.90
   8   8  -3  121.99   16.80
   8  -8   3  147.79   16.30
   8  -8   3  133.29   14.50
   8   8  -3  139.19   14.80
   8   8   3  125.89   15.30
   8  -8  -3  110.39   14.30
   8   8   3  131.19   14.60
   1   9  -3   -0.10    0.40
   1  -9   3    1.70    0.90
  -1  -9  -3    0.30    0.60
  -1   9   3    0.90    0.70
  -1   9   3    0.10    0.50
  -1   9   3   -0.50    0.50
  -1  -9  -3    0.40    0.50
   1   9  -3   -0.60    0.50
  -1   9   3    0.00    0.30
  -1  -9  -3    1.20    1.00
   1   9   3    0.40    0.60
  -1   9  -3    0.40    0.40
  -1   9  -3   -0.30    0.70
  -1  -9   3    0.40    0.60
   1  -9  -3    0.80    0.70
   1  -9  -3   -0.30    0.50
   1   9   3    0.70    0.70
  -1   9  -3   -0.40    0.30
  -1  -9   3    0.30    0.60
  -3  -9  -3    2.40    1.10
   3   9  -3    3.40    2.20
  -3   9   3    2.70    2.00
   3   9  -3    4.80    1.00
   3  -9   3    4.60    1.50
  -3  -9  -3    2.40    1.20
   3  -9   3    2.40    1.10
  -3  -9  -3    1.50    1.10
   3   9  -3    2.50    0.60
  -3   9   3    3.60    1.60
   3   9  -3    1.30    1.10
   3   9   3    2.10    1.10
   3   9   3    2.10    0.90
  -3   9  -3    2.00    1.00
  -3   9  -3    0.60    1.70
   3  -9  -3    4.90    1.60
   3  -9  -3    2.20    2.60
  -3  -9   3    0.80    1.10
  -3   9  -3    3.00    1.30
   3   9   3    2.40    1.50
   5  -9   3   -0.30    0.80
  -5   9   3    0.30    1.50
   5   9  -3    0.10    0.60
   5   9  -3   -0.10    0.80
  -5  -9  -3    0.10    0.60
   5   9  -3   -1.70    0.80
   5   9   3    0.30    1.30
   5   9   3   -0.60    0.70
  -5   9  -3    0.70    0.70
   5   9   3    1.40    0.80
  -5   9  -3    0.20    1.40
  -5  -9   3    0.10    0.70
   5  -9  -3    0.30    0.80
   7   9  -3    3.20    2.30
   7   9  -3    0.20    0.70
  -7   9   3    4.10    2.50
   7  -9  -3   -0.60    0.90
   7   9   3    0.10    1.00
   7  -9  -3    1.10    1.20
  -7  -9   3    1.00    1.40
   9  -9   3    0.30    1.10
   9  -9   3    0.40    1.80
   9  -9  -3   -1.30    1.30
   9   9   3    4.70    3.50
   9   9   3    1.80    1.40
   0  10  -3 1031.20   83.29
   0  10   3  924.81   82.39
   0  10   3 1095.59   83.39
   0 -10   3  857.01   83.59
   0 -10   3  943.71   82.39
   0  10  -3  916.91   82.79
   0  10  -3  974.20   82.29
   0  10   3  984.10   82.49
  -2 -10  -3 1517.05  119.69
   2  10  -3 1592.44  120.79
  -2  10   3 1198.88  118.79
   2 -10   3 1312.07  120.29
  -2  10   3 1493.15  121.29
  -2  10  -3 1404.36  120.89
   2 -10  -3 1269.77  119.59
  -2 -10   3 1522.95  121.19
  -2  10  -3 1350.26  118.59
   2  10   3 1338.27  118.09
   4  10  -3  291.57   31.60
   4 -10   3  339.07   29.80
  -4 -10  -3  302.27   30.80
  -4 -10  -3  317.47   30.30
  -4  10   3  364.46   31.10
   4 -10   3  322.07   29.60
  -4  10   3  357.76   33.80
   4  10  -3  347.37   29.70
   4  10  -3  321.37   28.50
   4 -10   3  371.46   33.40
  -4 -10  -3  346.27   30.10
   4  10  -3  288.57   29.50
  -4  10  -3  327.77   30.10
   4  10   3  349.67   29.40
  -4 -10   3  289.17   30.40
   4  10   3  331.67   29.50
   4 -10  -3  350.36   30.50
   6 -10   3  342.67   30.10
   6 -10   3  314.67   29.80
  -6 -10  -3  349.87   31.90
  -6 -10  -3  330.57   30.90
   6  10  -3  358.26   29.60
   6  10  -3  328.07   31.40
  -6  10  -3  386.46   34.90
   6  10   3  337.37   29.90
   6  10   3  277.67   29.10
   6  10   3  250.97   32.10
  -6 -10   3  297.37   31.20
   6 -10  -3  321.77   30.50
   8  10  -3  107.39   15.60
  -8  10   3  112.59   16.80
   8  10  -3  129.99   13.60
   8 -10   3  122.69   13.30
   8  10   3   88.49   15.30
   8 -10  -3  123.79   13.60
   8  10   3  111.49   13.00
  -1  11   3    1.10    0.70
   1  11  -3    2.30    1.30
   1 -11   3    3.60    1.50
  -1 -11  -3    1.80    1.00
  -1  11   3    1.10    0.70
   1  11  -3    1.80    0.90
   1 -11   3    2.00    1.20
  -1  11   3    3.10    1.90
   1 -11   3    1.40    1.10
  -1  11   3    0.20    0.60
   1  11  -3    2.20    1.00
  -1 -11  -3    1.30    0.80
   1 -11  -3    2.50    1.20
  -1 -11   3    1.90    1.10
  -1  11  -3    2.80    1.90
   1 -11  -3    0.80    0.80
   1  11   3    1.90    1.20
   1  11   3    0.60    0.60
  -1  11  -3    0.50    0.60
  -1 -11   3    2.60    0.70
  -1  11  -3    0.90    0.80
   1  11   3    0.40    0.80
  -1 -11   3    2.20    1.20
   3 -11   3    0.50    0.80
  -3 -11  -3   -0.40    0.30
   3  11  -3    0.00    0.60
  -3  11   3    2.00    2.00
   3 -11   3    1.80    0.90
   3 -11   3    0.50    0.80
  -3 -11  -3    2.00    1.00
  -3 -11  -3    1.30    1.30
   3 -11  -3    0.10    0.70
  -3 -11   3    0.00    0.80
  -3  11  -3    1.70    1.80
   3  11   3    0.50    0.70
  -3  11  -3    0.30    0.60
   3  11   3    0.70    0.60
  -3  11  -3   -1.40    0.60
   5 -11   3    3.10    1.60
   5  11  -3    0.40    1.10
  -5 -11  -3    4.00    1.80
   5 -11   3    0.80    1.00
   5  11  -3    1.80    0.80
  -5 -11  -3    2.20    1.90
   5  11  -3    2.10    2.40
  -5  11   3    1.80    1.60
   5 -11  -3    1.40    1.20
  -5  11  -3    1.10    1.20
  -5  11  -3    3.50    2.50
   5  11   3    1.10    0.90
   5  11   3    2.50    1.20
  -5 -11   3    1.80    1.10
  -7  11   3   -1.50    1.80
   7  11  -3    0.60    1.50
   7 -11   3    1.20    1.30
  -7  11  -3   -1.40    1.50
   7 -11  -3    0.60    1.00
   7  11   3   -0.20    0.90
   9 -11   3   -0.70    1.90
   9  11  -3   -2.60    1.90
   9  11   3    0.30    1.10
   9  11   3   -2.00    2.50
   9 -11  -3   -0.30    1.70
   0 -12  -3 1261.47  103.99
   0  12   3 1276.27  105.09
   0 -12   3 1226.88  104.09
   0  12  -3 1174.08  104.59
   0  12  -3 1312.17  105.09
   0 -12   3 1136.59  105.19
   0  12   3 1158.58  104.79
   0  12   3 1227.38  104.19
  -2  12   3  942.01   76.19
   2  12  -3  894.91   79.39
  -2 -12  -3  944.51   77.59
   2 -12   3  860.41   77.89
  -2  12   3  952.80   80.39
  -2 -12   3  806.42   77.69
   2  12   3  896.21   77.49
   2 -12  -3  912.41   77.79
  -2  12  -3  902.91   77.79
  -2  12  -3  969.90   80.49
   2  12   3  953.30   77.39
   2 -12  -3  790.42   78.39
  -2  12  -3  925.41   77.79
  -4  12   3  381.26   37.10
   4 -12   3  339.97   32.90
   4 -12   3  319.27   32.60
  -4 -12  -3  386.86   34.70
   4  12  -3  348.97   31.30
   4 -12   3  356.86   35.80
   4  12  -3  416.16   36.20
  -4 -12  -3  336.87   33.10
  -4 -12   3  409.06   34.40
   4  12   3  354.86   32.60
  -4  12  -3  381.16   36.80
   4  12   3  334.57   32.50
   4 -12  -3  412.76   33.80
  -4  12  -3  402.96   33.60
   6 -12   3  216.98   20.90
  -6  12   3  210.68   25.10
   6  12  -3  189.88   22.90
   6  12  -3  221.28   19.70
  -6 -12   3  238.38   22.70
  -6  12  -3  207.48   24.40
   6  12   3  210.58   20.50
   6 -12  -3  243.28   21.60
   6  12   3  196.48   20.20
   6  12   3  184.38   23.10
  -8  12   3   69.49   13.80
   8  12  -3  121.69   15.40
   8 -12   3   95.09   11.80
   8 -12  -3  102.39   12.00
   8  12   3  104.99   12.00
   8  12   3  122.09   15.80
  -1  13   3   79.99    8.30
   1  13  -3   82.69    8.10
  -1 -13  -3   81.59    8.30
   1  13  -3   68.39    9.20
  -1 -13  -3   77.19    8.10
   1 -13   3   70.89    8.20
   1 -13   3   93.09    9.60
   1 -13   3   65.59    8.80
  -1  13   3   82.89   10.00
  -1  13   3   80.69    8.80
   1  13   3   84.09    8.90
  -1  13  -3   68.19    8.20
  -1 -13   3   68.49    7.40
   1 -13  -3   76.89    8.40
   1 -13  -3   68.99    8.40
   1  13   3   79.29    8.30
  -1  13  -3   76.29    8.70
  -1 -13   3   84.09    8.60
  -1  13  -3  100.59   10.50
   1  13   3   84.19    9.10
   1  13   3   67.19    9.30
  -3 -13  -3   -0.80    0.40
   3  13  -3    2.20    1.00
  -3  13   3   -0.90    0.80
   3 -13   3    0.70    0.90
   3  13  -3    0.10    0.90
   3 -13   3    0.50    0.60
   3 -13  -3   -0.40    0.50
   3  13   3   -0.40    0.40
  -3  13  -3   -0.40    0.50
  -3  13  -3    0.60    0.70
   3  13   3    0.20    0.70
  -3  13  -3    1.00    1.30
   5  13  -3    4.50    1.20
   5 -13   3    4.10    1.60
  -5 -13  -3    7.30    2.70
   5  13  -3    9.50    3.80
  -5  13   3    2.30    1.30
   5 -13   3    8.20    2.60
  -5  13  -3   11.80    4.80
  -5 -13   3    4.60    2.70
   5 -13  -3    2.80    1.60
   5  13   3    7.90    2.40
  -5  13  -3    9.40    4.10
   5  13   3    5.40    2.00
   7 -13   3    8.30    2.90
   7  13  -3    8.50    3.40
   7  13  -3    6.70    1.90
  -7  13   3   13.40    5.30
   7 -13  -3    4.70    1.90
   7  13   3   13.80    2.90
  -7  13  -3    5.20    3.00
   7  13   3    3.10    3.00
   9  13  -3    4.00    3.00
   9 -13   3    0.50    1.30
  -9  13   3   -0.70    2.60
   9 -13   3   -1.10    1.90
   9  13   3    2.00    1.60
   9 -13  -3    2.40    1.60
   0  14   3  428.36   37.70
   0  14   3  428.76   36.90
   0 -14   3  334.87   37.60
   0  14   3  422.26   38.00
   0  14  -3  433.26   37.70
   0  14  -3  444.66   37.80
   0 -14   3  364.76   36.40
   0 -14  -3  446.56   36.70
   0  14   3  408.76   36.90
   2  14  -3  615.94   60.69
   2 -14   3  671.63   59.19
  -2 -14  -3  747.83   59.39
   2 -14   3  685.43   59.99
   2  14  -3  646.54   59.19
  -2 -14  -3  660.83   58.89
  -2  14   3  692.73   59.89
  -2  14   3  718.73   58.19
   2  14   3  731.03   59.49
   2  14   3  598.24   58.79
  -2  14  -3  750.32   59.69
   2 -14  -3  752.72   59.69
   2  14   3  695.03   62.09
  -2  14  -3  664.33   59.29
  -2  14  -3  662.93   61.89
   2  14   3  727.23   62.09
  -2 -14   3  568.94   59.19
   4 -14   3  312.77   28.40
  -4  14   3  267.97   31.50
  -4 -14  -3  283.97   28.50
   4 -14   3  299.67   28.50
  -4 -14  -3  341.87   29.00
   4  14   3  315.67   28.10
  -4  14  -3  333.87   28.90
   4 -14  -3  285.37   28.50
   4  14   3  308.17   28.10
  -4 -14   3  337.47   29.70
  -4  14  -3  307.47   32.20
   6 -14   3  290.37   28.40
  -6  14   3  242.48   31.90
   6  14  -3  354.76   32.50
   6 -14  -3  312.07   29.00
  -6  14  -3  297.77   32.80
  -6 -14   3  265.87   29.80
   6  14   3  312.47   28.30
   6  14   3  382.56   33.90
   8 -14   3   85.49   10.70
  -8  14   3  109.19   15.90
   8  14  -3   71.89   12.40
   8  14   3   68.39   12.70
   8 -14  -3   93.19   10.90
   8  14   3   87.99   10.60
   1  15  -3    2.60    1.60
   1 -15   3    6.90    2.20
   1  15  -3    5.30    1.80
  -1  15   3    4.80    1.60
   1 -15   3    4.10    2.10
  -1 -15  -3    4.40    1.50
  -1  15   3    2.30    1.30
  -1  15   3    3.60    2.20
  -1 -15  -3    3.30    1.30
   1 -15   3    2.00    1.40
   1  15   3    2.40    1.40
   1  15   3    3.00    2.10
   1  15   3    3.20    1.60
   1  15   3    3.10    1.40
  -1 -15   3    3.20    2.30
  -1  15  -3    6.90    2.30
  -1 -15   3    2.50    1.40
   1 -15  -3    6.50    2.10
  -1  15  -3    3.50    1.40
  -1  15  -3    4.50    2.60
  -1 -15   3    3.70    1.40
   3  15  -3    0.60    0.90
   3 -15   3    0.50    0.90
   3 -15   3    1.00    0.80
  -3 -15  -3    0.50    0.80
  -3  15   3    0.50    1.40
  -3 -15   3    1.00    1.20
  -3  15  -3    1.80    0.90
   3 -15  -3    1.10    1.00
  -3  15  -3   -0.70    1.20
   3  15   3   -1.20    0.80
   3  15   3    0.00    0.80
   3  15   3    0.40    0.70
   5 -15   3    0.30    0.90
   5 -15   3   -0.40    1.10
   5  15  -3   -0.20    1.20
  -5  15   3    0.80    1.10
   5  15   3    2.00    1.80
  -5 -15   3    0.40    1.20
  -5  15  -3    1.40    1.10
   5  15   3    1.40    1.20
   5 -15  -3   -1.20    0.70
   5  15   3    1.10    1.00
   7 -15   3    3.10    1.40
  -7  15   3    3.70    2.10
   7  15  -3    5.90    2.90
  -7  15  -3    1.20    1.90
   7 -15  -3    2.40    1.40
   7  15   3    2.10    1.50
   9  15  -3   -0.70    1.60
  -9  15   3    4.70    2.70
   9 -15   3   -2.90    1.60
   9 -15  -3    0.00    1.50
   0  16   3  431.56   38.40
   0 -16  -3  395.86   37.00
   0 -16   3  491.25   37.70
   0 -16   3  365.36   38.70
   0  16   3  418.16   37.50
   0  16   3  433.26   37.40
   0  16  -3  344.97   36.70
   0  16  -3  456.05   38.50
   0  16   3  405.96   38.70
   0  16  -3  421.26   38.50
   2 -16   3  393.96   39.30
  -2  16   3  434.26   42.40
  -2  16   3  497.35   44.80
  -2  16   3  458.35   38.50
  -2 -16  -3  512.55   40.00
   2 -16   3  436.76   40.60
   2  16  -3  369.56   40.70
  -2 -16   3  398.86   39.60
  -2  16  -3  462.15   39.90
   2  16   3  447.36   42.10
   2  16   3  454.05   39.50
   2  16   3  451.45   39.90
   2 -16  -3  472.95   39.90
  -2  16  -3  426.66   42.40
   4  16  -3  348.37   31.00
  -4  16   3  292.07   31.70
  -4 -16  -3  309.07   28.40
   4 -16   3  340.87   28.10
   4 -16   3  296.67   28.50
  -4 -16  -3  249.78   27.60
   4  16   3  253.77   27.30
   4  16   3  298.37   30.90
   4  16   3  333.17   28.00
  -4  16  -3  337.37   30.60
   4 -16  -3  296.57   28.10
  -4 -16   3  256.57   28.30
  -4  16  -3  322.57   32.20
   6  16  -3  153.58   21.60
   6 -16   3  213.48   20.00
  -6 -16  -3  183.28   21.50
  -6  16   3  168.18   23.30
  -6  16  -3  215.08   24.40
   6  16   3  201.78   19.40
   6  16   3  258.67   24.80
  -6 -16   3  201.58   21.30
  -8  16   3  123.39   21.90
   8  16  -3  116.19   15.00
   8 -16   3   92.69   11.90
   8 -16  -3  100.49   11.90
   8  16   3   88.79   14.60
   1  17  -3    3.20    2.00
   1  17  -3    4.60    2.20
  -1  17   3    7.70    2.90
  -1  17   3    6.30    2.20
  -1  17   3    3.30    2.40
  -1 -17  -3    3.80    1.60
   1 -17   3    5.80    2.30
   1 -17   3    3.20    1.60
  -1  17  -3    2.60    1.60
  -1 -17   3    3.80    1.70
   1  17   3    8.00    2.20
   1  17   3    7.70    3.10
  -1 -17   3    5.00    3.10
  -1  17  -3    4.00    1.50
   1  17   3    5.50    2.40
   1 -17  -3    8.00    2.40
   1  17   3    8.10    3.40
  -1  17  -3    5.50    2.80
  -1 -17   3    4.90    1.30
   3 -17   3    4.10    2.10
   3 -17   3    7.70    2.40
   3 -17   3    6.70    2.80
  -3 -17  -3    9.50    2.70
   3  17  -3    6.70    2.70
  -3 -17  -3   12.00    3.40
  -3  17   3    2.60    2.40
   3  17   3    6.40    2.20
   3  17   3   11.30    2.60
  -3  17  -3    8.20    2.70
  -3 -17   3    7.40    2.60
   3 -17  -3    6.40    2.30
   3  17   3    3.50    2.80
  -3  17  -3    8.80    4.20
  -5  17   3    1.90    2.20
   5 -17   3    3.50    1.70
   5  17  -3    0.10    1.40
  -5  17  -3   -1.00    1.50
   5  17   3   -2.30    1.20
   5  17   3    0.00    0.90
  -5 -17   3   -0.90    0.90
   5 -17  -3   -1.30    0.60
   7  17  -3    3.80    2.30
  -7  17   3    4.90    3.70
   7 -17   3    0.20    1.20
   7  17   3    2.80    1.90
  -7  17  -3    3.00    1.40
   7 -17  -3    2.10    1.20
   7  17   3   -2.70    1.90
   0 -18   3  365.56   31.80
   0 -18   3  294.87   31.70
   0 -18  -3  357.56   32.00
   0 -18   3  338.67   34.20
   0  18   3  360.16   34.00
   0  18  -3  387.66   34.10
   0  18  -3  350.96   33.00
   0  18   3  365.76   33.50
   2  18  -3  350.56   34.20
   2 -18   3  457.35   35.90
  -2 -18  -3  340.27   35.00
  -2 -18  -3  363.26   35.40
   2  18  -3  436.56   37.80
  -2  18   3  426.06   39.10
   2 -18  -3  355.66   35.30
   2  18   3  388.56   38.00
   2  18   3  407.66   35.80
  -2  18  -3  363.46   35.50
   2  18   3  436.96   36.70
  -2  18  -3  406.26   39.00
  -2 -18   3  407.46   36.00
  -4  18   3  254.37   27.70
  -4 -18  -3  269.37   24.20
  -4 -18  -3  236.78   23.50
   4 -18   3  218.08   23.00
   4 -18   3  222.38   24.00
   4  18  -3  285.37   26.70
   4  18   3  221.58   25.90
   4  18   3  266.07   23.70
  -4  18  -3  262.07   27.90
  -4 -18   3  220.28   23.90
   6  18  -3  173.18   18.60
  -6  18   3  117.29   18.40
   6 -18   3  143.79   15.40
  -6  18  -3  106.39   17.80
   6 -18  -3  140.69   15.60
  -6 -18   3  161.68   17.30
   6  18   3  163.78   15.80
   6  18   3  175.28   19.70
   8  18  -3   60.89   11.90
  -8  18   3   69.19   12.40
   8 -18   3   69.59    9.10
   8 -18  -3   63.79    8.90
   1 -19   3    1.30    1.20
  -1  19   3    0.10    0.70
   1  19  -3    0.40    1.10
  -1  19   3    1.70    1.80
   1 -19   3    0.50    1.90
   1 -19   3   -1.00    0.50
   1  19  -3    0.60    1.00
  -1 -19  -3    0.00    0.90
  -1  19  -3   -0.10    0.80
  -1 -19   3   -0.30    0.40
   1  19   3   -0.10    1.00
   1  19   3    1.10    1.20
   1 -19  -3   -0.30    0.80
   1 -19  -3    0.10    0.70
  -1  19  -3    1.70    1.70
   3 -19   3    1.10    1.60
  -3  19   3   -0.60    1.20
   3  19  -3   -0.10    0.80
   3 -19   3    1.40    0.90
  -3 -19  -3    0.80    0.80
   3 -19  -3   -0.10    0.90
   3  19   3    0.10    1.00
  -3  19  -3    2.10    2.90
  -3 -19   3    0.70    0.70
   5 -19   3   -0.10    0.80
   5  19  -3    2.00    1.40
  -5  19   3   -0.10    1.90
  -5 -19  -3    0.80    1.00
   5 -19  -3   -0.10    0.60
  -5  19  -3    0.00    1.90
   5  19   3    0.20    0.80
  -5 -19   3   -0.50    1.00
   5  19   3    1.00    1.50
   7 -19   3   -1.70    1.00
   7  19  -3   -0.80    1.70
  -7  19   3   -2.30    2.50
  -7  19  -3    4.20    2.60
   7  19   3   -1.40    1.90
   7 -19  -3   -1.50    1.00
   0  20  -3  345.67   31.80
   0 -20   3  307.07   29.00
   0 -20  -3  318.47   29.30
   0  20   3  238.68   33.20
   0 -20   3  337.17   29.70
   0 -20  -3  316.37   29.30
   0  20   3  327.57   32.00
   0  20  -3  329.87   30.60
   2  20  -3  216.48   19.40
  -2 -20  -3  207.78   20.20
   2 -20   3  199.48   21.40
  -2  20   3  219.58   23.70
   2 -20   3  169.98   19.70
   2 -20   3  205.18   21.70
   2  20  -3  202.28   24.20
   2  20   3  214.18   21.40
   2 -20  -3  220.88   20.20
  -2  20  -3  247.88   24.60
  -2 -20   3  189.68   20.20
   2  20   3  203.58   22.30
  -2  20  -3  201.68   20.50
   4 -20   3  218.88   24.60
  -4  20   3  273.87   29.70
   4  20  -3  310.57   28.30
   4  20   3  257.07   25.40
  -4 -20   3  268.87   26.10
  -4  20  -3  282.17   29.90
   4 -20  -3  283.87   25.40
   4  20   3  223.98   27.50
   6  20  -3   88.69   13.00
   6 -20   3   78.19   10.60
  -6  20   3  121.79   15.90
   6 -20  -3   94.09   11.10
  -6 -20   3   81.29   11.60
  -6  20  -3   76.79   13.50
   6  20   3  114.79   12.00
  -1  21   3    4.60    1.90
   1 -21   3    5.40    2.20
   1  21  -3    3.10    2.20
   1  21  -3    0.90    1.50
   1 -21   3    3.20    2.50
  -1 -21  -3    3.50    1.60
  -1 -21  -3    2.20    1.50
  -1  21   3    5.70    2.80
  -1 -21   3    2.70    1.80
  -1  21  -3    2.90    2.40
  -1 -21   3    2.20    0.90
   1  21   3   -0.40    1.20
   3 -21   3   -0.50    0.90
  -3 -21  -3    0.50    0.90
  -3  21   3    0.00    1.90
   3 -21  -3    0.50    0.70
   3  21   3    0.20    1.20
   3  21   3   -1.40    1.00
  -3  21  -3    0.10    2.80
   5 -21   3    2.60    1.20
  -5  21   3   -0.30    2.00
   5  21  -3    5.40    2.90
  -5  21  -3    2.50    1.90
   5 -21  -3    0.90    1.20
  -5 -21   3    1.50    1.40
   5  21   3    0.00    1.30
   7 -21   3   -0.90    1.10
   7  21  -3    0.50    1.40
  -7  21  -3   -1.00    2.10
   7 -21  -3    0.30    1.10
   7  21   3    0.50    1.90
   0  22  -3  407.06   38.80
   0 -22   3  389.26   36.20
   0 -22  -3  387.96   35.80
   0  22   3  389.86   38.80
  -2 -22  -3   85.09   10.60
   2 -22   3  101.79   10.90
  -2  22   3   93.79   13.60
   2  22  -3   93.79   12.40
   2  22  -3   90.59   10.00
  -2 -22   3   71.79   10.40
   2 -22  -3  114.99   11.10
  -2  22  -3   99.29   13.90
   2  22   3  100.49   12.40
   4 -22   3  229.18   24.40
  -4  22   3  253.37   29.30
   4  22  -3  234.08   26.60
   4  22   3  279.57   26.30
   4 -22  -3  266.27   24.80
   4  22   3  269.07   30.20
  -4  22  -3  244.38   29.00
  -4 -22   3  273.27   25.90
   6 -22   3   54.49    7.30
   6  22  -3   52.09    8.80
  -6  22   3   42.80    9.40
  -6  22  -3   50.99   10.20
   6 -22  -3   56.29    7.60
   6  22   3   55.79    9.30
   1  23  -3    4.40    2.20
  -1  23   3    7.40    4.50
  -1 -23  -3    7.80    2.60
   1 -23   3   10.70    3.40
   1 -23  -3   11.50    3.20
  -1  23  -3    5.50    3.60
   1  23   3    3.50    3.00
  -1 -23   3    6.80    2.60
  -3  23   3    9.20    3.90
   3  23  -3    6.60    3.20
   3 -23   3    5.40    2.50
  -3  23  -3   18.80    6.70
  -3 -23   3    7.40    2.40
   3  23   3   12.10    4.50
   3 -23  -3    7.20    2.60
   3  23   3   10.10    4.40
  -5  23   3   -1.80    1.40
   5 -23   3    0.70    1.00
   5  23  -3    0.60    1.50
  -5  23  -3    2.80    3.20
   5 -23  -3    1.60    1.50
   5  23   3   -0.50    1.40
   7 -23   3    4.70    2.00
  -7  23  -3    2.50    3.10
   0 -24   3  212.38   21.00
   0  24  -3  230.28   24.00
   0  24   3  207.48   24.00
   0 -24  -3  200.58   20.80
   2 -24   3  112.19   12.90
  -2  24   3  108.79   16.00
   2  24  -3  111.99   14.10
  -2 -24  -3  125.89   13.30
  -2  24  -3  102.59   15.80
   2  24   3  116.19   15.00
   2 -24  -3  127.99   13.10
  -2 -24   3  133.39   13.70
   2  24   3  108.89   14.90
   4  24  -3  164.08   18.20
  -4  24   3  171.38   20.80
   4 -24   3  152.58   15.80
   4  24   3  146.59   17.50
  -4  24  -3  143.59   19.70
   4  24   3  128.09   18.50
   4 -24  -3  141.49   15.60
   6 -24   3   40.50    6.60
   6  24  -3   54.49    8.90
  -6  24   3   47.00    9.80
   6 -24  -3   52.09    7.20
  -6  24  -3   46.60    9.90
   6  24   3   56.99    9.90
   1 -25   3   -0.80    0.70
  -1  25   3    3.00    3.20
  -1 -25  -3   -0.20    0.70
   1  25  -3   -3.10    2.00
   1  25  -3   -0.30    0.70
   1 -25  -3   -1.40    1.10
  -1 -25   3   -1.80    0.90
  -1  25  -3    0.90    2.30
   1  25   3    0.50    2.10
  -3  25   3   -1.30    1.90
   3  25  -3    3.90    2.20
   3 -25   3    4.50    2.00
  -3 -25   3    0.60    1.30
   3 -25  -3    3.40    1.60
  -3  25  -3    2.10    2.40
   3  25   3    1.30    2.10
   5  25  -3    0.30    1.70
   5 -25   3   -0.30    1.20
  -5  25   3   -1.70    2.10
  -5  25  -3    0.90    2.00
   5 -25  -3    0.40    1.00
   0  26  -3  124.09   16.00
   0  26   3  105.19   15.20
   0 -26   3  113.69   12.70
   0 -26  -3  104.49   12.50
  -2 -26  -3  158.28   17.30
  -2  26   3  169.98   21.60
   2 -26   3  171.58   17.40
   2 -26  -3  192.38   17.70
  -2 -26   3  153.98   17.40
  -2  26  -3  161.38   21.10
   2  26   3  154.88   19.70
   4 -26   3   68.39    8.40
   4  26  -3   69.89   10.10
  -4  26   3   68.19   12.50
   4 -26  -3   54.19    8.00
  -4  26  -3   57.09   11.40
  -1  27   3    2.50    3.30
   1 -27   3    4.90    2.10
  -1 -27   3    2.30    1.70
   1 -27  -3    8.50    2.80
  -1  27  -3    7.40    3.90
   1  27   3    3.50    2.80
  -3  27   3    0.60    1.90
   3 -27   3    2.70    1.40
  -3 -27   3    0.60    1.30
   3 -27  -3   -0.60    1.10
  -3  27  -3    0.40    3.00
   5 -27   3    1.30    1.30
  -5  27   3    2.70    3.20
   5 -27  -3    2.70    2.10
   5  27   3    5.00    5.10
  -5  27  -3    1.00    2.40
   0 -28   3   70.79    9.80
   0  28   3   87.19   13.90
   0 -28  -3   93.79   10.60
  -2  28   3  112.39   16.30
   2 -28   3   80.69   11.40
  -2  28  -3  118.89   17.30
  -2 -28   3  109.09   12.60
   2 -28  -3  113.49   12.30
   4  28  -3   41.60    7.70
   4 -28   3   36.40    6.50
  -4  28   3   43.30   10.30
  -4  28  -3   44.70    9.60
  -4 -28   3   49.60    7.90
   4 -28  -3   50.99    7.00
   1 -29   3    0.30    0.60
  -1  29   3   -0.30    3.10
  -1 -29   3    0.30    1.10
   1  29   3   -4.40    3.10
   1 -29  -3   -0.10    0.80
  -3  29   3    2.80    4.30
   3 -29   3    2.30    1.20
  -3 -29   3    1.40    1.30
   3 -29  -3    0.70    1.20
  -3  29  -3    0.20    2.70
   0  30   3   55.79   12.00
   0 -30   3   67.09    8.50
   0 -30  -3   52.49   12.40
  -2  30   3   65.59   13.10
   2 -30   3   64.49    8.60
   2 -30  -3   73.79    8.70
  -2 -30   3   50.29    8.20
   1 -31   3    0.00    1.40
  -1  31   3   -2.90    3.80
  -1 -31   3    1.90    1.30
   1 -31  -3    1.50    1.20
   0   0   4  868.91  156.58
   0   0   4 1039.00  162.58
   2   0  -4 1068.29   96.99
  -2   0   4 1243.08   97.39
  -2   0   4 1111.09   96.99
   4   0   4 1009.80   87.69
   4   0   4  934.11   90.89
   4   0  -4  905.71   89.39
   4   0  -4 1066.99   88.79
  -4   0  -4 1169.08   89.79
   4   0  -4 1176.78   89.69
   4   0  -4 1009.60   89.29
   4   0   4 1071.79   89.19
  -4   0   4  981.50   90.69
   4   0   4 1021.90   87.79
   6   0   4  388.56   36.40
   6   0   4  423.96   36.50
   6   0  -4  437.86   37.70
  -6   0   4  388.06   39.80
   6   0  -4  364.86   38.60
  -6   0  -4  453.25   38.50
   6   0   4  367.06   37.30
   6   0   4  476.35   38.20
   6   0  -4  370.46   38.20
   8   0  -4  189.98   19.10
   8   0   4  213.58   19.50
   8   0   4  152.48   17.70
   8   0  -4  165.18   19.90
  -8   0  -4  149.99   20.00
  10   0  -4   57.49   10.10
  10   0   4   73.69   10.00
  10   0  -4   72.59   10.20
  -1   1   4   15.00    2.40
  -1   1   4   17.30    2.60
   1   1  -4   19.10    2.50
   1   1  -4   18.30    2.10
  -1   1   4   17.90    2.30
  -1  -1  -4   13.70    2.30
  -1  -1  -4   19.00    2.70
   1  -1   4   20.60    1.80
   1  -1   4   15.80    2.40
   1   1  -4   16.80    2.40
   1  -1   4   12.50    2.20
  -1   1  -4   17.40    1.70
  -1  -1   4   15.10    2.20
  -1   1  -4   20.40    2.70
   1  -1  -4   18.90    2.20
   1   1   4   14.90    2.40
  -1  -1   4   14.20    2.40
   1   1   4   20.50    2.50
   1  -1  -4   15.50    2.50
  -1   1  -4   12.10    2.20
  -1  -1   4   18.00    2.50
   1  -1  -4   14.00    2.20
  -3   1   4   78.59    9.60
   3   1  -4   75.19    8.60
   3  -1   4   80.69    7.60
  -3  -1  -4   67.39    8.50
   3  -1   4   81.39    7.40
   3   1  -4   84.99    8.80
   3  -1   4   62.09    8.10
   3  -1   4   87.49   10.20
   3   1  -4   61.29    8.20
  -3   1  -4   84.39    8.90
  -3  -1   4   76.99    8.80
  -3  -1   4   84.09    9.30
   3   1   4   82.39    7.40
   3  -1  -4   66.59    8.60
   3   1   4   75.79    7.30
   3  -1  -4   89.49    8.50
   3  -1  -4   80.29    8.20
   3   1   4   93.89    8.80
   3  -1  -4  101.89    9.30
   3   1   4   78.29    8.50
   5  -1   4    5.60    2.30
   5  -1   4    6.30    2.00
  -5  -1  -4    6.40    2.50
  -5   1   4    1.30    2.30
   5  -1   4    5.70    2.40
   5  -1   4    4.80    3.10
   5  -1   4    4.60    1.70
   5   1  -4    7.30    2.60
   5   1  -4    6.80    2.60
   5   1  -4    6.90    2.80
   5   1  -4    3.10    1.70
   5  -1  -4    8.80    2.70
  -5   1  -4    5.50    2.30
   5   1   4   10.50    4.10
   5   1   4    6.30    2.50
   5  -1  -4    4.60    1.90
  -5  -1   4    9.80    3.60
   5  -1  -4    7.60    3.00
   5   1   4    6.60    2.30
   5  -1  -4    7.10    2.50
   5   1   4    5.50    1.70
   5  -1  -4    5.80    2.30
   5   1   4    4.80    1.70
   7   1  -4   -1.20    1.50
  -7   1   4    3.20    2.10
   7   1  -4   -0.80    1.10
   7   1  -4   -1.00    0.70
   7  -1   4    1.20    1.00
   7  -1   4    0.20    0.60
   7   1   4    0.40    1.00
   7  -1  -4    1.20    1.20
   7  -1  -4    0.30    2.00
   7   1   4   -0.10    1.00
   7  -1  -4    0.90    1.30
  -7  -1   4   -0.10    1.00
   9   1  -4    3.60    3.40
   9   1  -4    0.00    1.20
   9   1  -4   -0.20    1.60
   9  -1   4    5.10    2.50
   9  -1   4    2.70    2.10
   9  -1  -4    7.60    3.70
   9  -1  -4    0.10    1.30
   0  -2   4  594.74   50.99
   2  -2   4  752.92   67.39
   2   2  -4  825.12   67.09
   2   2  -4  693.53   67.29
  -2  -2  -4  703.63   67.59
   2  -2   4  831.12   69.09
  -2   2   4  817.52   67.19
   2   2  -4  802.32   67.79
  -2   2   4  721.63   68.19
  -2   2  -4  691.33   67.39
   2   2   4  837.92   67.69
  -2  -2   4  826.62   67.69
   2  -2  -4  779.82   66.79
   2  -2  -4  667.93   67.49
  -2  -2   4  887.11   67.89
   2  -2  -4  874.31   67.99
  -2  -2   4  829.42   68.19
   2  -2  -4  860.81   67.99
   4  -2   4 1310.67  106.49
   4   2  -4 1274.17  107.09
   4   2  -4 1175.38  106.39
  -4  -2  -4 1082.79  106.49
   4  -2   4 1260.07  105.59
   4   2  -4 1044.40  106.09
   4   2  -4 1253.27  107.19
  -4  -2   4 1267.07  107.79
   4  -2  -4 1277.87  105.79
   4  -2  -4 1283.87  107.59
  -4  -2   4 1366.76  107.29
   4  -2  -4 1385.06  106.59
   4  -2  -4 1093.99  106.59
   4   2   4 1211.78  108.59
   4   2   4 1295.97  105.09
   4   2   4 1283.27  105.19
  -4   2  -4 1261.07  106.89
   6  -2   4  487.35   43.80
   6   2  -4  548.65   46.80
  -6   2   4  564.54   48.90
  -6  -2  -4  503.35   45.60
   6   2  -4  487.25   45.10
   6   2  -4  465.35   46.20
   6  -2   4  479.15   44.30
   6  -2   4  536.85   45.70
   6  -2   4  501.65   45.00
   6  -2  -4  541.95   45.90
   6  -2  -4  462.75   46.30
   6   2   4  496.45   44.00
  -6  -2   4  534.95   47.40
   6  -2  -4  439.76   44.70
   6  -2  -4  471.75   44.40
   6   2   4  453.85   43.50
   8   2  -4  183.08   20.40
  -8  -2  -4  205.78   21.40
   8  -2   4  203.78   20.00
   8   2  -4  212.38   22.90
   8   2   4  214.88   20.80
   8   2   4  179.88   19.60
   8  -2  -4  174.88   21.50
   8  -2  -4  191.58   20.30
  10   2  -4   52.59    9.10
  10  -2   4   65.49    8.90
  10   2  -4   56.19    8.70
  10  -2  -4   42.90    7.70
  10   2   4   51.89    8.30
  10  -2  -4   43.40    8.40
   1  -3   4  224.08   18.70
   1   3  -4  235.68   18.70
  -1  -3  -4  213.98   18.90
   1   3  -4  216.78   17.80
  -1  -3  -4  218.38   17.70
  -1  -3  -4  176.48   18.40
  -1   3   4  215.58   18.10
   1  -3   4  216.48   18.00
   1   3  -4  207.18   18.90
  -1   3   4  189.88   18.90
   1   3   4  214.08   17.80
  -1  -3   4  174.98   18.50
   1   3   4  181.78   18.60
  -1   3  -4  205.28   17.90
  -1  -3   4  200.98   18.00
   1  -3  -4  239.78   18.90
  -1  -3   4  170.88   18.80
   1  -3  -4  200.28   18.70
   1  -3  -4  221.78   18.10
  -1   3  -4  218.18   18.80
  -3  -3  -4    1.00    0.50
   3   3  -4    0.00    0.80
   3   3  -4    1.10    0.70
  -3  -3  -4    0.20    0.50
   3  -3   4    1.90    1.40
   3   3  -4    1.70    1.00
  -3  -3  -4    0.60    0.80
   3  -3   4    0.90    0.80
   3  -3   4    0.90    0.50
   3   3   4    0.90    0.40
  -3  -3   4    0.90    0.90
  -3  -3   4    0.80    0.80
   3  -3  -4    1.10    0.70
   3  -3  -4    1.50    0.80
   3  -3  -4    1.20    1.20
   3   3   4    1.70    1.30
   3   3   4    0.30    0.70
   3  -3  -4    0.50    0.40
  -3  -3   4   -0.50    0.90
  -3   3  -4    0.40    0.50
   3  -3  -4    0.60    0.60
  -3   3  -4    2.20    1.30
  -5   3   4   11.80    4.70
   5  -3   4   10.40    2.50
   5  -3   4    4.10    2.40
   5  -3   4   16.00    3.30
  -5  -3  -4   10.10    3.00
   5  -3   4   12.70    3.20
   5   3  -4   13.50    3.10
   5   3  -4   11.90    2.60
   5  -3   4   12.40    2.70
   5   3  -4    5.60    2.40
   5   3  -4    9.50    2.90
   5  -3  -4   11.30    3.30
  -5   3  -4    8.30    2.60
   5   3   4    5.70    2.30
   5   3   4   10.90    2.00
   5  -3  -4    9.10    3.00
   5   3   4   12.50    4.20
  -5  -3   4    9.20    3.00
   5  -3  -4   10.20    2.20
   5  -3  -4    8.50    3.30
   5   3   4    6.00    1.90
   5  -3  -4    6.90    2.60
  -5  -3   4   11.40    3.50
  -7  -3  -4   11.40    3.80
  -7   3   4    2.80    2.70
   7  -3   4   10.50    3.10
   7  -3   4   15.90    4.80
   7   3  -4   14.20    5.00
   7   3   4   12.70    3.80
   7  -3  -4    9.20    3.10
   7   3   4    9.50    3.00
   7  -3  -4    6.00    2.70
   9  -3   4    0.40    1.60
   9   3  -4    3.70    2.10
   9   3  -4   -0.30    1.30
   9  -3   4   -0.10    1.30
   9   3  -4   -0.20    2.10
   9   3   4    1.20    1.40
   9  -3  -4    3.90    2.10
   0   4  -4  525.85   42.30
   0  -4   4  487.85   42.30
   0  -4  -4  419.96   42.30
   0   4   4  463.15   42.40
   0  -4  -4  562.44   42.40
   0   4   4  479.45   42.30
   0  -4  -4  525.95   42.50
  -2  -4  -4  870.31   73.09
  -2   4   4  935.31   71.79
   2  -4   4  868.01   72.49
   2  -4   4  790.52   74.09
   2  -4  -4  863.21   71.39
  -2  -4   4  932.01   72.39
   2  -4  -4  715.93   72.49
  -2   4  -4  751.62   72.49
  -2  -4   4  764.62   73.39
  -2  -4   4  925.21   73.09
  -2   4  -4  901.61   71.89
   4   4  -4 1099.29   91.89
   4   4  -4  994.60   92.49
   4   4  -4 1111.39   91.69
   4   4  -4 1205.68   92.39
  -4  -4  -4  910.21   91.79
  -4  -4  -4 1021.70   90.59
   4  -4   4 1040.20   90.49
   4  -4   4 1021.10   91.19
   4  -4  -4  941.11   91.49
   4  -4  -4 1075.09   92.89
   4  -4  -4 1082.59   90.79
  -4  -4   4 1005.90   92.09
  -4   4  -4 1155.78   92.09
   4   4   4 1200.78   94.29
  -4  -4   4 1072.49   92.39
   4  -4  -4 1118.59   90.49
   6  -4   4  510.85   45.00
  -6  -4  -4  478.65   45.60
   6  -4   4  418.06   44.30
   6   4  -4  503.45   47.00
   6  -4   4  454.35   43.90
   6   4  -4  495.15   45.80
   6  -4   4  590.04   46.60
  -6   4   4  572.44   49.40
   6   4  -4  455.45   46.10
   6   4   4  507.85   44.40
  -6   4  -4  536.85   46.00
  -6  -4   4  533.85   47.20
   6   4   4  463.05   44.80
   6  -4  -4  494.55   44.20
   6  -4  -4  500.75   45.30
  -6  -4   4  475.45   45.80
   6  -4  -4  562.84   45.60
   6   4   4  472.45   43.60
   8  -4   4  201.68   19.80
  -8   4   4  144.19   23.50
   8   4  -4  212.28   21.40
   8  -4   4  191.98   20.80
  -8  -4  -4  166.98   20.50
   8   4  -4  186.88   20.60
   8   4  -4  205.58   22.80
   8   4   4  224.48   20.60
   8   4   4  175.18   19.70
   8  -4  -4  217.68   20.60
   8  -4  -4  191.88   21.30
  10  -4   4   54.49    8.50
  10   4  -4   71.19   12.40
  10   4  -4   61.69    9.30
  10   4  -4   40.70    9.20
  10  -4  -4   44.80    8.10
  10   4   4   46.30    7.90
   1  -5   4  467.05   41.10
  -1  -5  -4  503.05   42.00
   1  -5   4  466.75   41.60
  -1   5   4  456.15   41.70
  -1   5   4  514.75   42.50
   1   5  -4  497.45   40.60
  -1  -5  -4  449.36   41.50
   1  -5   4  525.35   41.90
  -1   5   4  461.55   40.80
  -1  -5  -4  474.15   40.90
   1  -5   4  508.85   42.80
   1   5   4  492.75   41.00
  -1   5  -4  468.25   41.10
  -1   5  -4  453.95   41.70
   1  -5  -4  459.65   41.60
   1  -5  -4  540.95   42.10
   1   5   4  441.06   41.70
   1   5   4  515.55   41.50
   1  -5  -4  478.45   40.90
  -1  -5   4  454.15   42.40
  -3   5   4   49.99    8.20
   3  -5   4   60.79    8.70
   3   5  -4   64.89    7.00
   3   5  -4   83.39    7.70
  -3  -5  -4   85.29    8.20
   3  -5   4   69.99    6.80
  -3  -5  -4   64.39    7.90
  -3  -5  -4   67.69    6.70
   3   5  -4   78.49    8.60
  -3  -5   4   65.99    7.30
   3  -5  -4   65.79    6.20
  -3  -5   4   56.19    8.30
   3   5   4   78.39    8.20
  -3   5  -4   65.19    7.60
   3   5   4   70.69    6.40
   3  -5  -4   74.69    8.40
   3  -5  -4   51.79    7.20
   3  -5  -4   66.89    6.20
   3  -5  -4   53.69    7.70
  -3  -5   4   72.09    8.10
   5  -5   4   48.30    7.00
  -5  -5  -4   41.40    6.60
  -5  -5  -4   46.00    5.80
   5   5  -4   52.29    6.50
   5  -5   4   49.10    6.30
   5  -5   4   47.20    5.80
   5   5  -4   51.89    7.00
   5  -5   4   43.80    8.10
   5   5  -4   59.29    8.00
   5  -5   4   46.60    6.10
  -5   5   4   55.79    8.80
   5   5  -4   44.60    6.80
   5  -5  -4   48.00    6.50
   5   5   4   44.80    6.20
  -5  -5   4   51.09    7.00
   5   5   4   60.99    7.20
  -5  -5   4   42.90    6.70
   5  -5  -4   52.09    6.10
   5   5   4   49.10    5.40
  -5   5  -4   59.29    7.30
   5  -5  -4   48.50    5.50
   5   5   4   40.40    7.40
   5  -5  -4   41.20    6.70
   7   5  -4   39.70    7.40
  -7  -5  -4   26.40    6.20
  -7   5   4   43.50    8.40
   7  -5   4   35.80    6.30
   7   5  -4   40.60   11.60
   7   5  -4   37.30    6.00
   7  -5   4   40.60    5.70
   7  -5  -4   36.30    6.30
   7  -5  -4   39.00    6.20
  -7  -5   4   38.30    6.50
   7   5   4   38.60    6.00
   7   5   4   46.60    6.00
   9   5  -4    0.30    1.20
   9  -5   4   -1.60    1.50
   9  -5   4    0.80    1.40
   9   5  -4    0.80    1.50
   9   5  -4   -3.60    1.70
   9   5   4    1.30    1.10
   9  -5  -4    0.50    1.50
   0   6   4 2408.66  189.98
   0   6   4 1718.63  280.37
   0   6  -4 2405.36  425.26
  -2  -6  -4 1142.89  103.79
  -2   6   4 1265.87  105.19
   2  -6   4 1205.78  105.29
  -2  -6   4 1268.17  102.29
  -2  -6   4 1193.58  104.79
  -4   6   4  446.16   48.10
   4   6  -4  523.95   45.80
  -4  -6  -4  484.75   46.40
   4   6  -4  429.76   46.80
   4  -6   4  549.35   45.20
   4  -6   4  525.45   45.60
  -4  -6  -4  506.35   45.10
  -4   6  -4  519.75   45.80
   4   6   4  471.45   45.40
  -4  -6   4  570.14   46.90
   4  -6  -4  588.94   46.40
   4  -6  -4  549.74   44.40
   4  -6  -4  546.95   48.30
  -4   6  -4  575.94   46.40
   4   6   4  527.65   44.70
   4  -6  -4  483.65   44.10
  -6   6   4  214.28   25.40
   6  -6   4  225.08   22.60
   6  -6   4  235.18   23.50
  -6  -6  -4  262.87   23.80
   6  -6   4  213.38   22.00
   6  -6   4  234.18   21.70
   6   6  -4  254.37   24.90
   6   6  -4  230.68   23.60
   6   6  -4  229.28   22.30
   6  -6  -4  210.98   22.40
  -6  -6   4  241.28   23.60
   6  -6  -4  237.88   21.90
   6   6   4  223.18   21.10
   6  -6  -4  214.78   21.00
   6   6   4  228.78   22.40
  -8  -6  -4  140.59   18.00
  -8   6   4  143.39   20.20
   8  -6   4  156.08   18.10
   8   6  -4  173.48   17.80
   8   6  -4  171.28   20.20
   8  -6   4  164.88   17.00
   8   6   4  137.79   16.90
   8  -6  -4  200.08   18.20
   8   6   4  170.08   17.60
  -1   7   4  189.58   17.40
   1  -7   4  179.38   17.40
  -1  -7  -4  185.48   17.60
   1  -7   4  209.28   17.00
   1   7  -4  203.68   18.20
  -1  -7  -4  183.98   16.70
  -1   7   4  166.48   17.90
  -1   7   4  192.98   16.50
   1  -7   4  178.18   18.10
  -1  -7  -4  209.88   17.30
  -1   7  -4  199.18   17.50
   1  -7  -4  183.28   16.50
  -1   7  -4  174.28   16.80
   1   7   4  211.68   17.30
   1  -7  -4  183.88   17.20
  -1  -7   4  154.18   17.90
   1  -7  -4  198.68   17.70
   1   7   4  200.58   17.60
  -1  -7   4  170.58   17.20
   1   7   4  180.18   16.80
   3  -7   4   20.50    2.80
   3  -7   4   16.90    4.10
  -3  -7  -4   21.00    2.80
   3   7  -4   18.30    2.30
   3   7  -4   14.40    2.70
  -3   7   4   25.20    4.70
  -3   7   4   21.60    3.60
   3  -7   4   18.40    3.00
  -3  -7  -4   23.40    3.80
   3   7  -4   20.30    2.50
   3   7  -4   15.60    3.50
  -3  -7  -4   16.00    3.00
  -3  -7   4   17.00    3.90
   3   7   4   18.70    2.50
  -3  -7   4   19.80    3.50
   3   7   4   20.20    3.10
  -3   7  -4   16.90    4.00
  -3   7  -4   19.30    3.20
   3  -7  -4   21.10    3.90
   3  -7  -4   17.30    3.20
   3   7   4   18.30    4.70
   5   7  -4   15.70    3.70
   5  -7   4   15.50    3.10
   5   7  -4   17.80    3.00
   5  -7   4   16.30    3.00
   5   7  -4   18.80    3.40
   5   7  -4   22.30    5.90
  -5  -7  -4   20.00    3.30
  -5   7   4   28.60    5.50
  -5  -7  -4   19.80    3.90
   5   7   4   15.80    5.60
   5  -7  -4   21.40    4.60
   5   7   4   13.90    3.10
   5  -7  -4   21.20    2.70
  -5   7  -4   17.10    3.50
   5  -7  -4   16.10    2.20
  -5  -7   4   17.80    3.90
   5   7   4   16.90    2.80
   5  -7  -4   25.40    5.70
   5  -7  -4   21.60    3.60
   7   7  -4   18.20    6.00
  -7   7   4    9.00    4.60
   7  -7   4   14.30    3.80
  -7  -7  -4   15.60    4.80
   7   7  -4    7.30    2.70
   7  -7  -4   12.10    3.10
  -7  -7   4   11.00    3.60
   7   7   4   16.60    4.40
   7  -7  -4   10.70    3.20
   9   7  -4   -0.70    0.90
   9  -7   4   -0.50    1.40
   9   7  -4   -1.00    1.30
   9  -7   4    3.20    1.80
   9   7  -4    2.80    2.70
  -9   7   4   -2.10    1.60
   9   7   4    0.50    1.50
   9  -7  -4   -1.90    1.00
   0  -8   4 1944.41  284.27
   0   8  -4 1794.12  328.57
   0  -8  -4 2642.24  317.27
   0  -8  -4 1862.61  324.67
   2  -8   4 1263.47   95.49
  -2   8   4 1047.40   94.59
   2   8  -4 1227.88   94.39
   2  -8   4 1131.09   92.89
   2  -8  -4 1047.00   92.99
  -2  -8   4  938.41   94.19
   2   8   4 1133.59   92.09
  -2  -8   4  923.61   92.79
   4   8  -4  443.36   38.20
   4   8  -4  435.96   37.00
   4  -8   4  389.06   37.80
  -4  -8  -4  442.26   37.90
   4  -8   4  409.66   37.60
   4  -8   4  392.06   40.90
   4   8  -4  436.86   37.70
  -4  -8  -4  494.85   39.60
   4   8  -4  374.76   39.70
   4   8  -4  502.55   40.00
  -4   8  -4  433.96   38.60
  -4  -8   4  358.66   38.60
   4  -8  -4  495.65   40.50
   4  -8  -4  419.06   38.50
   4   8   4  463.05   38.20
  -4   8  -4  352.46   40.10
   4   8   4  427.26   37.20
   6   8  -4  138.79   15.80
  -6   8   4  153.18   17.90
   6   8  -4  112.59   13.90
  -6  -8  -4  109.59   13.80
   6  -8   4  120.29   12.80
   6  -8   4  121.89   12.90
   6  -8   4  105.69   13.40
   6   8  -4  125.79   12.80
   6  -8  -4  107.99   13.10
   6   8   4  128.09   13.30
  -6   8  -4  116.89   13.70
   6   8   4  114.49   12.30
   6  -8  -4  138.49   12.10
   6  -8  -4  129.79   11.60
  -6  -8   4  141.29   14.80
  -8   8   4  183.98   22.80
   8  -8   4  208.38   20.10
  -8  -8  -4  180.68   19.60
   8   8  -4  168.88   18.00
   8  -8   4  151.78   17.50
   8   8  -4  173.08   20.80
   8  -8  -4  165.88   18.20
   8   8   4  164.88   18.00
   8   8   4  158.48   18.30
  -1  -9  -4   38.00    5.10
  -1   9   4   49.40    6.30
   1   9  -4   48.50    6.00
  -1   9   4   42.70    4.50
   1  -9   4   41.30    5.80
  -1  -9  -4   42.40    4.80
  -1   9   4   41.30    5.20
   1   9  -4   47.40    5.20
  -1  -9  -4   42.40    4.90
   1  -9   4   52.49    5.20
   1   9   4   38.30    5.10
   1  -9  -4   35.10    5.10
   1   9   4   40.40    5.30
   1   9   4   45.60    4.90
  -1  -9   4   45.70    6.20
  -1   9  -4   36.20    4.70
  -1   9  -4   43.10    5.90
   1  -9  -4   43.80    5.20
  -1  -9   4   41.90    5.20
  -1   9  -4   52.29    5.60
   3  -9   4    0.10    0.50
   3  -9   4    1.80    1.40
   3  -9   4    1.10    0.70
  -3   9   4    0.50    1.00
  -3  -9  -4    0.30    0.50
   3   9  -4   -0.90    0.70
  -3  -9  -4    0.00    0.40
  -3  -9   4    0.20    0.80
   3   9   4   -0.10    0.40
  -3   9  -4    0.20    0.50
   3  -9  -4   -0.70    0.70
  -3   9  -4   -0.30    0.50
   3   9   4    0.00    0.50
  -3   9  -4   -0.60    0.70
   5   9  -4    3.30    1.40
  -5   9   4    0.40    1.60
   5  -9   4    4.30    1.70
   5  -9   4    3.50    1.40
  -5  -9  -4    2.90    1.90
   5   9  -4    5.60    2.70
  -5  -9  -4    4.50    2.10
   5   9   4    1.80    1.30
  -5   9  -4    3.50    1.80
   5   9   4    6.00    2.70
   5   9   4    5.70    1.70
  -5  -9   4    6.10    2.40
   5  -9  -4    5.20    2.30
   7  -9   4    3.70    2.30
  -7  -9  -4    4.20    1.90
   7   9  -4    2.40    3.20
  -7   9   4    0.40    2.10
  -7  -9  -4    5.20    2.50
   7  -9   4    4.70    2.00
   7   9  -4    1.30    1.10
   7   9   4    3.30    2.00
   7  -9  -4    4.20    2.10
  -7  -9   4    0.70    1.30
   9  -9   4    1.60    1.10
   9   9  -4   -1.20    1.40
   9  -9   4    2.80    2.30
   9  -9  -4    1.10    1.20
   9   9   4    1.00    1.10
   9   9   4    0.60    2.80
   0 -10   4 2000.50  166.58
   0 -10   4 1915.71  165.38
  -2  10   4 1129.99   99.79
  -2  10   4 1306.87  102.19
   2 -10   4 1127.09   99.49
  -2 -10  -4 1180.68   98.99
  -2 -10  -4 1188.48  100.19
   2 -10   4 1126.49  101.19
   2  10   4 1077.49   98.69
   2 -10  -4 1138.99   99.49
   2  10   4 1138.29   99.19
  -2 -10   4 1247.98   99.89
   2  10   4 1011.70   99.99
   2 -10  -4 1250.97  100.59
  -2  10  -4 1248.48  101.79
   4  10  -4  334.27   30.40
   4  10  -4  388.46   32.50
   4  10  -4  339.37   29.40
   4  10  -4  302.77   28.70
   4 -10   4  323.57   30.20
   4  10  -4  402.66   33.50
  -4  10   4  376.56   34.60
  -4 -10  -4  324.17   30.30
   4 -10   4  309.77   30.30
   4  10   4  294.17   29.60
   4 -10  -4  313.47   30.80
   4  10   4  332.57   30.30
   4 -10  -4  362.86   32.60
  -4  10  -4  303.87   30.70
  -4  10  -4  400.26   34.50
  -4 -10   4  356.46   31.70
   6 -10   4  248.38   21.60
  -6  10   4  230.38   25.80
   6  10  -4  214.08   20.40
   6  10  -4  232.68   22.30
   6 -10   4  197.48   20.90
  -6 -10  -4  185.48   22.10
   6  10  -4  185.98   23.20
   6  10   4  215.08   20.60
   6  10   4  234.98   21.50
   6 -10  -4  242.68   22.00
  -6 -10   4  226.78   22.90
  -8  10   4  127.19   18.00
   8 -10   4  118.99   14.10
   8  10  -4  151.38   18.00
   8  10  -4  142.99   16.40
   8 -10  -4  128.59   14.50
   8  10   4  111.29   13.70
  -1 -11  -4  100.29   10.60
   1  11  -4   94.49   10.10
   1 -11   4   91.19   10.90
   1 -11   4  103.39   10.20
  -1  11   4   99.59   10.10
  -1  11   4   98.29    9.60
  -1 -11  -4  111.49   10.10
   1  11  -4  102.19   11.20
  -1  11   4   96.69   11.50
  -1 -11  -4  101.79   10.10
  -1  11   4   95.69   10.40
  -1  11  -4  108.69   10.30
   1  11   4   90.19   10.30
   1  11   4   95.09   10.00
  -1 -11   4   87.59   11.30
   1 -11  -4  102.29   10.40
   1 -11  -4   92.19   10.50
  -1 -11   4  124.79   10.80
  -1  11  -4  104.79   10.70
   1  11   4  104.39   10.80
  -1  11  -4   99.19   11.30
  -1 -11   4  107.59    8.90
  -3  11   4    4.00    2.40
   3 -11   4    7.90    2.30
  -3 -11  -4    5.90    2.50
   3  11  -4    3.80    2.20
  -3  11   4   10.40    3.10
   3 -11   4    5.00    1.90
   3 -11   4    6.10    3.00
  -3 -11  -4    8.80    2.30
   3  11   4    5.40    1.80
   3 -11  -4   11.70    3.60
   3 -11  -4    6.00    2.10
  -3  11  -4    9.20    2.70
   3  11   4    7.30    1.90
  -3  11  -4   13.70    4.70
  -3 -11   4    4.20    1.90
   3  11   4   14.70    3.80
   5 -11   4   11.00    3.00
   5  11  -4    8.10    2.40
  -5  11   4    5.00    3.20
   5 -11   4   11.50    3.20
  -5 -11  -4   12.80    4.10
   5  11  -4    7.40    1.40
   5  11  -4    7.00    3.20
  -5  11  -4   12.20    5.30
   5  11   4    9.80    2.70
   5 -11  -4   10.00    3.20
  -5 -11   4    4.90    2.20
   5  11   4   11.20    2.30
  -5  11  -4    4.50    1.90
   7  11  -4    6.30    3.70
  -7 -11  -4    7.60    3.40
  -7  11   4   27.90    8.30
   7  11  -4   16.60    3.00
   7 -11   4   10.70    3.20
   7  11   4   19.90    3.80
   7 -11  -4   16.20    4.60
  -7 -11   4   10.80    4.30
   9 -11   4   -0.60    1.90
   9  11  -4   -2.60    1.80
   9  11   4    1.60    1.60
   9 -11  -4   -0.40    1.30
   9  11   4   -3.00    1.60
   0 -12  -4  354.06   31.90
   0 -12  -4  336.57   32.10
   0  12   4  317.77   32.00
   0  12  -4  355.16   32.00
   0  12  -4  383.56   32.70
   0 -12   4  398.26   32.30
   0 -12   4  353.56   32.10
   0  12   4  377.56   33.20
   0 -12   4  359.36   33.50
   0  12   4  354.46   32.20
   0  12  -4  381.46   33.00
  -2 -12  -4 1139.59   93.99
   2 -12   4  927.11   92.89
  -2 -12  -4 1071.29   92.59
  -2  12   4  995.40   95.09
   2  12   4 1111.29   92.89
  -2  12  -4 1101.99   95.39
  -2 -12   4 1173.78   93.49
   2 -12  -4 1018.30   92.99
   2  12   4 1112.59   92.59
  -2  12  -4 1159.98   93.09
  -2  12  -4 1127.49   93.19
  -4 -12  -4  310.67   26.50
   4 -12   4  227.18   24.20
   4 -12   4  276.47   24.50
   4 -12   4  218.08   26.60
  -4  12   4  266.97   28.20
   4  12   4  259.87   24.00
  -4 -12   4  278.77   25.80
   4  12   4  274.27   24.40
  -4  12  -4  312.97   28.70
   4 -12  -4  230.58   24.60
  -4  12  -4  273.67   25.10
   6  12  -4  377.16   36.90
   6 -12   4  351.46   33.30
  -6 -12  -4  318.97   34.70
  -6 -12   4  406.66   35.70
  -6  12  -4  323.67   36.80
   6 -12  -4  394.76   34.20
   6  12   4  378.56   33.50
  -8 -12  -4   80.99   12.00
   8 -12   4   98.59   10.90
  -8  12   4   68.49   12.50
   8 -12   4   55.49   10.30
   8  12  -4   68.09   11.70
   8  12   4  104.49   13.80
   8  12   4   84.29   10.00
  -8 -12   4   73.39   20.10
   8 -12  -4   94.59   10.70
  -1  13   4   21.10    4.60
   1 -13   4   43.20    4.80
   1 -13   4   36.20    5.10
   1 -13   4   25.50    4.50
  -1  13   4   30.80    4.20
  -1 -13  -4   35.60    4.30
   1  13  -4   30.90    5.00
  -1  13   4   25.70    4.20
   1 -13  -4   23.70    4.20
  -1  13  -4   32.50    4.20
  -1  13  -4   30.10    4.60
  -1 -13   4   29.30    4.20
   1 -13  -4   31.90    4.30
   1  13   4   33.00    4.70
   1  13   4   33.00    4.60
  -1 -13   4   28.80    3.10
  -1  13  -4   26.00    4.90
   1  13   4   28.60    4.00
   3 -13   4    4.20    1.80
   3  13  -4    4.50    1.90
   3  13  -4    1.50    1.20
  -3 -13  -4    4.10    2.30
   3 -13   4    2.00    1.10
  -3 -13  -4    3.30    1.60
  -3  13   4    5.40    3.00
   3 -13  -4    0.60    1.10
   3 -13  -4    1.30    1.30
   3  13   4    2.50    1.20
  -3 -13   4    2.50    1.50
   3  13   4    0.70    0.90
  -3  13  -4    1.90    2.20
  -3  13  -4    0.10    1.00
  -3  13  -4    2.90    1.70
   5 -13   4    0.60    1.00
   5 -13   4   -0.20    1.00
  -5 -13  -4   -1.20    0.90
   5  13  -4    0.00    1.60
  -5 -13  -4   -0.20    0.70
  -5  13   4   -1.10    1.10
   5  13   4    0.50    0.90
   5  13   4   -0.90    0.60
  -5 -13   4    0.60    0.80
  -5  13  -4    0.10    0.80
  -5  13  -4   -1.70    1.40
  -7  13   4    3.40    2.70
   7 -13   4    8.80    2.70
   7  13  -4    9.40    3.70
   7  13   4    7.60    2.50
  -7 -13   4    3.90    2.30
   7 -13  -4    7.40    3.00
   9  13  -4    0.30    2.30
   9 -13   4    0.70    2.10
   9 -13   4    0.00    1.80
   9  13   4    1.10    1.50
   9 -13  -4   -1.80    0.80
   9  13   4   -0.90    2.10
   0 -14   4  257.17   23.30
   0  14  -4  247.18   22.40
   0  14   4  238.08   22.60
   0  14  -4  237.68   22.20
   0 -14  -4  233.68   21.30
   0  14   4  192.38   21.20
   0  14   4  253.77   22.80
   0 -14  -4  209.78   21.30
   0 -14   4  215.18   21.40
   0  14  -4  232.78   21.40
  -2  14   4  838.82   67.99
  -2 -14  -4  841.12   69.39
   2  14  -4  842.92   71.29
   2 -14   4  812.02   70.29
  -2  14   4  862.81   72.59
   2 -14   4  845.22   69.39
   2  14   4  842.12   69.79
  -2 -14   4  805.02   69.89
  -2  14  -4  764.42   71.89
   2  14   4  678.03   68.89
  -2  14  -4  718.33   69.29
   2 -14  -4  772.52   69.59
  -2  14  -4  811.82   69.79
  -4  14   4  235.28   27.90
   4 -14   4  238.78   24.60
  -4 -14  -4  276.07   25.00
   4 -14   4  295.67   24.80
   4  14   4  271.17   24.20
  -4  14  -4  310.87   29.00
  -4 -14   4  248.08   25.40
   4  14   4  274.57   24.50
   4 -14  -4  227.58   24.60
  -4  14  -4  256.07   25.00
   6 -14   4  309.27   29.00
  -6  14   4  302.67   33.90
  -6 -14   4  298.77   30.70
  -6  14  -4  323.77   33.60
   6 -14  -4  311.67   29.50
   6  14   4  311.07   28.90
   8  14  -4   46.30    9.70
  -8  14   4   64.29   12.30
   8 -14   4   59.79    8.50
   8  14   4   69.09    8.80
   8 -14  -4   73.69    9.00
   8  14   4   71.79   12.20
  -1  15   4   -1.50    0.70
   1 -15   4    0.10    1.00
   1 -15   4    0.80    0.90
  -1  15   4   -0.40    0.60
  -1  15   4   -0.20    0.70
  -1  15   4    1.70    0.90
  -1 -15  -4    1.10    0.80
   1  15  -4    0.70    0.80
   1  15  -4    1.60    1.10
   1 -15   4   -0.20    0.70
   1 -15  -4   -0.20    0.50
  -1 -15   4    0.50    0.70
   1  15   4   -0.20    0.50
  -1 -15   4    1.90    1.40
  -1  15  -4    0.60    0.90
   1  15   4    0.90    1.20
   1  15   4    0.10    0.90
  -1  15  -4   -0.30    0.60
   1  15   4   -0.60    0.60
   3 -15   4    0.50    0.90
  -3  15   4    3.40    2.20
  -3 -15  -4    1.90    1.10
   3  15  -4    2.20    1.60
   3 -15   4    2.80    1.50
  -3 -15   4    0.30    1.10
  -3  15  -4    0.80    1.80
  -3  15  -4    1.90    1.00
   3  15   4    1.80    1.30
   3  15   4    3.30    1.50
   3 -15  -4    2.00    1.20
  -5  15   4    4.00    2.10
   5  15  -4    1.70    1.30
   5 -15   4    1.80    1.20
   5 -15   4    0.60    1.60
  -5 -15  -4   -0.10    1.00
  -5 -15   4    2.10    1.30
   5  15   4    0.20    0.90
  -5  15  -4    0.00    1.20
   5 -15  -4    0.20    0.70
  -7  15   4   -0.20    2.00
   7 -15   4    1.00    1.10
   7  15  -4   -1.20    1.20
   7  15   4   -1.70    1.40
  -7 -15   4    1.10    2.00
   7 -15  -4    1.20    1.30
   7  15   4    3.00    1.60
   0 -16   4  383.36   36.40
   0 -16   4  343.77   34.40
   0  16   4  408.96   35.80
   0  16  -4  393.46   35.50
   0  16   4  384.46   36.10
   0 -16  -4  405.86   34.40
   0  16   4  379.56   34.70
   0  16   4  351.96   34.50
   0  16  -4  400.26   35.70
  -2  16   4  519.15   46.00
  -2 -16  -4  497.65   45.40
   2 -16   4  539.95   45.70
   2 -16   4  476.35   46.40
   2  16  -4  598.54   48.10
  -2  16   4  534.65   48.70
   2  16   4  493.55   45.80
   2 -16  -4  530.75   46.40
   2  16   4  421.36   45.00
   2 -16  -4  542.95   45.70
  -2  16  -4  482.65   45.70
  -2 -16   4  547.15   46.00
   2  16   4  542.05   48.40
  -2  16  -4  489.85   48.20
  -4  16   4  263.87   29.90
  -4 -16  -4  293.47   26.70
   4 -16   4  297.17   26.30
   4  16  -4  250.87   28.10
   4 -16   4  286.37   26.90
   4 -16  -4  259.57   26.30
   4  16   4  269.37   25.80
   4  16   4  323.27   30.40
   6  16  -4  195.18   21.80
  -6  16   4  173.48   23.10
   6 -16   4  180.58   18.80
   6  16   4  230.48   23.60
   6  16   4  189.28   18.70
  -6  16  -4  150.78   21.60
   6 -16  -4  176.38   19.00
  -6 -16   4  237.18   21.60
   8  16  -4   64.89   11.10
   8 -16   4   64.89    9.40
   8 -16  -4   87.09   10.10
   8  16   4   68.89   12.00
   8  16   4   84.79   10.30
   1  17  -4    0.40    0.70
  -1  17   4    1.00    1.10
  -1 -17  -4   -0.50    0.50
   1 -17   4    0.60    1.20
   1 -17   4    1.30    1.70
   1 -17   4   -0.20    0.60
   1  17  -4    1.30    1.30
  -1  17  -4    0.90    1.10
   1  17   4   -0.20    0.90
  -1 -17   4    0.50    0.90
  -1  17  -4   -0.80    0.70
   1  17   4    0.10    1.00
  -1 -17   4   -1.40    1.40
   1  17   4    0.30    1.00
   1 -17  -4   -0.70    0.40
   3 -17   4    6.60    2.20
   3 -17   4    3.70    2.00
  -3 -17  -4    3.10    1.60
  -3  17   4    1.00    1.80
   3 -17   4   -0.60    1.60
   3  17  -4    0.50    1.20
   3  17   4    5.90    2.10
  -3 -17   4    2.50    1.70
  -3  17  -4    4.90    3.20
   3 -17  -4    3.20    1.60
   3  17   4    3.90    1.90
   3  17   4    1.10    1.70
  -3  17  -4    4.00    2.10
  -5  17   4    0.60    2.30
   5 -17   4    0.70    0.90
   5  17  -4   -1.20    0.90
   5  17   4    0.80    2.20
  -5  17  -4    1.20    1.90
  -5 -17   4    2.00    1.80
   5 -17  -4    1.20    0.80
   5  17   4   -0.10    0.80
  -7  17   4    1.40    1.40
   7  17  -4    5.90    3.30
   7 -17   4    0.70    1.40
   7 -17  -4    1.00    0.90
   7  17   4   -1.40    1.60
  -7 -17   4    1.40    1.40
   7  17   4   -0.70    0.90
  -7  17  -4    1.90    2.10
   0  18   4  259.97   29.00
   0  18  -4  321.17   29.90
   0 -18  -4  334.27   28.50
   0 -18   4  293.67   28.40
   0  18   4  324.57   30.60
   0  18  -4  327.37   29.60
   0 -18   4  292.87   30.40
   2 -18   4  214.58   23.20
   2 -18   4  217.98   22.70
   2 -18   4  227.18   21.30
  -2 -18  -4  248.98   21.60
  -2  18   4  216.48   24.10
   2  18  -4  183.88   22.50
   2 -18  -4  234.78   21.50
  -2  18  -4  231.98   24.40
  -2  18  -4  216.58   21.70
   2  18   4  223.38   22.20
  -2 -18   4  225.28   21.80
   2  18   4  212.98   21.20
   2  18   4  241.78   24.30
   4 -18   4  340.57   35.90
   4  18  -4  448.16   37.30
   4 -18   4  404.06   34.20
  -4 -18  -4  337.07   34.60
  -4 -18  -4  324.87   34.10
  -4  18   4  392.06   38.60
  -4 -18   4  367.56   34.90
   4  18   4  363.16   37.20
   4  18   4  349.87   34.10
   4 -18  -4  393.66   34.40
  -6  18   4  121.09   18.70
   6  18  -4  171.68   18.70
   6 -18   4  126.29   15.10
  -6  18  -4  142.49   19.00
   6  18   4  150.48   15.60
   6 -18  -4  140.39   15.50
  -6 -18   4  141.69   16.70
   6  18   4  195.28   20.30
   8 -18   4   82.39   11.10
  -8  18   4   94.19   15.80
   8  18  -4  101.59   20.80
   8 -18  -4  101.09   11.50
  -1  19   4    4.90    2.00
  -1  19   4    7.80    3.20
   1 -19   4    6.40    2.40
  -1 -19  -4    8.00    2.80
   1 -19   4    4.60    2.20
   1  19  -4    8.80    2.70
   1 -19   4   11.50    3.70
   1  19  -4    2.20    1.90
  -1 -19  -4    7.60    2.30
  -1 -19   4    7.40    2.70
   1  19   4    4.90    2.60
   1 -19  -4    2.70    1.60
   1  19   4    8.20    3.20
  -1  19  -4    4.80    2.90
   1  19   4    6.20    2.90
  -1  19  -4    5.90    2.40
   3 -19   4    0.30    1.50
   3  19  -4    0.20    1.20
  -3 -19  -4    1.20    0.90
   3 -19   4    1.10    0.90
  -3 -19  -4    0.10    0.80
  -3  19  -4   -1.70    1.20
  -3 -19   4    2.90    1.30
   3  19   4    0.30    0.80
   5 -19   4    0.80    1.00
   5  19  -4   -1.50    1.40
  -5  19   4    3.20    2.00
   5  19   4    4.70    2.30
  -5  19  -4    1.20    2.70
  -5 -19   4    1.60    1.80
   7  19  -4   -0.90    1.90
   7 -19   4   -0.40    1.10
  -7  19   4   -0.80    2.30
   7 -19  -4   -0.30    0.60
   7  19   4    0.90    2.10
   0 -20   4  323.07   34.00
   0 -20  -4  344.37   34.20
   0 -20  -4  363.06   34.10
   0  20  -4  419.46   35.80
   0  20   4  395.36   36.90
   0  20  -4  434.76   36.80
   0 -20   4  370.86   33.80
  -2 -20  -4  104.09   11.00
   2 -20   4   88.49   12.10
   2 -20   4   90.39   12.00
  -2  20   4  102.29   13.60
   2 -20   4   83.59   10.60
  -2 -20  -4  125.59   11.60
   2  20  -4   81.99   11.70
   2 -20  -4  114.79   11.30
   2  20   4   88.99   18.50
  -2  20  -4  110.09   14.10
   2  20   4   96.49   12.00
  -2 -20   4   86.89   11.00
   4 -20   4  351.86   30.80
   4  20  -4  262.37   31.90
  -4  20   4  312.47   34.50
  -4  20  -4  349.77   35.00
   4 -20  -4  294.07   30.30
  -4 -20   4  344.57   31.60
   4  20   4  371.96   31.50
   6  20  -4   87.49   12.50
  -6  20   4   67.29   12.90
   6 -20   4   80.09   10.30
   6 -20  -4   98.29   10.90
   6  20   4   96.59   13.50
  -6  20  -4   76.49   13.10
   6  20   4   99.49   11.40
   1 -21   4    0.60    0.90
   1  21  -4    3.20    1.50
  -1  21   4    1.70    1.80
  -1  21   4    2.70    1.50
   1  21  -4    1.10    1.00
  -1 -21  -4    0.10    0.70
   1 -21   4    0.60    1.70
  -1  21  -4    0.90    1.90
   1 -21  -4   -0.50    0.90
   1  21   4    1.00    1.50
  -1 -21   4   -0.40    0.60
   3 -21   4   18.80    4.10
   3 -21  -4   24.50    4.30
   3  21   4   28.00    5.20
   3  21   4   29.10    6.10
  -3 -21   4   28.00    4.90
  -5  21   4    0.90    1.90
   5  21  -4   -1.60    0.90
   5 -21   4   -0.20    0.70
   5  21   4    2.00    1.70
  -5  21  -4    3.90    3.80
   5 -21  -4   -1.00    0.70
   5  21   4   -0.40    1.60
  -5 -21   4   -0.40    1.20
   7  21  -4    0.10    1.00
   7 -21   4   -1.40    0.70
  -7  21  -4    1.60    2.00
   7 -21  -4    0.10    1.40
   7  21   4   -3.90    1.90
   0  22   4  266.27   27.90
   0  22  -4  296.97   28.10
   0  22   4  269.97   28.40
   0 -22  -4  286.77   25.80
   0 -22   4  230.58   25.30
  -2  22   4  183.08   21.90
   2 -22   4  197.28   19.10
  -2 -22  -4  197.58   19.00
   2 -22  -4  174.78   18.50
   2  22   4  176.48   20.20
  -2  22  -4  172.88   22.00
  -2 -22   4  204.38   19.50
   4 -22   4  192.08   17.60
   4  22  -4  171.08   19.50
  -4  22   4  154.68   20.90
  -4  22  -4  155.28   20.80
   4  22   4  174.38   20.20
  -4 -22   4  161.08   18.00
   4  22   4  161.78   18.20
   4 -22  -4  163.58   17.20
  -6  22   4   79.79   13.20
   6  22  -4   61.09   10.90
   6 -22   4   75.59    9.70
   6 -22  -4   97.69   10.30
   6  22   4   61.19   11.30
  -6  22  -4   86.19   13.60
   1  23  -4    0.50    1.40
   1 -23   4    0.40    0.90
  -1  23   4   -0.80    1.00
  -1 -23  -4    0.30    0.80
   1  23   4    0.20    1.60
  -1  23  -4   -1.10    1.50
   1 -23  -4    0.80    0.90
  -1 -23   4    1.10    0.90
   3  23  -4    0.30    1.40
  -3  23   4    4.20    2.80
   3 -23   4    3.20    1.40
  -3  23  -4    2.50    2.70
  -3 -23   4    6.30    2.40
   3 -23  -4    2.50    1.50
   3  23   4    5.10    2.50
   3  23   4    3.60    2.00
  -5  23   4   -0.10    1.90
   5  23  -4    2.10    2.10
   5  23   4   -1.30    1.60
   5  23   4    4.40    2.00
  -5  23  -4    1.40    2.70
   5 -23  -4    1.40    1.30
  -7  23  -4   -1.50    2.10
   0 -24   4  219.08   21.70
   0  24  -4  240.68   24.40
   0  24   4  205.78   24.40
   0 -24  -4  208.48   21.20
   2  24  -4  153.28   17.20
  -2 -24  -4  117.69   15.80
   2 -24   4  151.98   15.90
  -2  24   4  127.39   18.40
  -2 -24   4  157.38   16.30
  -2  24  -4  155.78   19.40
   2 -24  -4  169.78   15.90
  -2  24  -4  141.49   16.90
   2  24   4  157.88   18.20
   4  24  -4  140.09   15.80
  -4  24   4  107.59   16.70
   4 -24   4  107.59   12.90
   4 -24  -4  112.49   12.80
   4  24   4  127.19   15.00
  -4  24  -4  114.19   17.00
  -4 -24   4  115.79   13.90
   6 -24   4   65.49    8.00
   6  24  -4   46.70    8.60
  -6  24   4   39.70    9.80
  -6  24  -4   40.70    9.70
   6  24   4   43.20    8.80
  -1 -25  -4    1.60    1.00
  -1  25   4    5.30    2.40
   1  25  -4    1.60    1.50
   1 -25   4    0.10    1.10
  -1  25  -4    1.90    2.70
   1 -25  -4    0.70    1.10
  -3  25   4    0.90    2.80
   3  25  -4    0.20    1.10
   3 -25   4   -0.30    0.90
  -3 -25   4    2.30    1.50
  -3  25  -4    2.10    2.40
   3  25   4    3.30    2.10
   5  25  -4   -0.50    1.30
   5 -25   4    2.90    1.50
  -5  25  -4    1.30    2.70
   0  26   4  193.78   21.40
   0  26  -4  160.88   22.60
   0 -26   4  183.08   17.70
   0 -26  -4  139.19   16.80
  -2  26   4  120.59   17.20
   2 -26   4  118.99   13.60
   2 -26  -4  142.99   14.00
  -2  26  -4  140.59   18.00
   2  26   4  125.89   16.40
  -2 -26   4  104.79   13.50
  -4  26   4   83.39   13.60
   4 -26   4   83.79   10.20
   4  26  -4   85.29   11.50
  -4 -26   4   71.59   13.40
   4 -26  -4   78.29    9.90
  -4  26  -4   80.09   13.50
  -1  27   4    0.80    2.50
   1  27   4    3.60    2.70
  -1  27  -4    2.00    2.80
   1 -27  -4   -0.20    0.90
  -3  27   4   -1.90    2.20
  -3  27  -4    2.10    2.20
   3 -27  -4    1.50    1.20
  -3 -27   4    0.80    1.20
   5 -27   4    1.20    1.60
  -5  27   4   -2.60    2.00
  -5  27  -4    0.70    2.10
   5 -27  -4    0.50    1.20
   0  28   4   58.59   10.90
   0 -28   4   63.09    8.40
   2 -28   4  138.59   14.70
  -2  28   4  142.39   19.00
  -2 -28   4  136.19   15.00
  -2  28  -4  132.19   19.00
   2 -28  -4  110.89   13.90
   2  28   4  143.59   18.50
   4  28  -4   38.20    7.20
   4 -28  -4   41.10    6.10
  -4 -28   4   37.60    6.50
  -4  28  -4   28.20    9.10
  -1  29   4   -2.70    1.90
   1 -29   4    3.60    2.10
   1 -29  -4    1.30    1.00
  -1 -29   4    3.80    1.90
   1  29   4   -0.90    2.40
  -3  29   4   -1.80    2.30
   3 -29   4    2.30    1.50
  -3 -29   4    7.60    3.10
  -3  29  -4    5.30    4.20
   3 -29  -4    4.30    1.70
   0 -30  -4   67.19   12.20
   0  30   4   53.99   11.70
   0 -30   4   76.69    9.30
   2 -30   4   73.49    9.10
  -2  30   4   75.69   13.70
  -2 -30   4   65.69    9.20
   2 -30  -4   51.09    7.80
   1 -31   4    0.70    1.90
  -1  31   4    4.10    3.90
  -1 -31   4    0.10    1.20
   1 -31  -4    1.30    1.50
   0   0  -5  170.18   15.30
   0   0   5  172.88   15.30
   0   0   5  153.78   15.20
   0   0   5  196.68   15.70
   0   0  -5  164.78   15.50
   0   0  -5  168.98   15.20
   2   0   5  435.36   37.40
   2   0  -5  424.66   37.00
  -2   0   5  349.87   37.30
  -2   0   5  439.26   37.50
   2   0  -5  458.45   37.20
   2   0  -5  474.25   37.80
  -2   0  -5  395.46   37.50
  -4   0   5 1932.21  153.68
   4   0  -5 1938.71  151.68
   4   0   5 1751.32  149.79
   4   0  -5 1801.62  151.08
   4   0  -5 1744.83  151.88
   4   0   5 1487.25  156.08
   6   0  -5  457.35   49.30
  -6   0   5  604.14   52.19
   6   0  -5  497.95   48.20
   6   0  -5  545.15   49.10
  -6   0  -5  560.74   49.50
   6   0  -5  604.64   49.70
   6   0   5  552.14   47.30
   6   0   5  511.85   47.10
   8   0   5  182.08   19.80
   8   0   5  225.48   19.80
   8   0  -5  164.28   19.60
   8   0  -5  205.78   21.90
  -8   0  -5  166.88   21.20
  10   0   5   31.70    6.20
  10   0  -5   32.40    7.70
  10   0  -5   26.40    6.30
  -1   1   5   26.90    3.70
  -1  -1  -5   28.20    2.60
   1   1  -5   25.30    3.00
   1  -1   5   22.10    3.30
  -1   1   5   26.50    3.50
   1   1  -5   26.50    3.40
  -1  -1  -5   21.30    3.30
  -1  -1  -5   27.00    3.70
  -1   1   5   30.70    3.40
   1   1  -5   29.40    3.50
   1  -1   5   26.70    2.80
  -1  -1  -5   26.70    2.60
  -1  -1   5   29.20    3.60
  -1   1  -5   29.70    2.70
   1  -1  -5   23.60    3.20
  -1   1  -5   27.80    3.60
   1  -1  -5   29.40    3.60
   1   1   5   31.80    3.60
  -1  -1   5   25.00    3.20
   1  -1  -5   33.40    3.40
   1   1   5   25.40    3.40
  -1  -1   5   24.90    3.50
   3  -1   5  114.69   11.20
  -3  -1  -5  125.69   13.00
   3   1  -5  117.49   12.40
   3  -1   5  133.79   11.10
  -3   1   5  112.39   12.50
   3  -1   5  115.79   13.90
   3   1  -5  122.99   12.70
   3  -1   5  116.69   12.50
   3  -1   5  147.69   13.10
  -3   1   5  120.29   13.50
  -3  -1  -5  115.79   12.80
   3   1  -5  136.19   12.90
   3  -1  -5  137.69   13.00
  -3   1  -5  136.99   13.00
  -3  -1   5  136.39   13.40
   3  -1  -5  127.49   12.80
   3  -1  -5  125.69   12.20
  -3  -1   5  136.79   13.20
   3   1   5  128.69   10.90
   3   1   5  103.69   12.30
   3   1   5  128.99   10.90
  -3  -1   5  128.79   13.50
   5   1  -5    1.00    0.90
   5  -1   5    0.30    0.40
   5   1  -5   -0.10    0.60
   5  -1   5    0.40    1.10
  -5   1   5    0.20    0.90
  -5  -1  -5    0.10    0.50
   5  -1   5   -0.10    0.60
   5  -1   5   -0.90    0.90
   5   1  -5    0.20    0.90
   5  -1   5   -0.20    1.40
   5   1   5   -0.40    0.40
   5  -1  -5   -1.00    0.60
   5   1   5   -0.60    1.70
   5  -1  -5    1.00    1.30
   5  -1  -5    1.30    0.80
   5  -1  -5   -0.20    0.90
  -5   1  -5    0.10    0.70
  -5  -1   5   -0.60    0.90
   5   1   5    0.20    0.80
   5  -1  -5   -1.10    0.70
   7   1  -5    1.30    1.40
   7   1  -5    3.40    1.90
   7  -1   5    3.60    1.50
   7  -1   5    2.20    1.40
  -7   1   5    3.50    1.90
   7   1  -5    0.90    2.10
   7  -1  -5    7.60    3.20
  -7  -1   5    1.10    1.80
   7   1   5   -0.10    1.20
   7  -1  -5    2.70    2.00
   7   1   5    2.80    1.60
   9   1  -5    2.20    1.60
   9   1  -5   -0.30    2.20
   9  -1   5    0.30    1.60
   9  -1  -5   -1.00    2.40
   9   1   5    1.80    1.20
   0  -2   5  848.82   71.99
  -2   2   5  940.11   85.59
  -2   2   5  968.10   84.59
   2  -2   5  923.21   84.69
   2   2  -5 1082.59   85.09
   2  -2  -5 1091.89   85.39
  -2  -2   5 1017.80   85.69
  -2  -2   5  803.62   84.79
  -2   2  -5 1027.60   85.19
   2  -2  -5  985.80   85.19
  -2  -2   5 1099.59   85.19
   4  -2   5  990.60   88.49
   4  -2   5 1056.59   87.09
  -4   2   5 1118.29   91.29
   4   2  -5 1006.60   88.79
   4   2  -5 1032.30   88.89
   4   2  -5 1049.00   89.29
  -4  -2  -5 1021.70   89.19
   4  -2   5 1018.30   87.49
   4  -2  -5 1101.49   88.29
   4   2   5 1088.79   86.89
  -4  -2   5 1024.40   89.29
   4   2   5  906.61   90.29
   4  -2  -5  913.01   89.09
   4   2   5 1024.00   86.99
  -4  -2   5 1016.50   89.99
  -4   2  -5 1076.39   89.19
   4  -2  -5 1036.40   87.99
  -6  -2  -5  444.06   41.50
   6   2  -5  445.26   42.00
   6  -2   5  451.65   39.90
   6   2  -5  449.36   42.00
   6  -2   5  362.96   40.30
  -6   2   5  465.55   44.20
   6  -2   5  459.85   39.50
   6   2  -5  418.26   40.90
   6  -2  -5  422.36   40.20
  -6   2  -5  490.05   41.80
   6  -2  -5  492.55   41.20
  -6  -2   5  469.35   43.30
   6   2   5  427.26   39.10
   6   2   5  446.16   39.50
   6  -2  -5  468.55   41.30
   8   2  -5  200.48   19.60
  -8  -2  -5  151.48   19.50
   8  -2   5  165.58   18.70
   8   2  -5  161.18   20.00
   8  -2   5  173.88   17.90
  -8   2   5  136.19   20.70
   8  -2  -5  170.98   19.60
   8  -2  -5  214.28   19.50
   8   2   5  216.08   19.50
   8   2   5  162.68   17.80
  10   2  -5   58.59    9.30
  10  -2   5   45.70    8.20
  10   2  -5   63.69   10.00
  10   2   5   54.79    8.60
  10  -2  -5   61.39    8.80
  -1   3   5  234.38   19.10
   1   3  -5  183.68   19.20
  -1  -3  -5  229.68   19.80
   1  -3   5  227.48   19.60
   1  -3   5  219.48   18.80
   1   3  -5  219.58   19.70
   1   3  -5  233.88   18.80
  -1  -3  -5  226.38   18.50
   1  -3   5  223.68   19.40
  -1   3   5  192.18   19.60
   1  -3  -5  226.78   19.10
  -1   3  -5  221.68   18.70
   1  -3  -5  182.58   19.20
   1   3   5  222.98   18.60
  -1  -3   5  228.78   19.00
  -1   3  -5  186.08   19.40
  -1  -3   5  244.88   20.20
   1  -3  -5  221.28   19.80
   1   3   5  224.78   19.70
   1  -3  -5  189.08   19.40
  -1  -3   5  185.88   19.40
   3  -3   5  133.19   13.60
  -3   3   5  105.99   12.60
   3   3  -5  113.89   11.00
   3  -3   5  106.69   11.20
   3  -3   5  136.09   12.00
  -3  -3  -5  108.19   11.60
   3   3  -5   86.29   10.90
   3  -3   5  113.79   10.10
  -3  -3  -5  115.59   11.90
   3   3  -5  109.39   11.80
  -3  -3   5   85.69   11.30
  -3  -3   5  117.79   11.90
  -3   3  -5  111.89   10.40
   3   3   5  114.89   11.70
  -3   3  -5  125.69   11.90
   3  -3  -5  127.09   12.10
   3  -3  -5   98.69   11.60
  -3  -3   5  107.99   12.20
   3   3   5  106.29    9.70
   3  -3  -5  114.19   10.60
   5  -3   5    4.10    1.80
   5  -3   5    6.10    1.90
  -5  -3  -5    2.50    1.60
   5   3  -5    5.00    2.10
   5   3  -5    5.10    2.50
  -5   3   5    3.30    2.20
   5  -3   5    5.50    3.30
   5   3  -5    3.90    2.30
   5  -3   5    7.70    2.80
   5  -3   5    8.30    2.20
   5   3  -5    5.10    1.90
  -5  -3   5    4.00    1.90
  -5  -3   5    6.40    3.00
   5   3   5    6.80    1.40
   5  -3  -5    8.40    2.80
   5  -3  -5    5.40    2.00
   5   3   5    4.40    1.40
   5  -3  -5    2.90    1.80
   5  -3  -5   10.80    2.80
   5  -3  -5    4.90    2.30
  -5   3  -5   10.80    3.50
   5   3   5    9.50    3.00
   7  -3   5   14.50    4.20
  -7   3   5   10.90    4.50
   7   3  -5   16.50    5.30
   7  -3   5    9.30    2.70
  -7  -3  -5    5.70    2.40
  -7  -3   5    9.70    4.20
   7   3   5    7.90    2.40
   7  -3  -5    7.10    3.00
   7  -3  -5   10.50    3.20
   7   3   5    8.00    2.70
   9   3  -5   -0.90    0.90
   9   3  -5    0.00    1.80
   9  -3   5    1.20    1.10
   9  -3  -5   -1.30    0.80
   9   3   5    0.20    1.20
   0   4  -5 1735.63  228.08
   0  -4  -5 1430.56  239.78
   0   4  -5 1207.98  119.19
   0  -4   5 1355.86  119.09
   0  -4   5 1460.15  253.07
   0   4   5 1556.34  121.09
   0  -4  -5 1434.06  120.19
   0   4   5 1244.98  227.08
   0  -4   5 1393.36  215.78
   2  -4   5  786.82   81.29
  -2   4   5  948.11   79.39
  -2   4   5  851.01   81.09
   2   4  -5  854.11   79.89
   2   4  -5 1057.99   80.99
  -2  -4  -5 1026.70   80.89
   2  -4  -5  942.71   80.29
   2  -4  -5 1000.50   80.89
  -2  -4   5  959.20   81.19
  -2  -4   5  957.80   79.79
   2  -4  -5  898.91   78.99
  -2   4  -5  905.71   79.19
   2   4   5  960.50   80.49
   2   4   5  968.60   78.69
   4  -4   5  729.63   68.29
  -4  -4  -5  660.53   64.99
   4  -4   5  657.43   64.19
   4   4  -5  804.02   65.89
   4  -4   5  773.02   63.39
   4   4  -5  747.43   64.49
  -4   4   5  632.24   66.49
   4   4  -5  772.52   65.29
  -4  -4   5  692.73   65.09
   4  -4  -5  745.63   63.49
  -4   4  -5  684.43   64.79
   4  -4  -5  846.12   66.09
   4  -4  -5  760.42   63.59
   4   4   5  830.32   64.79
   4  -4  -5  758.62   64.89
  -4  -4   5  701.63   65.19
   4   4   5  792.32   62.89
   6   4  -5  317.87   32.50
  -6  -4  -5  414.66   33.80
   6  -4   5  340.07   31.70
   6   4  -5  344.47   33.80
   6  -4   5  368.66   31.30
   6  -4   5  304.87   31.60
  -6   4   5  295.47   34.80
   6   4  -5  306.17   32.90
   6  -4  -5  363.06   32.10
   6  -4  -5  391.96   32.90
   6   4   5  347.27   31.20
  -6   4  -5  312.97   32.50
   6   4   5  392.76   32.50
  -6  -4   5  338.17   33.90
   6   4   5  346.57   30.60
   6  -4  -5  324.07   31.20
  -6  -4   5  362.16   33.40
  -8  -4  -5  131.19   16.60
   8   4  -5  152.68   17.00
   8  -4   5  155.98   15.80
   8   4  -5  135.99   16.80
   8   4  -5  143.89   17.90
   8  -4  -5  150.18   16.40
   8   4   5  149.09   16.30
   8  -4  -5  162.48   17.20
   8   4   5  147.79   15.80
  -1   5   5  343.17   30.50
   1  -5   5  315.67   30.10
   1   5  -5  404.56   31.20
   1  -5   5  345.57   31.30
   1  -5   5  352.36   29.80
  -1  -5  -5  326.37   30.50
   1   5  -5  359.96   29.40
  -1   5   5  339.67   29.60
  -1   5   5  385.76   31.20
   1   5  -5  351.66   30.20
   1  -5   5  386.16   30.70
  -1  -5  -5  344.17   29.50
  -1   5  -5  377.56   30.70
  -1  -5   5  348.87   31.10
   1  -5  -5  304.37   30.10
  -1  -5   5  286.27   30.20
   1   5   5  288.17   30.20
  -1   5  -5  346.97   29.70
  -1  -5   5  351.76   29.40
   1  -5  -5  327.97   29.70
   1   5   5  346.97   29.60
  -3  -5  -5    6.80    1.30
  -3   5   5    7.40    2.80
  -3  -5  -5   11.70    2.40
  -3  -5  -5    8.90    2.60
   3   5  -5    7.70    1.50
   3   5  -5    8.90    2.30
   3  -5   5    5.20    2.20
   3  -5   5    8.10    1.40
   3   5  -5    8.00    3.10
   3  -5   5    8.20    2.40
   3  -5   5    7.30    3.10
   3  -5  -5   11.00    3.20
   3  -5  -5   11.60    2.60
   3   5   5    6.60    1.10
   3   5   5    9.90    2.00
  -3  -5   5    9.50    2.70
  -3  -5   5    6.00    2.10
   3  -5  -5    7.00    1.20
   3  -5  -5    7.60    2.20
   3  -5  -5    8.90    1.30
  -3   5  -5    6.20    2.20
  -3  -5   5    8.60    2.70
   5   5  -5   13.90    3.20
   5   5  -5   19.60    3.60
  -5   5   5   10.80    4.50
  -5  -5  -5   14.80    3.30
   5  -5   5   16.70    3.30
   5   5  -5   12.70    3.90
   5   5  -5   12.80    2.90
   5  -5   5   16.60    2.70
   5  -5   5   14.20    2.90
  -5  -5   5   13.40    4.00
  -5   5  -5   11.20    3.70
   5   5   5   19.90    3.50
   5  -5  -5   13.30    2.40
   5  -5  -5   15.30    2.60
   5   5   5   22.00    4.00
   5   5   5   16.20    2.30
   5   5   5   12.70    4.50
   5  -5  -5   14.40    3.10
   5  -5  -5   17.30    4.90
   5  -5  -5   15.50    3.60
  -5  -5   5   15.40    4.50
   7   5  -5   23.80    6.60
   7  -5   5   25.30    4.30
   7  -5   5   33.40    5.70
  -7   5   5   23.20    7.30
   7   5   5   16.00    4.00
  -7  -5   5   30.40    5.10
   7   5   5   27.00    4.40
   7  -5  -5   33.30    5.30
   7  -5  -5   23.00    4.50
   9   5  -5    0.80    1.40
   9  -5   5   -0.30    0.90
   9   5  -5    3.60    1.50
   9   5  -5   -1.70    2.50
   9   5   5   -1.20    0.80
   9  -5  -5    0.60    1.10
   0  -6  -5 1255.37  101.59
   0  -6   5 1139.29  101.79
   2  -6   5 1501.25  120.89
  -2   6   5 1295.87  119.99
   4   6  -5  305.37   33.50
  -4   6   5  322.77   35.00
   4   6  -5  402.26   34.00
   4  -6   5  360.96   32.40
   4  -6   5  347.07   35.30
   4  -6   5  391.86   31.80
   4   6  -5  390.96   32.40
   4   6   5  358.46   32.40
  -4  -6   5  394.66   33.00
   4  -6  -5  350.16   33.50
  -4   6  -5  331.67   32.80
   4  -6  -5  383.86   31.00
   4  -6  -5  363.06   30.90
   4  -6  -5  328.87   32.70
   4   6   5  376.66   31.20
  -4  -6   5  323.67   33.10
   6   6  -5  310.17   31.30
   6  -6   5  291.27   30.00
   6  -6   5  334.47   30.70
  -6   6   5  267.57   33.20
   6  -6   5  381.26   32.10
   6   6  -5  361.16   33.10
  -6  -6  -5  288.67   31.00
   6  -6   5  320.37   29.60
   6  -6  -5  327.17   29.20
  -6  -6   5  341.97   31.90
   6  -6  -5  375.76   30.00
  -6   6  -5  312.77   36.10
   6   6   5  303.57   29.00
   6   6   5  350.96   30.70
   8  -6   5  191.08   19.20
  -8   6   5  151.98   21.10
  -8  -6  -5  187.28   19.40
   8  -6   5  164.58   17.40
   8   6  -5  170.28   18.40
   8   6   5  155.68   17.50
   8  -6  -5  176.68   18.10
   8   6   5  144.99   17.40
   1  -7   5  486.25   41.10
  -1  -7  -5  465.25   40.70
   1   7  -5  531.35   41.50
  -1   7   5  458.25   40.60
  -1  -7  -5  553.34   41.60
  -1   7   5  490.25   41.70
   1  -7   5  521.15   41.90
  -1  -7  -5  444.96   41.60
  -1   7   5  435.06   42.20
   1  -7   5  461.35   41.40
   1  -7   5  415.86   42.30
   1  -7  -5  460.15   41.50
   1   7   5  399.96   41.30
  -1  -7   5  445.06   40.50
  -1  -7   5  491.75   40.20
   1  -7  -5  554.04   42.10
   1   7   5  489.95   41.00
  -1   7  -5  459.55   40.90
   1  -7  -5  461.85   40.70
  -1   7  -5  482.45   41.70
   3  -7   5    4.30    1.60
  -3  -7  -5    4.10    1.30
   3   7  -5    4.00    2.00
   3   7  -5    4.10    0.80
   3  -7   5    1.80    1.10
  -3   7   5    3.20    1.90
  -3  -7  -5    5.40    2.00
   3  -7   5    6.60    2.90
  -3  -7  -5    3.00    1.30
   3  -7   5    4.70    1.30
   3   7   5    4.10    1.60
   3  -7  -5    6.00    2.40
  -3  -7   5    3.30    1.20
   3  -7  -5    2.00    1.20
   3   7   5    4.20    1.10
  -3   7  -5    3.90    1.70
  -3   7  -5    3.70    1.30
  -3  -7   5    5.00    2.10
  -3  -7   5    0.80    1.00
   5   7  -5   46.90    7.10
   5  -7   5   37.10    5.40
   5  -7   5   54.69    5.70
   5   7  -5   35.60    6.10
  -5  -7  -5   35.10    5.10
  -5  -7  -5   47.60    6.70
  -5   7   5   59.09    9.10
   5  -7   5   37.80    6.30
   5   7   5   35.30    7.40
   5  -7  -5   41.90    6.00
   5  -7  -5   41.60    4.30
  -5   7  -5   40.60    6.20
   5  -7  -5   42.10    4.40
  -5  -7   5   46.10    6.70
   5   7   5   45.10    4.90
   5   7   5   34.40    5.30
   7   7  -5   24.50    4.30
   7   7  -5   11.20    3.90
   7  -7   5   18.70    3.70
  -7   7   5   16.80    6.30
  -7  -7  -5   11.60    3.90
   7  -7   5   31.80    5.40
   7  -7  -5   17.60    3.80
  -7  -7   5   17.10    5.00
   7  -7  -5   30.80    4.20
   7   7   5   23.00    4.20
   7   7   5   22.30    4.10
   9   7  -5    0.30    1.40
   9   7  -5    1.20    2.60
   9  -7   5    1.50    2.10
   9   7   5   -0.90    0.80
   9  -7  -5    4.00    1.70
   0  -8   5 1496.65  251.77
   0   8   5 1823.52  286.37
  -2  -8  -5  770.12   65.29
   2  -8   5  815.62   66.89
  -2  -8  -5  724.63   64.39
  -2   8   5  681.83   64.79
   2   8  -5  661.83   65.39
   2  -8  -5  652.83   64.79
  -2  -8   5  641.74   65.79
  -2  -8   5  790.02   65.09
   2   8   5  861.81   63.89
  -2   8  -5  836.52   64.99
   2  -8  -5  786.12   64.89
   4  -8   5  457.55   37.40
   4  -8   5  411.06   41.00
   4   8  -5  371.96   38.80
   4  -8   5  428.66   37.90
  -4  -8  -5  371.06   38.50
  -4  -8  -5  499.35   37.60
   4   8  -5  482.65   40.20
   4   8  -5  463.65   38.10
  -4   8   5  448.06   41.50
   4   8  -5  396.26   36.60
   4   8  -5  436.06   36.90
   4  -8  -5  461.65   38.50
   4  -8  -5  404.16   39.10
   4   8   5  423.66   36.70
  -4  -8   5  339.17   38.30
  -4   8  -5  433.66   38.60
   4   8   5  382.96   37.60
   6   8  -5   91.19   12.60
  -6   8   5   82.79   13.80
   6  -8   5   88.29   10.90
   6   8  -5  106.49   11.90
  -6  -8  -5  118.49   12.80
   6  -8   5   85.69   11.50
   6   8  -5  105.49   10.90
   6  -8   5  108.79   11.00
   6  -8   5  108.99   12.60
   6  -8  -5  100.49   11.50
   6   8   5  102.69   10.40
   6   8   5  100.59   11.30
  -6  -8   5  106.49   12.70
  -8   8   5  156.08   22.30
   8   8  -5  162.68   20.60
   8  -8   5  223.68   20.80
   8   8  -5  185.88   18.90
  -8  -8  -5  169.88   19.70
   8  -8   5  155.68   18.00
   8   8   5  186.28   18.60
  -8  -8   5  166.98   19.90
   8  -8  -5  176.68   18.80
   8   8   5  183.48   20.40
   1   9  -5   52.99    6.00
  -1   9   5   40.30    6.40
   1  -9   5   53.39    6.40
  -1  -9  -5   50.89    6.30
   1  -9   5   50.89    6.80
  -1  -9  -5   47.20    5.90
  -1   9   5   59.39    6.50
   1   9  -5   41.40    6.30
   1  -9   5   51.99    6.10
   1  -9   5   50.69    5.80
  -1   9   5   58.99    5.50
  -1  -9  -5   58.99    5.70
   1   9   5   51.49    6.30
   1   9   5   51.19    5.80
   1   9   5   62.29    6.40
   1  -9  -5   52.09    5.50
   1  -9  -5   55.89    6.50
  -1   9  -5   60.19    6.00
   1  -9  -5   51.19    6.10
  -1   9  -5   46.80    6.10
  -1  -9   5   57.79    6.40
  -3   9   5    4.20    2.30
  -3  -9  -5    5.10    1.50
   3  -9   5    3.90    1.60
   3   9  -5    3.90    2.30
   3  -9   5    3.70    1.20
  -3  -9  -5    4.00    1.90
   3   9  -5    4.30    2.40
   3  -9   5    2.40    1.80
  -3   9   5    3.10    1.50
  -3   9  -5    3.20    1.50
   3  -9  -5    1.90    1.40
  -3   9  -5    2.50    1.20
   3   9   5    3.20    1.40
  -3  -9   5    3.50    1.70
   3   9   5    3.70    1.10
   5  -9   5   -0.90    0.40
   5   9  -5    0.30    1.40
  -5   9   5    2.10    1.80
   5   9  -5    0.10    0.80
  -5  -9  -5    0.30    0.80
   5   9  -5   -0.70    0.40
   5  -9   5   -0.50    0.60
   5  -9  -5   -1.40    0.70
  -5  -9   5    0.50    1.20
  -5   9  -5    0.30    0.80
   5   9   5    0.10    0.70
   5   9   5   -0.50    0.40
  -7  -9  -5    6.00    2.70
   7  -9   5    2.40    1.80
   7  -9   5    6.50    2.70
   7   9  -5    6.20    3.00
  -7   9   5    1.80    2.00
   7   9   5    6.90    2.50
   7  -9  -5    6.10    2.80
  -7  -9   5    3.50    2.40
   9   9  -5    0.60    2.70
   9  -9  -5    2.00    1.60
   9   9   5    0.80    1.20
   0 -10   5 1338.47  110.09
   0 -10   5 1202.88  110.69
   0  10   5 1397.46  109.99
   0  10  -5 1221.48  110.29
  -2  10   5  880.41   91.49
  -2  10   5 1062.69   93.49
  -2 -10  -5 1079.09   92.09
   2 -10   5 1041.60   91.69
  -2 -10  -5 1111.79   90.89
   2  10  -5 1192.88   93.39
  -2  10  -5  976.20   91.39
  -2  10  -5 1071.99   91.19
   2  10   5 1037.10   90.79
  -2 -10   5 1113.59   91.99
   2 -10  -5 1199.48   91.89
   4  10  -5  344.07   31.30
   4  10  -5  333.07   30.70
  -4 -10  -5  268.57   29.60
  -4  10   5  356.16   33.10
   4  10  -5  308.87   28.90
  -4  10   5  249.68   29.60
   4 -10   5  302.27   33.00
   4 -10   5  354.76   28.70
   4 -10   5  278.77   28.80
  -4 -10  -5  321.47   28.70
   4  10   5  318.87   28.10
   4 -10  -5  312.87   29.40
  -4 -10   5  371.56   30.50
  -4  10  -5  326.37   29.70
   4  10   5  322.87   28.90
   6  10  -5  172.28   15.70
  -6 -10  -5  158.08   17.70
  -6  10   5  136.29   20.00
   6  10  -5  120.89   17.60
   6 -10   5  151.88   16.40
   6 -10   5  194.98   16.70
   6 -10  -5  163.88   17.10
   6  10   5  190.78   17.10
  -6 -10   5  147.79   17.70
   6  10   5  174.58   16.70
   8 -10   5  113.19   12.90
  -8 -10  -5  125.29   14.70
   8  10  -5   83.79   14.10
   8 -10  -5  115.09   13.30
  -8 -10   5  124.89   14.60
   8  10   5  117.99   13.20
   1 -11   5  182.18   17.70
   1 -11   5  148.49   17.50
   1 -11   5  178.38   16.80
  -1  11   5  139.59   18.20
  -1 -11  -5  193.48   16.70
  -1 -11  -5  178.68   17.30
   1  11  -5  206.48   18.40
  -1  11   5  156.38   17.90
  -1  11   5  188.48   17.30
  -1 -11  -5  179.48   16.80
   1  11   5  165.48   16.60
  -1  11  -5  208.68   17.70
   1  11   5  176.58   17.30
  -1  11  -5  194.68   16.90
  -1 -11   5  214.08   17.60
   1  11   5  159.78   17.00
   1 -11  -5  175.38   16.90
  -3 -11  -5    1.40    1.30
  -3 -11  -5    1.70    0.90
   3  11  -5    3.20    1.30
   3 -11   5    3.50    1.50
  -3  11   5    2.90    1.60
  -3  11   5    0.30    0.90
   3 -11   5    3.00    1.70
  -3  11  -5    2.30    1.30
   3  11   5    2.70    1.30
  -3 -11   5    3.00    1.60
  -3  11  -5    1.20    1.50
   3 -11  -5    2.10    1.20
   3  11   5    2.60    1.30
   3  11   5    2.40    1.80
   5  11  -5   17.70    2.10
   5 -11   5   15.40    3.00
  -5  11   5   11.50    4.60
  -5 -11  -5   14.10    4.30
   5  11  -5   26.70    5.30
   5 -11   5   13.00    3.10
   5 -11  -5   24.30    4.10
  -5  11  -5   18.20    3.80
  -5  11  -5   10.10    3.00
   5  11   5   21.30    3.60
   5  11   5   15.80    2.80
  -5 -11   5   14.80    4.20
   7 -11   5   16.00    4.90
  -7  11   5   21.10    7.20
   7 -11   5   18.80    4.50
  -7 -11  -5   11.70    4.00
   7  11  -5   22.40    6.60
   7  11  -5   16.00    3.10
   7  11   5   17.70    3.50
  -7 -11   5    8.40    3.70
   7 -11  -5   17.10    3.70
   9  11  -5    0.90    1.80
   9  11   5   -0.20    1.30
   9 -11  -5   -1.60    1.00
   0 -12   5  356.46   27.70
   0 -12  -5  260.67   27.20
   0 -12  -5  300.27   27.20
   0  12  -5  292.87   27.30
   0 -12  -5  320.27   27.60
   0  12   5  278.87   28.10
   0  12   5  290.67   27.50
   0  12   5  331.77   27.60
   2 -12   5  977.80   91.99
  -2  12   5 1156.48   94.49
   2 -12   5 1155.78   91.49
  -2 -12  -5 1095.39   91.29
  -2 -12  -5 1119.19   92.59
   2  12   5 1079.39   91.29
  -2 -12   5 1162.78   92.29
   2 -12  -5  958.20   91.59
   2 -12  -5  981.90   92.19
  -2  12  -5  999.80   91.79
  -2  12  -5 1118.19   94.09
   2  12   5 1042.00   91.69
   4 -12   5  230.08   21.70
   4 -12   5  221.68   22.00
  -4  12   5  210.28   24.90
  -4 -12  -5  235.58   23.20
  -4 -12  -5  210.28   24.60
   4  12   5  251.87   22.00
  -4  12  -5  240.38   22.70
   4 -12  -5  272.37   22.80
   4  12   5  228.58   21.20
  -4 -12   5  245.88   23.10
  -4  12  -5  190.98   24.10
   6 -12   5  345.57   33.80
   6  12  -5  369.86   32.60
  -6 -12  -5  353.96   35.70
   6  12   5  372.86   34.20
  -6 -12   5  424.46   36.50
   6 -12  -5  368.76   34.70
  -8  12   5   73.99   13.40
   8 -12   5   67.09    9.60
   8  12   5   84.69   10.20
   8 -12  -5   88.39   10.40
   1 -13   5   10.40    3.20
  -1 -13  -5   11.50    2.30
  -1  13   5   16.00    3.60
  -1 -13  -5   11.60    2.30
  -1  13   5   11.90    2.60
   1  13  -5   13.40    2.70
  -1 -13  -5   14.80    2.90
   1  13  -5   10.50    3.30
  -1  13   5   14.30    2.70
  -1  13   5   14.40    2.20
   1 -13   5   12.50    2.50
   1 -13  -5   15.00    3.00
   1  13   5   13.70    2.90
  -1 -13   5   13.30    2.70
   1 -13  -5   12.60    2.50
   1  13   5   12.80    2.70
  -1 -13   5   12.30    1.50
  -1  13  -5   17.40    3.10
  -1  13  -5   10.50    3.40
   1  13   5   10.00    2.60
  -3  13   5    2.30    1.90
  -3 -13  -5    1.90    1.20
   3 -13   5    4.70    1.70
   3 -13   5    4.10    1.70
  -3 -13  -5    4.40    2.30
   3  13  -5    3.60    1.70
  -3  13   5    5.10    2.90
   3  13  -5    2.30    1.40
   3  13   5    7.30    1.90
  -3  13  -5    3.60    2.20
  -3 -13   5    5.40    2.40
  -3  13  -5    4.40    2.00
   3 -13  -5    2.20    1.80
   3  13   5    7.90    2.60
  -5  13   5    2.90    1.80
   5  13  -5    1.40    1.30
  -5 -13  -5    0.80    0.90
   5 -13   5   -1.70    1.10
  -5 -13  -5   -0.50    0.90
   5 -13  -5   -0.30    0.80
   5  13   5    0.20    1.10
  -5  13  -5   -1.60    1.10
  -5  13  -5   -0.60    1.40
  -5 -13   5   -0.30    1.00
   5  13   5    0.20    0.80
  -5  13  -5    0.90    0.70
   7  13  -5    4.90    2.50
   7 -13   5    2.80    1.70
  -7  13   5    3.40    3.00
  -7 -13   5    0.80    2.10
   7 -13  -5    3.70    1.90
   7  13   5    1.80    1.70
   9  13  -5    1.30    1.90
   9  13   5    1.20    2.10
   9 -13  -5    0.70    1.30
   0 -14   5  507.45   42.50
   0  14   5  505.15   42.70
   0  14   5  501.15   42.90
   0 -14  -5  468.25   42.00
   0  14  -5  508.35   42.30
   0 -14   5  480.65   44.10
   0  14   5  454.15   43.40
   0  14  -5  398.76   42.70
  -2  14   5  655.03   60.49
   2 -14   5  734.13   59.89
  -2 -14  -5  759.32   59.89
   2 -14   5  632.64   60.69
  -2  14   5  622.94   62.29
  -2  14   5  691.93   58.29
  -2 -14  -5  615.44   60.69
  -2 -14   5  755.92   60.69
  -2  14  -5  633.44   59.79
   2  14   5  667.23   59.59
  -2  14  -5  708.73   60.49
   2 -14  -5  712.53   60.29
   2  14   5  668.83   60.29
  -2  14  -5  778.82   63.19
   4  14  -5  196.38   24.70
  -4 -14  -5  261.67   25.20
  -4 -14  -5  273.97   23.90
   4 -14   5  272.67   23.50
   4 -14   5  239.38   23.90
  -4 -14  -5  305.97   28.90
  -4  14   5  217.28   26.60
   4  14   5  221.08   22.80
  -4 -14   5  233.48   24.40
  -4  14  -5  273.77   24.50
  -4  14  -5  275.67   27.40
   4  14   5  262.87   23.60
   4 -14  -5  231.08   23.80
  -6 -14  -5  224.38   23.90
   6 -14   5  234.68   22.90
   6  14  -5  221.88   25.50
  -6  14   5  212.58   27.10
   6 -14  -5  260.67   23.70
  -6 -14   5  254.47   25.10
   6  14   5  249.38   23.10
   8 -14   5   58.09    9.90
   8  14  -5   79.49   11.60
   8 -14   5   63.09    9.10
  -8  14   5   87.39   13.80
   8  14   5   71.99   11.90
   8 -14  -5   61.69    8.90
   8  14   5   90.19    9.90
  -1  15   5   50.39    7.50
  -1  15   5   43.40    5.50
   1  15  -5   42.10    6.60
   1 -15   5   52.99    6.90
  -1  15   5   48.90    6.30
   1 -15   5   55.29    6.20
   1 -15   5   39.50    6.60
  -1 -15  -5   51.39    6.00
   1  15   5   45.30    6.00
   1  15   5   48.60    6.60
   1 -15  -5   35.80    6.80
  -1  15  -5   55.59    6.90
   1  15   5   55.79    6.80
  -1 -15   5   39.00    5.80
  -1 -15   5   49.80    8.20
  -1  15  -5   41.70    6.90
   1 -15  -5   52.99    6.20
   3 -15   5    4.80    1.90
   3  15  -5    4.60    2.80
  -3  15   5    4.90    3.40
  -3 -15  -5    5.20    2.30
  -3 -15  -5    9.20    2.60
   3 -15   5    8.30    2.70
  -3 -15   5    6.40    2.70
   3 -15  -5    3.90    1.60
  -3  15  -5    9.40    2.80
   3  15   5    8.20    2.40
  -3  15  -5   11.30    4.50
   3  15   5    5.40    2.00
   5  15  -5    2.60    2.10
   5 -15   5    0.00    1.60
   5 -15   5    1.00    1.20
  -5  15   5   -0.60    1.50
   5 -15  -5    0.90    1.20
   5  15   5    0.40    1.40
  -5 -15   5    0.00    1.10
  -5  15  -5    1.60    1.80
   5  15   5    0.50    1.00
  -7  15   5    7.80    3.90
   7 -15   5    6.40    3.00
   7  15  -5    2.60    2.40
  -7 -15   5    5.90    3.10
   7  15   5    9.80    3.20
   7  15   5   13.80    5.10
   7 -15  -5    6.30    2.90
   0  16   5  177.58   17.60
   0  16   5  135.49   16.80
   0  16  -5  148.69   16.60
   0  16   5  181.98   16.60
   0  16   5  156.28   16.20
   0 -16  -5  154.98   15.80
   0  16  -5  166.88   16.00
   0  16  -5  173.78   16.90
   0 -16   5  186.48   16.50
   0 -16   5  147.29   17.40
   2 -16   5  475.55   45.80
   2  16  -5  525.15   46.70
  -2  16   5  548.35   48.20
  -2 -16  -5  552.54   44.90
   2 -16   5  559.44   45.10
  -2  16  -5  467.25   45.10
  -2  16  -5  466.65   47.20
   2 -16  -5  465.35   44.80
   2  16   5  506.05   45.20
  -2 -16   5  473.75   45.10
   2  16   5  513.85   44.70
  -4  16   5  348.27   34.70
   4 -16   5  339.27   30.30
  -4 -16  -5  286.07   30.50
   4  16  -5  375.66   33.30
   4 -16   5  270.17   30.40
  -4 -16  -5  336.27   30.70
  -4  16  -5  328.77   31.50
   4 -16  -5  371.96   31.00
   4  16   5  304.77   29.90
  -4 -16   5  301.17   31.10
   4  16   5  390.16   30.90
  -4  16  -5  304.97   33.70
  -6  16   5  257.37   30.20
   6 -16   5  272.67   25.40
  -6 -16   5  263.87   27.10
   6  16   5  265.57   25.20
   6 -16  -5  253.97   25.50
  -8  16   5   31.50   10.20
   8 -16   5   48.20    7.80
   8  16  -5   68.49   10.50
   8  16   5   60.79   10.90
   8  16   5   56.59    8.30
   8 -16  -5   73.99    8.80
  -1 -17  -5   28.20    4.00
  -1  17   5   26.40    5.30
   1 -17   5   21.30    4.70
   1 -17   5   16.90    3.80
   1 -17   5   18.70    3.50
   1  17  -5   29.70    5.00
  -1  17  -5   22.50    4.80
   1 -17  -5   26.40    3.80
   1  17   5   18.10    3.60
  -1 -17   5   22.70    3.90
   1 -17  -5   17.80    3.70
   1  17   5   21.60    4.30
   1  17   5   25.30    4.90
  -1  17  -5   20.50    4.10
  -3 -17  -5   26.20    7.00
  -3  17   5   14.80    4.90
  -3 -17  -5   20.00    3.90
   3 -17   5   24.50    4.60
   3 -17   5   18.40    3.60
   3  17  -5   18.00    5.30
  -3  17  -5   32.20    4.70
   3  17   5   21.70    4.10
   3 -17  -5   30.70    4.60
  -3 -17   5   20.10    4.20
   3  17   5   18.90    3.80
  -3  17  -5   24.30    5.70
  -5  17   5    6.70    3.60
   5 -17   5    7.20    2.40
   5  17  -5    2.20    1.50
  -5  17  -5    7.10    4.40
   5  17   5    3.20    1.90
   5 -17  -5    4.90    2.40
  -5 -17   5    4.90    2.20
   5  17   5    2.80    2.80
  -7  17   5    4.50    2.40
   7  17  -5    5.60    2.50
   7 -17  -5    0.60    1.10
   7  17   5    2.70    1.40
   0 -18   5  325.57   30.80
   0  18  -5  351.16   31.80
   0 -18  -5  328.87   30.90
   0  18   5  357.26   32.40
   0 -18  -5  342.17   30.70
   0  18   5  292.47   32.10
   0  18  -5  349.96   31.90
  -2  18   5   91.69   13.40
  -2 -18  -5  115.29   11.70
   2 -18   5  130.79   12.10
  -2 -18  -5  107.39   11.60
   2  18  -5  112.09   12.90
   2 -18   5   74.79   15.90
   2 -18   5  105.89   12.70
  -2  18  -5  111.89   12.10
  -2  18  -5  110.19   14.00
  -2 -18   5   97.99   11.70
   2 -18  -5  104.99   11.60
   2  18   5  116.89   11.80
   2  18   5   83.59   12.70
   2  18   5  113.09   12.40
   4  18  -5  419.46   45.10
  -4 -18  -5  452.05   44.60
   4 -18   5  470.55   43.40
  -4  18   5  527.45   48.50
  -4  18  -5  518.65   48.10
   4  18   5  504.85   47.40
   4  18   5  472.75   43.80
   4 -18  -5  524.55   44.10
  -4 -18   5  469.25   44.40
   6 -18   5  147.89   15.20
   6  18  -5  148.49   17.60
  -6  18   5  118.49   18.50
   6 -18  -5  147.79   15.50
   6  18   5  148.69   15.50
  -6 -18   5  123.89   21.50
  -6  18  -5  157.88   19.60
   6  18   5  137.89   18.10
   8 -18   5   93.49   12.10
   8 -18   5   96.29   13.70
  -8  18   5  102.39   16.70
   8 -18  -5  124.19   12.80
  -1  19   5    7.20    3.20
   1 -19   5    6.70    3.30
  -1 -19  -5    8.30    2.40
   1 -19   5    5.80    2.40
   1  19  -5    6.50    2.70
  -1 -19  -5    3.70    1.40
   1 -19   5    6.00    2.50
  -1  19   5    6.00    2.30
  -1  19  -5    5.70    3.00
  -1  19  -5    4.00    1.60
  -1 -19   5    5.80    2.50
   1  19   5    3.90    1.90
   1 -19  -5    4.30    1.70
   3 -19   5   49.10    8.10
   3  19  -5   53.69    8.70
   3 -19   5   63.19    7.60
  -3  19   5   58.09    9.90
  -3 -19  -5   54.79    7.40
  -3 -19  -5   58.09    7.70
  -3  19  -5   65.59   10.40
   3  19   5   60.69    8.00
  -3 -19   5   64.69    8.20
   3  19   5   78.19   10.30
   3 -19  -5   53.59    7.40
  -5 -19  -5    1.60    1.00
  -5  19   5    1.70    2.80
   5 -19   5    4.10    1.90
   5  19  -5    1.70    2.00
  -5 -19   5    1.90    1.40
   5 -19  -5   -0.70    0.80
   5  19   5    0.10    1.20
  -5  19  -5    1.50    3.00
   7  19  -5    3.00    2.20
   7 -19   5    0.10    1.10
  -7  19   5    2.70    2.00
   7  19   5   -0.20    1.40
   7  19   5   -2.30    1.80
   7 -19  -5    0.60    0.80
   0  20   5  332.97   31.40
   0 -20  -5  319.87   28.60
   0 -20   5  294.57   28.00
   0 -20   5  279.27   28.50
   0  20  -5  339.97   30.30
   0  20  -5  286.77   29.30
   2 -20   5  193.98   22.90
  -2 -20  -5  207.18   20.00
  -2  20   5  216.88   23.40
   2 -20   5  200.68   21.50
   2 -20   5  183.88   19.80
   2  20  -5  220.98   21.70
   2  20   5  220.08   21.50
  -2 -20   5  207.48   20.50
  -2  20  -5  168.78   22.00
   2 -20  -5  213.58   20.10
  -4  20   5  250.17   27.00
   4  20  -5  189.28   23.60
   4 -20   5  194.78   21.60
   4  20   5  220.48   22.40
  -4 -20   5  258.77   23.50
   4 -20  -5  232.28   22.40
  -4  20  -5  250.97   26.70
   6  20  -5   75.89   11.90
   6 -20   5   92.79   10.80
  -6  20   5   73.39   13.40
   6  20   5   94.79   11.40
   6  20   5  123.89   14.70
   6 -20  -5   97.49   11.00
  -6  20  -5   68.89   13.00
   1 -21   5    0.50    1.20
  -1 -21  -5   -0.10    0.70
   1 -21   5   -1.10    0.60
  -1  21   5   -1.50    1.10
   1  21  -5    0.50    1.40
   1  21   5    0.90    1.50
  -1 -21   5    2.00    1.20
   1 -21  -5    0.50    0.80
  -1  21  -5    0.30    1.70
   3  21  -5   23.70    4.80
  -3  21   5   25.10    8.00
   3 -21   5   19.70    3.80
  -3 -21   5   19.40    4.00
   3 -21  -5   16.00    3.40
   3  21   5   16.20    5.10
   3  21   5   24.90    4.90
  -3  21  -5   13.50    5.70
  -5  21   5    1.80    2.60
   5  21  -5   -1.80    0.80
   5 -21   5   -0.90    0.70
   5 -21  -5   -0.80    0.70
  -5 -21   5   -1.50    0.80
  -5  21  -5    0.40    1.60
   5  21   5   -1.90    1.30
   5  21   5    2.30    1.50
   7 -21   5   -1.40    1.10
   7  21  -5    3.80    1.70
   7 -21  -5   -0.20    0.70
   7  21   5    0.30    2.60
   0 -22  -5  263.87   25.70
   0 -22   5  238.58   25.60
   0  22   5  285.47   28.80
   0  22  -5  311.37   28.20
   2 -22   5  190.28   20.00
  -2  22   5  182.38   22.90
  -2  22  -5  185.68   23.20
  -2 -22   5  221.48   20.90
   2  22   5  203.68   21.90
   2 -22  -5  230.18   20.40
  -4  22   5  130.19   18.50
   4 -22   5  124.09   14.80
   4  22  -5  135.09   17.00
   4  22   5  136.59   16.10
  -4  22  -5  144.59   19.00
   4 -22  -5  168.38   15.70
  -4 -22   5  153.58   16.20
   4  22   5  154.88   18.40
   6 -22   5   67.19    8.90
   6  22  -5   54.69    9.70
  -6  22   5   66.49   11.90
   6  22   5   66.19   11.20
   6 -22  -5   72.09    8.90
  -1  23   5    5.00    3.50
   1 -23   5    3.40    1.90
  -1 -23  -5    3.60    1.80
   1  23  -5    3.50    2.40
   1  23   5    3.60    2.90
  -1  23  -5    3.50    3.00
   1 -23  -5    4.50    2.00
  -1 -23   5    1.60    1.40
   3 -23   5   -0.30    0.90
  -3  23   5    1.60    1.70
   3  23  -5   -0.30    1.50
  -3 -23   5    1.00    1.90
   3  23   5    0.80    1.70
   3 -23  -5    1.10    1.30
  -3  23  -5    2.40    2.70
   3  23   5    1.30    2.10
   5  23  -5    0.30    1.10
   5 -23   5   -0.60    0.80
  -5  23   5    2.10    2.80
  -5  23  -5   -1.90    1.40
   5  23   5    5.20    2.70
   5 -23  -5    0.30    0.90
   0  24   5  272.47   28.20
   0  24  -5  259.87   25.80
   0 -24   5  248.08   24.70
   0 -24  -5  245.98   24.50
   2 -24   5  123.69   12.80
   2  24  -5  125.09   14.20
  -2  24   5  104.29   15.20
   2  24   5  124.59   15.00
   2 -24  -5   91.29   11.90
  -2 -24   5  118.09   13.20
  -2  24  -5  108.19   15.60
  -4  24   5   95.19   14.90
   4  24  -5  103.39   13.70
   4 -24   5  121.29   12.60
   4 -24  -5  104.49   11.80
   4  24   5  117.89   14.00
  -4  24  -5  101.59   15.90
  -4 -24   5   88.29   12.40
   6  24  -5   47.90    9.20
   6 -24   5   68.79    8.80
   6 -24  -5   56.79    7.80
   6  24   5   64.79   12.90
  -1  25   5   -1.80    1.20
  -1 -25  -5   -1.10    0.60
   1 -25   5    0.10    0.90
   1  25   5    0.30    1.70
   1 -25  -5   -1.20    1.00
  -1  25  -5   -1.00    2.60
  -1 -25   5   -0.40    0.80
  -3  25   5    0.40    2.40
   3  25  -5   -1.20    0.90
   3 -25   5    0.00    0.70
  -3  25  -5   -0.70    2.60
   3  25   5   -0.80    1.70
  -3 -25   5   -1.20    1.00
   5  25  -5    4.20    2.30
  -5  25   5    1.00    3.20
   5 -25   5    1.90    1.70
  -5  25  -5    3.40    3.30
   5 -25  -5    1.30    1.10
   0 -26   5  152.58   16.00
   0 -26  -5  132.49   15.40
   0  26   5  169.18   19.70
  -2  26   5  143.29   18.60
   2 -26   5  156.08   15.30
  -2  26  -5  120.89   17.60
  -2 -26   5  124.69   14.90
   2 -26  -5  134.39   14.50
   2  26   5  124.69   17.00
   4  26  -5   59.39    9.10
   4 -26   5   57.59    8.20
  -4  26   5   59.39   11.40
  -4 -26   5   58.79    8.50
   4 -26  -5   56.39    7.80
  -4  26  -5   63.69   12.10
  -1 -27  -5    1.70    1.20
   1 -27   5    0.60    0.70
  -1  27   5    2.70    2.20
   1 -27  -5    2.60    1.10
   1  27   5   -0.20    1.90
  -1 -27   5    2.40    1.70
  -3  27   5    3.70    2.60
   3 -27   5    1.40    1.40
   3  27   5    0.30    2.80
  -3  27  -5    3.90    3.10
  -3 -27   5    2.90    1.70
   3 -27  -5    1.00    1.00
  -5  27   5    0.90    3.00
   5 -27   5    2.10    1.60
  -5 -27   5    2.90    1.60
   5 -27  -5    2.00    1.50
   0  28   5  123.09   16.60
   0 -28   5  106.79   12.70
   2 -28   5   94.39   10.40
  -2  28   5   61.29   12.40
   2 -28  -5   81.39   10.00
   2  28   5   76.29   12.80
  -2  28  -5   78.29   15.80
  -2 -28   5   74.59   10.20
   4  28  -5   59.89    9.60
   4 -28   5   70.79    8.80
  -4  28   5   59.89   12.00
  -4  28  -5   74.69   13.20
  -4 -28   5   51.69    8.50
   4 -28  -5   53.49    7.70
  -1  29   5    3.10    2.30
   1 -29   5    1.10    1.10
  -1 -29   5    1.00    1.30
   3 -29   5    2.00    1.40
  -3  29   5   -3.40    1.80
  -3  29  -5   -2.20    5.20
   3 -29  -5   -0.60    0.80
   0 -30   5   61.09    8.10
   0  30   5   52.19   11.00
   2 -30   5  103.39   15.20
  -2  30   5   79.29   14.90
  -2 -30   5  108.39   12.40
   2 -30  -5   93.79   11.30
   1 -31   5   -0.90    1.20
  -1  31   5   -2.90    2.50
   1 -31  -5   -0.10    0.70
  -1 -31   5    1.20    1.20
   0   0  -6  798.32   62.49
   0   0   6  656.63   61.99
   0   0  -6  730.33   61.89
   2   0  -6  392.46   33.90
  -2   0   6  423.86   34.30
   2   0   6  346.47   33.50
   2   0  -6  369.06   33.30
  -2   0   6  376.46   33.80
  -2   0   6  398.56   34.30
   2   0  -6  353.26   33.20
  -2   0  -6  339.67   33.80
  -2   0  -6  424.16   34.10
   4   0  -6 1691.13  130.59
   4   0  -6 1256.37  130.29
  -4   0   6 1640.84  132.69
  -6   0   6  409.06   42.60
   6   0  -6  415.86   40.40
   6   0   6  454.35   38.40
   6   0  -6  427.26   40.10
   6   0  -6  454.75   40.90
  -6   0  -6  490.15   41.40
   6   0  -6  392.96   40.70
   6   0   6  417.06   38.20
   6   0   6  474.25   40.40
   8   0   6  142.49   18.40
   8   0  -6  197.48   20.60
   8   0  -6  178.38   19.30
   8   0   6  218.88   21.00
   1  -1   6    1.50    0.60
  -1   1   6    3.90    1.30
   1  -1   6    2.50    1.10
  -1   1   6    1.20    0.60
   1   1  -6    2.00    0.90
  -1   1   6    1.80    1.10
   1  -1   6    0.80    0.70
  -1  -1  -6    3.30    1.10
   1   1  -6    1.00    0.60
  -1  -1  -6    2.10    0.60
  -1  -1  -6    1.30    1.00
   1   1  -6    0.30    0.60
  -1  -1  -6    1.50    0.50
   1   1   6    1.90    0.90
   1   1   6    1.70    0.90
  -1  -1   6    1.30    0.80
  -1   1  -6    1.40    0.80
   1  -1  -6    1.50    0.80
  -1   1  -6    1.50    0.50
   1  -1  -6    0.80    0.80
  -1  -1   6    1.50    0.80
   1  -1  -6    0.40    0.60
  -1   1  -6    2.20    1.00
  -1  -1   6    1.60    0.90
   3   1  -6   56.39    6.40
  -3  -1  -6   64.19    7.40
  -3   1   6   44.50    7.10
   3  -1   6   57.89    4.90
   3   1  -6   42.60    6.20
   3  -1   6   59.69    6.70
   3   1  -6   55.49    6.50
  -3   1   6   52.09    6.70
   3   1   6   52.49    6.60
  -3  -1   6   48.20    6.80
   3  -1  -6   47.40    6.40
   3   1   6   70.59    7.10
   3  -1  -6   51.49    6.20
  -3   1  -6   60.79    7.10
  -3  -1   6   63.89    7.60
  -3  -1   6   54.29    7.10
   3  -1  -6   58.29    6.90
   5   1  -6    0.10    0.70
   5   1  -6   -0.20    0.80
   5  -1   6   -0.70    1.00
   5  -1   6    1.00    0.70
   5  -1   6   -1.20    0.50
   5   1  -6    0.00    0.70
  -5  -1  -6    0.50    0.80
   5  -1   6   -0.50    0.40
   5   1  -6    2.50    1.50
  -5   1   6    1.60    1.60
   5  -1  -6   -0.50    0.60
   5  -1  -6    0.20    1.00
  -5   1  -6    0.50    0.90
   5  -1  -6    0.10    0.70
  -5  -1   6   -0.70    1.00
   5  -1  -6   -0.30    1.30
   5  -1  -6    0.90    0.80
   5   1   6    0.40    1.50
   5   1   6    0.60    0.80
   7  -1   6    1.70    1.20
   7  -1   6    1.40    1.30
   7   1  -6    2.60    1.60
  -7  -1  -6    0.60    1.10
   7   1  -6    3.10    1.70
  -7   1   6   -0.70    1.30
   7   1   6    1.40    1.10
   7  -1  -6    1.00    1.00
  -7  -1   6    0.60    1.60
   7  -1  -6    1.80    1.70
  -7   1  -6    3.90    1.90
   7   1   6    0.60    1.00
   9   1  -6    0.60    2.40
   9   1  -6   -1.30    1.40
   9  -1   6    2.00    1.90
   9   1   6    0.60    1.40
   9  -1  -6    0.80    1.50
   0  -2  -6  733.33   61.79
   0   2   6  742.13   61.89
   0   2  -6  721.23   61.59
   0  -2   6  715.73   61.79
   0   2   6  664.23   61.89
   0   2  -6  805.12   62.39
   0  -2  -6  690.73   62.09
  -2   2   6  503.85   48.80
   2  -2   6  576.34   48.30
  -2   2   6  552.94   47.90
   2  -2   6  588.54   46.70
   2   2  -6  614.24   48.40
  -2  -2  -6  521.45   48.40
   2  -2  -6  594.84   48.70
   2   2   6  569.94   47.90
  -2   2  -6  571.14   46.70
   2  -2  -6  554.54   47.50
  -2  -2   6  506.65   48.60
  -2  -2   6  534.55   48.50
  -2  -2   6  580.34   48.40
   2   2   6  474.55   48.10
  -2   2  -6  534.75   48.40
   4  -2   6 1283.77   98.09
   4  -2   6 1153.78   98.49
   4   2  -6 1143.99  100.39
  -4  -2  -6 1106.89  100.59
  -4   2   6 1145.19  102.19
   4   2  -6 1176.98  100.09
   4   2  -6 1203.98  100.09
  -4   2  -6 1117.49  100.39
   4  -2  -6 1281.27  100.79
   4   2   6 1177.08   97.69
   4  -2  -6 1178.28   99.39
  -4  -2   6 1210.48  100.89
   4  -2  -6 1111.59   99.29
   4  -2  -6  995.50  100.09
  -4  -2   6 1156.88  101.49
   6  -2   6  431.06   35.40
  -6  -2  -6  429.56   38.20
   6   2  -6  378.76   37.00
   6   2  -6  403.36   37.90
   6   2  -6  421.96   38.00
  -6   2   6  387.26   40.00
   6  -2   6  366.76   35.40
   6   2   6  396.16   34.90
   6   2   6  418.16   35.30
  -6  -2   6  407.36   39.40
  -6   2  -6  370.66   37.40
   6  -2  -6  414.46   37.10
   6  -2  -6  365.66   36.80
   8   2  -6  171.38   19.40
   8  -2   6  179.68   18.10
  -8   2   6  197.68   22.90
   8  -2   6  167.78   19.00
   8   2  -6  177.08   20.40
   8  -2  -6  161.78   19.50
   8   2   6  214.98   19.50
   8  -2  -6  171.28   19.10
   1   3  -6  172.88   15.60
   1   3  -6  184.48   16.20
  -1  -3  -6  180.48   16.70
  -1  -3  -6  176.28   15.30
  -1  -3  -6  162.48   15.40
   1  -3   6  156.88   16.00
  -1   3   6  180.28   16.60
   1  -3   6  192.58   16.50
  -1   3   6  161.98   15.80
   1   3  -6  146.89   16.30
   1  -3   6  180.18   15.60
   1   3   6  182.08   16.20
  -1   3  -6  179.28   15.50
  -1  -3   6  189.48   16.70
   1  -3  -6  186.98   16.10
   1  -3  -6  182.68   16.60
   1   3   6  168.38   16.30
  -1  -3   6  168.48   16.60
  -1  -3   6  188.98   15.90
   3   3  -6  151.58   16.10
  -3  -3  -6  173.78   17.00
  -3   3   6  142.19   17.30
   3   3  -6  153.08   15.50
   3   3  -6  165.88   16.60
   3  -3   6  174.28   16.50
   3  -3   6  173.88   14.80
   3  -3   6  159.88   16.10
  -3  -3  -6  188.08   16.90
   3  -3  -6  173.28   15.50
  -3  -3   6  167.08   16.70
  -3   3  -6  176.98   15.10
   3  -3  -6  164.38   16.50
   3  -3  -6  181.18   16.70
  -3  -3   6  149.49   16.60
  -3   3  -6  193.08   17.00
  -3  -3   6  179.08   17.60
   3   3   6  161.28   16.10
   5  -3   6    2.00    1.10
  -5   3   6    0.50    1.10
   5  -3   6    0.50    0.60
   5  -3   6    0.80    1.10
   5  -3   6    0.60    1.10
   5   3  -6    0.20    1.00
  -5  -3  -6    1.70    1.20
   5   3  -6   -0.10    0.70
   5   3  -6    0.60    1.30
   5  -3  -6    0.90    0.60
   5   3   6    2.20    1.50
   5  -3  -6    1.40    0.80
  -5  -3   6    2.10    1.50
   5   3   6    3.70    2.30
   5  -3  -6    0.60    1.00
   5   3   6    0.70    0.40
   5   3   6    0.00    0.60
  -5  -3   6    2.50    1.50
  -5   3  -6    0.80    1.00
   5  -3  -6    1.80    1.40
   5   3   6    0.20    0.50
   7  -3   6   17.50    3.10
   7   3  -6    9.20    3.50
   7  -3   6   20.70    3.90
  -7   3   6    9.90    4.80
   7  -3  -6   11.70    3.60
   7   3   6   13.30    2.80
   7   3   6   11.20    3.60
  -7  -3   6   14.70    5.10
   7  -3  -6   16.00    4.80
   9   3  -6    0.90    1.70
   9   3  -6    3.70    1.80
   9  -3   6    1.40    1.70
   9   3  -6   -2.80    2.20
   9  -3  -6   -1.80    1.70
   9   3   6    1.20    1.50
   0  -4  -6 1345.57  112.29
   0   4   6 1302.57  112.09
  -2  -4  -6 1127.19  111.89
  -2   4   6 1396.36  111.19
   2  -4   6 1321.17  113.49
   2  -4  -6 1129.09  111.49
  -2  -4   6 1377.46  111.49
  -2  -4   6 1452.75  113.19
  -2   4  -6 1307.87  111.89
   2  -4  -6 1401.16  112.39
  -4   4   6  509.25   48.70
   4  -4   6  522.85   46.20
   4   4  -6  444.06   45.80
   4   4  -6  476.45   46.70
  -4  -4  -6  491.85   46.80
   4  -4   6  564.74   49.50
   4  -4   6  529.45   44.70
   4   4  -6  551.64   46.00
  -4  -4   6  531.25   47.30
   4   4   6  519.25   44.10
  -4  -4   6  571.14   47.40
   4  -4  -6  518.75   45.20
   4  -4  -6  562.24   47.30
   4  -4  -6  547.05   45.10
   4  -4  -6  445.86   46.10
   4   4   6  504.05   44.30
  -4   4  -6  578.34   47.00
  -6   4   6  312.27   33.50
   6   4  -6  279.57   30.00
   6   4  -6  307.47   30.90
   6  -4   6  277.57   28.70
  -6  -4  -6  330.37   30.90
   6  -4   6  374.96   30.90
   6   4  -6  291.57   30.10
   6  -4   6  333.67   28.60
  -6  -4   6  306.77   31.40
   6  -4  -6  305.87   29.10
   6  -4  -6  282.67   28.80
  -6  -4   6  341.27   31.10
   6   4   6  307.57   27.80
   6  -4  -6  359.96   30.50
   6   4   6  302.07   28.20
  -6   4  -6  364.86   31.20
   8   4  -6  150.18   17.10
   8   4  -6  128.99   15.80
  -8  -4  -6  120.89   15.40
   8  -4   6  133.19   14.20
   8  -4   6  117.69   14.80
   8  -4  -6  138.19   16.60
   8  -4  -6  136.79   15.10
  -1  -5  -6  464.55   38.50
   1  -5   6  455.85   38.90
  -1   5   6  389.36   39.70
   1   5  -6  520.65   40.10
   1  -5   6  467.45   39.70
   1   5  -6  438.26   38.50
  -1  -5  -6  442.16   39.30
  -1  -5  -6  491.55   40.00
   1  -5   6  483.25   39.40
  -1   5   6  454.45   38.80
  -1  -5   6  378.96   39.90
  -1  -5   6  451.45   38.60
   1   5   6  418.36   39.50
   1   5   6  440.16   38.70
   1  -5  -6  454.55   39.00
   1  -5  -6  395.36   39.30
  -1   5  -6  465.95   38.80
  -1   5  -6  506.45   39.90
   3  -5   6   -0.30    0.50
  -3   5   6    0.00    0.70
  -3  -5  -6    1.10    0.80
   3  -5   6    0.20    1.20
   3   5  -6   -0.20    0.30
  -3  -5  -6    0.70    0.60
  -3  -5  -6   -0.30    0.20
   3   5  -6   -0.40    0.60
   3  -5   6    0.50    0.50
   3  -5  -6    1.60    0.90
  -3  -5   6    0.70    0.70
   3   5   6    0.20    0.30
   3  -5  -6    0.70    0.40
   3   5   6    0.40    0.60
   3  -5  -6    0.80    0.80
  -3   5  -6   -0.40    0.50
  -3  -5   6    1.70    1.50
   3  -5  -6    0.60    0.90
  -3  -5   6   -0.40    0.50
   5   5  -6   18.60    3.70
   5   5  -6   22.70    4.40
   5  -5   6   22.20    3.50
  -5  -5  -6   27.80    4.80
   5  -5   6   22.30    3.80
  -5   5   6   20.10    6.20
   5  -5   6   18.70    3.10
   5   5  -6   26.50    4.80
  -5   5  -6   21.70    4.40
   5   5   6   25.50    3.20
  -5  -5   6   17.50    4.20
   5  -5  -6   24.60    3.40
   5   5   6   24.60    5.40
   5   5   6   18.30    3.70
   5  -5  -6   23.20    4.10
   5  -5  -6   25.60    3.30
  -5  -5   6   27.20    4.70
   5  -5  -6   17.90    4.40
   5   5   6   24.60    3.20
  -7   5   6   19.90    6.90
   7   5  -6   22.50    6.30
  -7  -5  -6   19.00    5.50
   7  -5   6   18.60    3.60
   7  -5  -6   22.00    4.00
   7   5   6   19.60    3.60
   7   5   6   22.80    4.40
   7  -5  -6   22.30    4.40
  -7  -5   6   19.40    4.30
   9   5  -6    0.40    1.80
   9   5  -6    0.90    1.30
   9   5  -6    2.80    2.10
   9  -5   6    0.20    1.00
   9   5   6    0.30    1.00
   0   6   6 3340.07  467.65
   0  -6   6 4004.10  473.45
   0  -6  -6 4228.78  484.05
   0  -6   6 4441.26  550.24
   0   6  -6 3356.96  443.76
  -2  -6  -6  915.21   82.39
   2  -6   6  898.01   84.09
   2   6  -6 1026.10   83.39
  -2   6   6 1029.80   81.39
  -2  -6  -6  998.90   83.09
   2  -6   6  879.21   82.29
  -2   6   6  877.41   83.59
  -2  -6   6 1055.39   81.79
   2   6   6  920.31   82.79
  -2  -6   6 1023.90   84.09
   2  -6  -6  958.20   82.59
  -2  -6   6  872.21   82.69
   2  -6  -6 1027.40   81.29
   4   6  -6  384.16   40.30
   4  -6   6  420.26   41.20
   4   6  -6  483.85   40.00
   4  -6   6  447.06   40.60
   4  -6   6  482.45   39.60
   4   6  -6  404.46   41.50
  -4  -6  -6  425.76   41.50
   4  -6   6  449.46   43.70
   4  -6  -6  454.55   38.90
   4   6   6  484.15   40.60
  -4  -6   6  478.95   41.20
   4  -6  -6  463.65   39.10
  -4   6  -6  445.96   41.30
   4  -6  -6  535.65   41.60
   4   6   6  467.05   39.00
   6   6  -6  169.88   19.20
  -6   6   6  204.98   22.30
   6  -6   6  135.39   17.70
  -6  -6  -6  202.78   19.20
   6   6  -6  176.48   18.00
   6  -6   6  173.68   16.80
   6  -6   6  163.98   17.50
  -6  -6   6  163.58   18.70
   6   6   6  176.28   16.10
   6  -6  -6  198.68   18.40
   6   6   6  176.38   16.70
  -6   6  -6  171.48   18.70
   6   6   6  166.18   17.50
   6  -6  -6  167.88   16.20
   6  -6  -6  175.48   16.40
  -8  -6  -6  171.08   18.60
   8  -6   6  133.19   17.30
   8   6  -6  163.28   19.50
   8  -6   6  158.08   16.90
   8   6  -6  174.78   18.20
   8  -6  -6  145.59   17.10
   8   6   6  189.18   17.80
  -1   7   6   27.70    4.60
   1  -7   6   33.00    3.90
  -1   7   6   25.40    4.00
   1   7  -6   33.90    4.10
   1  -7   6   28.90    4.00
   1  -7   6   32.60    4.30
  -1   7   6   29.40    3.50
   1  -7   6   34.90    5.00
  -1  -7  -6   27.20    3.90
   1   7  -6   33.20    4.70
  -1  -7  -6   34.50    3.70
  -1  -7  -6   31.70    4.40
  -1  -7   6   33.60    4.50
  -1  -7   6   33.00    4.90
   1  -7  -6   37.90    4.40
   1   7   6   31.80    4.20
   1  -7  -6   30.70    3.70
   1   7   6   31.00    4.20
  -1  -7   6   33.80    3.30
  -1   7  -6   25.20    4.10
   1   7   6   29.50    3.70
   1  -7  -6   28.30    4.20
  -1   7  -6   36.30    3.90
   3   7  -6    8.00    2.80
   3   7  -6    7.20    1.10
  -3  -7  -6    5.40    2.10
  -3  -7  -6    5.60    2.00
   3  -7   6    5.30    2.30
   3  -7   6    7.10    2.20
   3  -7   6    3.50    1.50
   3  -7   6    4.30    1.30
  -3   7   6    8.00    3.00
   3  -7  -6    6.40    2.10
   3   7   6    6.50    1.20
   3   7   6    3.10    1.30
  -3   7  -6    7.00    2.40
  -3  -7   6    8.80    1.60
  -3  -7   6    7.80    2.60
  -3   7  -6    8.00    2.10
   5   7  -6    1.10    1.30
  -5   7   6    1.50    1.60
   5   7  -6   -0.60    0.90
   5  -7   6    2.60    1.40
   5  -7   6    0.30    0.90
  -5  -7  -6    3.50    1.70
   5  -7   6    2.30    1.90
  -5  -7   6    0.60    1.00
   5  -7  -6    1.80    1.40
   5   7   6    1.40    1.10
   5  -7  -6    1.00    0.60
   5  -7  -6    1.60    0.60
  -5   7  -6    1.20    1.10
   7   7  -6   -0.80    1.60
   7  -7   6    0.50    1.30
   7   7  -6    1.50    1.20
  -7   7   6   -2.10    1.60
   7  -7   6    0.60    1.10
  -7  -7  -6   -0.10    0.60
   7   7   6    3.30    1.70
   7  -7  -6   -0.50    1.30
   7   7   6    0.60    1.10
   7  -7  -6    0.00    1.00
   9   7  -6    2.70    2.50
   9  -7   6   -0.10    1.10
   9   7  -6    0.60    1.30
   9   7   6    0.90    1.00
   9  -7  -6    2.40    1.50
   0   8  -6  685.73   58.69
   0   8   6  704.73   58.89
   0  -8   6  788.92   60.19
   0  -8  -6  712.23   58.99
   0   8  -6  609.84   59.39
   0  -8   6  682.23   58.19
   0   8   6  717.33   59.49
   0  -8   6  685.13   59.39
   0  -8  -6  616.54   58.69
   0   8   6  715.13   58.89
   0  -8   6  635.74   58.79
   0  -8  -6  651.63   58.59
  -2  -8  -6 1452.05  122.39
  -2   8   6 1531.75  125.49
  -2   8   6 1471.45  121.99
  -2  -8  -6 1433.26  123.99
   2  -8   6 1555.34  125.89
   2  -8  -6 1501.85  123.69
  -2  -8   6 1418.36  125.09
  -2   8  -6 1249.57  123.29
   4  -8   6  190.48   20.10
   4  -8   6  225.48   19.60
  -4  -8  -6  225.58   21.50
   4   8  -6  213.98   18.90
  -4   8   6  265.17   24.30
   4   8  -6  176.38   21.10
  -4   8  -6  223.58   21.00
  -4  -8   6  201.48   21.20
   4   8   6  207.68   18.90
   4  -8  -6  203.98   21.30
   4  -8  -6  235.78   23.20
   4   8   6  234.78   20.30
   4  -8  -6  185.48   20.30
   6   8  -6  386.16   33.80
  -6  -8  -6  292.17   31.50
   6  -8   6  299.47   30.90
   6   8  -6  336.27   30.40
   6  -8   6  336.97   30.10
   6   8  -6  346.67   31.00
   6  -8  -6  330.37   31.10
   6   8   6  309.77   30.40
  -6  -8   6  358.56   32.70
   6   8   6  317.47   29.20
  -8  -8  -6   92.19   13.60
   8  -8   6  121.29   13.20
  -8   8   6   94.59   15.90
   8   8  -6  119.29   15.60
   8   8  -6  135.99   14.40
   8  -8   6  101.89   13.80
   8  -8  -6  149.99   14.50
   8   8   6  111.89   13.10
  -8  -8   6  151.98   16.10
  -1  -9  -6   32.80    3.80
   1  -9   6   31.70    4.20
   1  -9   6   33.30    4.60
  -1  -9  -6   29.80    4.50
  -1   9   6   27.40    4.20
   1  -9   6   33.60    4.10
  -1   9   6   29.10    4.80
  -1  -9  -6   37.50    4.40
   1   9  -6   27.40    4.00
   1  -9   6   33.40    5.10
  -1  -9   6   33.10    3.10
   1  -9  -6   34.80    4.50
   1  -9  -6   30.80    3.80
   1   9   6   30.10    3.90
  -1  -9   6   33.40    4.50
   1   9   6   26.80    4.20
  -1   9  -6   26.70    4.40
   1  -9  -6   27.40    4.10
  -1   9  -6   31.60    3.90
   1   9   6   26.80    4.20
  -1  -9   6   33.80    3.70
   3   9  -6   22.20    4.50
  -3   9   6   20.60    4.80
   3  -9   6   22.20    4.10
  -3  -9  -6   28.90    4.30
   3  -9   6   20.20    3.70
   3  -9   6   25.90    5.10
  -3  -9  -6   21.30    4.10
  -3  -9  -6   24.70    3.20
   3  -9   6   21.40    3.20
  -3   9   6   25.40    4.30
   3   9  -6   16.40    3.30
   3   9   6   25.80    3.70
   3   9   6   35.60    4.80
   3  -9  -6   20.70    3.80
   3   9   6   23.20    3.00
  -3   9  -6   20.90    3.80
  -3  -9   6   25.00    4.30
  -3  -9   6   31.80    5.50
   5  -9   6    7.60    2.70
  -5  -9  -6   13.20    3.90
   5   9  -6   12.00    4.00
  -5   9   6    6.00    3.40
   5   9  -6   11.70    2.00
   5  -9   6    9.70    2.80
   5  -9   6   11.60    2.40
   5   9  -6   14.00    2.40
   5  -9  -6    8.50    2.70
   5   9   6   17.00    3.10
  -5   9  -6    6.60    2.40
  -5  -9   6   17.40    5.10
  -5   9  -6   14.30    4.10
   5   9   6   14.20    2.20
   7   9  -6    1.70    1.80
  -7   9   6   -1.30    1.10
   7   9  -6    0.70    1.20
   7  -9   6    0.20    1.30
   7  -9   6    1.50    1.30
   7   9   6   -0.10    0.90
   7  -9  -6   -1.10    0.70
  -7   9  -6   -1.50    0.90
   9   9  -6   -0.20    2.20
   9  -9  -6    2.50    1.90
   9   9   6   -1.50    0.80
   0 -10   6 1143.59   97.39
   0  10   6 1167.38   96.89
   0  10  -6 1071.19   96.59
   0  10   6 1137.99   96.89
   0 -10  -6 1150.48   96.69
   0 -10  -6 1213.98   96.99
   0  10  -6 1058.09   97.59
   2 -10   6  819.92   66.99
  -2  10   6  878.51   69.99
   2 -10   6  708.33   67.49
  -2 -10  -6  801.82   66.69
  -2 -10  -6  817.22   67.39
  -2 -10  -6  695.13   67.69
   2 -10   6  808.92   67.89
  -2  10  -6  721.33   67.49
   2 -10  -6  852.01   67.79
  -2  10  -6  755.02   67.59
  -2 -10   6  882.01   68.19
   2  10   6  684.53   67.09
   2  10   6  719.13   66.49
   4 -10   6  375.86   32.50
  -4 -10  -6  373.36   32.60
  -4 -10  -6  411.06   34.70
  -4  10   6  338.07   36.10
   4 -10   6  344.97   36.20
   4 -10   6  355.86   33.20
  -4 -10   6  343.47   34.00
   4  10   6  344.07   31.90
   4 -10  -6  362.66   33.60
   4  10   6  360.56   32.90
  -4  10  -6  402.56   34.10
   6  10  -6  177.38   22.10
   6 -10   6  217.38   20.40
  -6  10   6  182.38   24.00
  -6 -10  -6  190.48   21.70
   6 -10  -6  242.28   21.70
   6  10   6  240.08   21.10
  -6 -10   6  216.08   22.40
   8 -10   6  107.19   12.50
  -8 -10  -6  127.19   14.80
   8  10  -6   81.09   13.70
   8 -10  -6  141.59   13.70
   8  10   6  100.99   12.60
   1 -11   6    2.10    1.60
  -1  11   6    4.30    1.70
   1 -11   6    1.60    1.40
   1  11  -6    1.00    1.00
  -1 -11  -6    1.50    0.90
  -1 -11  -6    1.20    0.90
   1 -11   6    3.00    1.30
   1  11  -6    4.50    1.50
  -1 -11  -6    1.60    1.00
  -1  11   6    3.10    1.50
   1 -11   6    2.10    1.20
   1 -11  -6    2.30    0.90
   1 -11  -6    0.80    0.90
   1  11   6    2.20    1.20
  -1  11  -6    3.30    1.70
  -1 -11   6    1.20    0.40
   1 -11  -6    2.50    1.20
  -1 -11   6    1.90    1.30
   1  11   6    2.70    1.30
  -1  11  -6    3.30    1.40
   1  11   6    0.90    1.10
  -3 -11  -6    0.80    1.20
  -3 -11  -6    5.60    1.60
   3 -11   6    3.80    1.70
   3  11  -6    3.60    2.00
   3 -11   6    6.90    2.10
  -3  11   6    2.30    1.70
  -3  11   6   -0.20    0.70
   3 -11  -6    4.00    2.90
  -3 -11   6    1.90    1.30
   3 -11  -6    4.60    1.90
  -3  11  -6    2.20    1.30
   3  11   6    1.60    1.00
   3  11   6    4.70    1.70
   5 -11   6    3.50    1.90
   5 -11   6    6.20    2.20
   5 -11   6    3.90    1.70
   5  11  -6    6.70    3.00
  -5  11   6    4.40    3.20
  -5 -11  -6    5.20    2.30
  -5  11  -6    0.20    1.50
   5 -11  -6    3.20    1.90
   5  11   6    3.70    1.90
  -5 -11   6    6.60    2.90
  -7 -11  -6    0.50    1.00
   7 -11   6    1.40    1.00
  -7  11   6   -1.40    1.80
   7  11  -6    1.80    2.20
   7 -11   6    2.50    1.30
   7 -11  -6    0.20    0.90
  -7 -11   6    0.60    1.30
   7  11   6    2.00    1.50
   9  11  -6    2.00    2.50
   9 -11  -6    0.50    1.40
   9  11   6    1.30    1.70
   0  12   6 1000.50   84.79
   0 -12  -6  997.40   84.69
   0 -12   6 1006.30   83.79
   0 -12  -6 1027.20   84.59
   0 -12   6  911.41   84.29
   0  12   6 1005.20   84.59
   0 -12  -6 1016.90   84.39
   0  12  -6  930.91   84.29
   0  12   6  967.90   85.49
  -2  12   6  744.23   71.99
   2 -12   6  876.81   69.89
  -2 -12  -6  799.92   69.49
   2 -12   6  737.13   70.39
  -2  12   6  816.42   68.39
  -2 -12  -6  831.82   70.79
  -2  12  -6  812.32   70.39
   2 -12  -6  894.31   70.49
   2  12   6  754.62   69.99
   2  12   6  812.72   69.49
  -4 -12  -6  307.07   28.50
  -4  12   6  299.67   30.80
   4  12  -6  351.06   29.70
   4 -12   6  296.57   27.50
   4 -12   6  302.17   26.80
   4  12   6  330.27   27.30
   4  12   6  276.77   26.20
  -4  12  -6  248.78   27.40
  -4 -12   6  255.97   27.90
   4 -12  -6  267.47   27.30
  -6 -12  -6  143.69   17.10
  -6  12   6  154.68   20.30
   6 -12   6  138.19   17.20
   6 -12   6  171.58   16.00
   6  12  -6  116.69   16.90
   6 -12  -6  178.08   17.10
  -6 -12   6  157.38   17.60
   6  12   6  181.18   16.60
   8 -12   6  102.19   12.80
   8 -12   6   80.39   10.80
   8 -12  -6  105.39   11.70
   8  12   6   89.29   11.20
   1  13  -6  108.29   14.20
   1 -13   6  142.39   13.90
   1 -13   6  154.18   13.90
  -1  13   6  159.08   15.80
  -1 -13  -6  146.39   13.50
  -1  13   6  148.49   13.30
  -1 -13  -6  144.99   14.30
   1  13  -6  163.28   14.00
  -1  13   6  126.79   14.00
   1 -13   6  137.69   14.80
   1  13   6  117.39   13.40
  -1  13  -6  127.19   13.50
   1  13   6  135.69   14.10
  -1  13  -6  130.89   14.20
   1  13   6  139.69   14.20
   1 -13  -6  153.18   14.10
  -1 -13   6  136.39   14.00
   1 -13  -6  119.49   13.80
   3 -13   6    2.90    1.50
   3  13  -6    7.90    2.90
   3 -13   6    3.90    2.10
  -3 -13  -6    5.50    1.90
  -3 -13  -6    3.90    2.10
  -3  13   6    5.40    3.00
  -3 -13   6   11.20    3.30
   3  13   6    3.50    1.50
   3  13   6    5.10    1.70
  -3  13  -6    2.30    1.40
   3 -13  -6    2.40    1.40
   5 -13   6   10.00    3.30
  -5  13   6   12.90    5.40
   5 -13   6    8.70    2.60
   5  13  -6   20.10    5.90
  -5 -13  -6   15.10    4.20
   5  13   6   13.00    2.80
   5 -13  -6   15.40    3.20
  -5  13  -6    7.10    2.60
   5  13   6   10.90    2.80
  -5 -13   6   14.10    3.90
  -7 -13  -6   15.00    4.90
   7  13  -6   20.10    6.20
  -7  13   6   29.30    8.70
   7 -13   6   22.70    4.70
   7 -13   6   19.10    3.80
   7  13   6   19.10    4.00
   7 -13  -6   19.00    4.20
  -7 -13   6   10.10    3.70
   9  13  -6   -0.30    1.50
  -9  13   6   -2.40    2.20
   9 -13   6    0.20    1.10
   9 -13  -6   -0.80    1.10
   9  13   6    0.40    1.80
   0 -14  -6  150.58   15.80
   0  14   6  158.98   16.70
   0 -14   6  185.38   16.00
   0  14   6  143.29   15.60
   0 -14  -6  160.98   15.40
   0  14  -6  178.78   16.70
   0 -14   6  157.88   14.90
   0 -14   6  138.89   16.60
   0  14  -6  156.98   15.40
   0 -14  -6  157.68   15.80
   2 -14   6  874.21   70.89
  -2 -14  -6  856.21   71.89
   2  14  -6  843.62   72.39
  -2 -14  -6  848.22   70.59
  -2  14   6  846.52   69.29
  -2  14   6  850.81   73.69
  -2  14   6  839.62   71.59
   2 -14   6  809.22   71.79
  -2 -14   6  738.93   70.99
   2 -14  -6  824.32   70.99
   2  14   6  818.22   70.59
  -2  14  -6  831.92   71.49
   2  14   6  778.32   71.09
   2 -14  -6  682.23   71.09
  -4 -14  -6  220.28   21.00
  -4  14   6  185.78   23.30
  -4 -14  -6  210.18   21.10
  -4 -14  -6  243.98   22.20
   4 -14   6  232.58   20.50
   4 -14   6  184.28   20.60
  -4 -14   6  191.08   21.30
   4  14   6  214.88   20.10
  -4  14  -6  208.58   20.90
   4 -14  -6  221.88   21.00
   4  14   6  216.18   20.50
   6  14  -6  367.26   32.90
   6 -14   6  320.37   31.60
  -6  14   6  332.97   35.20
  -6 -14  -6  305.37   31.30
   6 -14   6  284.87   29.20
   6  14   6  317.97   29.60
  -6 -14   6  374.96   32.30
   6 -14  -6  258.57   29.40
   8 -14   6   54.19    8.30
   8  14  -6   61.99   10.40
   8 -14   6   78.39   10.50
   8  14   6   72.69    9.00
   8 -14  -6   57.99    8.50
   1  15  -6    4.80    2.30
  -1 -15  -6    1.80    1.20
  -1  15   6    6.30    1.90
  -1  15   6    5.60    2.70
  -1 -15  -6    3.50    1.60
   1 -15   6    5.60    2.60
   1  15  -6    9.60    2.60
  -1  15   6    5.60    1.80
   1 -15   6    7.30    2.50
   1 -15   6    4.70    2.10
  -1 -15   6    8.80    2.70
   1  15   6    4.10    1.50
   1  15   6    5.60    2.10
   1  15   6    5.90    2.20
  -1  15  -6    5.60    2.40
   1 -15  -6    5.90    2.00
  -1 -15   6    3.70    2.30
   3 -15   6   64.39    7.40
   3 -15   6   54.19    7.50
   3 -15   6   43.90    8.50
  -3  15   6   54.69    9.30
  -3 -15  -6   56.19    8.00
  -3 -15  -6   66.09    7.30
  -3 -15   6   62.59    7.90
  -3  15  -6   60.39    7.80
   3  15   6   54.59    6.80
   3 -15  -6   56.49    7.40
   3  15   6   67.79    7.80
   5 -15   6    1.40    1.40
   5  15  -6    2.30    1.90
  -5  15   6    0.20    1.50
  -5 -15  -6    1.00    1.30
  -5 -15   6    3.00    1.90
   5 -15  -6    4.30    2.10
   5  15   6    2.00    1.50
  -7  15   6    3.80    2.50
   7 -15   6    1.60    1.60
   7 -15   6    1.10    1.40
   7  15  -6    0.90    1.30
   7  15   6   -0.30    0.90
   0 -16   6  439.86   42.20
   0 -16   6  505.05   40.70
   0  16  -6  418.06   40.90
   0 -16   6  454.45   39.70
   0  16   6  438.06   41.60
   0  16   6  450.95   40.70
   0 -16  -6  435.96   40.00
   0  16   6  464.85   42.00
   2  16  -6  127.79   13.10
   2 -16   6   88.39   11.60
  -2 -16  -6  101.39   11.00
   2 -16   6  107.49   11.20
  -2 -16  -6   97.79   11.90
  -2  16   6   90.29   12.90
   2  16   6  106.59   11.70
   2  16   6  106.19   11.10
  -2  16  -6  114.49   12.00
   2 -16  -6  115.79   11.60
  -2 -16   6   90.39   11.30
   4 -16   6  641.64   52.99
  -4  16   6  670.53   58.09
  -4 -16  -6  634.54   54.89
   4 -16   6  530.05   53.49
   4  16   6  543.25   52.39
   4  16   6  599.14   53.09
   4 -16  -6  586.24   53.29
   6 -16   6  188.68   18.30
  -6  16   6  205.88   23.60
   6 -16  -6  186.98   18.60
  -6 -16   6  144.89   19.10
   6  16   6  173.78   18.10
   8 -16   6   92.69   12.50
   8  16  -6  117.39   15.20
  -8  16   6  109.19   16.60
   8  16   6  110.79   12.80
   8 -16  -6  121.79   13.10
  -1 -17  -6   24.00    3.80
   1  17  -6   16.40    3.90
  -1  17   6   27.90    5.40
  -1  17   6   27.50    4.20
   1 -17   6   19.10    4.40
   1 -17   6   22.00    3.80
   1 -17   6   21.90    5.30
  -1  17  -6   21.20    4.10
   1  17   6   22.20    4.00
  -1 -17   6   18.10    3.70
   1 -17  -6   23.90    3.90
   1  17   6   25.50    5.00
   1  17   6   24.00    4.60
  -3 -17  -6   62.09    7.70
  -3  17   6   67.99   10.40
   3 -17   6   69.89    8.00
   3  17  -6   82.49   10.00
  -3 -17  -6   58.59    8.00
   3 -17   6   55.49    8.50
   3  17   6   61.59    7.60
  -3 -17   6   56.59    8.10
   3 -17  -6   65.89    8.20
   3  17   6   65.19    8.30
  -3  17  -6   62.09   10.00
   5  17  -6    2.20    1.50
  -5  17   6    6.50    3.40
   5 -17   6   10.00    3.30
   5 -17  -6    3.30    1.80
   5  17   6    4.90    2.10
  -5 -17   6    4.90    2.40
   7 -17   6    6.00    2.30
   7 -17   6    6.40    4.10
  -7  17   6    6.90    4.10
   7  17  -6    1.00    1.70
   7  17   6    3.90    2.00
   7 -17  -6    2.30    1.60
   0 -18   6  178.28   18.00
   0 -18   6  169.18   17.70
   0  18   6  184.68   19.60
   0 -18   6  209.08   18.60
   0  18   6  196.68   20.20
   0  18  -6  174.88   18.80
   0 -18  -6  187.28   18.00
  -2 -18  -6  346.97   33.60
   2  18  -6  434.66   36.00
   2 -18   6  347.77   35.00
   2 -18   6  349.96   33.50
  -2 -18  -6  364.36   33.50
  -2  18   6  434.06   37.70
   2 -18   6  326.47   35.10
  -2  18  -6  402.76   34.70
   2  18   6  404.96   34.80
  -2  18  -6  330.87   35.90
   2  18   6  383.56   36.80
   2 -18  -6  323.17   33.30
   2  18   6  357.06   33.60
   4  18  -6  246.18   24.20
  -4  18   6  218.18   25.20
   4 -18   6  207.38   21.30
  -4 -18   6  230.68   22.60
   4 -18  -6  213.08   21.60
   4  18   6  208.78   21.80
   6  18  -6  146.29   18.80
   6 -18   6  172.38   17.40
  -6  18   6  148.39   20.90
   6  18   6  157.48   17.30
  -6 -18   6  195.88   27.30
   6 -18  -6  176.88   17.60
   6  18   6  184.08   21.20
   8  18  -6   50.59    9.30
   8 -18   6   53.49    8.00
   1 -19   6   16.10    3.60
   1  19  -6   12.20    3.70
  -1  19   6   14.20    3.90
   1 -19   6   11.30    3.20
  -1 -19  -6   13.00    3.50
  -1  19   6    8.70    3.60
   1  19   6    6.60    3.10
   1 -19  -6   10.40    3.10
  -1  19  -6   11.40    3.70
  -1 -19   6    7.20    2.40
   3  19  -6    9.50    3.70
   3 -19   6    5.30    2.00
  -3  19   6    4.30    3.20
   3  19   6    8.50    3.50
   3  19   6    9.60    3.20
   3 -19  -6    8.40    2.60
  -3 -19   6    7.40    2.60
  -3  19  -6   12.80    5.10
   5 -19   6   -0.90    1.00
  -5  19   6   -0.30    1.40
   5  19  -6   -0.70    0.60
   5  19   6    0.90    1.20
   5  19   6   -0.30    1.40
  -5 -19   6    1.50    1.50
   5 -19  -6    0.50    0.90
   7 -19   6    1.40    1.50
   7  19  -6    1.50    1.70
   7 -19  -6    0.90    0.70
   7  19   6    0.40    2.50
   7  19   6   -0.50    1.40
   0 -20   6  360.66   32.20
   0 -20   6  314.07   32.50
   0  20  -6  361.56   33.80
   0  20   6  383.66   35.40
   0 -20  -6  358.56   32.60
   2 -20   6  191.08   22.40
  -2 -20  -6  207.98   21.00
  -2  20   6  222.98   24.30
   2 -20   6  236.78   21.30
   2  20  -6  218.68   22.60
  -2  20  -6  264.77   25.10
  -2 -20   6  182.28   21.10
   2  20   6  210.88   22.20
   2 -20  -6  223.78   21.20
   4 -20   6  181.48   18.30
   4  20  -6  148.79   19.30
  -4  20   6  154.38   21.20
  -4 -20   6  175.68   19.10
   4  20   6  197.18   19.20
  -4  20  -6  231.88   23.70
   6  20  -6   62.99   10.70
   6 -20   6   84.89   10.00
  -6  20   6   57.29   12.00
   6 -20  -6  101.29   10.60
   6  20   6   87.19   12.90
   6  20   6   74.39   10.20
  -1  21   6    3.80    2.80
  -1 -21  -6    1.20    1.10
   1 -21   6    6.00    2.10
   1  21  -6    1.10    1.40
   1 -21  -6    1.70    1.20
  -1 -21   6    1.70    1.10
   1  21   6    0.40    1.20
   3 -21   6    4.40    2.00
  -3  21   6    3.60    1.60
  -3 -21  -6    2.10    1.40
   3  21  -6    3.50    1.90
   3  21   6    2.50    1.80
  -3 -21   6    1.60    1.30
   3 -21  -6    2.60    1.50
  -3  21  -6   -1.20    1.40
   3  21   6    4.90    2.70
   5  21  -6    3.20    1.70
   5 -21   6   -0.10    1.40
  -5  21   6   -3.60    1.70
   5 -21  -6   -0.90    0.50
  -5 -21   6    1.20    1.30
   5  21   6   -0.60    0.90
   7  21  -6   -0.20    1.90
  -7  21   6    1.20    2.20
   7 -21   6   -0.50    1.40
   7 -21  -6   -1.20    0.70
   0 -22   6  394.26   33.30
   0 -22  -6  336.97   32.60
   0  22   6  339.67   35.40
   0  22  -6  344.77   33.90
  -2  22   6  116.09   15.90
   2  22  -6  119.59   14.60
   2 -22   6  110.39   13.30
   2  22   6  125.79   14.90
   2 -22  -6  147.49   13.80
  -2 -22   6  124.49   13.90
  -4  22   6  140.29   18.70
   4 -22   6  116.49   14.80
  -4 -22   6  155.38   16.30
   4 -22  -6  149.59   15.40
   4  22   6  164.78   22.20
   4  22   6  150.08   16.30
   6  22  -6   48.90    8.90
  -6  22   6   66.59   15.10
   6 -22   6   60.49    8.60
   6  22   6   66.69   10.60
   6 -22  -6   69.69    8.70
   6  22   6   61.69   10.30
  -1  23   6   -0.70    1.10
   1  23  -6    1.70    1.40
   1 -23   6    0.20    1.00
   1 -23  -6   -0.40    0.50
   1  23   6   -2.10    1.00
  -1 -23   6    0.50    1.10
   3 -23   6    2.90    1.50
   3  23  -6    2.90    1.90
  -3  23   6   -0.20    1.70
   3  23   6    1.70    1.50
   3 -23  -6    7.20    2.50
   3  23   6    7.50    3.40
  -3 -23   6    4.40    2.80
   5 -23   6    1.70    1.00
   5  23  -6    0.90    1.10
  -5  23   6    1.90    2.20
   5  23   6   -0.90    1.20
   5 -23  -6   -0.60    1.10
  -5 -23   6   -0.10    1.10
   0  24   6  147.49   18.80
   0  24  -6  138.69   17.20
   0 -24   6  165.58   16.60
   0 -24  -6  175.48   16.80
   2 -24   6  190.08   18.90
  -2  24   6  175.98   21.90
   2  24  -6  188.38   20.10
   2 -24  -6  174.68   18.30
  -2 -24   6  176.58   19.00
   2  24   6  188.18   21.00
   4 -24   6   59.49    8.60
  -4  24   6   73.69   12.00
   4  24  -6   65.59    9.60
   4  24   6   60.09    9.70
   4 -24  -6   69.79    8.70
  -4 -24   6   67.29    9.30
   6 -24   6   75.19    9.70
   6  24   6   63.29   11.50
   6 -24  -6   79.09    9.50
   1 -25   6    8.20    2.70
  -1  25   6    5.60    2.90
  -1 -25   6    5.40    2.20
   1 -25  -6    5.40    2.50
   1  25   6    4.00    3.40
   3  25  -6    2.40    2.30
   3 -25   6    3.40    1.90
  -3  25   6    7.50    3.60
   3  25   6    0.70    2.00
   3 -25  -6    3.60    1.90
  -3 -25   6    7.40    2.90
   5  25  -6    1.80    1.40
   5 -25   6    6.10    2.30
  -5  25   6    6.70    4.40
   5 -25  -6    5.10    1.90
  -5 -25   6    6.50    3.10
   0 -26   6  203.78   20.10
   0 -26  -6  194.38   19.70
   0  26   6  182.28   22.90
  -2  26   6   61.89   12.00
   2 -26   6   94.19   10.60
   2  26  -6   94.89   11.80
   2 -26  -6   89.39   10.40
  -2 -26   6   84.99   10.70
   2  26   6   86.29   12.90
   4 -26   6   99.49   11.70
  -4  26   6   94.69   14.80
   4  26  -6   76.39   12.20
  -4 -26   6  120.99   13.10
   4 -26  -6   93.79   11.30
   4  26   6  107.19   16.00
   1 -27   6   -1.10    0.60
  -1  27   6    0.90    2.10
   1  27   6    0.20    2.20
   3 -27   6    0.80    1.30
  -3  27   6    2.00    2.10
   3 -27  -6   -1.20    0.80
   3  27   6    4.50    2.60
  -3 -27   6   -1.00    0.90
   0 -28   6   70.99    9.50
   0  28   6   88.99   13.20
   2 -28   6   77.79   10.30
  -2  28   6   92.89   14.20
   2 -28  -6   89.89   10.60
   2  28   6   98.29   14.00
  -2 -28   6   76.99   10.80
  -4  28   6   72.19   12.40
   4 -28  -6   59.69    7.80
  -4 -28   6   51.39    8.30
  -1  29   6    0.20    2.20
   1 -29   6   -0.10    1.20
  -1 -29   6   -1.80    1.00
   1  29   6    4.90    2.60
  -3  29   6    3.10    2.80
   3 -29   6    1.00    1.40
   3 -29  -6   -2.20    1.00
  -3 -29   6    0.80    1.30
   0 -30   6   42.40    6.80
   0  30   6   50.99   10.10
   2 -30   6   54.19    8.20
  -2  30   6   70.19   12.40
   2 -30  -6   54.49    8.00
  -2 -30   6   64.49    8.90
   0   0   7  526.45   45.40
   0   0   7  490.15   45.20
   0   0  -7  531.35   45.10
   0   0  -7  567.94   45.80
   0   0  -7  527.65   45.30
   0   0   7  506.55   45.50
   2   0   7  792.32   76.39
  -2   0   7  917.61   76.99
   2   0  -7  956.00   76.39
   2   0  -7  851.41   75.99
   2   0   7  749.03   76.09
  -2   0   7  965.60   77.09
  -2   0   7  898.61   76.79
  -2   0  -7  975.30   77.29
   2   0  -7  923.31   76.89
  -4   0   7  882.21   75.09
   4   0  -7  850.51   72.99
   4   0   7  766.22   72.79
   4   0  -7  833.82   72.69
   4   0   7  789.22   75.79
  -4   0  -7  909.31   73.89
  -6   0   7  353.86   35.20
   6   0  -7  319.87   32.70
   6   0  -7  304.67   31.80
   6   0  -7  344.37   32.80
   6   0  -7  367.66   32.80
   6   0   7  346.27   29.90
   6   0   7  342.57   32.20
   6   0   7  355.66   29.90
   8   0  -7  138.99   15.90
   8   0   7  125.59   15.20
   8   0  -7  154.88   17.20
  -1  -1  -7   39.10    3.80
   1   1  -7   31.40    4.20
  -1  -1  -7   35.10    3.60
   1  -1   7   27.60    4.20
   1   1  -7   45.20    4.80
   1  -1   7   35.20    4.50
  -1  -1  -7   31.50    4.40
  -1   1   7   36.10    4.60
  -1  -1  -7   30.20    4.60
  -1   1   7   39.80    4.50
   1  -1   7   40.10    3.90
   1   1  -7   37.70    4.10
  -1   1   7   35.30    4.70
  -1   1  -7   27.80    4.40
   1   1   7   37.90    4.70
  -1  -1   7   27.80    4.40
  -1   1  -7   39.20    3.70
   1  -1  -7   40.60    4.70
   1  -1  -7   37.10    4.40
   1   1   7   33.80    4.40
  -1  -1   7   41.40    4.60
  -1  -1   7   27.10    4.20
   1  -1  -7   35.90    4.10
   3   1  -7    5.50    2.20
  -3  -1  -7    4.60    2.00
  -3   1   7    1.50    1.30
   3   1  -7    8.80    1.70
  -3   1   7    6.70    2.50
   3   1  -7    8.40    2.40
   3  -1   7    4.10    1.70
   3  -1  -7    6.10    1.80
   3   1   7    5.40    2.00
   3  -1  -7    6.20    2.00
  -3  -1   7    9.40    3.20
   3  -1  -7    4.70    1.90
  -3  -1   7    4.60    2.00
  -3  -1   7    5.30    2.10
  -3   1  -7    2.30    1.40
  -5  -1  -7    1.10    1.20
   5   1  -7   -0.40    0.80
   5   1  -7    1.80    1.70
   5  -1   7   -1.30    0.90
   5   1  -7    0.80    1.00
   5  -1   7    1.80    1.20
  -5   1   7   -0.20    0.80
   5  -1   7    1.30    0.60
   5  -1  -7    0.70    0.70
   5  -1  -7    3.20    1.70
  -5   1  -7    1.40    1.20
  -5  -1   7    1.30    1.50
   5   1   7    1.00    1.10
   5  -1  -7    2.30    1.20
   5   1   7    2.20    0.70
   5  -1  -7    2.60    1.60
   7  -1   7    3.40    1.30
  -7   1   7    0.40    2.40
   7   1  -7    0.80    1.20
   7  -1   7    1.30    1.20
   7   1  -7    0.30    1.10
  -7  -1  -7    2.10    2.20
   7  -1  -7    0.00    1.20
   7   1   7    2.90    2.20
  -7   1  -7    0.40    1.20
   7   1   7    1.00    1.00
   7  -1  -7    1.10    1.00
   9  -1   7    0.10    0.90
   9   1  -7   -1.00    3.30
   9   1  -7    0.90    1.60
   9  -1  -7    2.00    1.70
   9   1   7    2.70    1.40
   0  -2   7 1050.29   87.79
   0   2  -7  996.20   88.09
   0  -2  -7 1048.10   87.59
   2  -2   7  757.12   59.29
   2   2  -7  569.74   60.39
  -2  -2  -7  679.03   61.19
  -2   2   7  707.73   61.59
   2   2  -7  729.53   60.89
  -2   2   7  739.83   60.79
   2  -2   7  683.93   60.79
   2  -2  -7  614.84   60.89
  -2  -2   7  740.83   61.39
   2   2   7  706.23   60.89
  -2  -2   7  741.43   60.99
  -2  -2   7  726.83   61.49
   2  -2  -7  779.12   61.69
   2  -2  -7  612.74   60.39
  -2   2  -7  719.43   59.19
   2  -2  -7  728.93   60.19
   4   2  -7  871.51   75.59
   4  -2   7  920.71   73.69
  -4   2   7  851.41   78.09
  -4  -2  -7  826.62   76.69
   4   2  -7  917.11   76.29
   4  -2   7  789.92   75.69
   4  -2   7  911.41   73.99
   4  -2  -7  855.11   76.19
  -4  -2   7  894.51   76.79
   4  -2  -7  893.21   75.29
  -4  -2   7  825.02   77.19
  -4   2  -7  936.61   76.89
   4  -2  -7  771.42   76.09
  -4  -2   7  973.00   77.99
   6  -2   7  294.67   26.50
   6   2  -7  309.67   29.50
   6  -2   7  288.97   26.70
   6   2  -7  301.87   29.20
  -6  -2  -7  286.67   29.30
   6   2  -7  279.17   28.60
  -6   2   7  341.27   32.80
   6  -2  -7  269.07   27.90
   6   2   7  286.37   26.00
   6  -2  -7  296.27   28.20
   6   2   7  307.47   26.20
   6  -2  -7  338.27   29.20
  -6   2  -7  316.37   29.50
  -6  -2   7  288.07   30.80
   8  -2   7  136.29   17.00
   8   2  -7  187.38   18.40
   8   2  -7  160.68   18.90
   8  -2  -7  165.68   17.70
   8   2   7  145.09   16.90
   8  -2  -7  167.28   18.10
  -1  -3  -7   92.59    9.10
   1   3  -7   82.69    7.90
   1   3  -7   88.39    8.50
  -1   3   7   68.49    8.00
   1  -3   7   91.29    8.00
  -1  -3  -7   71.89    8.30
   1  -3   7   91.29    8.80
  -1  -3  -7   84.49    7.70
   1  -3   7   74.99    8.20
  -1  -3  -7   81.59    7.50
   1   3  -7   87.29    8.80
   1  -3  -7   65.99    8.20
   1   3   7   67.89    8.30
  -1   3  -7   81.89    8.90
   1  -3  -7   98.59    8.60
  -1  -3   7   86.19    8.20
  -1  -3   7   67.29    8.40
  -1   3  -7   84.59    7.70
   1  -3  -7   76.09    8.20
  -1   3  -7   98.59    8.90
  -1  -3   7   75.09    8.70
   1  -3  -7   74.59    8.50
  -3  -3  -7    9.80    2.40
   3  -3   7   13.50    2.70
  -3   3   7    7.20    2.90
   3   3  -7   12.80    3.10
  -3  -3  -7   14.80    3.80
   3  -3   7    9.90    1.40
   3   3  -7   11.00    2.00
   3  -3   7   12.00    3.90
   3   3   7    8.10    2.30
   3  -3  -7    8.80    2.70
  -3  -3   7   13.00    2.70
  -3  -3   7   10.40    3.40
  -3  -3   7   12.30    3.20
  -3   3  -7   10.40    1.50
   3  -3  -7   11.70    3.40
  -3   3  -7    8.40    2.60
   3  -3  -7   11.10    2.00
   3  -3  -7   11.10    2.40
   5   3  -7    0.60    1.10
   5   3  -7    1.30    1.20
  -5  -3  -7    1.10    1.20
   5   3  -7    2.80    1.80
   5  -3   7    2.20    0.90
  -5   3   7    2.70    2.00
   5  -3   7    0.70    1.80
   5  -3   7    1.60    1.40
   5  -3  -7    0.80    1.10
   5  -3  -7    4.30    2.30
   5  -3  -7    2.10    1.20
   5   3   7    1.70    1.20
  -5  -3   7   -0.40    0.80
  -5   3  -7    3.30    2.10
   5  -3  -7    1.60    1.20
  -5  -3   7    2.80    2.00
  -7   3   7   10.90    4.30
   7   3  -7    6.10    2.70
   7  -3   7    9.00    3.70
   7  -3   7    8.70    2.50
   7  -3  -7    8.50    3.00
  -7   3  -7   12.00    4.40
   7   3   7   15.40    3.30
   7   3   7   10.80    2.30
  -7  -3   7   20.90    6.80
   7  -3  -7    6.50    2.60
   9   3  -7   -1.60    1.00
   9  -3   7    1.30    1.10
   9   3  -7    1.40    2.20
   9   3   7    0.70    1.10
   9  -3  -7    1.50    1.50
   0  -4   7 1505.95  280.97
   0   4   7 1523.75  324.07
   0   4  -7 1142.99  213.38
   2   4  -7  428.16   43.10
  -2  -4  -7  440.06   43.70
  -2  -4  -7  433.56   43.20
  -2   4   7  484.15   44.40
   2  -4   7  574.94   43.90
   2  -4   7  483.05   42.20
   2   4  -7  480.25   42.30
   2  -4   7  513.25   43.50
   2   4  -7  518.65   43.90
  -2  -4   7  496.95   43.20
   2  -4  -7  454.65   43.50
  -2   4  -7  545.55   44.10
   2  -4  -7  520.45   42.70
   2   4   7  420.26   43.40
   2  -4  -7  564.34   43.80
   2  -4  -7  441.56   43.70
  -2  -4   7  591.74   44.50
  -2  -4   7  515.95   44.60
  -4  -4  -7  878.71   76.59
   4   4  -7  846.62   73.19
   4  -4   7  829.92   74.19
   4  -4   7  827.92   73.89
  -4  -4  -7  821.12   74.69
  -4   4   7  796.42   76.19
   4   4  -7  835.72   74.59
   4  -4   7  849.32   72.09
  -4   4  -7  859.61   74.59
  -4  -4   7  892.01   75.29
   4  -4  -7  878.41   72.89
   4  -4  -7  851.31   73.09
   4  -4  -7  830.12   74.29
   4  -4  -7  921.21   74.89
   6   4  -7  195.38   19.80
   6   4  -7  182.98   20.30
   6   4  -7  216.98   25.40
   6  -4   7  181.18   18.40
   6  -4   7  233.58   20.60
   6  -4   7  186.88   17.90
  -6   4   7  233.88   24.20
  -6  -4  -7  167.38   20.00
   6   4   7  231.08   20.10
   6   4   7  189.38   17.20
  -6   4  -7  185.68   20.40
   6  -4  -7  170.28   19.50
  -6  -4   7  213.88   21.00
   6   4   7  196.48   17.60
  -6  -4   7  200.38   21.60
   6  -4  -7  171.68   18.50
   6  -4  -7  188.78   18.70
   8   4  -7  190.48   22.10
   8  -4   7  216.38   21.70
   8   4  -7  196.98   22.80
  -8  -4  -7  227.78   22.80
   8  -4  -7  226.28   21.80
   8   4   7  180.88   20.70
   1   5  -7    8.80    2.40
   1  -5   7   10.30    2.00
   1   5  -7    8.00    1.70
   1   5  -7    5.90    1.30
  -1   5   7    6.60    1.70
  -1  -5  -7   10.40    2.80
   1  -5   7    9.10    2.40
   1  -5   7    8.50    1.70
  -1  -5  -7    8.00    1.30
  -1   5   7    7.90    2.40
  -1  -5  -7    8.90    1.90
   1   5   7    9.30    1.60
  -1  -5   7   10.50    1.60
  -1  -5   7    5.20    2.00
   1   5   7    5.80    1.80
  -1  -5   7    9.80    2.60
   1  -5  -7    5.50    1.70
   1  -5  -7    4.90    2.00
  -1   5  -7    8.80    2.00
   1  -5  -7    6.00    1.90
   1  -5  -7    6.90    1.60
  -1   5  -7    5.90    2.00
   1   5   7    9.60    2.00
  -3  -5  -7   36.70    5.40
   3  -5   7   31.00    3.60
  -3   5   7   39.30    6.20
   3   5  -7   32.80    3.70
   3   5  -7   30.50    4.90
  -3   5   7   31.00    4.20
   3  -5   7   30.90    4.70
  -3   5  -7   34.70    5.10
  -3  -5   7   27.20    7.10
   3  -5  -7   30.60    4.70
  -3  -5   7   26.10    4.30
  -3  -5   7   42.30    5.60
   3  -5  -7   36.20    5.40
   3  -5  -7   30.80    3.70
   3  -5  -7   36.50    5.10
   5   5  -7    1.10    1.50
   5   5  -7    0.90    1.30
   5   5  -7    4.20    1.80
  -5  -5  -7    2.40    2.10
   5  -5   7    3.20    1.10
   5  -5   7    3.40    2.00
   5  -5   7    3.50    1.80
   5  -5   7    4.80    1.70
  -5  -5   7    1.90    1.70
   5   5   7    2.00    0.90
   5   5   7    1.40    1.00
   5  -5  -7    1.50    0.90
   5  -5  -7    4.00    1.90
  -5   5  -7    3.40    1.90
   5  -5  -7    1.80    1.50
   5  -5  -7    4.30    1.40
  -5  -5   7    6.70    2.50
   5   5   7    3.50    0.70
  -7   5   7   -0.20    1.30
   7  -5   7    1.70    1.00
   7  -5   7    0.70    1.20
  -7  -5  -7    0.40    0.90
   7   5  -7   -0.10    1.10
  -7  -5   7    0.30    1.10
   7   5   7   -0.10    0.80
   7   5   7    0.70    0.90
   7  -5  -7    0.80    0.80
   7  -5  -7    0.90    1.40
   9   5  -7    2.70    3.30
   9   5  -7    1.00    1.10
   9  -5  -7   -1.50    1.10
   9   5   7    0.40    1.20
   0  -6  -7  523.45   43.50
   0  -6  -7  509.25   43.70
   0   6  -7  480.95   43.30
   0  -6   7  486.85   43.10
   0  -6   7  579.54   44.70
   0   6   7  446.26   43.40
   0   6   7  489.35   43.60
   0  -6   7  508.55   43.80
   0   6  -7  518.25   43.50
   0  -6  -7  475.65   43.70
   2  -6   7 1939.41  163.18
   2  -6  -7 1763.62  161.68
  -2  -6   7 1977.20  162.58
   2   6   7 1907.71  161.48
  -2  -6   7 1918.31  160.38
   4  -6   7  193.88   20.20
   4   6  -7  230.08   20.80
   4  -6   7  185.68   20.50
  -4  -6  -7  218.08   21.40
   4   6  -7  214.48   19.40
   4  -6   7  229.38   19.20
   4  -6   7  181.68   22.60
  -4   6   7  213.98   23.00
   4   6  -7  196.78   21.20
   4  -6  -7  198.28   20.60
   4  -6  -7  212.58   24.60
  -4  -6   7  213.98   21.40
  -4  -6   7  230.38   20.90
   4  -6  -7  228.88   18.90
   4  -6  -7  209.28   18.90
  -4   6  -7  199.18   20.90
   4   6   7  230.48   18.40
   6  -6   7  362.16   31.70
  -6   6   7  324.57   36.60
   6  -6   7  330.67   32.50
   6   6  -7  351.66   33.10
   6   6  -7  338.87   34.30
  -6  -6  -7  397.46   34.70
   6  -6   7  335.17   33.40
   6  -6  -7  381.76   31.60
   6  -6  -7  372.46   31.70
  -6  -6   7  360.36   34.50
   6   6   7  353.86   31.30
   6  -6  -7  327.37   33.10
  -6  -6   7  382.86   34.80
   6   6   7  337.67   30.80
  -8  -6  -7   89.39   12.60
   8   6  -7  100.79   13.90
   8   6  -7  116.19   13.30
   8  -6   7  118.89   13.30
   8   6   7   93.89   11.90
   8  -6  -7  107.99   12.70
   1  -7   7   11.00    2.20
   1   7  -7   13.60    1.90
  -1   7   7   12.40    2.50
   1   7  -7   13.30    2.80
  -1  -7  -7   15.20    2.50
   1   7  -7   11.40    2.20
  -1  -7  -7   13.40    2.70
   1  -7   7   13.10    2.30
   1  -7   7   16.10    3.20
   1  -7   7   11.30    2.30
  -1  -7  -7   16.20    2.10
  -1   7   7   12.60    2.80
  -1   7  -7   11.60    2.60
  -1  -7   7   12.10    2.60
   1  -7  -7   16.20    2.70
  -1  -7   7    8.00    2.50
   1  -7  -7   11.60    2.10
  -1  -7   7   14.30    1.90
   1  -7  -7   10.70    2.40
   1   7   7   15.50    2.70
   1   7   7   13.00    2.60
   1   7   7   10.60    2.00
  -3  -7  -7   32.00    4.80
   3   7  -7   23.10    4.30
  -3  -7  -7   25.60    4.10
   3  -7   7   26.80    3.30
  -3   7   7   26.60    5.20
  -3   7   7   27.00    3.60
   3  -7   7   23.80    3.80
   3  -7   7   19.30    3.70
   3   7  -7   20.00    3.40
   3   7  -7   23.20    2.70
  -3   7  -7   27.20    4.30
   3   7   7   19.90    3.60
   3  -7  -7   29.10    4.60
  -3   7  -7   25.50    3.50
   3  -7  -7   24.10    4.00
   3  -7  -7   23.70    2.70
   3  -7  -7   28.50    4.40
  -3  -7   7   25.90    4.50
  -3  -7   7   17.60    8.00
   3   7   7   24.10    2.80
   5  -7   7    3.90    1.60
   5  -7   7    7.70    2.60
   5  -7   7    2.30    1.60
  -5  -7  -7    5.80    2.70
  -5   7   7    3.70    1.90
   5   7  -7    1.90    1.50
  -5  -7   7    5.00    2.20
   5   7   7    7.50    2.70
  -5   7  -7    2.80    1.60
   5   7   7    3.90    1.20
   5  -7  -7    5.50    2.20
   5  -7  -7    4.40    1.20
   5  -7  -7    5.00    1.00
   7  -7   7    0.70    1.00
   7   7  -7    0.00    0.60
   7  -7   7    0.70    1.00
  -7  -7  -7    0.10    1.20
  -7   7   7    2.70    2.40
   7   7  -7    0.40    1.20
  -7   7  -7    0.90    0.80
   7  -7  -7    1.20    1.10
   7   7   7    0.20    1.00
   9   7  -7    2.40    2.30
   9   7  -7    3.20    2.10
   9  -7  -7    0.50    1.20
   9   7   7    0.80    1.30
   0   8  -7  822.72   76.89
   0  -8   7  939.21   77.99
   0  -8   7  888.41   77.29
   0  -8  -7  925.71   76.99
   0  -8  -7  929.61   77.49
   0   8   7  877.91   77.19
   0   8   7  924.91   77.29
   2   8  -7  797.42   63.59
   2   8  -7  817.72   65.29
  -2  -8  -7  880.61   66.39
  -2  -8  -7  843.42   65.59
  -2  -8  -7  744.23   64.09
  -2   8   7  706.13   65.89
   2   8  -7  874.21   66.69
   2  -8   7  747.13   64.59
   2  -8   7  688.13   65.19
  -2   8   7  757.22   67.09
  -2   8   7  734.03   64.09
   2  -8  -7  682.43   65.29
   2  -8  -7  690.03   63.99
   2   8   7  659.23   64.09
  -2   8  -7  691.53   65.49
  -2   8  -7  675.53   64.49
  -2  -8   7  854.61   66.29
  -2  -8   7  763.12   63.99
   4  -8   7  431.16   37.30
   4  -8   7  451.05   41.90
   4  -8   7  363.06   38.00
  -4   8   7  450.45   41.70
  -4  -8  -7  359.26   38.90
   4  -8  -7  481.25   39.70
  -4   8  -7  464.85   39.40
  -4  -8   7  352.06   38.90
   4  -8  -7  490.65   39.20
   4   8   7  433.86   36.70
   6   8  -7  355.36   30.70
  -6   8   7  306.47   34.90
  -6  -8  -7  294.67   31.70
   6   8  -7  302.17   32.20
   6  -8   7  336.57   29.90
   6   8   7  374.06   31.40
   6  -8  -7  268.47   30.60
  -6  -8   7  409.36   33.50
   8   8  -7  107.59   14.60
  -8  -8  -7  107.79   14.00
   8  -8   7  121.29   13.90
  -8   8   7  121.59   17.50
   8   8   7  118.09   13.10
   8  -8  -7  100.79   12.80
   1   9  -7    3.50    1.50
  -1  -9  -7    1.10    0.80
  -1   9   7    1.10    0.90
  -1   9   7    2.30    1.10
  -1  -9  -7    1.60    1.00
   1  -9   7    2.50    1.10
   1  -9   7    1.80    1.00
  -1  -9  -7    1.70    0.90
   1  -9   7    1.70    1.40
   1   9  -7    4.00    1.70
   1  -9  -7    1.30    0.80
   1   9   7    1.10    0.90
  -1  -9   7    2.80    0.80
   1  -9  -7    2.00    1.00
  -1  -9   7    3.80    1.20
  -1   9  -7    1.80    1.20
   1   9   7    3.00    1.40
  -1   9  -7    1.90    1.00
   1  -9  -7    1.80    1.10
   1   9   7    1.40    0.90
  -1  -9   7    3.40    1.50
   3  -9   7    6.50    2.00
  -3  -9  -7    3.90    2.20
  -3   9   7    7.80    3.70
   3  -9   7    4.70    1.90
  -3  -9  -7    4.00    1.80
   3  -9   7    6.10    2.00
  -3  -9  -7    4.00    1.90
   3   9  -7    4.20    2.10
   3  -9  -7    4.70    2.10
   3   9   7    3.40    1.50
   3   9   7    5.20    1.50
  -3  -9   7    5.30    2.20
  -3   9  -7    2.80    1.50
   5   9  -7    0.40    0.60
  -5  -9  -7    2.60    1.20
   5   9  -7   -0.70    0.80
   5  -9   7   -0.70    0.80
  -5   9   7    0.80    1.40
   5  -9   7   -0.80    1.00
   5  -9   7    0.80    0.70
   5   9  -7    0.00    0.30
   5  -9  -7    0.60    0.90
  -5  -9   7    0.70    1.20
   5   9   7    0.40    0.80
   5   9   7   -0.80    0.70
  -5   9  -7    0.80    1.00
   7   9  -7    1.60    1.00
   7   9  -7    0.80    1.40
   7  -9   7    0.20    1.10
   7  -9   7    0.00    1.10
  -7   9   7    1.10    1.20
   7  -9  -7    1.80    1.70
  -7  -9   7    1.70    1.20
   7   9   7    1.10    1.00
  -9  -9  -7   -1.70    0.90
   9   9  -7   -0.70    2.50
   9  -9  -7   -1.80    0.90
   9   9   7    0.90    1.60
   0  10   7  750.02   63.19
   0 -10   7  831.02   63.29
   0  10  -7  764.32   62.79
   0  10  -7  600.84   63.29
   0  10   7  771.92   63.09
   0 -10  -7  796.02   63.09
   0 -10  -7  672.23   62.59
   0  10   7  622.04   63.29
   0 -10   7  743.03   62.19
   0 -10  -7  727.53   63.09
   2 -10   7 1188.48   95.69
  -2  10   7 1287.37   97.19
   2 -10   7 1017.40   96.29
   2 -10   7 1175.08   96.49
  -2  10   7  981.90   97.69
  -2 -10  -7 1168.18   96.99
  -2  10   7 1177.98   94.69
   2 -10  -7 1110.29   94.59
   2 -10  -7  953.10   95.99
   2  10   7 1160.78   95.49
  -2  10  -7 1109.99   96.59
   4 -10   7  154.38   17.30
  -4  10   7  182.08   20.40
   4  10  -7  187.58   19.20
  -4 -10  -7  156.18   18.00
   4 -10   7  182.98   16.80
  -4 -10   7  204.98   19.10
   4  10   7  196.58   17.50
   4  10   7  155.38   17.00
  -4  10  -7  173.68   18.10
   4 -10  -7  182.08   18.00
   6  10  -7  253.37   25.80
   6 -10   7  252.97   23.10
  -6 -10  -7  297.57   25.90
  -6  10   7  230.78   27.90
   6 -10  -7  226.38   23.90
  -6 -10   7  208.68   24.70
  -8 -10  -7  112.39   13.60
   8  10  -7  113.09   14.30
  -8  10   7   87.09   15.10
   8 -10  -7  106.79   12.30
   8  10   7   90.79   11.60
   1  11  -7    1.80    1.10
  -1  11   7    3.80    1.80
   1 -11   7    4.40    1.70
  -1 -11  -7    4.60    1.50
   1  11  -7    3.90    1.70
  -1 -11  -7    5.40    2.30
  -1  11   7    6.70    1.30
  -1  11   7    1.70    1.30
   1 -11   7    4.60    1.50
  -1 -11  -7    3.30    1.50
   1 -11  -7    4.90    1.90
   1  11   7    3.20    1.50
  -1  11  -7    8.50    2.60
  -1  11  -7    7.70    2.10
  -1 -11   7    3.20    0.70
   1  11   7    4.30    1.90
   1  11   7    6.00    2.30
   1 -11  -7    4.10    1.30
  -1 -11   7    4.50    1.70
   1 -11  -7    7.20    2.40
   3  11  -7   63.69    8.40
   3 -11   7   55.59    7.60
   3  11  -7   50.49    7.80
  -3 -11  -7   60.89    6.70
   3 -11   7   55.99    7.40
  -3  11   7   49.20    7.50
   3 -11   7   61.19    7.00
  -3  11   7   71.29    9.90
  -3 -11   7   71.49   10.00
   3 -11  -7   66.99    8.30
   3 -11  -7   70.09    8.00
   3  11   7   65.79    8.00
  -3 -11   7   47.40    7.40
   3  11   7   69.19    7.50
   3  11   7   62.49    6.70
  -3  11  -7   62.99    7.80
   5 -11   7   16.40    3.20
  -5  11   7   13.00    4.80
   5  11  -7    8.60    3.50
   5 -11   7   20.70    4.20
  -5 -11  -7   24.30    4.10
   5  11   7   12.60    2.60
   5 -11  -7   19.70    3.80
  -5 -11   7    9.10    3.60
   5  11   7   21.30    3.50
   7  11  -7   -0.20    1.40
  -7  11   7   -1.80    2.20
   7 -11   7   -0.30    1.20
  -7 -11  -7    1.90    1.90
  -7 -11   7   -1.10    1.00
   7  11   7    0.90    0.90
   9  11  -7    3.10    2.40
   9  11   7   -1.20    1.50
   9 -11  -7    8.70    3.10
   0  12  -7  475.35   43.80
   0  12   7  474.75   43.00
   0  12   7  511.95   43.20
   0 -12  -7  460.55   42.90
   0 -12  -7  512.75   42.80
   0 -12   7  516.65   42.20
   0  12   7  452.95   43.70
   0 -12  -7  482.05   43.00
  -2  12   7  767.52   64.49
  -2 -12  -7  727.93   62.49
  -2 -12  -7  764.92   61.19
   2  12  -7  580.64   62.29
  -2  12   7  658.13   62.19
   2 -12   7  668.73   62.19
   2 -12   7  655.33   61.19
   2 -12   7  775.62   62.39
   2 -12  -7  615.84   62.49
   2 -12  -7  750.32   61.99
   2  12   7  686.83   61.09
  -2 -12   7  785.82   62.59
   2  12   7  706.03   61.89
  -2  12  -7  772.22   62.39
   4 -12   7  315.77   28.40
   4 -12   7  302.37   29.20
   4  12  -7  256.57   30.00
  -4 -12  -7  355.76   30.40
  -4  12   7  353.76   33.10
   4  12   7  285.67   27.80
  -4  12  -7  320.67   29.80
  -4 -12   7  324.77   30.10
   4 -12  -7  273.27   29.00
   4  12   7  338.57   28.80
   6 -12   7  239.58   22.30
  -6 -12  -7  233.38   24.00
   6 -12  -7  238.38   23.20
  -6 -12   7  207.68   23.80
   6  12   7  233.48   22.50
  -8 -12  -7   80.29   11.90
   8 -12   7  100.69   12.40
   8  12   7   97.29   11.50
   8 -12  -7   82.59   11.00
  -1  13   7    0.90    0.90
  -1 -13  -7    0.70    0.80
  -1  13   7    1.00    1.10
   1 -13   7    0.50    0.80
   1 -13   7    2.20    1.10
  -1 -13  -7    0.00    0.60
   1 -13   7    1.00    1.00
   1 -13   7    0.90    1.30
   1  13  -7    3.50    1.70
  -1 -13  -7    0.90    0.70
  -1  13   7    1.40    1.40
   1  13   7    0.70    0.90
  -1  13  -7    2.30    1.20
  -1 -13   7    1.60    1.10
   1 -13  -7    1.90    0.80
   1 -13  -7    1.30    1.10
   1  13   7    0.60    1.30
   1  13   7    1.30    0.90
  -1  13  -7    1.80    0.80
   1 -13  -7    0.40    0.70
  -3 -13  -7   79.79   10.10
  -3  13   7   74.89   11.10
   3 -13   7   68.59    9.50
  -3 -13  -7   70.19   11.90
   3 -13   7   90.29    9.30
   3 -13   7   98.09   10.50
  -3 -13   7   78.59    9.90
  -3  13  -7   91.39   10.30
   3 -13  -7   96.69    9.90
   3  13   7   80.79    8.80
   3  13   7   80.39    9.30
   5 -13   7   10.60    4.00
   5  13  -7    7.90    3.60
  -5  13   7    5.70    3.80
  -5 -13  -7    5.80    2.70
   5 -13   7    8.80    2.80
  -5 -13   7    4.40    2.40
   5  13   7    6.70    2.40
  -5  13  -7    3.40    2.20
   5 -13  -7    9.50    2.90
   7 -13   7    1.20    1.10
   7 -13   7    2.30    1.30
  -7 -13  -7    2.30    1.60
  -7  13   7   -0.50    1.60
   7  13   7    2.50    1.60
   0  14   7  572.04   52.69
   0  14  -7  593.34   52.59
   0 -14  -7  605.54   51.69
   0  14   7  572.34   51.59
   0 -14  -7  654.33   51.49
   0 -14   7  584.34   50.59
   0  14   7  513.35   51.39
   0 -14   7  591.04   51.59
  -2  14   7  102.09   11.40
   2 -14   7  100.29   11.20
   2 -14   7   93.79   10.40
   2  14  -7  120.19   12.40
  -2  14   7   86.79   12.30
  -2 -14  -7   99.99   11.40
   2 -14   7  101.99   11.50
  -2  14  -7   88.09   10.90
   2  14   7   97.29   10.40
   2  14   7  106.79   11.30
   2 -14  -7  103.29   10.90
  -2 -14   7   88.99   10.90
  -4 -14  -7  713.83   70.59
  -4  14   7  856.81   74.19
   4 -14   7  846.82   69.59
   4  14  -7  879.41   72.19
   4  14   7  873.61   69.89
   4  14   7  734.73   68.79
  -4  14  -7  736.13   69.79
   4 -14  -7  755.52   69.79
   6 -14   7  151.98   15.10
   6 -14   7  107.69   15.50
  -6 -14  -7  149.19   16.70
  -6  14   7  126.99   18.70
  -6  14  -7  154.58   17.50
  -6 -14   7  166.58   17.40
   6 -14  -7  132.29   15.30
   6  14   7  166.48   15.70
   8 -14   7  115.59   14.70
   8  14  -7  123.69   16.30
   8  14   7  134.49   14.00
   8 -14  -7  104.39   13.40
   1 -15   7  110.59   10.80
  -1 -15  -7   96.99   10.20
  -1  15   7  107.49   12.50
   1  15  -7  102.89   11.60
   1 -15   7   87.89   10.30
   1 -15   7  100.89   11.60
  -1  15   7   82.99   10.60
  -1 -15  -7   97.69   11.00
   1 -15   7   92.49   11.40
   1  15   7  108.89   11.50
   1  15   7   83.19   10.20
   1 -15  -7   89.69   10.40
  -1 -15   7  110.19   11.20
   1  15   7   91.09   11.00
  -1  15  -7   97.09   11.10
  -3  15   7  204.98   21.60
  -3 -15  -7  171.88   17.60
   3 -15   7  167.68   18.80
   3 -15   7  183.88   18.00
   3 -15   7  156.68   19.90
   3 -15   7  155.38   18.40
   3  15  -7  211.88   20.00
  -3 -15  -7  185.08   19.10
   3  15   7  182.18   17.70
   3  15   7  185.18   18.40
   3 -15  -7  184.18   18.30
  -3 -15   7  216.98   19.50
  -3  15  -7  195.08   19.10
  -5 -15  -7   44.10    6.80
   5 -15   7   32.60    5.40
   5 -15   7   46.30    7.00
  -5  15   7   31.10    7.30
   5  15  -7   31.10    6.70
   5  15   7   38.90    5.70
   5 -15  -7   34.70    5.50
  -5 -15   7   34.20    6.30
   7 -15   7   10.80    3.30
  -7  15   7    4.60    4.70
   7 -15   7    7.40    3.40
   7 -15  -7   11.10    3.80
   7  15   7    9.10    3.30
   0 -16   7  186.18   17.70
   0 -16  -7  180.48   17.20
   0  16   7  142.39   17.20
   0  16  -7  181.68   18.50
   0  16   7  202.78   19.40
   2 -16   7  548.95   53.09
  -2 -16  -7  582.34   52.89
  -2  16   7  564.54   54.49
  -2 -16  -7  604.64   51.69
   2 -16   7  571.44   52.49
   2  16  -7  667.63   53.89
   2 -16   7  561.24   51.69
   2  16   7  530.25   52.19
  -2  16  -7  615.54   52.89
   2 -16  -7  628.24   52.29
   4 -16   7  174.58   18.50
   4 -16   7  161.28   16.70
  -4 -16  -7  182.08   18.60
   4  16  -7  177.08   18.90
  -4  16   7  189.28   21.20
   4 -16  -7  157.78   17.10
   4  16   7  157.68   16.60
  -4 -16   7  169.78   18.10
   4  16   7  157.68   17.00
  -6 -16  -7  196.68   22.00
   6 -16   7  242.48   22.90
   6 -16   7  214.58   20.70
  -6  16   7  197.58   25.10
   6 -16  -7  201.08   20.80
  -6 -16   7  172.28   21.50
   6  16   7  210.88   20.80
   8 -16   7   69.49   10.00
  -8  16   7   62.69   11.40
   8  16  -7   66.69   10.40
   8 -16  -7   42.70    7.70
   8  16   7   51.99    7.90
   1 -17   7    6.10    2.20
   1  17  -7    8.60    3.00
  -1 -17  -7    8.40    2.60
  -1  17   7    9.10    4.10
   1 -17   7    6.60    2.30
  -1  17   7    5.60    2.30
  -1  17  -7   10.70    3.20
   1 -17  -7    7.20    2.40
   1  17   7    5.00    2.40
   1  17   7    3.10    2.10
  -1 -17   7    5.50    2.20
  -3 -17  -7    2.60    1.40
   3 -17   7    5.00    2.20
  -3 -17  -7    3.30    1.90
   3  17  -7    0.20    1.00
  -3  17   7    4.70    2.90
   3 -17  -7    7.60    2.40
   3  17   7    3.00    1.80
  -3 -17   7    8.10    2.90
   3  17   7    3.10    1.80
   5 -17   7    0.00    0.90
   5 -17   7    4.00    2.10
  -5  17   7    4.60    2.70
  -5 -17  -7    1.10    1.20
  -5 -17  -7   -1.10    1.00
   5  17  -7   -0.20    1.60
   5  17   7    0.90    1.00
  -5 -17   7    1.90    1.40
   5 -17  -7    1.10    1.00
  -7  17   7    1.60    2.80
   7 -17   7   -2.30    1.20
   7 -17  -7    0.10    1.10
   7  17   7    0.30    1.10
   0  18  -7  473.85   40.10
   0 -18  -7  421.16   38.20
   0  18   7  460.05   40.70
   0 -18   7  449.95   37.60
   0 -18   7  355.56   38.10
   0 -18   7  402.16   38.10
   2 -18   7  254.87   25.40
   2 -18   7  237.18   24.50
  -2 -18  -7  274.87   24.70
  -2  18   7  276.97   28.00
   2 -18   7  255.17   26.60
   2  18   7  272.17   25.70
   2  18   7  249.68   24.60
  -2  18  -7  256.07   26.10
   2 -18  -7  253.07   24.70
  -2 -18   7  279.67   25.40
   4 -18   7  204.28   20.00
  -4  18   7  201.48   23.50
  -4 -18   7  159.58   20.10
   4 -18  -7  220.18   20.40
   4  18   7  214.28   20.70
   6 -18   7   81.69   12.20
   6 -18   7  108.89   11.60
  -6  18   7  102.29   15.50
   6  18   7   93.09   11.30
   6 -18  -7   88.39   11.20
  -6 -18   7   95.39   12.30
   1 -19   7    8.10    2.70
   1 -19   7   10.90    3.40
   1  19  -7   16.40    3.60
   1 -19   7   12.70    3.80
  -1  19   7   18.50    5.80
  -1 -19  -7   14.40    3.00
  -1 -19   7   18.30    3.60
   1  19   7   15.70    4.80
  -1  19  -7   16.80    3.60
  -3  19   7   10.60    3.80
   3  19  -7    3.80    1.90
   3 -19   7    8.10    2.50
  -3 -19   7   12.50    3.40
   3 -19  -7    5.70    2.20
   3  19   7   13.30    3.70
  -5  19   7    9.90    5.30
   5 -19   7    3.80    1.80
   5  19  -7    2.70    1.70
   5 -19   7    1.50    1.80
   5 -19  -7    4.60    2.10
  -5 -19   7    5.70    2.30
   5  19   7    4.80    2.20
   7  19  -7    1.70    2.10
   7 -19   7    4.00    1.90
   7  19   7    2.40    2.00
   7  19   7    5.70    3.90
  -7 -19   7   -1.30    1.20
   0 -20  -7  197.18   20.20
   0  20  -7  211.38   21.70
   0  20   7  198.78   22.50
   0 -20   7  231.28   21.00
  -2 -20  -7  257.97   24.40
   2 -20   7  237.48   24.30
   2  20  -7  225.18   25.30
   2 -20   7  251.47   25.30
  -2  20   7  278.27   28.10
   2  20   7  249.68   25.70
   2 -20  -7  247.98   24.30
  -2 -20   7  297.57   25.50
   4 -20   7  160.48   15.90
   4  20  -7  163.28   17.60
  -4  20   7  146.99   19.00
   4  20   7  164.78   16.50
  -4 -20   7  112.99   15.60
   4 -20  -7  129.79   15.30
   4  20   7  158.58   19.10
   6 -20   7  136.39   15.50
   6 -20   7  120.19   13.70
   6  20  -7   90.89   14.10
  -6  20   7  132.69   18.10
   6  20   7  123.19   14.10
   6 -20  -7  116.89   13.30
  -6 -20   7   98.99   14.20
   6  20   7  139.79   16.80
  -1  21   7    1.40    1.20
   1 -21   7    1.30    1.30
   1 -21   7    1.10    0.90
  -1 -21   7    3.40    1.80
   1  21   7    1.90    1.60
  -3  21   7    3.40    2.10
   3 -21   7    2.00    2.00
   3  21  -7    2.90    1.50
  -3  21  -7   -0.20    1.00
   3  21   7    1.60    1.90
   3 -21  -7    2.40    1.50
   3  21   7    4.90    2.10
   5  21  -7   -1.00    1.50
   5 -21   7    2.30    1.50
  -5  21   7    4.00    2.70
   5 -21  -7    0.40    0.70
   5  21   7    1.60    2.50
  -5 -21   7    1.30    2.10
   5  21   7    0.30    1.50
   7 -21   7   -0.20    1.50
   7 -21  -7    0.60    1.00
   0  22   7  264.77   29.40
   0  22  -7  300.47   28.50
   0 -22   7  285.37   27.20
   0 -22  -7  281.87   26.80
   2  22  -7  182.08   19.20
  -2  22   7  178.38   21.10
   2 -22   7  193.68   18.10
  -2 -22   7  140.19   17.60
   2  22   7  152.28   19.90
   2 -22  -7  178.18   17.70
   2  22   7  185.18   19.70
  -2  22  -7  178.58   18.80
  -4  22   7  103.89   15.50
   4 -22   7  105.19   12.50
   4  22  -7  129.09   14.70
   4  22   7  115.99   13.50
   4 -22  -7  126.19   12.90
  -4 -22   7   88.49   12.60
   6 -22   7   62.29    9.00
   6  22   7   72.99   10.40
   6 -22  -7   78.39    9.60
   6  22   7   81.49   12.10
  -1  23   7    5.00    3.50
   1  23  -7    3.60    3.20
   1 -23   7   12.00    3.60
   1  23   7    9.30    5.00
  -1 -23   7    8.90    3.00
  -1  23  -7   17.60    3.60
   1 -23  -7   11.90    3.50
   1  23   7   12.70    4.60
  -3  23   7   -0.40    1.70
   3 -23   7    1.20    1.40
   3  23  -7    3.70    1.70
  -3 -23   7    4.70    2.20
   3 -23  -7    0.90    1.00
   3  23   7    3.90    2.60
   5  23  -7    5.20    2.40
  -5  23   7    4.50    3.40
   5 -23   7    3.20    2.00
  -5 -23   7   15.10    4.00
   5 -23  -7    4.60    1.70
   5  23   7    3.50    1.80
   0 -24   7  295.47   28.70
   0  24  -7  293.27   30.20
   0 -24  -7  312.77   28.50
   0  24   7  291.47   31.30
  -2  24   7   75.29   12.10
   2 -24   7   67.99   10.20
   2  24  -7   71.99   10.10
   2 -24   7   64.99    9.00
   2  24   7   83.59   11.40
   2 -24  -7   73.89    9.10
  -2 -24   7   77.79    9.80
   4 -24   7  109.89   13.10
  -4  24   7  144.39   17.60
   4  24  -7   96.79   13.90
  -4 -24   7  115.29   14.00
   4 -24  -7  105.09   12.90
   4  24   7  146.79   15.70
   6 -24   7   30.40    5.80
   6  24  -7   22.70    9.00
   6 -24  -7   38.40    5.90
  -1  25   7    0.60    2.20
   1 -25   7    3.40    2.00
   1  25   7    4.00    2.60
   1 -25  -7    1.40    1.20
  -1 -25   7    2.70    1.80
   3  25  -7   -0.10    1.60
   3 -25   7    0.60    1.10
  -3  25   7   -2.00    1.70
   3 -25  -7    1.60    0.80
  -3 -25   7    0.60    0.90
   3  25   7   -1.80    1.30
   5 -25   7    0.10    1.50
  -5  25   7    1.70    2.10
   5  25  -7   -2.00    1.10
   5 -25  -7   -0.50    1.00
  -5 -25   7   -2.60    1.30
   0  26   7  114.89   15.40
   0 -26   7   89.99   11.80
   0 -26  -7  108.39   12.00
  -2  26   7  122.69   16.80
   2 -26   7  126.09   14.80
   2 -26   7  104.79   13.20
   2  26   7  123.29   15.90
  -2 -26   7  120.39   13.90
   4 -26   7   59.19    8.00
  -4  26   7   49.00   10.00
   4 -26   7   58.99   10.00
   4  26  -7   46.30    8.50
  -4 -26   7   53.99    8.30
   4 -26  -7   51.59    7.50
   4  26   7   53.19    9.50
  -1  27   7    2.70    2.90
   1 -27   7    3.30    1.70
   1  27   7    2.00    2.50
  -1 -27   7    1.10    1.70
   3 -27   7    5.50    2.30
   3 -27   7    2.30    2.10
  -3  27   7    0.00    2.20
   3  27  -7    2.30    1.90
   3  27   7    5.10    3.40
  -3 -27   7    6.50    2.90
   3 -27  -7    0.90    1.00
   0 -28   7   90.69   10.60
   0  28   7   64.79   12.30
  -2  28   7   57.79   11.60
   2 -28   7   70.39    9.20
   2  28   7   71.29   11.40
  -2 -28   7   76.19    9.90
   1 -29   7   -1.60    0.80
  -1  29   7    4.50    3.90
   1  29   7    0.90    2.00
  -3  29   7    0.20    2.80
   3 -29   7    4.10    1.80
   3 -29  -7    4.30    2.30
  -3 -29   7   -2.00    1.50
   0  30   7   45.60   10.30
   0 -30   7   52.69    7.60
  -2  30   7   41.90   11.40
   0   0   8 1468.35  110.99
   0   0  -8 1142.09  110.99
  -2   0   8  794.52   70.09
  -2   0   8  799.52   70.09
   2   0  -8  860.61   70.09
  -2   0   8  803.72   70.19
   2   0  -8  806.42   69.49
   2   0  -8  883.41   69.29
  -2   0  -8  695.13   69.89
   4   0  -8  709.23   59.29
   4   0   8  649.74   58.69
   4   0  -8  649.34   58.19
  -4   0   8  725.23   59.99
  -4   0  -8  593.64   58.99
  -4   0   8  709.53   60.79
   4   0  -8  638.14   58.19
   6   0  -8  208.38   19.80
   6   0   8  153.08   18.10
   6   0  -8  173.58   18.70
   6   0  -8  157.68   18.90
   6   0  -8  194.88   19.10
  -6   0   8  202.28   22.20
  -6   0  -8  205.58   20.00
  -8   0   8  167.68   23.00
   8   0  -8  138.29   16.90
   8   0  -8  160.68   18.00
   1   1  -8    0.80    0.60
  -1  -1  -8    1.20    0.50
  -1   1   8    0.60    0.60
  -1  -1  -8    1.10    0.50
   1  -1   8    0.10    0.60
   1  -1   8    0.00    0.70
   1   1  -8    0.30    0.50
  -1   1   8    1.30    0.90
  -1  -1  -8    0.30    0.70
   1  -1   8   -0.50    0.40
  -1  -1  -8    0.70    0.70
   1   1  -8   -0.50    0.40
   1  -1  -8   -0.60    0.30
   1  -1  -8    0.40    0.60
  -1  -1   8    0.50    0.70
  -1  -1   8    0.80    0.60
  -1   1  -8    0.50    0.50
   1   1   8    0.20    0.60
  -1   1  -8   -0.40    0.30
  -1  -1   8    0.80    0.70
  -1   1  -8    0.40    0.60
   1  -1  -8    0.10    0.60
   1   1   8    1.00    0.60
  -3   1   8    0.50    1.30
  -3   1   8   -0.50    0.60
  -3  -1  -8    0.30    0.70
   3   1  -8    0.30    0.70
   3   1  -8    0.00    0.60
   3  -1   8    0.30    0.70
   3   1  -8   -0.20    0.50
   3   1   8    0.20    0.60
   3  -1  -8   -0.70    0.40
   3  -1  -8    0.80    0.70
  -3   1  -8   -0.40    0.60
   3  -1  -8    1.40    0.70
  -3  -1   8    1.20    1.10
  -3  -1   8    3.90    1.50
   5   1  -8   -0.90    0.70
  -5   1   8   -0.10    1.20
   5  -1   8   -0.50    0.70
  -5  -1  -8   -0.50    1.00
   5   1  -8   -0.70    0.80
   5   1  -8    0.40    0.80
  -5   1  -8   -0.70    0.60
   5  -1  -8    0.00    0.70
   5  -1  -8    0.80    0.90
  -5  -1   8    0.00    1.20
   5  -1  -8    0.10    0.80
   5   1   8    0.00    0.90
   5  -1  -8    0.10    0.90
   7   1  -8    2.10    1.50
   7  -1   8    1.30    1.10
   7   1  -8    0.40    0.90
   7  -1  -8    3.00    1.90
  -7   1  -8    1.00    1.10
   7   1   8    0.50    1.10
   7  -1  -8   -0.40    0.90
   9  -1   8    0.70    1.40
   9  -1  -8    2.90    1.50
   9   1   8   -0.20    1.40
   0  -2  -8 2579.94  219.68
   2   2  -8  669.23   56.29
  -2   2   8  717.43   58.39
   2   2  -8  666.93   57.29
   2  -2   8  638.34   55.69
   2  -2   8  692.43   57.29
  -2  -2  -8  578.44   57.49
  -2   2   8  632.74   57.09
   2   2   8  674.53   57.39
   2  -2  -8  566.04   57.39
   2   2   8  754.62   57.29
  -2  -2   8  642.84   57.39
  -2  -2   8  703.33   57.99
  -2   2  -8  693.43   57.79
   2  -2  -8  665.63   56.79
  -2   2  -8  639.74   57.69
   2  -2  -8  622.04   57.39
   2  -2  -8  615.64   56.79
  -2  -2   8  667.03   57.89
  -2   2  -8  652.23   55.49
   4  -2   8  842.92   63.49
   4   2  -8  656.13   62.79
   4  -2   8  762.02   63.19
  -4  -2  -8  844.62   64.49
   4   2  -8  669.63   62.19
  -4   2   8  769.82   65.59
  -4  -2  -8  617.74   63.29
   4   2  -8  745.53   64.79
   4  -2   8  793.32   66.29
   4  -2  -8  835.02   64.09
  -4  -2   8  644.74   63.39
   4  -2  -8  661.03   62.69
   4   2   8  629.04   62.49
   4  -2  -8  598.94   62.99
   4  -2  -8  720.53   62.19
  -4  -2   8  685.13   64.29
  -4   2  -8  776.02   63.79
  -4  -2   8  714.43   64.49
  -6   2   8  178.08   20.10
   6  -2   8  120.09   15.50
   6   2  -8  147.99   16.20
   6   2  -8  155.38   16.50
   6  -2   8  160.38   13.60
   6  -2   8  150.38   13.80
  -6  -2  -8  142.59   16.70
   6   2  -8  162.28   16.70
   6  -2  -8  191.08   17.10
   6   2   8  117.29   15.30
  -6  -2   8  168.98   18.80
   6  -2  -8  142.09   15.60
   6  -2  -8  158.78   15.80
   8   2  -8  205.88   21.90
   8  -2   8  206.38   21.30
   8   2  -8  173.18   21.80
   8  -2  -8  225.38   21.90
   8  -2  -8  186.18   21.90
   8   2   8  228.28   21.70
   1  -3   8    8.60    2.00
  -1  -3  -8   11.20    2.20
   1   3  -8    9.00    1.90
  -1   3   8    8.80    1.90
  -1  -3  -8   10.90    1.60
  -1  -3  -8   12.20    2.60
   1  -3   8    9.90    1.80
   1  -3   8   10.40    2.10
  -1  -3  -8    7.60    1.50
   1   3  -8   12.30    2.40
   1   3  -8    8.30    1.70
  -1   3   8    9.80    2.70
   1  -3  -8   10.80    2.00
   1  -3  -8   10.20    2.20
  -1   3  -8   15.70    2.70
  -1  -3   8   11.80    3.00
   1  -3  -8   11.60    2.20
   1   3   8   10.40    2.20
  -1  -3   8    8.20    1.90
  -1   3  -8   13.60    2.30
  -1  -3   8   11.20    2.40
   1  -3  -8   10.00    2.00
   3   3  -8   19.40    2.90
   3  -3   8   19.90    2.20
   3   3  -8   15.90    3.20
   3  -3   8   25.20    3.80
   3   3  -8   17.50    3.40
  -3   3   8   21.40    4.30
  -3  -3  -8   29.40    4.40
   3  -3  -8   17.70    2.80
   3   3   8   14.30    3.00
  -3  -3   8   20.20    3.70
  -3   3  -8   21.10    2.30
   3  -3  -8   18.10    3.50
   3  -3  -8   14.70    3.40
  -3  -3   8   17.90    3.90
  -3  -3   8   22.90    4.10
  -3   3  -8   19.60    3.70
   3  -3  -8   14.50    3.00
   5  -3   8    3.50    1.00
  -5   3   8    3.50    2.50
   5   3  -8    3.40    2.00
   5  -3   8    2.50    1.70
   5   3  -8    2.90    1.50
  -5  -3  -8    3.50    2.00
   5   3  -8    2.70    1.30
   5  -3   8    4.20    1.10
  -5   3  -8    3.50    2.00
   5  -3  -8    0.90    0.90
  -5  -3   8    1.70    1.70
   5  -3  -8    2.10    1.10
   5  -3  -8    1.60    1.10
   5   3   8    1.80    1.40
   5  -3  -8    4.80    2.30
   7   3  -8    1.30    1.90
   7  -3   8    1.00    1.40
  -7   3   8    3.30    2.30
   7  -3   8    4.00    2.20
  -7  -3  -8    2.20    1.80
  -7   3  -8    1.50    1.20
   7  -3  -8    2.10    1.60
  -7  -3   8    1.90    2.10
   7  -3  -8   -1.60    1.10
   7   3   8    2.60    1.70
   9   3  -8    0.90    2.10
   9   3  -8    1.50    1.50
   9   3   8   -0.30    1.30
   9  -3  -8    0.40    1.40
   0   4  -8  924.01   81.69
   0  -4  -8 1045.40   82.39
   0  -4   8  916.41   81.79
   0   4   8  945.41   81.79
  -2  -4  -8  785.02   70.69
   2  -4   8  798.72   70.09
  -2   4   8  845.02   71.39
  -2   4   8  786.82   70.09
   2  -4   8  803.02   68.89
   2   4  -8  818.12   70.39
  -2  -4   8  805.32   71.09
   2  -4  -8  701.13   70.09
  -2  -4   8  840.82   70.79
  -2  -4   8  777.22   69.89
  -2   4  -8  936.31   70.99
   2  -4  -8  792.72   69.99
   2  -4  -8  818.92   69.49
   2  -4  -8  857.71   70.79
   4   4  -8  553.14   49.40
  -4   4   8  538.65   52.59
   4   4  -8  549.15   50.19
   4   4  -8  594.54   50.89
  -4  -4  -8  587.74   51.29
   4  -4   8  586.74   48.20
  -4  -4   8  488.85   50.69
   4  -4  -8  548.75   50.29
   4  -4  -8  545.85   49.00
  -4   4  -8  524.05   50.59
   4  -4  -8  586.94   51.19
   4  -4  -8  642.64   51.09
  -4  -4   8  613.54   51.59
  -6   4   8  301.37   31.70
   6   4  -8  269.27   27.50
   6  -4   8  291.37   25.50
   6  -4   8  307.17   28.20
  -6  -4  -8  314.17   29.10
   6   4  -8  265.27   28.30
  -6  -4   8  269.27   28.60
   6  -4  -8  275.37   26.50
   6  -4  -8  306.27   29.00
  -6  -4   8  284.17   29.70
   6   4   8  273.47   27.40
  -6   4  -8  333.47   29.50
   6  -4  -8  278.17   27.80
   8  -4   8  104.59   14.10
   8   4  -8   93.89   14.30
   8   4  -8  127.59   15.90
   8  -4  -8  157.68   15.40
   8   4   8  149.49   14.80
  -1  -5  -8    3.20    1.40
  -1  -5  -8    2.90    1.40
  -1  -5  -8    4.80    1.00
  -1   5   8    2.10    1.00
   1   5  -8    4.50    1.50
   1  -5   8    3.30    1.20
   1  -5   8    2.80    1.20
   1   5  -8    4.50    1.40
  -1   5   8    3.40    1.40
   1   5  -8    7.20    2.40
  -1   5  -8    3.90    1.60
   1   5   8    3.50    1.30
  -1   5  -8    2.00    1.10
  -1  -5   8    7.40    2.40
   1  -5  -8    2.10    1.20
  -1  -5   8    3.20    1.40
   1  -5  -8    4.80    1.70
  -1   5  -8    3.10    1.00
   1   5   8    3.80    1.60
   1  -5  -8    3.70    1.20
   1  -5  -8    4.70    1.60
   3   5  -8   32.10    3.70
   3   5  -8   20.70    4.10
   3  -5   8   24.10    4.40
   3   5  -8   44.20    5.60
  -3   5   8   23.10    5.10
  -3   5   8   34.20    4.50
  -3  -5  -8   41.30    5.30
   3  -5   8   30.70    7.90
   3  -5   8   32.30    3.60
  -3  -5  -8   30.30    5.10
  -3   5  -8   37.10    5.40
   3  -5  -8   32.00    4.70
   3  -5  -8   34.00    5.20
   3  -5  -8   32.20    3.90
  -3  -5   8   25.50    4.60
   3  -5  -8   31.40    4.80
  -3  -5   8   32.80    4.80
   5  -5   8   -0.70    0.50
  -5   5   8    3.10    1.60
  -5  -5  -8    0.80    0.80
   5   5  -8    0.50    0.90
   5  -5   8    0.40    1.40
   5   5  -8    1.80    1.20
   5  -5   8    0.30    1.10
  -5  -5   8    1.60    1.50
   5  -5  -8    1.00    0.70
   5  -5  -8    1.40    0.90
   5   5   8    1.10    1.10
  -5   5  -8   -0.50    0.50
   5  -5  -8    0.80    0.80
   7   5  -8   -0.70    1.20
   7  -5   8   -1.60    0.80
   7  -5   8   -0.30    0.90
   7   5   8   -0.60    0.70
  -7  -5   8   -0.70    1.30
   7  -5  -8    2.10    1.40
   7  -5  -8   -1.00    0.90
  -7   5  -8    2.00    1.30
   9   5  -8   -1.20    2.00
   9   5  -8    0.90    1.30
   9  -5  -8    0.60    1.40
   9   5   8    0.80    1.20
   0   6   8  606.14   53.89
   0  -6  -8  680.43   54.09
   0  -6  -8  595.34   53.59
   0   6   8  599.34   54.39
   0  -6   8  625.54   53.39
   0  -6   8  640.54   54.09
   0  -6  -8  607.14   54.09
   0   6  -8  621.14   53.79
   2   6  -8  702.13   54.99
  -2  -6  -8  615.04   54.89
   2   6  -8  579.64   52.59
   2  -6   8  682.73   53.19
  -2   6   8  544.85   55.09
   2  -6   8  635.24   56.39
   2   6  -8  663.43   54.09
  -2  -6  -8  596.94   52.39
   2  -6  -8  592.84   54.59
  -2  -6   8  618.34   53.49
   2  -6  -8  670.53   53.39
   2  -6  -8  625.34   54.29
  -2  -6   8  517.45   54.29
   4  -6   8  588.44   51.49
  -4  -6  -8  616.14   52.19
   4  -6   8  493.65   50.69
   4  -6   8  491.05   53.49
   4   6  -8  540.55   51.59
   4  -6   8  603.44   49.50
  -4   6   8  558.94   53.79
   4  -6  -8  582.04   49.30
   4  -6  -8  615.84   51.59
   4  -6  -8  627.94   51.69
   4  -6  -8  557.44   49.60
  -4  -6   8  599.44   51.69
  -4   6  -8  595.64   51.99
   6  -6   8  352.66   30.90
  -6  -6  -8  341.87   33.70
   6   6  -8  305.47   33.30
  -6   6   8  371.66   37.30
   6   6   8  378.76   32.50
  -6  -6   8  380.36   35.80
   6  -6  -8  368.26   33.10
  -6  -6   8  285.47   33.10
   6  -6  -8  346.77   30.80
  -8  -6  -8  116.99   15.50
   8   6  -8  130.59   16.70
   8  -6   8  149.09   15.70
   8   6  -8  142.69   16.50
   8  -6  -8  152.78   15.60
   8   6   8  111.89   14.20
   1  -7   8    1.80    1.20
   1   7  -8    3.70    1.20
  -1   7   8    2.70    1.50
   1  -7   8    2.70    1.20
  -1  -7  -8    2.00    1.10
  -1  -7  -8    2.80    1.00
   1   7  -8    4.30    1.30
  -1   7   8    2.30    1.00
   1  -7   8    2.00    1.50
  -1  -7  -8    1.10    0.70
   1   7  -8    1.60    1.20
   1   7   8    2.20    1.10
  -1  -7   8    2.30    1.50
  -1  -7   8    2.90    1.00
  -1   7  -8    2.50    1.00
   1   7   8    3.30    1.40
  -1  -7   8    2.30    1.40
  -1   7  -8    3.10    1.40
   1  -7  -8    1.40    1.00
   1   7   8    2.70    1.10
   1  -7  -8    0.60    0.70
   3   7  -8   41.00    4.10
   3   7  -8   36.30    5.60
   3  -7   8   36.70    4.40
  -3   7   8   35.40    6.30
  -3  -7  -8   36.70    3.80
  -3  -7  -8   44.70    5.80
   3  -7   8   40.80    5.40
   3   7  -8   23.70    7.00
   3  -7   8   38.60    5.50
  -3  -7  -8   35.50    5.70
   3  -7   8   37.10    8.60
   3  -7  -8   28.60    5.00
   3  -7  -8   37.50    5.40
  -3   7  -8   42.70    5.80
   3  -7  -8   43.10    4.40
  -3  -7   8   33.50    5.60
   3   7   8   42.00    3.90
  -3  -7   8   28.10    5.80
  -5   7   8    2.30    2.70
   5  -7   8    0.40    0.60
   5   7  -8    0.20    0.80
  -5  -7  -8   -0.20    0.90
   5  -7   8   -0.60    0.60
   5   7  -8    1.00    1.60
  -5  -7   8    1.00    1.10
   5   7   8    0.20    0.90
  -5  -7   8    1.00    1.30
   5  -7  -8    0.80    0.50
  -5   7  -8    1.40    1.00
   5  -7  -8   -0.10    0.50
   5  -7  -8   -0.50    0.50
   7   7  -8    0.30    1.00
   7  -7   8   -0.20    0.90
  -7  -7  -8    1.30    0.80
  -7   7   8    2.90    2.40
   7  -7   8   -0.10    0.50
   7  -7  -8    2.20    1.20
  -7  -7   8   -0.40    1.40
   7   7   8   -0.20    0.60
   9   7  -8    3.20    2.50
  -9  -7  -8    1.30    1.70
   9  -7  -8   -0.20    1.00
   9   7   8   -0.40    1.00
   0  -8  -8  496.05   45.30
   0   8  -8  546.25   45.00
   0  -8   8  494.45   45.10
   0   8   8  501.55   45.00
   0  -8  -8  511.65   44.80
   0   8   8  484.15   45.00
   0  -8   8  544.15   44.50
   0   8  -8  535.05   45.90
  -2  -8  -8 1473.65  118.69
  -2   8   8 1418.96  116.69
   2  -8   8 1245.08  127.39
  -2  -8   8 1206.98  119.19
   2  -8  -8 1371.96  117.89
   2  -8  -8 1526.65  116.79
  -2   8  -8 1358.56  118.29
  -4  -8  -8  136.99   16.50
  -4   8   8  157.28   18.50
   4  -8   8  142.19   15.70
   4   8  -8  158.28   16.80
   4  -8   8  161.58   14.80
   4  -8   8  190.08   16.90
  -4  -8  -8  145.99   14.10
  -4   8  -8  169.48   16.80
   4  -8  -8  157.48   16.20
   6   8  -8  344.57   35.50
  -6  -8  -8  383.66   35.20
   6  -8   8  352.56   32.50
  -6  -8   8  412.66   35.90
   6   8   8  341.07   31.50
   6  -8  -8  367.36   34.10
   6   8   8  354.26   33.70
  -8  -8  -8   68.99   10.60
   8   8  -8   75.39   11.70
   8  -8  -8   85.79   10.50
   8   8   8   88.69   10.50
   1   9  -8   20.50    3.80
  -1  -9  -8   22.30    3.90
  -1   9   8   18.10    3.50
   1   9  -8   19.10    3.20
  -1   9   8   20.60    4.10
  -1  -9  -8   28.40    5.40
  -1  -9  -8   20.00    3.00
   1  -9   8   23.80    3.50
   1  -9   8   21.80    4.20
  -1   9   8   22.10    3.10
   1  -9   8   24.80    3.50
   1  -9  -8   24.80    3.50
   1   9   8   18.20    3.50
   1   9   8   26.40    3.50
   1  -9  -8   29.50    3.90
  -1   9  -8   27.10    4.30
   1   9   8   19.90    3.50
  -1  -9   8   26.70    4.00
   3  -9   8   68.49    7.10
   3   9  -8   52.19    7.90
   3  -9   8   57.39    7.80
  -3   9   8   70.59    9.60
  -3  -9  -8   71.49    8.70
   3  -9   8   68.19    8.10
   3   9  -8   60.09    7.60
  -3  -9   8   55.89    8.00
   3  -9  -8   62.29    8.50
  -3   9  -8   61.19    8.10
   3   9   8   66.29    6.70
   3   9   8   77.29    8.00
   3  -9  -8   67.99    8.20
  -3  -9   8   77.09   10.10
   3  -9  -8   58.99    7.80
   3   9   8   67.99    8.60
   5  -9   8   11.90    2.90
   5   9  -8    9.10    3.30
  -5  -9  -8   13.70    4.20
   5   9  -8   12.10    1.90
  -5   9   8    7.80    3.50
  -5   9  -8   13.30    3.90
   5  -9  -8   17.70    4.40
   5   9   8   12.90    2.00
   5   9   8    8.00    2.60
   7  -9   8    0.10    1.00
   7   9  -8    1.80    1.40
  -7   9   8   -0.20    1.60
   7  -9   8   -1.40    0.80
  -7  -9  -8    0.50    1.20
  -7  -9   8    1.50    2.00
   7  -9  -8    1.80    1.10
   7   9   8   -0.10    0.70
   9  -9   8    8.80    4.40
   9   9  -8   11.20    4.80
   0  10   8  462.65   43.40
   0 -10   8  525.85   42.70
   0 -10  -8  496.65   43.10
   0  10   8  527.85   43.60
   0 -10   8  476.95   43.50
   0 -10  -8  506.95   43.60
   0 -10  -8  447.36   43.40
   2 -10   8  700.83   60.49
  -2  10   8  796.22   63.89
  -2 -10  -8  804.92   62.49
   2 -10   8  598.04   61.19
  -2 -10  -8  713.23   60.09
  -2  10   8  828.62   62.59
   2 -10   8  667.03   61.09
  -2 -10  -8  659.33   61.39
  -2  10  -8  629.54   61.49
   2  10   8  720.63   60.39
   2  10   8  648.84   60.99
   2 -10  -8  667.93   59.79
  -2 -10   8  752.62   61.99
   2 -10  -8  671.13   61.39
   4 -10   8  342.67   29.40
  -4  10   8  358.96   34.00
   4 -10   8  285.67   30.10
  -4 -10  -8  353.46   31.50
   4 -10  -8  337.57   30.70
  -4  10  -8  343.47   31.20
   4  10   8  312.07   29.80
  -4 -10   8  279.57   30.80
  -6  10   8  307.37   32.50
  -6 -10  -8  288.87   28.70
   6  10  -8  283.77   25.70
   6 -10   8  301.97   26.70
   6  10  -8  235.98   28.60
  -6 -10   8  233.18   28.20
   6 -10  -8  331.67   28.40
   6  10   8  313.07   27.60
  -8 -10  -8   75.39   10.90
   8  10  -8   65.29   11.00
   8 -10  -8   84.09   10.20
   8  10   8   77.09    9.70
   1 -11   8   15.10    3.50
  -1  11   8   10.70    3.20
   1 -11   8   15.60    2.80
  -1 -11  -8   14.00    2.30
  -1  11   8   14.90    2.60
   1 -11   8   13.80    3.00
  -1  11   8   22.00    4.10
  -1 -11  -8    8.10    2.70
   1  11  -8   18.60    3.00
  -1 -11  -8   16.60    2.90
   1 -11   8   10.10    2.40
   1  11  -8   13.50    3.00
  -1  11  -8   16.20    3.20
   1  11   8   15.60    3.20
   1 -11  -8   14.00    2.80
   1  11   8   12.70    2.60
   1 -11  -8   16.80    2.70
  -1 -11   8   12.90    2.90
   1  11   8   14.10    3.00
  -3 -11  -8   77.69   10.20
   3 -11   8   83.89    9.90
  -3 -11  -8   81.59    9.90
   3 -11   8   74.29    9.80
   3 -11   8   97.99    9.40
   3  11  -8   79.09   10.50
  -3  11   8   85.49   11.90
  -3 -11  -8   89.29    9.10
  -3 -11   8  107.99   11.10
   3  11   8   82.29    8.80
   3  11   8  103.69   10.10
   3 -11  -8   98.59   10.40
  -3  11  -8   75.19    9.80
   5 -11   8    8.30    2.80
  -5  11   8    6.00    3.20
   5 -11   8   13.80    2.70
  -5 -11  -8    7.30    2.90
   5  11  -8    5.60    2.50
  -5 -11   8    5.20    2.70
   5  11   8   12.40    3.30
  -5  11  -8    7.40    2.40
   5 -11  -8    4.10    1.90
   5  11   8    8.30    2.60
   7  11  -8   -2.20    1.20
   7 -11   8    1.40    1.10
  -7 -11  -8    1.20    1.70
   7 -11   8    1.20    1.50
   7  11   8    1.30    1.00
  -7 -11   8    0.50    1.70
   0  12  -8  328.57   30.40
   0 -12   8  335.07   29.70
   0 -12  -8  364.56   30.60
   0  12  -8  313.17   31.40
   0  12   8  343.97   31.70
   0 -12   8  344.37   32.10
   0  12   8  322.17   30.70
   0 -12   8  357.76   30.90
   0 -12  -8  335.57   30.60
   0 -12  -8  333.27   30.70
  -2  12   8  246.68   26.00
   2 -12   8  285.67   25.80
  -2 -12  -8  285.47   26.50
   2 -12   8  264.37   26.20
   2 -12   8  305.37   25.50
  -2  12   8  299.57   28.20
   2  12  -8  224.88   26.10
   2  12  -8  244.38   25.20
   2 -12  -8  321.17   26.20
   2  12   8  239.98   25.60
   2  12   8  292.17   25.30
  -2 -12   8  331.87   26.90
   2 -12  -8  280.67   24.30
  -2  12  -8  248.58   25.90
  -4 -12  -8  590.14   50.39
  -4 -12  -8  548.05   50.49
   4  12  -8  563.34   50.69
  -4  12   8  504.65   52.19
   4 -12   8  540.75   48.30
   4 -12  -8  581.24   49.70
   4  12   8  572.14   48.00
  -4  12  -8  534.05   48.90
  -4 -12   8  492.45   49.80
  -4  12  -8  554.14   49.99
   4  12   8  551.24   48.70
   6 -12   8  228.38   26.20
  -6  12   8  303.27   31.30
  -6 -12  -8  248.58   26.70
   6 -12   8  260.27   25.00
   6  12  -8  313.97   28.80
   6  12   8  249.68   25.40
  -6 -12   8  296.87   28.00
   6 -12  -8  287.27   26.30
  -6  12  -8  244.38   26.70
  -8 -12  -8  128.49   16.00
   8  12  -8  124.59   16.60
   8 -12   8  149.49   15.90
   8  12   8  135.19   14.90
   8 -12  -8  113.69   14.40
   1 -13   8    0.40    0.60
   1  13  -8    1.60    1.20
  -1 -13  -8    0.10    0.70
  -1 -13  -8    1.70    0.90
  -1  13   8    1.80    1.10
   1 -13   8    2.80    1.50
  -1  13   8    2.70    1.80
  -1  13   8    0.10    1.00
   1 -13   8    0.70    0.90
   1 -13  -8    1.30    0.90
   1  13   8    3.00    1.70
  -1 -13   8    2.30    1.60
   1  13   8    0.70    1.00
  -1  13  -8    0.90    0.80
   1 -13  -8    0.00    0.50
   1  13   8    0.70    0.70
   1 -13  -8    1.20    0.80
   3 -13   8   40.90    6.60
   3  13  -8   42.10    7.10
   3 -13   8   53.89    7.20
   3 -13   8   53.69    9.00
   3 -13   8   52.89    6.40
  -3 -13  -8   46.60    7.10
  -3  13   8   44.60    8.00
  -3  13  -8   44.20    6.30
   3  13   8   50.59    6.70
   3  13   8   54.99    6.20
  -3  13  -8   58.99    7.50
  -3 -13   8   56.49    7.60
   3 -13  -8   61.99    7.20
   5 -13   8    0.70    0.90
   5 -13   8   -0.20    0.80
   5  13  -8   -0.60    1.10
  -5 -13  -8   -0.30    1.00
  -5  13   8   -1.50    1.60
  -5 -13   8    0.00    0.90
   5  13   8    0.40    0.70
   7  13  -8   -1.60    1.20
  -7 -13  -8    0.10    0.90
  -7  13   8   -2.50    1.40
   7 -13   8   -0.30    1.20
   7 -13   8    2.80    1.90
  -7 -13   8   -0.70    1.30
   7  13   8    0.70    1.10
   7 -13  -8   -1.10    0.80
   0 -14  -8  377.36   33.50
   0  14  -8  353.06   34.30
   0 -14   8  369.66   32.40
   0 -14  -8  326.27   33.10
   0 -14  -8  400.46   33.30
   0 -14   8  358.16   36.60
   0  14   8  363.36   34.60
   0  14   8  390.36   33.80
  -2  14   8  478.45   43.10
   2 -14   8  394.96   40.60
  -2 -14  -8  446.56   40.90
   2 -14   8  392.56   40.00
   2  14  -8  523.85   42.00
   2 -14   8  484.25   40.10
  -2 -14   8  472.05   40.90
   2  14   8  406.86   39.60
   2  14   8  501.05   41.00
  -2  14  -8  374.16   40.30
   2 -14  -8  461.75   40.40
   4 -14   8  241.48   26.90
  -4 -14  -8  276.07   27.50
  -4  14   8  237.78   29.10
   4 -14   8  303.47   26.30
   4  14  -8  338.17   28.70
   4  14   8  265.97   25.70
   4 -14  -8  292.27   26.90
  -4 -14   8  295.37   27.80
   4  14   8  276.97   26.40
  -4  14  -8  271.07   26.60
  -6 -14  -8  159.98   18.10
  -6  14   8  151.08   20.70
   6  14  -8  118.59   17.60
   6 -14   8  157.98   16.50
   6  14   8  189.68   17.30
  -6 -14   8  183.68   19.00
   6 -14  -8  169.18   17.20
   8  14  -8   65.49   11.60
   8 -14   8   99.19   12.00
  -8 -14  -8   83.79   11.80
   8 -14  -8   84.59   10.80
  -8 -14   8   92.39   13.90
   8  14   8   93.99   11.00
  -1  15   8    2.30    1.50
  -1 -15  -8    2.90    1.50
   1 -15   8    4.90    1.70
   1 -15   8    0.10    1.30
  -1  15   8    4.50    2.30
   1 -15   8    2.70    1.40
   1  15  -8    4.90    2.20
  -1 -15  -8    2.90    1.50
  -1 -15   8    4.30    2.00
  -1  15  -8    3.30    2.10
   1  15   8    5.30    2.20
   1  15   8    3.10    1.40
   1 -15  -8    3.10    1.70
  -3 -15  -8   28.70    4.90
   3  15  -8   19.00    4.50
  -3  15   8   23.30    6.90
   3 -15   8   27.40    4.20
   3 -15   8   27.30    4.80
   3  15   8   25.30    4.50
  -3  15  -8   23.50    4.30
   3  15   8   23.80    3.90
   3 -15  -8   16.00    3.60
  -3 -15   8   21.00    4.40
  -3  15  -8   25.30    4.70
  -5  15   8   -0.10    1.10
   5 -15   8   -0.20    0.80
   5  15  -8    0.70    1.40
  -5 -15  -8   -0.20    0.50
   5 -15  -8    1.30    1.30
  -5 -15   8    1.80    1.90
   5  15   8    0.60    1.20
  -7  15   8    0.50    2.20
   7  15  -8    1.10    1.10
   7 -15   8    1.40    1.60
  -7 -15  -8    1.80    1.30
  -7 -15   8    1.30    1.60
   7  15   8    1.70    1.70
   0  16  -8  816.12   67.99
   0  16   8  672.13   66.59
   0 -16  -8  797.92   67.19
   0 -16  -8  852.11   66.59
   0 -16   8  783.22   66.99
   0 -16   8  780.32   66.99
   0 -16   8  639.74   67.59
   0  16   8  764.52   68.39
   2  16  -8  214.98   22.00
   2 -16   8  226.28   20.80
  -2 -16  -8  229.78   20.60
   2 -16   8  181.58   23.40
  -2  16   8  199.58   22.90
   2 -16   8  213.18   21.10
  -2 -16  -8  229.78   21.80
  -2  16  -8  243.78   21.90
  -2 -16   8  193.48   21.10
   2 -16  -8  208.08   20.80
   2  16   8  200.88   20.60
   2  16   8  216.88   21.30
   4 -16   8  388.56   34.00
   4 -16   8  327.37   32.10
  -4 -16  -8  361.26   33.80
  -4  16   8  366.36   36.40
   4 -16  -8  305.47   32.20
  -4 -16   8  377.86   33.80
   4  16   8  327.87   32.40
   6 -16   8   59.29    9.20
  -6  16   8   71.89   11.80
  -6 -16  -8   50.69    9.00
   6 -16   8   66.79    8.60
   6  16  -8   50.59    9.20
   6 -16  -8   76.09    9.10
   6  16   8   75.59    9.00
  -6 -16   8   87.59   10.80
   8 -16   8  101.69   12.20
  -8  16   8   62.29   12.60
   8  16   8   71.09    9.90
   8 -16  -8   76.59   11.60
  -1 -17  -8   43.90    6.70
   1 -17   8   43.50    7.00
   1 -17   8   55.79    6.70
  -1  17   8   34.60    7.00
   1 -17   8   43.80    5.90
   1  17  -8   49.30    7.10
  -1  17   8   55.39    7.00
  -1 -17  -8   43.30    5.90
   1  17   8   40.60    6.80
   1  17   8   41.80    6.20
  -1 -17   8   49.00    6.70
   1 -17  -8   47.40    6.30
  -1  17  -8   51.19    7.00
   3 -17   8   41.20    5.60
  -3 -17  -8   34.00    6.00
   3  17  -8   25.40    5.60
  -3  17   8   36.60    7.50
   3 -17   8   40.20    6.20
   3  17   8   33.00    5.20
   3  17   8   38.70    6.00
   3 -17  -8   42.00    5.80
  -3 -17   8   40.30    6.20
  -5 -17  -8   21.90    4.90
   5  17  -8   24.00    5.00
   5 -17   8   20.80    4.30
  -5  17   8   17.50    6.60
   5 -17   8   19.90    4.60
   5 -17  -8   17.00    3.90
  -5 -17   8   23.00    4.80
   5  17   8   19.20    4.20
  -7  17   8    6.40    3.00
   7  17  -8    4.60    1.80
   7 -17   8   13.20    4.20
   7 -17  -8    5.90    1.90
  -7 -17   8    1.60    3.30
   7  17   8    1.20    1.50
   0 -18   8  163.38   17.70
   0  18   8  164.88   19.30
   0  18  -8  194.58   19.30
   0 -18   8  185.28   18.30
   0 -18  -8  204.58   18.20
   2 -18   8  428.46   40.00
  -2  18   8  492.25   43.80
  -2 -18  -8  424.16   41.20
   2  18  -8  389.66   41.00
   2 -18   8  461.15   40.90
   2  18   8  399.76   40.00
  -2 -18   8  480.05   41.00
   2 -18  -8  433.96   40.20
   2  18   8  482.15   41.30
  -4  18   8  103.99   14.20
  -4 -18  -8   90.79   12.20
   4  18  -8   78.89   11.90
   4 -18   8  104.29   12.40
   4 -18   8  103.89   11.20
  -4 -18  -8  109.69   11.60
  -4 -18   8   91.19   11.80
  -4  18  -8   96.69   14.00
   4  18   8   84.39   11.30
   4 -18  -8  112.69   11.70
  -6  18   8  112.99   18.50
   6 -18   8  110.29   16.10
   6 -18   8  168.08   16.40
   6  18   8  158.68   16.40
  -6 -18   8  155.18   17.60
   6 -18  -8  184.08   16.70
   1  19  -8    2.20    1.30
   1 -19   8    4.50    2.10
  -1  19   8    1.20    1.40
   1 -19   8    0.90    0.70
  -1 -19  -8    4.30    1.50
  -1 -19   8    0.90    1.40
   1  19   8    0.70    1.50
  -1  19  -8    1.00    0.90
   1 -19  -8   -0.50    0.50
  -3  19   8   -0.90    1.70
   3 -19   8   -0.30    0.80
   3  19  -8    3.40    2.20
  -3 -19   8    0.00    0.90
   3  19   8    0.30    1.00
   3 -19  -8    0.20    0.70
   5 -19   8    1.30    1.50
   5  19  -8   -0.60    1.20
  -5  19   8   -1.10    1.50
   5 -19  -8    1.90    0.80
   5  19   8   -0.40    1.20
  -7  19   8   -4.20    2.00
   7 -19   8    1.30    1.70
   7  19  -8    0.70    1.50
  -7 -19   8    2.60    2.20
   7  19   8    0.40    1.40
   7 -19  -8    1.20    1.60
   0 -20   8  321.77   29.00
   0  20   8  318.47   31.00
   0  20  -8  328.07   30.00
   0 -20  -8  257.97   27.90
   2  20  -8  171.18   20.70
   2 -20   8  182.28   20.30
  -2  20   8  202.48   23.00
  -2 -20  -8  208.78   20.10
   2 -20   8  224.08   20.40
   2 -20  -8  191.98   19.90
  -2 -20   8  219.78   20.90
   2  20   8  216.58   21.50
  -4  20   8  142.39   19.20
   4 -20   8  154.98   16.30
  -4 -20   8  162.88   17.40
   4  20   8  168.68   17.20
   4 -20  -8  139.29   16.10
   6 -20   8   77.09   10.30
  -6  20   8   95.79   14.50
   6  20  -8   75.29   11.30
   6 -20  -8   89.69   10.50
   6  20   8   81.29   13.10
   6  20   8   88.99   11.10
  -6 -20   8   75.29   11.30
   1 -21   8   -0.40    0.90
  -1  21   8    1.00    1.40
  -1  21  -8    0.40    1.20
  -1 -21   8    0.00    1.00
   1 -21  -8   -0.60    0.70
   1  21   8   -0.50    1.00
   3  21  -8   -0.70    0.90
  -3  21   8   -1.50    1.30
   3 -21   8   -0.40    0.70
  -3 -21   8   -0.70    0.90
   3  21   8    0.20    1.10
   3  21   8    3.70    3.00
   3 -21  -8    1.50    1.00
  -5  21   8    1.50    1.80
  -5 -21   8    2.10    1.10
   5 -21  -8    2.20    1.40
   5  21   8    1.80    2.10
   0  22  -8  303.27   29.20
   0 -22   8  288.47   28.10
   0  22   8  287.17   30.40
  -2  22   8  139.29   18.40
  -2 -22  -8  154.28   16.00
   2 -22   8  169.58   16.40
   2 -22  -8  145.89   15.60
   2  22   8  132.49   16.90
  -2 -22   8  153.88   16.40
   4 -22   8  132.19   13.80
   4 -22   8  130.89   15.10
  -4  22   8  120.39   16.50
   4  22  -8   94.19   13.70
   4 -22  -8  113.79   13.20
  -4 -22   8  102.69   13.70
   4  22   8  147.79   15.00
   6 -22   8   50.39    8.00
   6 -22  -8   50.79    7.50
   6  22   8   59.89    8.70
  -6 -22   8   53.79    8.40
   6  22   8   64.19   10.50
  -1  23   8    0.40    1.40
   1 -23   8    3.30    1.30
   1  23  -8   -0.20    1.20
  -1  23  -8   -0.50    1.30
  -1 -23   8    0.20    1.40
   1 -23  -8    1.30    0.90
   1  23   8    1.00    1.20
   3  23  -8    0.00    0.90
   3 -23   8    0.50    1.30
  -3  23   8    3.30    2.50
   3 -23  -8   -0.50    0.60
  -3 -23   8    0.70    1.00
   3  23   8   -1.10    1.40
   5  23  -8    2.70    1.90
  -5  23   8    3.80    2.90
   5 -23   8    2.20    1.80
   5  23   8    1.60    1.80
   5 -23  -8    1.20    1.00
   0  24   8  146.49   19.30
   0 -24   8  179.28   17.70
   2 -24   8  127.89   16.30
   2  24  -8  159.98   17.10
  -2  24   8  146.99   18.80
   2 -24   8  157.58   15.90
  -2 -24   8  136.79   15.80
   2  24   8  140.59   17.30
   4  24  -8   67.99   10.20
  -4  24   8   68.09   12.10
   4 -24   8   66.49    9.40
   4 -24  -8   77.29    9.40
  -4 -24   8   83.19   10.60
   4  24   8   71.89   10.30
   1 -25   8    3.50    1.90
  -1  25   8    5.60    3.00
   1 -25  -8    4.60    2.00
  -3  25   8   12.30    4.70
   3 -25   8    5.80    2.50
   3  25  -8    3.90    2.00
  -3 -25   8   10.60    3.20
   3 -25  -8    6.70    2.50
   3  25   8    4.30    3.40
   5 -25   8   -0.20    1.20
   5  25  -8    1.60    1.80
   5 -25  -8    3.50    1.90
   5  25   8    4.70    2.50
  -5 -25   8    2.10    1.70
   0  26   8  137.99   17.30
   0 -26   8  117.99   14.20
  -2  26   8   53.79   10.30
   2 -26   8   49.20    7.80
  -2 -26   8   70.09    8.90
   2  26   8   74.99   11.00
   4  26  -8   86.69   12.30
   4 -26   8   83.39   10.90
  -4  26   8   68.09   12.90
   4 -26  -8  104.49   11.00
  -4 -26   8   82.59   11.30
   4  26   8   88.69   12.60
  -1  27   8    0.70    2.10
  -1 -27   8   -1.30    0.90
   1  27   8   -2.60    1.90
   3  27  -8    1.30    1.30
  -3  27   8   -2.80    1.80
   3 -27   8   -1.30    1.30
   3 -27  -8   -0.10    1.20
   3  27   8    2.90    2.80
  -3 -27   8   -0.10    1.00
   0 -28   8   51.99    8.10
   0  28   8   67.19   11.60
   2 -28   8   63.39    8.80
  -2  28   8   57.09   11.40
   2  28   8   62.29   10.90
  -2 -28   8   73.09    9.50
   1 -29   8   -1.20    1.30
  -1  29   8    2.40    1.90
   1  29   8    2.70    2.90
  -1 -29   8    1.60    1.20
   0  30   8   67.09   12.10
  -2   0  -9  538.05   54.79
   2   0  -9  671.83   54.19
  -2   0   9  616.84   55.19
   2   0   9  629.34   54.79
  -2   0  -9  719.53   55.99
   2   0  -9  566.64   54.69
  -2   0   9  606.94   55.39
  -2   0   9  654.23   55.49
   2   0  -9  644.44   54.69
   4   0  -9  566.74   49.90
  -4   0   9  584.04   52.39
  -4   0  -9  624.34   51.49
   4   0  -9  493.95   49.60
   6   0  -9   56.29    8.10
  -6   0   9   52.49    9.50
  -6   0  -9   54.89    8.40
   6   0  -9   57.09    8.40
   6   0  -9   67.59    8.30
   6   0   9   56.69    7.90
   8   0  -9  175.08   19.40
   8   0  -9  195.38   19.50
   8   0   9  152.58   18.20
   1   1  -9   91.69    9.90
   1   1  -9   97.79    9.50
   1  -1   9  110.49   10.10
   1  -1   9   99.59   10.10
  -1  -1  -9   98.09    8.90
  -1   1   9   77.29    9.50
  -1  -1  -9   90.99    9.00
  -1  -1  -9   75.59    9.90
   1   1  -9   89.99    9.70
   1  -1   9   88.89    9.20
  -1   1   9   82.69    9.80
   1  -1  -9   90.09    9.40
   1  -1  -9   92.99    9.90
   1   1   9  111.69   10.10
   1  -1  -9   90.19    9.80
  -1  -1   9  103.39   10.30
  -1  -1   9   91.99   10.10
  -1   1  -9  102.59   10.10
  -1   1  -9   99.19   10.30
   1   1   9   99.59   10.10
  -1  -1   9   97.39   10.00
  -3  -1  -9    2.70    1.40
  -3   1   9    0.50    1.10
   3   1  -9    0.70    0.70
  -3  -1  -9    1.00    1.10
   3  -1   9    1.20    1.10
   3   1  -9    3.20    1.50
   3   1  -9    0.00    0.40
  -3  -1   9    1.20    1.10
   3  -1  -9    2.30    1.40
   3   1   9    1.00    1.10
  -3  -1   9    1.00    1.40
   3  -1  -9    1.70    1.00
  -3   1  -9   -0.10    0.70
   3  -1  -9    1.60    1.00
  -3   1  -9    1.20    1.00
  -3  -1   9   -0.90    0.90
  -5  -1  -9    5.90    2.40
   5   1  -9   10.30    3.00
  -5   1   9    6.00    3.30
   5  -1   9    1.50    1.40
   5   1  -9    5.30    2.20
   5   1   9   12.50    3.50
   5  -1  -9    5.70    2.40
  -5   1  -9    4.30    2.00
   5  -1  -9    7.50    2.40
   5  -1  -9    6.70    2.40
   5  -1  -9    3.10    1.70
  -5  -1   9    9.20    3.20
   7  -1   9    5.40    2.30
   7   1  -9    7.70    3.10
   7   1  -9    6.50    2.90
  -7   1  -9    9.00    3.00
   7  -1  -9    9.30    3.20
   7   1   9    2.80    1.70
   7  -1  -9    5.80    2.50
   9   1  -9    1.70    1.30
  -9   1   9    4.80    3.80
   9  -1   9   -1.30    1.10
   9  -1  -9    0.70    1.20
   0   2  -9 1578.04  123.69
   0  -2   9 1276.27  124.29
   0  -2  -9 1524.95  123.89
  -2   2   9  766.52   69.29
  -2  -2  -9  814.92   70.19
   2   2  -9  854.21   69.49
  -2   2   9  848.22   70.49
   2  -2   9  777.72   67.79
   2   2  -9  848.02   68.59
   2   2  -9  814.42   69.49
  -2   2  -9  841.62   70.19
  -2  -2   9  786.32   69.59
  -2  -2   9  867.81   70.49
   2  -2  -9  810.82   69.79
   2  -2  -9  742.73   68.89
   2   2   9  712.33   68.99
   2  -2  -9  790.22   68.89
  -2  -2   9  858.51   70.19
  -2   2  -9  795.32   67.59
  -2   2  -9  854.41   69.99
   2  -2  -9  656.23   69.49
   4   2  -9  437.46   41.10
   4  -2   9  407.16   43.20
  -4  -2  -9  563.64   43.50
   4   2  -9  536.95   42.30
  -4   2   9  507.15   44.50
   4  -2   9  385.36   41.40
   4  -2  -9  390.46   40.80
  -4  -2   9  415.86   43.00
   4  -2  -9  452.05   41.60
   4  -2  -9  493.95   42.60
  -4  -2   9  478.65   43.50
  -4  -2   9  536.15   43.20
   6   2  -9  187.98   18.70
   6   2  -9  188.88   18.10
   6   2  -9  157.08   18.10
  -6  -2  -9  174.98   18.90
  -6   2   9  164.98   21.00
   6  -2  -9  196.58   18.70
   6   2   9  153.08   17.50
  -6   2  -9  141.79   18.20
   6  -2  -9  195.08   17.80
  -6  -2   9  167.18   20.20
  -8   2   9  162.48   24.60
   8   2  -9  172.38   19.40
   8   2  -9  169.48   18.80
   8   2   9  160.58   17.90
   8  -2  -9  180.08   18.80
   1   3  -9   30.00    4.10
  -1  -3  -9   29.90    3.90
   1   3  -9   37.40    4.60
  -1  -3  -9   40.60    5.30
   1   3  -9   34.50    4.80
  -1  -3  -9   38.00    4.00
   1  -3   9   38.60    4.40
  -1   3   9   39.70    5.20
  -1   3   9   30.40    4.50
  -1  -3  -9   37.60    4.80
   1  -3   9   36.60    4.60
  -1   3  -9   35.20    5.10
  -1   3  -9   39.50    5.00
   1  -3  -9   28.80    4.30
  -1  -3   9   38.90    4.70
   1   3   9   43.60    5.00
   1  -3  -9   31.30    4.50
  -1  -3   9   42.00    5.20
   1  -3  -9   33.20    4.70
   1   3   9   41.10    5.00
  -1  -3   9   31.30    4.90
   1  -3  -9   34.10    4.80
   3   3  -9   57.79    6.80
  -3   3   9   55.19    7.80
   3   3  -9   54.59    6.70
   3  -3   9   51.99    4.90
  -3  -3  -9   51.19    7.20
   3  -3   9   59.09    6.90
  -3   3   9   56.29    6.80
   3   3  -9   48.90    5.70
   3  -3  -9   53.59    6.50
  -3  -3   9   48.30    6.90
  -3  -3   9   55.99    7.20
   3   3   9   37.50    6.00
   3  -3  -9   53.39    6.00
   3  -3  -9   38.90    6.30
  -3   3  -9   43.20    6.70
   3  -3  -9   53.09    6.90
   5   3  -9    0.00    0.60
   5  -3   9   -0.10    0.70
   5   3  -9    1.70    1.10
  -5  -3  -9    0.40    0.60
  -5   3   9   -0.80    1.10
  -5   3  -9    3.90    1.90
   5  -3  -9    0.30    1.60
  -5  -3   9    0.40    0.80
   5  -3  -9   -1.60    0.80
   5  -3  -9    0.80    0.90
   5  -3  -9    0.10    0.90
   5   3   9    1.10    1.20
  -5  -3   9   -0.40    1.40
   7   3  -9    1.50    1.60
   7  -3   9   -0.30    1.20
   7   3  -9    4.70    2.30
  -7  -3  -9    0.90    1.30
  -7   3   9    2.90    2.70
   7   3   9    7.60    3.00
   7  -3  -9    2.20    1.60
  -7   3  -9    3.40    2.90
   7  -3  -9    8.10    3.00
   9   3  -9    4.20    2.40
   9  -3  -9    7.30    2.40
   9   3   9    2.80    2.40
   0   4  -9  681.23   58.89
   0  -4   9  630.84   58.99
   0   4   9  696.33   59.09
   0  -4  -9  680.53   58.69
   0  -4  -9  638.94   58.89
   0  -4  -9  706.73   59.49
   0   4  -9  691.93   58.59
   0  -4  -9  723.23   59.09
   2   4  -9  567.54   57.89
   2   4  -9  740.63   58.99
  -2   4   9  583.34   59.09
  -2  -4  -9  765.42   59.59
   2  -4   9  708.33   57.19
   2   4  -9  584.94   57.09
  -2   4   9  687.83   58.19
  -2   4  -9  618.74   58.79
  -2   4  -9  580.14   58.59
   2  -4  -9  729.23   58.89
   2  -4  -9  747.63   59.29
   2  -4  -9  717.83   57.99
  -2  -4   9  718.13   58.49
   2  -4  -9  647.04   58.09
   2   4   9  730.53   58.79
  -2  -4   9  595.54   58.59
   4  -4   9  560.74   45.00
   4  -4   9  600.74   47.70
   4  -4   9  452.05   50.99
  -4   4   9  516.65   49.80
  -4  -4  -9  496.05   48.10
   4   4  -9  540.35   46.30
   4   4  -9  528.55   47.70
  -4   4  -9  564.44   48.20
   4  -4  -9  532.55   47.70
   4   4   9  522.45   47.10
  -4  -4   9  515.95   48.20
   4  -4  -9  538.65   46.20
   4  -4  -9  465.25   46.90
  -4  -4   9  534.95   48.50
  -6   4   9  297.87   33.20
   6   4  -9  335.17   31.00
  -6  -4  -9  361.36   31.70
   6  -4   9  309.67   27.30
   6  -4  -9  319.77   29.00
   6   4   9  270.67   29.30
  -6  -4   9  336.07   32.70
  -6   4  -9  286.47   30.70
  -6  -4   9  332.47   31.50
   8   4  -9  117.49   15.40
   8   4  -9  114.79   15.90
   8  -4   9  133.59   15.00
   8   4   9  152.98   15.10
  -8  -4   9  113.09   16.60
   8  -4  -9  140.69   15.20
  -1  -5  -9    1.20    0.80
  -1  -5  -9    1.10    0.60
  -1   5   9    0.60    0.60
  -1   5   9    0.70    0.60
   1   5  -9    0.40    0.50
   1   5  -9    1.30    0.90
   1  -5   9    0.30    0.70
   1   5  -9    0.20    0.60
  -1  -5   9    0.80    0.60
  -1  -5   9    1.40    1.10
   1  -5  -9    0.20    0.40
  -1   5  -9    0.60    0.70
   1   5   9   -0.10    0.40
  -1  -5   9    0.30    0.80
   1   5   9    1.80    1.00
   1  -5  -9    0.60    0.70
  -1   5  -9    0.90    0.50
  -1   5  -9    1.10    0.90
   1  -5  -9    0.90    0.80
  -3  -5  -9    8.30    2.90
   3  -5   9    5.50    1.90
   3  -5   9    2.80    2.20
   3  -5   9    5.40    1.90
  -3   5   9    5.40    1.70
  -3   5   9    4.70    2.60
   3   5  -9    6.90    2.40
   3   5  -9    6.00    1.70
   3  -5   9    6.20    1.30
   3  -5  -9    5.50    1.60
  -3   5  -9    4.10    1.80
   3   5   9    9.60    2.70
  -3  -5   9    7.90    2.80
   3  -5  -9    8.40    3.00
   3  -5  -9    5.80    2.20
  -3   5  -9    6.30    1.30
  -3  -5   9    4.60    1.80
   3  -5  -9    8.10    2.50
   5  -5   9    0.00    0.60
   5  -5   9   -1.10    0.60
  -5   5   9    0.40    1.40
  -5  -5  -9    0.60    0.80
   5   5  -9    0.90    1.00
   5  -5   9   -0.40    0.50
   5   5  -9    0.00    1.10
  -5  -5   9    0.20    1.00
   5  -5  -9    0.30    0.70
   5  -5  -9    0.70    0.70
   5  -5  -9    0.40    0.50
  -5  -5   9    1.10    1.30
  -5   5  -9    0.70    1.00
   7  -5   9    1.80    1.30
   7   5  -9   -2.20    1.00
   7  -5  -9   -0.70    0.60
  -7   5  -9   -1.30    0.80
   7   5   9    1.40    1.10
   9   5  -9   -2.70    2.40
   9   5  -9    0.30    1.00
  -9  -5  -9    0.70    1.20
   9   5   9    1.60    1.30
   9  -5  -9    0.70    1.60
   0   6   9  496.45   50.39
   0  -6   9  615.34   49.60
   0   6  -9  583.14   49.70
   0   6  -9  628.74   50.99
   0  -6   9  613.94   50.39
   0  -6  -9  562.84   49.80
   0  -6  -9  555.34   50.19
   0  -6  -9  590.94   50.49
   0   6   9  558.44   50.09
   0   6  -9  536.55   49.80
  -2  -6  -9  857.31   81.19
  -2   6   9 1004.30   82.39
   2   6  -9  904.11   79.29
  -2  -6  -9  926.41   79.09
   2   6  -9  880.01   80.99
  -2  -6  -9 1083.49   81.29
   2  -6   9  953.00   79.69
   2  -6  -9  889.71   81.29
  -2  -6   9  862.61   81.79
   2   6   9  879.91   80.39
   2  -6  -9 1054.09   80.29
   2   6   9  963.70   81.19
  -2  -6   9  964.70   80.29
   2  -6  -9  852.41   80.69
   4   6  -9  390.06   32.50
  -4   6   9  366.16   34.60
   4  -6   9  365.86   29.70
  -4  -6  -9  299.07   31.90
  -4  -6   9  345.77   32.60
  -4   6  -9  393.16   32.80
   4  -6  -9  290.07   31.20
   4   6   9  296.47   30.80
   4  -6  -9  323.57   29.80
   6  -6   9  277.27   29.90
   6   6  -9  301.17   30.80
  -6   6   9  342.47   34.60
  -6  -6  -9  357.06   31.90
   6  -6   9  313.37   28.00
  -6   6  -9  315.07   31.20
   6  -6  -9  354.36   30.70
  -6  -6   9  331.57   31.60
   6  -6  -9  283.27   28.00
   8  -6   9  134.79   14.10
  -8  -6  -9  101.39   13.50
   8   6  -9   96.29   13.70
   8  -6  -9  134.19   13.90
   8   6   9   92.39   12.20
   1  -7   9    0.40    0.60
  -1   7   9    0.60    0.70
   1   7  -9    0.40    0.60
   1   7  -9    1.40    1.00
  -1  -7  -9   -0.80    0.40
  -1  -7  -9    0.50    0.60
   1  -7   9    0.40    0.50
   1   7  -9    0.40    0.90
  -1   7  -9    0.60    0.60
  -1  -7   9    2.00    1.30
  -1   7  -9    1.80    1.20
   1   7   9    1.70    0.90
   1  -7  -9    1.10    0.90
  -1  -7   9    1.00    0.60
   1   7   9    1.40    1.20
   1  -7  -9    0.40    0.70
  -3   7   9   76.29    9.70
   3  -7   9   77.69    8.20
   3   7  -9   60.19    6.10
   3  -7   9   60.29    6.40
   3   7  -9   49.70    7.60
  -3  -7  -9   55.79    8.00
  -3  -7  -9   75.59    8.30
   3  -7  -9   64.29    7.80
   3   7   9   54.09    7.60
  -3  -7   9   73.89    8.70
   3  -7  -9   61.89    6.60
  -3   7  -9   59.39    7.90
  -3  -7   9   62.49    7.30
   3   7   9   44.80    6.90
  -5   7   9    2.60    2.40
  -5  -7  -9    7.00    2.90
   5  -7   9    7.40    2.80
   5   7  -9    4.30    1.50
   5  -7   9    4.10    1.60
   5   7  -9    2.30    2.10
   5  -7  -9    5.00    1.40
   5  -7  -9    3.00    2.00
   5   7   9    3.60    1.60
  -5  -7   9    8.20    3.20
  -5  -7   9    3.00    1.80
   5  -7  -9    6.50    1.40
  -5   7  -9    5.60    2.50
  -7   7   9   -1.50    1.80
  -7  -7  -9   -1.10    0.70
   7   7  -9   -0.30    2.00
   7   7   9    0.20    1.20
   7  -7  -9    0.20    1.00
  -7  -7   9   -0.30    1.10
   9   7  -9    2.40    1.90
   9  -7   9    4.80    2.00
  -9  -7  -9    2.40    1.60
   9   7  -9    6.20    3.00
   9   7   9    3.10    2.00
   0   8   9  487.85   44.40
   0   8   9  507.95   44.70
   0  -8  -9  491.55   44.00
   0   8   9  536.45   45.30
   0  -8   9  512.65   44.60
   0  -8   9  495.45   43.60
   0  -8  -9  496.65   44.60
  -2  -8  -9  743.83   59.19
   2   8  -9  572.74   58.09
   2  -8   9  764.62   58.89
  -2   8   9  649.93   56.99
   2   8  -9  568.44   57.29
   2  -8   9  672.83   57.19
   2   8  -9  651.23   56.39
  -2   8   9  759.52   60.19
   2  -8   9  550.34   57.39
   2  -8  -9  730.13   57.19
  -2  -8   9  596.64   57.79
   2  -8  -9  711.13   59.19
   2   8   9  740.93   58.19
   2  -8  -9  640.54   57.99
   2   8   9  633.84   58.29
   2   8   9  636.14   56.69
  -4  -8  -9  425.16   37.20
  -4   8   9  429.46   39.40
   4  -8   9  362.76   34.30
   4   8  -9  394.76   36.90
   4   8  -9  364.26   33.70
   4  -8   9  429.06   36.40
   4   8   9  426.26   35.80
   4  -8  -9  432.16   36.40
   4  -8  -9  353.16   33.60
  -4   8  -9  375.06   36.50
  -4  -8   9  396.06   35.40
  -4  -8   9  429.66   37.20
   4  -8  -9  338.07   33.60
  -6   8   9  335.77   35.40
   6   8  -9  300.17   31.90
  -6  -8  -9  317.97   32.10
   6  -8   9  318.27   29.40
   6  -8  -9  308.47   31.00
   6   8   9  348.37   30.90
  -6  -8   9  368.36   33.10
   8  -8   9   97.59   11.90
   8   8  -9   79.89   12.40
  -8  -8  -9   89.29   12.30
   8  -8  -9   89.89   11.30
   8   8   9  103.09   11.60
  -1   9   9    1.00    1.10
  -1  -9  -9    0.50    0.90
   1  -9   9    1.40    0.80
   1  -9   9    1.10    0.80
   1   9  -9    0.60    1.20
  -1  -9  -9    2.20    1.10
   1  -9   9    2.70    1.30
  -1   9   9    0.70    0.70
  -1  -9  -9    0.50    0.70
   1   9  -9    0.60    1.00
   1  -9  -9    1.00    0.90
  -1   9  -9    1.20    1.00
   1   9   9    2.20    1.40
   1   9   9   -0.20    0.60
   1  -9  -9    0.70    0.90
  -1  -9   9    1.80    0.70
   1  -9  -9    0.90    0.70
  -1  -9   9    2.30    1.30
   1   9   9    1.00    0.70
   3  -9   9   53.29    6.70
  -3   9   9   61.29    8.60
  -3  -9  -9   46.80    6.90
   3   9  -9   37.70    6.50
   3  -9   9   40.60    6.30
   3  -9   9   49.00    5.60
  -3  -9   9   43.00    6.70
  -3   9  -9   52.49    7.00
   3  -9  -9   47.00    5.00
  -3  -9   9   47.30    5.50
   3  -9  -9   54.09    6.80
   3   9   9   46.70    5.60
   3   9   9   45.20    6.10
   3  -9  -9   55.89    8.30
   5   9  -9    4.30    2.40
   5   9  -9    3.50    1.10
   5  -9   9    2.30    1.20
   5  -9   9    2.20    1.40
  -5  -9  -9    4.40    2.20
  -5   9   9    1.40    2.10
   5  -9  -9    1.80    1.10
  -5  -9   9    4.40    2.50
  -5   9  -9    3.60    1.90
   5   9   9    0.80    1.20
  -7  -9  -9    1.80    0.90
   7  -9   9    2.30    1.40
  -7   9   9    1.20    1.90
   7   9  -9   -1.70    1.30
  -7  -9   9    0.90    0.60
   7   9   9    0.60    1.10
   7  -9  -9    0.60    1.20
   9   9  -9    5.50    2.60
   9   9   9    4.80    2.20
   0  10   9  159.48   15.80
   0  10   9  171.78   16.70
   0 -10  -9  164.98   15.60
   0  10  -9  125.49   16.00
   0 -10   9  170.48   16.10
   0 -10  -9  173.08   16.30
   0 -10   9  170.48   15.20
  -2 -10  -9  307.47   33.50
  -2  10   9  343.67   35.50
   2 -10   9  417.26   33.50
   2 -10   9  342.67   33.70
  -2 -10  -9  360.66   34.50
  -2 -10  -9  383.06   32.80
  -2 -10   9  436.06   33.60
   2 -10  -9  351.56   34.00
  -2  10  -9  381.66   34.60
   2  10   9  366.06   33.00
   2 -10  -9  345.67   32.70
   2 -10  -9  448.06   34.70
   4  10  -9  681.43   62.79
   4 -10   9  784.12   62.59
   4 -10   9  642.94   60.39
  -4 -10  -9  770.32   63.19
  -4  10   9  673.13   64.79
  -4  10  -9  729.43   62.79
   4  10   9  589.04   59.49
  -4 -10   9  699.83   62.99
   4  10   9  680.83   61.29
   4 -10  -9  779.02   62.39
  -6 -10  -9  337.37   32.70
   6  10  -9  374.46   33.60
   6 -10   9  282.17   31.50
  -6  10   9  365.16   36.50
   6 -10   9  347.17   30.40
   6 -10  -9  394.76   32.40
  -6 -10   9  305.17   32.70
   6  10   9  282.87   30.90
   8  10  -9   76.69   12.50
  -8 -10  -9  108.99   13.40
   8  10   9  105.89   12.10
   8 -10  -9  112.39   12.60
   1 -11   9   28.80    4.10
  -1 -11  -9   25.00    4.00
   1 -11   9   23.50    4.30
   1 -11   9   26.00    4.00
   1 -11   9   30.80    5.30
  -1  11   9   26.10    3.60
   1  11  -9   17.60    4.10
  -1  11   9   28.60    4.40
  -1  11   9   31.00    5.10
  -1 -11  -9   35.90    4.00
  -1 -11  -9   35.10    4.90
   1  11   9   22.40    4.20
   1 -11  -9   19.50    3.70
  -1  11  -9   21.30    4.10
  -1 -11   9   24.40    4.30
   1 -11  -9   19.00    3.40
   1  11   9   26.50    4.10
   1 -11  -9   35.20    4.50
   1  11   9   34.50    4.90
   3  11  -9   26.50    5.00
   3 -11   9   26.40    3.80
  -3 -11  -9   30.70    5.00
  -3  11   9   24.20    6.90
   3 -11   9   26.40    7.60
   3 -11   9   24.10    4.20
   3 -11  -9   24.60    4.30
   3  11   9   24.00    4.20
  -3 -11   9   13.60    4.50
  -3  11  -9   28.30    4.70
  -3  11  -9   27.60    4.50
   5  11  -9    2.30    1.90
  -5 -11  -9    2.00    1.30
  -5  11   9    0.00    1.10
   5 -11   9    0.70    1.10
   5 -11   9    4.10    1.70
   5 -11  -9    3.10    2.00
  -5 -11   9    3.50    2.10
   5  11   9    1.80    1.30
   7  11  -9    0.10    1.20
  -7 -11  -9    2.60    1.30
   7 -11   9    0.20    1.40
   7  11   9    3.70    2.40
   7 -11  -9    5.00    1.80
  -7 -11   9    5.40    2.60
   0  12   9  258.37   26.70
   0 -12   9  284.87   25.70
   0 -12  -9  288.97   27.00
   0  12   9  274.97   26.60
   0  12  -9  270.97   27.40
   0 -12   9  339.07   27.30
   0  12   9  302.37   27.70
   0 -12  -9  296.77   26.50
  -2 -12  -9  578.04   49.00
  -2 -12  -9  536.55   46.90
   2  12  -9  535.95   49.00
  -2  12   9  586.24   50.59
   2 -12   9  478.85   49.20
   2 -12   9  541.45   47.40
   2 -12   9  563.14   48.10
   2 -12  -9  564.54   48.20
  -2 -12   9  615.14   49.10
  -2  12  -9  492.15   48.40
   2 -12  -9  528.15   46.60
   2  12   9  471.25   47.10
  -4  12   9  250.17   28.70
   4  12  -9  254.77   27.00
   4 -12   9  273.77   25.20
   4  12   9  286.37   24.70
  -4 -12   9  243.08   26.70
   4  12   9  322.87   26.20
   4 -12  -9  275.97   26.40
  -4  12  -9  253.47   26.70
   6 -12   9  288.07   26.30
   6  12  -9  283.27   28.70
  -6  12   9  243.18   30.30
  -6 -12  -9  259.57   27.80
  -6 -12   9  298.97   28.90
   6 -12  -9  286.67   27.30
   6  12   9  282.97   26.80
  -8 -12  -9   69.69   10.60
   8 -12   9   65.79    9.90
   8  12  -9   63.69   10.90
   8 -12  -9   92.39   10.40
   8  12   9   75.39    9.60
   1  13  -9   10.40    3.50
   1 -13   9    9.10    2.00
  -1  13   9    8.00    3.10
  -1 -13  -9    7.90    2.60
   1 -13   9   12.10    4.00
   1 -13   9    8.80    2.80
  -1  13   9    8.70    2.70
  -1 -13   9    9.10    2.80
   1 -13  -9    5.90    2.00
  -1  13  -9    6.10    2.50
   1  13   9    7.90    2.60
   1  13   9    8.00    3.00
   1 -13  -9    8.70    2.60
   3 -13   9   79.79   15.70
  -3  13   9   56.99    9.40
  -3 -13  -9   66.69    8.50
   3 -13   9   50.89    7.60
   3 -13   9   56.89    7.20
   3  13  -9   61.09    8.60
  -3 -13   9   84.29    9.20
   3  13   9   52.49    6.90
   3  13   9   76.99    8.40
   3 -13  -9   60.49    7.90
  -3  13  -9   68.09    8.50
  -3  13  -9   61.49    7.60
  -5  13   9   -0.70    1.10
   5 -13   9    2.10    1.20
   5  13  -9   -0.10    1.20
   5 -13   9    1.60    1.10
  -5 -13  -9    0.90    1.00
   5 -13  -9   -0.30    0.60
  -5 -13   9   -1.00    0.80
   5  13   9    0.50    0.80
   7 -13   9    1.00    1.10
  -7  13   9    3.30    1.80
   7  13  -9   -0.80    1.00
  -7 -13  -9    0.60    1.20
   7  13   9   -1.00    0.90
  -7 -13   9    1.00    1.80
   7 -13  -9    0.50    0.90
   0  14   9  642.14   60.49
   0 -14   9  705.83   59.79
   0  14   9  629.84   59.49
   0  14  -9  680.63   60.29
   0 -14  -9  725.23   59.29
   2 -14   9  435.66   38.60
   2 -14   9  409.16   38.80
  -2  14   9  406.66   41.00
  -2 -14  -9  434.06   39.70
   2 -14  -9  431.06   39.00
  -2  14  -9  443.66   39.60
   2  14   9  409.16   38.40
   2  14   9  461.55   39.60
   4  14  -9  158.58   19.80
   4 -14   9  200.78   18.80
   4 -14   9  224.38   20.40
  -4  14   9  173.58   22.00
  -4 -14  -9  176.08   19.90
  -4  14  -9  172.38   19.00
   4 -14  -9  208.38   19.70
   4  14   9  211.88   19.60
   6 -14   9  121.99   12.90
   6  14  -9  112.19   14.30
  -6 -14  -9  111.99   13.90
   6 -14   9  141.39   14.60
  -6  14   9   98.89   15.90
  -6 -14   9   88.69   13.30
   6  14   9  110.59   12.70
   6 -14  -9  132.59   13.60
   8 -14   9   72.79   10.20
  -8 -14  -9   76.49   10.70
   8  14  -9   54.89   10.00
   8 -14  -9   84.59    9.90
   8  14   9   70.79    9.40
  -1  15   9    5.30    2.70
  -1 -15  -9    2.40    1.70
  -1 -15  -9    6.90    2.10
   1 -15   9    4.00    2.00
   1 -15   9    4.70    1.80
   1  15  -9    5.60    2.50
   1  15   9    4.50    2.20
   1 -15  -9    2.70    1.90
   1  15   9    4.70    1.60
  -1 -15   9    6.10    2.20
   1 -15  -9    7.20    2.40
  -1  15  -9    5.90    2.40
   3  15  -9    6.20    3.10
  -3  15   9    4.40    2.90
  -3 -15  -9    6.60    2.50
   3 -15   9    6.20    2.20
   3 -15   9    3.90    1.60
   3  15   9    4.30    2.30
  -3  15  -9    7.10    2.80
  -3 -15   9    6.80    2.80
  -3  15  -9    4.30    2.20
   3  15   9    0.80    1.20
   3 -15  -9    2.70    1.40
  -5  15   9   -0.10    1.20
   5 -15   9    0.00    1.10
  -5 -15  -9    0.60    0.70
   5  15  -9    1.40    1.50
   5 -15  -9    0.80    1.20
  -5 -15   9    1.60    1.60
  -5  15  -9    2.50    1.90
   5  15   9    0.60    1.00
  -7 -15  -9    5.90    2.90
  -7  15   9    0.00    2.10
   7  15  -9    2.80    1.90
  -7 -15   9   -0.80    1.20
   7  15   9    1.80    1.70
   0 -16  -9  302.17   27.50
   0  16  -9  281.17   28.40
   0 -16  -9  297.87   27.90
   0 -16   9  327.97   26.70
   0 -16   9  278.87   27.70
   0 -16   9  286.77   27.90
   0  16   9  293.27   29.20
   0  16   9  290.97   28.10
  -2 -16  -9  393.56   34.30
  -2 -16  -9  364.26   32.60
   2 -16   9  331.77   35.10
   2 -16   9  364.86   32.90
   2 -16   9  380.86   33.40
  -2  16   9  351.06   35.60
   2 -16  -9  348.57   33.00
  -2 -16   9  336.47   33.40
  -2  16  -9  310.97   33.30
   2  16   9  415.46   34.20
   2  16   9  341.67   32.80
  -4  16   9  212.88   22.40
   4  16  -9  142.19   18.60
   4 -16   9  188.58   18.00
  -4 -16  -9  221.88   20.20
   4 -16   9  186.78   19.00
  -4 -16   9  147.79   18.50
   4  16   9  171.58   18.20
   4 -16  -9  172.68   18.20
  -6  16   9  134.09   18.00
   6  16  -9  127.29   15.20
  -6 -16  -9  148.59   15.60
   6 -16   9  110.69   13.30
   6 -16   9   97.29   13.80
   6 -16  -9  118.69   13.60
   6  16   9  116.09   13.50
  -6 -16   9  142.39   15.50
   1 -17   9    0.80    1.00
   1 -17   9   -1.50    1.30
  -1 -17  -9   -0.40    0.90
  -1  17   9    0.50    1.30
  -1 -17  -9    1.10    0.50
   1  17  -9   -1.20    0.60
   1 -17   9   -1.10    0.50
   1  17   9    1.20    1.10
   1  17   9   -0.20    1.00
  -1 -17   9   -0.20    0.90
   1 -17  -9    0.80    0.90
   3  17  -9    2.40    1.80
   3 -17   9    6.70    2.50
  -3 -17  -9    4.30    2.30
  -3  17   9    5.40    3.10
   3 -17   9    2.50    1.70
   3 -17  -9    4.40    1.90
  -3 -17   9    6.10    2.60
   3  17   9    5.00    2.30
   5 -17   9    0.00    1.50
  -5 -17  -9   -0.50    0.70
   5 -17   9    1.60    1.10
  -5  17   9   -1.20    1.50
   5  17  -9    1.50    1.30
   5  17   9    1.00    1.30
   5 -17  -9    0.70    0.60
  -5 -17   9    0.10    1.20
  -7  17   9    4.90    4.10
   7  17  -9   -1.00    1.50
  -7 -17   9    4.70    2.00
   7  17   9    1.10    1.60
   7 -17  -9   -0.60    0.90
   0  18  -9  413.66   38.70
   0 -18  -9  447.16   37.70
   0 -18   9  359.66   37.50
   0  18   9  438.46   39.90
   2  18  -9  236.08   21.70
  -2 -18  -9  217.78   21.30
  -2  18   9  219.68   23.00
   2 -18   9  185.88   20.00
   2 -18   9  175.68   19.60
   2 -18  -9  218.48   20.30
   2  18   9  188.68   20.00
  -2  18  -9  181.58   20.40
   2  18   9  202.58   20.80
  -2 -18   9  204.78   20.60
   4 -18   9  180.08   20.60
  -4 -18  -9  186.38   21.30
   4  18  -9  163.68   20.70
  -4 -18  -9  232.48   22.30
  -4  18   9  205.28   23.70
   4 -18   9  214.88   20.30
   4 -18  -9  214.58   20.50
   4  18   9  209.28   21.00
  -4 -18   9  204.88   21.20
   6 -18   9   99.29   10.80
   6  18  -9   92.79   11.90
  -6  18   9   82.89   13.80
  -6 -18  -9   70.49   10.80
   6 -18   9   74.69   10.90
   6  18   9   79.29   10.30
  -6 -18   9   66.69   10.90
   6 -18  -9   90.99   10.50
   1 -19   9    8.60    2.70
   1  19  -9   11.20    3.40
  -1  19   9    8.60    4.00
   1 -19   9    5.30    2.30
  -1 -19  -9   12.90    2.70
   1  19   9    8.50    3.20
  -1  19  -9   13.00    3.70
   1 -19  -9    5.80    2.20
  -1 -19   9    7.80    2.60
  -3 -19  -9   22.10    4.80
   3 -19   9   23.20    4.40
   3  19  -9   31.80    5.40
  -3  19   9   27.40    8.10
   3 -19  -9   17.80    4.00
  -3 -19   9   21.60    4.60
   3  19   9   22.30    4.60
  -5  19   9    1.60    1.90
   5 -19   9    0.20    1.20
   5  19  -9    2.90    2.00
  -5 -19  -9   -0.50    1.00
  -5 -19   9    0.10    0.90
   5  19   9    0.20    1.10
   5 -19  -9    2.60    1.20
  -7  19   9    2.10    2.30
   7 -19  -9   -1.80    1.00
   7  19   9   -0.50    1.40
  -7 -19   9   -1.60    1.10
   0 -20   9  284.07   24.80
   0  20   9  217.48   25.70
  -2  20   9  260.97   28.90
   2 -20   9  278.97   26.10
  -2 -20  -9  228.08   28.30
   2  20  -9  305.07   27.60
   2 -20  -9  270.97   26.00
  -2  20  -9  287.17   27.20
   2  20   9  290.77   27.50
  -2 -20   9  234.28   26.10
  -4  20   9   97.29   14.10
   4 -20   9   96.59   11.00
   4 -20  -9   89.19   10.90
  -4 -20   9   75.89   10.90
   4  20   9   95.79   11.60
  -6  20   9   65.09   12.20
   6 -20   9   54.59    8.50
   6  20  -9   61.69    9.80
   6  20   9   63.49    8.90
  -6 -20   9   59.09    9.40
   6 -20  -9   75.29    8.90
   1  21  -9    0.90    1.10
  -1  21   9    2.30    2.20
  -1 -21   9    0.70    1.20
   1 -21  -9    0.50    0.90
  -1  21  -9    1.30    1.50
   1  21   9    2.20    1.60
   3  21  -9    3.10    2.50
   3 -21   9    0.50    1.30
  -3  21   9    4.10    2.80
   3 -21  -9    3.30    1.40
   3  21   9    1.70    2.00
  -3 -21   9    4.70    2.60
   5 -21   9   -0.90    1.00
  -5  21   9    0.10    1.70
   5  21  -9    0.00    1.80
   5 -21  -9    0.60    1.10
   5  21   9   -0.10    1.10
  -5 -21   9    2.00    1.80
   0  22   9  236.38   25.80
   0  22  -9  250.87   24.60
   0 -22   9  228.38   23.40
  -2  22   9  145.29   17.60
   2  22  -9  124.59   15.00
   2 -22   9  133.39   14.50
   2 -22  -9  135.19   14.30
   2  22   9  119.79   15.50
  -2 -22   9  133.79   14.90
   4  22  -9  126.99   14.80
  -4  22   9  109.19   16.20
   4 -22   9  104.09   13.10
   4 -22   9  126.99   14.60
   4 -22  -9  127.09   13.50
  -4 -22   9  103.69   13.60
   4  22   9  115.79   14.10
  -6  22   9   67.59   11.10
   6  22  -9   48.50   13.90
   6 -22   9   46.70    7.80
   6  22   9   57.49   10.10
   6  22   9   48.80    8.50
  -6 -22   9   50.89    8.60
   6 -22  -9   56.59    7.80
  -1  23   9    1.20    1.50
   1  23  -9    5.40    2.10
   1 -23  -9   -0.30    0.90
  -1 -23   9   -1.10    1.00
   3  23  -9    4.90    2.40
  -3  23   9    6.90    3.90
   3 -23   9    4.40    2.50
   3 -23  -9    4.30    2.20
   3  23   9    4.20    2.90
  -3 -23   9    4.00    2.80
   5  23  -9    0.60    1.80
   5 -23   9    0.30    1.70
  -5 -23   9    4.00    2.30
   5 -23  -9    2.80    2.10
   5  23   9    3.00    1.90
   0  24   9  131.09   16.70
   0 -24   9  121.89   14.00
   2 -24   9   95.39   12.40
   2 -24   9   83.39   11.60
  -2  24   9  113.49   15.50
   2  24  -9  100.09   12.70
  -2 -24   9  136.69   13.60
   2  24   9  113.19   14.20
  -4  24   9  118.09   16.10
   4  24  -9   95.39   12.60
   4 -24   9   91.89   11.60
   4  24   9  102.49   13.00
  -4 -24   9   86.49   12.10
   4 -24  -9   99.69   11.70
  -1  25   9    0.60    2.10
   1  25   9    4.00    2.40
   1 -25  -9    0.70    0.90
  -1 -25   9    1.00    1.30
   3 -25   9    2.70    1.70
  -3  25   9   -2.10    2.10
   3  25  -9    5.00    1.90
   3  25   9    6.40    3.40
  -3 -25   9    1.00    2.00
  -5  25   9    7.80    5.10
   5  25   9    7.90    3.70
   5 -25  -9    7.60    2.40
   0  26   9   86.99   13.10
   0 -26   9   90.89   11.20
  -2  26   9   85.29   12.80
   2  26  -9   90.29   11.20
   2 -26   9   68.89    9.50
   2  26   9   74.79   11.70
  -2 -26   9   69.79   10.00
  -4  26   9   84.09   13.90
   4 -26   9   86.69   11.10
   4 -26  -9   79.89   10.50
  -4 -26   9  101.19   12.10
   4  26   9   91.79   13.10
   1 -27   9    3.50    1.80
  -1  27   9   -0.70    1.90
   1  27   9    6.40    4.50
  -1 -27   9    6.50    2.40
   3 -27   9    0.20    2.00
   3  27   9    3.30    2.30
  -3 -27   9    1.20    1.60
   3 -27  -9   -1.20    0.90
   0  28   9   95.39   14.70
   0 -28   9   94.99   11.80
  -2  28   9   47.10    9.00
  -2 -28   9   31.60    6.30
   2  28   9   41.80    8.40
  -1  29   9   -0.80    2.50
   1 -29   9    0.00    1.40
   1  29   9   -1.00    2.40
   0   0  10 1728.13  146.69
  -2   0  10  726.73   61.99
   2   0  10  789.22   61.19
   2   0 -10  721.93   60.49
  -2   0  10  661.73   61.59
   2   0 -10  743.53   61.19
   2   0 -10  630.84   61.09
  -2   0  10  626.84   61.29
   4   0 -10  375.66   34.40
   4   0 -10  354.86   34.00
  -4   0 -10  396.06   35.70
  -4   0  10  385.56   36.80
  -6   0  10  135.29   17.80
   6   0 -10  148.19   15.90
  -6   0 -10  119.89   15.40
   6   0 -10  124.79   14.50
   6   0  10  156.18   15.20
   8   0 -10  130.29   19.60
   8   0  10  118.69   14.30
   8   0 -10  136.29   15.30
  -1   1  10    5.10    1.80
  -1  -1 -10    6.50    2.00
   1   1 -10    5.70    1.60
   1  -1  10    4.30    1.40
   1   1 -10    5.10    1.70
  -1  -1 -10    5.90    1.90
   1  -1  10    6.40    1.90
   1   1 -10    6.40    2.10
  -1   1  10    4.50    1.60
  -1  -1  10    6.90    2.20
  -1  -1  10    3.30    1.70
   1  -1 -10    4.30    1.50
   1  -1 -10    4.20    1.70
  -1  -1  10    6.70    2.20
   1   1  10    2.30    1.10
  -1   1 -10    2.10    1.20
  -3   1  10   14.30    4.40
   3   1 -10    8.60    2.60
   3  -1  10    8.90    2.70
  -3   1  10   11.70    3.70
  -3  -1 -10   15.70    4.10
  -3  -1 -10   13.60    3.20
   3   1 -10   11.50    2.30
  -3  -1  10    9.00    3.30
  -3   1 -10   15.10    3.20
   3  -1 -10   12.90    2.50
  -3  -1  10   11.60    3.70
  -3   1 -10   16.00    3.40
  -3  -1  10    5.80    2.80
   3  -1 -10   10.70    3.00
   3   1  10   19.20    3.30
   5  -1  10   -0.20    0.80
   5   1 -10   -0.10    0.80
   5   1 -10    0.40    1.20
  -5  -1 -10    0.90    1.00
  -5   1  10    0.80    1.20
  -5   1 -10    0.00    0.90
   5  -1 -10    0.50    0.80
   5  -1 -10    2.80    1.50
  -5  -1  10   -0.50    1.60
   7   1 -10    0.40    1.10
   7   1 -10    0.60    0.90
  -7  -1 -10    1.50    1.40
   7  -1  10    1.90    1.10
   7  -1 -10    1.90    1.10
   7  -1 -10    0.30    1.40
   7   1  10    0.20    0.90
  -7   1 -10    0.40    1.00
   9   1  10    1.10    1.20
   0   2 -10 1552.14  124.29
   0  -2 -10 1444.66  124.39
   0  -2 -10 1398.16  125.09
  -2   2  10  641.94   51.39
   2  -2  10  573.34   48.60
  -2  -2 -10  552.54   50.79
   2   2 -10  618.54   50.39
   2  -2  10  469.65   49.80
   2   2 -10  551.14   49.10
  -2   2  10  627.04   50.49
   2  -2 -10  590.94   49.60
   2   2  10  473.35   49.60
  -2   2 -10  538.45   50.69
  -2  -2  10  614.74   50.99
  -2   2 -10  590.74   48.30
   2  -2 -10  582.64   50.69
  -2  -2  10  564.44   50.99
   2  -2 -10  582.24   50.49
   2  -2 -10  591.14   49.90
  -2  -2  10  588.24   50.49
   2   2  10  487.55   49.90
   4   2 -10  381.46   37.80
   4  -2  10  421.46   38.80
   4   2 -10  462.35   39.10
  -4   2  10  511.45   42.20
  -4  -2  10  479.05   40.20
   4   2  10  441.86   38.70
  -4  -2  10  430.26   40.60
  -4   2 -10  383.16   39.20
   4  -2 -10  470.95   38.40
   4  -2 -10  357.16   38.20
   4  -2 -10  385.96   39.10
  -6   2  10  156.48   20.10
   6  -2  10  141.49   16.80
   6   2 -10  154.48   17.20
  -6  -2 -10  178.28   18.40
   6  -2 -10  192.98   17.30
  -6  -2  10  145.49   19.20
  -8   2  10  145.69   19.20
   8   2 -10  115.59   14.70
   8  -2  10  105.99   13.90
   8   2 -10  146.79   16.00
   1  -3  10   12.40    2.40
   1   3 -10   14.30    2.40
   1  -3  10   17.30    2.90
   1   3 -10   17.80    3.10
  -1   3  10   11.30    2.60
  -1   3  10   18.50    3.40
  -1  -3 -10   14.00    3.10
  -1  -3  10    9.90    3.10
  -1  -3  10   12.40    2.60
  -1   3 -10   13.40    2.80
   1  -3 -10   13.10    2.70
   1  -3 -10   16.70    2.90
   1  -3 -10   15.40    2.70
   1   3  10   17.10    3.00
  -1   3 -10   21.30    3.50
  -3   3  10    7.30    3.20
   3  -3  10    4.30    1.90
  -3  -3 -10    7.00    2.80
  -3  -3 -10    9.60    2.90
   3   3 -10    3.40    2.20
   3   3 -10    5.90    1.80
   3   3  10   11.00    2.50
   3  -3 -10    6.60    2.20
   3  -3 -10    7.00    2.30
  -3   3 -10    9.40    3.10
   3  -3 -10    7.10    2.20
  -3  -3  10    7.80    2.60
  -3  -3  10    6.10    2.40
  -5  -3 -10    0.20    1.00
   5   3 -10    1.50    1.40
   5   3 -10    2.30    1.30
  -5   3  10    0.70    1.60
   5  -3 -10    1.20    1.20
  -5  -3  10    2.70    1.60
  -5   3 -10    1.10    1.40
   5  -3 -10    0.40    1.00
   5  -3 -10    0.70    1.10
   5   3  10   -0.20    0.80
  -5  -3  10    0.10    1.20
   7   3 -10    1.40    1.70
   7   3 -10    2.00    1.40
   7  -3  10    9.90    3.30
  -7  -3 -10   12.10    4.50
  -7   3 -10    1.40    1.30
   7  -3 -10    6.10    2.50
   7   3  10    3.60    1.30
   7  -3 -10    3.70    2.10
   9   3  10   -0.10    0.90
   0  -4  10  936.61   79.79
   0  -4  10 1025.00   80.69
   0   4 -10  828.22   79.89
   0  -4 -10  937.81   79.89
   0  -4 -10  912.41   80.69
   0   4 -10 1032.80   79.89
   0   4  10  859.11   80.09
   2  -4  10  776.42   71.79
   2   4 -10  929.51   73.69
   2  -4  10  920.71   73.09
  -2  -4 -10  865.81   73.89
   2   4 -10  779.62   71.89
  -2   4  10  773.62   73.99
   2   4 -10  881.41   72.99
   2   4  10  910.81   73.09
  -2  -4  10  812.82   72.99
   2  -4 -10  926.41   73.69
   2   4  10  841.12   73.49
   2  -4 -10  818.52   72.69
   2  -4 -10  717.13   73.19
  -2  -4  10  900.81   79.39
  -2   4 -10  822.82   71.69
   4   4 -10  342.97   30.80
  -4   4  10  295.87   32.50
   4   4 -10  325.97   29.40
  -4  -4 -10  304.57   31.30
   4   4  10  317.77   30.30
  -4  -4  10  390.56   32.30
   4  -4 -10  323.37   29.50
  -4  -4  10  321.27   31.60
  -4   4 -10  289.57   30.90
   4  -4 -10  359.46   31.20
   4  -4 -10  330.67   30.50
   6   4 -10  195.58   22.10
  -6  -4 -10  195.38   22.20
  -6   4  10  188.88   24.30
  -6  -4  10  231.28   23.20
   6  -4 -10  259.77   22.70
  -6  -4  10  203.68   23.60
   6  -4 -10  229.18   20.80
   8  -4  10   59.89    9.20
   8   4 -10   83.79   11.30
   8   4 -10   96.39   11.70
   8   4  10   66.39    9.20
  -1   5  10    2.20    1.20
  -1   5  10    0.00    0.60
   1   5 -10    1.20    0.70
   1   5 -10   -0.40    0.50
  -1  -5 -10    3.10    1.70
   1  -5  10    1.00    1.00
  -1  -5 -10   -0.60    0.40
   1  -5  10    0.90    0.70
   1  -5  10    0.60    0.70
   1   5 -10    0.00    0.70
   1  -5 -10    1.70    1.00
  -1   5 -10    0.20    0.40
   1  -5 -10   -0.60    0.50
  -1   5 -10    0.50    0.60
  -1  -5  10   -0.40    0.50
  -1  -5  10    1.00    0.80
  -1  -5  10   -0.20    0.50
   1   5  10    0.40    0.60
   3  -5  10   88.69    8.80
   3   5 -10   86.19    9.10
  -3   5  10   87.59   11.60
   3   5 -10   96.99   10.70
   3  -5  10  118.09   11.00
  -3  -5 -10   86.79   10.90
  -3   5  10   95.39   12.70
   3  -5  10   95.09   10.50
   3  -5 -10  100.09   10.40
  -3   5 -10   95.59    8.90
   3   5  10   87.09   10.40
  -3   5 -10   76.89   10.40
  -3  -5  10   99.09   10.80
   3  -5 -10   90.99    9.60
  -3  -5  10   82.99   10.80
   3  -5 -10   81.79   10.20
   5  -5  10    2.70    0.90
   5  -5  10    5.40    2.60
   5   5 -10    5.30    1.90
  -5   5  10    1.90    1.90
  -5  -5 -10    1.80    1.30
   5   5 -10    1.00    1.60
   5  -5 -10    4.80    1.60
   5  -5 -10    2.00    1.30
  -5   5 -10    3.60    2.40
   5  -5 -10    5.70    2.40
  -5  -5  10    2.50    2.60
   5   5  10    2.90    1.90
  -5  -5  10    3.10    2.20
   7  -5  10    0.70    1.00
  -7  -5 -10   -0.10    1.40
   7   5 -10    2.40    2.20
   7  -5 -10    0.40    1.40
   7   5  10    1.40    1.40
   9  -5  10   13.20    4.40
   9   5 -10   -1.70    2.50
   9   5  10    3.50    1.50
   0  -6 -10  486.05   41.00
   0  -6 -10  473.35   40.10
   0  -6  10  447.16   40.60
   0  -6  10  469.55   39.80
   0   6  10  424.86   40.20
   0   6 -10  430.96   40.10
  -2  -6 -10  743.23   62.99
   2  -6  10  732.53   64.79
   2   6 -10  808.02   64.99
  -2  -6 -10  735.63   63.39
   2   6 -10  665.83   65.19
  -2   6  10  664.43   66.09
  -2  -6 -10  813.62   66.19
   2   6 -10  742.33   63.79
   2  -6  10  810.32   64.19
  -2   6  10  626.84   65.09
   2  -6 -10  808.92   64.79
   2  -6 -10  637.94   64.89
  -2  -6  10  677.23   65.49
  -2  -6  10  816.12   64.89
   2  -6 -10  754.52   65.79
   2  -6 -10  769.62   64.89
   2   6  10  851.11   65.09
  -4   6  10  345.87   37.20
  -4  -6 -10  346.67   35.50
   4   6 -10  391.66   35.60
   4  -6  10  394.26   32.90
   4  -6 -10  378.66   33.60
   4  -6 -10  358.66   35.00
  -4   6 -10  425.16   36.10
  -6   6  10  294.77   29.90
   6   6 -10  262.57   26.10
   6  -6 -10  249.78   25.40
  -6  -6  10  243.38   26.20
  -6   6 -10  219.18   25.60
   6  -6 -10  277.07   23.60
   8   6 -10   90.89   12.20
  -8  -6 -10   94.59   12.00
   8  -6  10   60.49   10.10
   8  -6 -10  104.29   11.50
   8   6  10   79.19   10.20
  -1  -7 -10    1.60    1.00
   1   7 -10   -0.10    0.30
   1  -7  10    0.70    0.70
  -1  -7 -10    0.60    0.50
  -1   7  10    0.60    1.00
   1  -7  10   -0.40    0.60
   1   7 -10   -0.30    0.60
   1   7  10    0.20    0.70
  -1   7 -10    0.60    0.80
  -1  -7  10    0.10    0.50
   1  -7 -10   -0.30    0.50
   1   7  10   -0.80    0.40
   1  -7 -10    0.20    0.60
  -1  -7  10    0.00    0.60
  -3  -7 -10  169.48   18.80
   3   7 -10  177.78   18.50
   3  -7  10  201.68   18.40
  -3   7  10  188.68   20.20
   3  -7  10  205.98   17.10
   3  -7 -10  167.78   19.70
  -3   7 -10  160.58   18.50
  -3  -7  10  179.08   18.10
   3  -7 -10  199.68   18.70
  -3  -7  10  158.98   18.50
   3  -7 -10  183.18   17.20
   3  -7 -10  192.28   19.50
   5  -7  10    3.50    1.80
  -5   7  10   16.80    5.50
   5  -7  10    8.10    1.60
  -5  -7 -10    5.00    2.20
   5   7 -10    7.60    3.00
  -5  -7  10    3.10    2.40
   5  -7 -10    5.00    1.60
   5  -7 -10    5.50    1.40
   5  -7 -10    4.20    2.10
   7   7 -10   -0.40    1.30
  -7  -7 -10    0.40    1.20
   7  -7  10   -1.40    0.80
   7  -7 -10   -1.00    0.60
  -7  -7  10    0.90    1.20
   7   7  10    1.20    1.20
   0  -8 -10  201.88   20.30
   0   8  10  180.58   20.20
   0  -8  10  234.78   20.40
   0   8 -10  188.18   20.30
   0  -8 -10  204.58   19.50
   0   8  10  223.88   20.10
   0  -8  10  232.68   19.40
   2  -8  10  232.08   24.30
  -2  -8 -10  271.87   25.10
   2   8 -10  249.58   24.60
   2   8 -10  260.67   22.90
  -2   8  10  236.38   25.10
   2  -8  10  261.37   23.90
  -2   8  10  258.47   23.40
  -2  -8 -10  217.88   23.60
   2  -8  10  247.18   23.10
   2   8  10  278.57   24.10
   2  -8 -10  285.87   24.40
   2  -8 -10  267.57   23.40
  -2  -8  10  220.68   24.90
  -2  -8  10  270.87   23.40
  -2   8 -10  232.58   24.40
   4  -8  10  739.43   66.89
   4   8 -10  668.23   68.89
   4   8 -10  752.12   66.49
  -4  -8 -10  685.23   69.19
  -4   8  10  874.81   72.69
   4  -8 -10  802.62   66.69
  -4  -8  10  735.63   68.29
   4  -8 -10  884.71   69.39
  -4   8 -10  915.11   70.29
  -4  -8  10  932.71   70.69
   4   8  10  673.53   67.89
   6   8 -10  287.07   29.90
   6  -8  10  309.57   29.60
   6  -8  10  330.07   27.40
  -6   8  10  333.87   33.90
  -6  -8 -10  323.47   30.50
   6  -8 -10  269.67   28.80
  -6   8 -10  320.97   30.60
   6   8  10  258.77   28.30
   8   8 -10  134.29   16.20
  -8  -8 -10  122.79   15.30
   8   8  10  121.99   13.90
   8  -8 -10  124.09   14.50
  -1   9  10    7.50    2.90
  -1  -9 -10   12.00    2.50
  -1  -9 -10    7.10    2.40
   1  -9  10   12.60    3.20
   1   9 -10    5.50    2.30
  -1  -9 -10    9.60    1.90
   1  -9  10    9.90    2.30
   1  -9 -10   11.50    3.00
   1   9  10    6.70    2.40
   1  -9 -10   12.50    2.40
   1  -9 -10   10.40    2.70
  -1  -9  10    9.40    1.90
  -1  -9  10   13.30    3.90
  -1   9 -10   11.30    3.10
   3   9 -10   16.20    3.60
   3  -9  10   11.00    2.40
  -3   9  10   15.80    4.90
   3  -9  10   12.10    4.00
   3  -9  10   14.40    3.00
  -3  -9 -10   14.70    2.00
  -3  -9 -10   14.60    4.20
  -3   9 -10   11.10    3.60
   3  -9 -10   12.40    3.40
   3   9  10   13.90    2.90
  -3  -9  10   16.10    4.80
   3  -9 -10   11.40    2.10
  -3  -9  10   11.00    2.40
   5  -9  10    2.50    1.80
  -5  -9 -10   -0.20    1.20
   5  -9  10   -0.10    0.50
   5   9 -10   -0.90    0.80
  -5  -9  10    2.20    1.40
   5  -9 -10   -0.90    0.60
   5   9  10   -0.40    0.70
  -5   9 -10   -0.60    0.60
   7   9 -10    1.00    1.50
  -7   9  10    1.80    1.60
   7  -9  10    0.60    1.10
   7   9  10    2.50    1.60
  -7  -9  10   -0.80    1.00
   7  -9 -10   -0.70    0.80
   0 -10  10  241.68   24.60
   0  10  10  225.38   24.90
   0 -10 -10  275.07   25.10
   0 -10 -10  256.67   24.20
   0 -10  10  264.57   25.80
   0  10  10  257.07   24.60
   0 -10  10  268.07   23.80
   0  10  10  282.27   25.20
   0 -10 -10  305.57   24.90
  -2  10  10  367.36   38.00
   2  10 -10  394.46   37.30
   2 -10  10  452.25   36.70
  -2 -10 -10  433.66   37.60
   2 -10  10  407.96   35.80
  -2  10 -10  472.95   37.80
   2 -10 -10  424.26   35.70
   2  10  10  327.47   36.00
  -2 -10  10  347.47   36.80
   2 -10 -10  405.56   36.70
   2  10  10  392.16   35.50
   4 -10  10  445.36   38.40
  -4 -10 -10  454.05   41.00
   4  10 -10  396.86   40.20
  -4  10  10  393.76   42.30
   4  10  10  431.76   39.30
  -4  10 -10  455.35   41.80
   4 -10 -10  452.05   40.00
  -6 -10 -10  258.07   28.20
   6 -10  10  285.27   26.20
   6  10 -10  281.57   28.80
   6 -10 -10  349.67   28.50
  -6  10 -10  229.78   27.90
   6  10  10  314.87   27.40
  -6 -10  10  262.67   28.60
   8 -10  10  115.19   13.00
   8  10 -10   80.59   12.80
  -8 -10 -10  102.09   13.10
  -8 -10  10   86.59   12.80
   8  10  10  100.49   12.10
   8 -10 -10  105.19   12.30
  -1  11  10    0.80    0.70
   1 -11  10    0.50    0.60
   1 -11  10    0.70    0.80
   1  11 -10    0.80    1.00
  -1  11  10   -0.30    0.80
  -1 -11 -10   -0.50    0.50
  -1 -11 -10    1.10    0.80
  -1 -11  10    1.10    1.30
   1  11  10    0.40    0.80
  -1 -11  10   -0.10    0.80
   1 -11 -10   -0.20    0.60
   1  11  10    0.90    1.00
   1 -11 -10   -0.40    0.60
  -1 -11  10    1.20    0.60
   3 -11  10  124.99   12.50
  -3 -11 -10   98.39   12.50
  -3 -11 -10  102.19   10.40
  -3  11  10   95.89   13.50
   3 -11  10  110.39   11.20
   3  11 -10  102.79   12.50
  -3  11 -10   88.29   11.90
   3 -11 -10  107.29   12.10
   3  11  10  133.29   12.40
   3 -11 -10  107.59   10.00
  -3 -11  10  127.29   13.20
   3  11  10  105.19   10.70
  -3  11 -10  106.09   11.40
   5 -11  10    1.70    1.00
  -5 -11 -10    1.10    1.10
   5  11 -10   -0.40    0.90
   5  11  10   -0.40    0.70
  -5  11 -10    1.00    1.10
   5 -11 -10    2.00    1.20
  -7  11  10    4.00    3.30
   7 -11  10    1.80    1.10
   7  11 -10    0.90    1.40
  -7 -11 -10    0.00    0.80
  -7 -11  10    2.90    1.80
   7  11  10    0.70    1.10
   7 -11 -10   -1.00    0.60
   0 -12 -10  416.16   37.60
   0 -12  10  409.56   36.70
   0 -12  10  401.56   37.90
   0  12  10  480.75   39.30
   0  12 -10  449.36   38.90
   0  12  10  381.66   37.90
   0 -12 -10  407.26   38.00
  -2  12  10  635.84   57.39
   2 -12  10  623.14   54.59
  -2 -12 -10  597.74   55.79
   2 -12  10  629.04   54.89
   2  12  10  708.03   55.79
   2  12  10  580.34   54.29
  -2  12 -10  614.34   55.69
   2 -12 -10  603.14   55.09
  -2 -12  10  618.54   55.69
   2 -12 -10  610.24   53.89
   4 -12  10  181.78   19.30
  -4 -12 -10  213.58   20.50
   4 -12  10  173.38   18.10
   4  12 -10  191.08   20.20
   4 -12 -10  169.58   18.90
   4  12  10  192.88   18.80
  -4  12 -10  196.68   20.10
  -4 -12  10  230.78   20.90
  -4  12 -10  164.38   19.50
   6  12 -10  197.48   20.60
  -6 -12 -10  175.48   19.90
   6 -12  10  173.88   18.10
   6 -12  10  203.08   20.00
  -6 -12  10  168.18   20.00
   6 -12 -10  175.38   18.90
   6  12  10  186.18   18.70
   8  12 -10   56.59    9.50
   8 -12  10   37.30    7.30
  -8 -12 -10   50.19    8.40
   8 -12 -10   56.49    7.80
  -8 -12  10   68.29    9.80
   8  12  10   56.29    8.00
  -1  13  10    0.40    1.10
  -1  13  10    1.80    1.20
   1 -13  10   -0.40    1.00
  -1 -13 -10    0.00    0.90
   1  13 -10   -0.50    0.60
   1 -13  10    0.60    0.70
  -1 -13 -10   -0.20    0.40
   1 -13  10   -0.20    0.40
  -1 -13  10    0.70    0.50
   1 -13 -10   -0.20    1.00
  -1 -13  10   -1.10    0.90
   1  13  10   -1.00    0.80
   1 -13 -10    0.60    0.70
  -1  13 -10    1.20    1.20
   1  13  10    1.30    1.30
  -3  13  10    9.00    4.10
   3  13 -10    0.90    1.30
   3 -13  10    8.20    2.80
  -3 -13 -10    2.50    1.70
   3 -13  10    4.90    2.00
   3 -13 -10    3.40    1.80
   3  13  10    3.60    1.80
  -3 -13  10    7.60    2.90
  -3  13 -10    4.40    2.10
   3  13  10    4.90    1.90
  -5  13  10    4.10    2.10
   5 -13  10    1.00    1.10
  -5 -13 -10    1.30    1.10
   5 -13  10   -0.40    1.00
   5  13 -10   -0.20    0.90
  -5  13 -10   -1.80    0.90
   5 -13 -10    1.10    1.10
  -5 -13  10    1.00    1.10
   5  13  10    1.20    1.10
  -7  13  10   -1.10    1.80
  -7 -13 -10    1.30    1.20
   7  13 -10    2.50    2.20
  -7 -13  10   -0.10    0.90
   7  13  10    1.20    1.40
   7 -13 -10    0.80    1.50
   0  14  10  362.36   31.60
   0  14  10  299.37   30.00
   0 -14  10  355.56   30.30
   0 -14  10  286.97   30.40
   0 -14 -10  326.47   29.50
   0 -14  10  313.77   29.40
   0 -14 -10  319.27   30.10
   2 -14  10  452.15   41.20
  -2  14  10  522.35   44.70
   2  14 -10  431.56   42.20
  -2 -14 -10  482.75   42.60
   2 -14  10  477.45   41.60
  -2  14 -10  492.95   42.60
   2  14  10  415.66   41.70
  -2 -14  10  498.25   42.50
  -2  14 -10  462.05   41.30
   2 -14 -10  436.96   40.10
   2 -14 -10  473.75   41.70
   2  14  10  389.26   40.80
   4 -14  10  175.48   19.40
  -4 -14 -10  206.18   20.50
   4  14 -10  199.28   20.60
  -4  14  10  178.88   21.90
   4 -14  10  206.58   18.90
  -4 -14  10  189.98   20.30
   4 -14 -10  195.18   19.40
   4  14  10  170.28   18.90
   6  14 -10  189.18   19.90
  -6  14  10  150.88   21.20
   6 -14  10  139.19   18.30
  -6 -14 -10  188.88   19.50
   6 -14  10  166.58   17.50
   6  14  10  177.38   17.80
   6 -14 -10  180.08   18.20
  -6 -14  10  180.68   19.70
  -8 -14 -10   55.59    8.90
   8 -14  10   69.19    9.30
   8  14 -10   54.99    9.60
   8 -14 -10   60.39    8.20
  -8 -14  10   38.90    8.60
   8  14  10   54.79    8.00
   1 -15  10    2.50    1.40
  -1  15  10    1.30    1.60
   1 -15  10    1.40    1.30
  -1 -15 -10    0.80    0.90
  -1 -15 -10    1.30    0.90
   1  15 -10    0.10    0.70
   1 -15  10    2.30    1.90
   1  15  10    2.70    1.80
  -1 -15  10    0.10    0.70
  -1  15 -10    1.90    1.20
   1  15  10    0.60    0.90
   1 -15 -10    3.50    1.60
   1 -15 -10    0.40    0.90
   3 -15  10   12.00    3.50
   3  15 -10    7.90    2.80
  -3  15  10   12.60    4.70
  -3 -15 -10   12.50    4.00
   3 -15  10   12.50    3.30
  -3  15 -10    8.50    3.20
   3 -15 -10   12.60    4.00
   3  15  10    7.00    2.60
  -3 -15  10   17.80    5.10
  -5 -15 -10    1.40    1.00
  -5  15  10    3.60    2.20
   5 -15  10    2.60    1.20
   5 -15  10    0.90    0.90
   5 -15 -10    0.60    0.80
  -7 -15 -10    0.20    0.70
   7  15 -10   -0.50    1.10
   7  15  10   -0.20    0.90
   7 -15 -10   -0.20    0.90
  -7 -15  10    1.40    1.60
   0 -16 -10  437.66   41.50
   0  16  10  463.55   43.00
   0 -16  10  466.45   41.70
   0 -16  10  499.65   41.70
   0 -16  10  435.86   41.80
   0 -16 -10  441.16   40.90
   2  16 -10  346.37   28.40
   2 -16  10  305.47   26.80
   2 -16  10  304.77   27.10
  -2  16  10  254.07   28.80
  -2 -16 -10  272.67   27.50
   2 -16  10  246.88   28.50
  -2 -16  10  242.68   26.90
   2 -16 -10  278.57   26.70
   2  16  10  254.47   26.50
   2  16  10  311.07   27.80
   4  16 -10  147.49   17.90
   4 -16  10  165.38   17.60
  -4  16  10  192.78   21.40
   4 -16  10  168.88   16.90
  -4 -16 -10  160.18   18.00
   4  16  10  174.88   17.50
   4 -16 -10  144.49   16.80
   6  16 -10  120.99   14.10
  -6 -16 -10  124.19   13.70
  -6  16  10   67.69   13.60
   6 -16  10   92.39   12.20
   6 -16  10  109.89   12.20
  -6 -16  10   91.09   12.60
   6  16  10   98.19   11.90
   6 -16 -10  101.79   11.90
   1 -17  10    2.10    1.20
  -1  17  10    1.50    1.30
  -1 -17 -10    0.00    1.00
   1 -17  10    0.10    1.00
   1  17  10    2.60    1.50
  -1  17 -10    0.00    0.70
  -1 -17  10    0.80    1.00
   1  17  10    2.20    1.50
   1 -17 -10    2.30    1.50
  -3  17  10    0.80    2.10
  -3 -17 -10    0.70    1.30
   3  17 -10    0.20    1.10
   3 -17  10    1.30    1.60
  -3  17 -10    0.90    1.40
   3  17  10    2.30    1.70
   3 -17 -10    2.40    1.10
  -3 -17  10    0.50    1.20
  -5 -17 -10    1.40    1.50
   5  17 -10    2.10    1.80
   5 -17  10    3.40    1.60
  -5  17  10    3.70    2.20
   5 -17 -10    0.30    1.00
  -5 -17  10    5.90    2.60
  -7 -17 -10    1.60    1.20
   7  17 -10   -0.40    1.90
  -7  17  10    1.40    2.70
  -7 -17  10   -0.50    1.00
   7 -17 -10    0.50    1.10
   7  17  10   -1.50    1.00
   0 -18 -10  453.55   40.00
   0  18 -10  432.06   41.20
   0 -18 -10  461.15   41.00
   0  18  10  429.76   42.10
   0 -18  10  434.96   40.60
   2 -18  10  257.87   24.30
   2  18 -10  248.98   25.00
  -2  18  10  277.17   27.40
  -2 -18 -10  261.37   25.20
   2 -18  10  227.58   23.70
  -2  18 -10  234.88   24.60
   2 -18 -10  233.78   23.90
   2  18  10  248.58   24.90
   4 -18  10  133.29   14.40
   4 -18  10  138.09   15.30
  -4  18  10  129.49   17.30
   4  18 -10   98.59   14.50
  -4 -18 -10  168.48   16.50
  -4 -18  10  134.69   15.40
   4  18  10  135.49   15.10
   4 -18 -10  130.19   14.40
  -6  18  10   71.09   11.70
  -6 -18 -10   55.49    8.90
   6 -18  10   67.09    8.50
   6  18  10   51.39    7.90
   6 -18 -10   55.49    7.80
  -6 -18  10   41.30    8.20
  -1 -19 -10    3.80    2.40
  -1 -19 -10    5.30    2.50
  -1  19  10    2.30    2.20
   1  19 -10    1.70    1.20
   1 -19  10    2.70    1.60
   1 -19 -10    1.00    1.50
   1  19  10    5.90    2.80
  -1 -19  10    2.40    1.50
  -3 -19 -10   -0.10    0.80
   3  19 -10   -0.30    0.50
   3 -19  10    0.70    1.00
  -3  19  10    0.10    1.30
  -3  19 -10    0.40    0.60
  -3 -19  10   -0.50    0.70
   3 -19 -10   -0.80    0.80
   3  19  10    0.70    1.20
  -5  19  10   -2.20    1.40
  -5 -19 -10   -0.30    0.90
   5  19 -10   -0.10    0.90
   5 -19  10   -1.10    1.10
   5  19  10   -0.40    1.00
   0 -20  10  379.26   33.10
   0  20  10  313.07   34.10
  -2  20  10  141.89   17.10
   2 -20  10  121.99   14.00
  -2 -20 -10  133.09   14.10
   2  20 -10  102.89   14.20
  -2  20 -10  139.29   15.10
  -2 -20  10  166.38   15.60
   2  20  10  125.69   15.10
   2 -20 -10  125.59   14.00
   4 -20  10  178.98   18.70
   4 -20  10  154.18   19.80
  -4  20  10  184.78   22.10
  -4 -20 -10  159.88   19.50
   4  20 -10  197.58   20.30
   4  20  10  170.18   19.20
  -4 -20  10  216.98   20.50
   4 -20 -10  189.78   19.00
  -6  20  10   58.09   13.70
   6 -20  10   48.10    7.60
   6  20 -10   49.40    8.10
   6 -20 -10   36.60    6.30
   6  20  10   47.10    7.60
  -6 -20  10   43.10    7.60
   1 -21  10   14.20    4.40
  -1  21  10    3.80    2.60
  -1  21 -10    7.90    3.10
  -1 -21  10    6.70    2.50
   1  21  10   15.80    5.30
   1  21  10   10.70    4.50
  -3  21  10    0.80    1.40
  -3 -21  10   -1.00    0.60
   3  21  10   -1.10    0.70
   5  21 -10   -0.30    1.30
  -5  21  10    4.40    2.80
   5 -21  10    2.40    1.60
   5  21  10   -1.00    1.20
   5 -21 -10    2.00    1.60
  -5 -21  10    0.40    1.50
   0  22 -10  140.19   15.50
   0 -22  10  139.39   15.00
   0  22  10  121.39   16.20
  -2  22  10  151.58   20.30
   2  22 -10  171.28   19.00
   2 -22  10  160.28   17.90
   2 -22 -10  158.88   17.60
  -2 -22  10  213.08   19.30
   2  22  10  192.98   20.00
   4  22 -10   72.19   10.90
   4 -22  10   82.39   10.50
  -4  22  10  103.09   14.20
   4 -22 -10   88.39   10.60
  -4 -22  10   82.99   11.10
   4  22  10   81.59   11.20
   6  22  10   79.39   10.90
   1 -23  10    0.70    1.10
   1  23  10   -1.20    1.30
  -1 -23  10   -1.20    1.10
  -3  23  10   11.80    5.30
   3  23 -10    5.50    2.40
   3 -23  10    4.80    2.30
  -3 -23  10   12.90    3.80
   3  23  10    3.80    2.00
   5 -23  10   -1.40    1.30
   5  23  10   -0.90    1.30
   5 -23 -10    0.90    1.00
  -5 -23  10    3.50    2.00
   0  24  10  100.69   13.40
   0 -24  10   79.59   10.90
   2 -24  10   58.09    8.90
  -2  24  10   84.29   12.40
   2  24 -10   89.29   10.80
  -2 -24  10   53.09    8.90
   2  24  10   85.49   11.40
   4 -24  10  116.79   13.60
  -4 -24  10  108.79   14.00
   4  24  10  111.59   14.50
   4 -24 -10  124.19   13.40
  -1  25  10   -0.20    2.20
   1 -25  10   -0.70    1.00
   1  25  10    1.50    2.00
  -1 -25  10    3.30    1.60
   3 -25  10   -0.20    1.30
  -3  25  10    7.20    3.90
   3  25 -10    2.10    1.40
   3  25  10    5.00    2.60
  -3 -25  10    0.30    1.70
   0 -26  10   92.49   11.30
   0  26  10   84.39   13.00
   2 -26  10   39.60    6.70
  -2  26  10   37.00    8.50
   2  26 -10   46.00    7.50
  -2 -26  10   34.40    6.30
   2  26  10   43.40    7.80
  -4  26  10  161.78   25.50
   4  26 -10  127.49   15.40
   4  26  10  107.09   15.50
   1 -27  10    1.50    1.50
  -1  27  10    0.70    2.20
  -1 -27  10    1.50    1.50
   1  27  10   -0.90    1.80
  -3  27  10    2.20    2.60
   3 -27  10    7.60    2.90
   3  27  10    4.70    2.50
  -3 -27  10    1.10    1.50
   0  28  10   47.20    9.90
   2 -28  10   81.79   10.40
  -2  28  10   75.69   13.00
   2  28  10   86.79   12.90
   0   0 -11  613.04   54.39
   0   0 -11  709.63   55.39
   0   0  11  557.24   54.29
   2   0 -11  611.64   55.99
   2   0 -11  578.84   56.59
  -2   0  11  736.73   57.99
   2   0 -11  654.53   56.79
  -2   0 -11  677.23   54.79
  -2   0 -11  622.04   57.49
   4   0 -11  336.07   29.90
   4   0 -11  312.07   29.30
  -4   0  11  308.57   31.90
  -6   0 -11  228.48   27.10
   6   0  11  298.47   26.70
   6   0 -11  260.37   26.50
   6   0 -11  307.77   27.90
   8   0 -11  163.38   16.90
  -8   0  11  103.89   20.00
   8   0  11  137.99   15.40
  -1  -1 -11   14.40    4.00
  -1   1  11   14.70    4.70
  -1   1  11   21.20    3.60
   1   1 -11   14.60    3.10
  -1  -1 -11   19.40    3.30
   1   1 -11   18.50    3.00
   1  -1  11   17.70    2.80
  -1  -1 -11   16.30    3.40
   1  -1  11   15.30    2.90
   1  -1  11   24.20    3.60
   1  -1 -11   14.20    2.80
   1   1  11   15.20    2.90
  -1  -1  11   19.70    3.50
   1   1  11   18.70    3.20
   1  -1 -11   19.20    3.50
  -1  -1  11   16.90    3.40
  -1   1 -11   10.30    2.60
  -1   1 -11   20.10    3.70
  -3  -1 -11    1.40    1.20
   3   1 -11    0.40    0.70
  -3   1  11    0.10    1.00
   3  -1  11    0.60    0.80
   3   1 -11   -0.30    0.50
   3  -1 -11    0.60    0.80
  -3  -1  11    1.80    1.20
   3  -1 -11    1.30    1.30
   3  -1 -11    2.60    1.50
  -3  -1  11    1.80    1.50
   3   1  11    1.50    1.00
  -3   1 -11   -0.80    0.50
   5   1 -11    4.90    2.60
  -5  -1 -11    3.30    2.30
   5   1 -11    3.50    1.70
   5  -1  11    4.80    2.00
  -5   1  11   10.80    3.90
  -5   1 -11    5.40    2.40
   5  -1 -11    6.80    2.50
  -5  -1  11    5.00    3.20
   5  -1 -11    5.30    2.30
   5   1  11   10.80    3.40
   7   1 -11   -0.10    1.40
   7  -1  11    1.10    1.50
   7   1 -11    1.40    1.20
  -7  -1 -11    2.00    1.60
  -7  -1  11   -0.20    2.10
   7   1  11    1.40    1.30
   7  -1 -11   -1.20    1.10
  -7   1 -11    0.10    1.30
   7  -1 -11   -2.40    1.30
   9  -1  11   -0.90    0.80
  -9   1  11    0.40    3.90
   9   1  11   -1.50    1.20
   0  -2  11 1207.18  107.99
   0  -2 -11 1083.99  107.19
   0  -2  11 1286.77  107.79
   0  -2 -11 1362.56  108.49
   0  -2 -11 1359.76  107.59
   2   2 -11  559.34   52.69
   2  -2  11  598.04   52.09
  -2  -2 -11  589.64   54.39
  -2   2  11  564.34   54.39
   2   2 -11  652.13   53.79
  -2   2  11  565.04   53.69
   2  -2  11  509.75   52.99
   2   2 -11  620.44   53.79
  -2   2 -11  557.84   54.19
   2  -2 -11  636.24   53.59
   2  -2 -11  703.13   53.39
  -2  -2  11  663.23   54.39
   2  -2 -11  695.63   54.69
  -2  -2  11  553.34   54.09
  -2   2 -11  642.14   51.79
   2  -2 -11  633.24   54.09
   4   2 -11  332.37   29.90
   4   2 -11  292.07   28.70
  -4  -2 -11  338.77   30.90
  -4   2  11  315.97   32.00
  -4  -2  11  336.47   31.80
   4  -2 -11  333.17   29.30
   4  -2 -11  271.57   29.00
  -4   2 -11  344.17   30.80
   4  -2 -11  258.27   29.60
  -4  -2  11  364.96   31.30
  -6  -2 -11  124.69   15.60
   6   2 -11  139.39   15.10
   6  -2 -11  138.39   14.60
   6  -2 -11  161.78   15.90
  -6   2 -11  128.29   15.70
  -6  -2  11  115.79   16.90
   8   2 -11  104.99   14.70
   8   2 -11  147.69   15.80
   8  -2 -11  144.29   15.50
   8   2  11  120.89   14.30
   1   3 -11    1.10    0.80
  -1  -3 -11   -0.80    0.50
  -1  -3 -11    0.30    0.50
   1  -3  11    0.30    0.60
  -1   3  11    0.90    0.90
   1  -3  11   -0.40    0.50
   1   3 -11    0.00    0.50
  -1   3  11   -0.50    0.70
  -1  -3  11    0.00    0.80
   1  -3 -11    0.10    0.60
   1   3  11   -0.40    0.60
   1   3  11    0.00    0.50
   1  -3 -11    2.10    1.10
  -1   3 -11    1.40    1.30
  -1   3 -11   -0.50    0.40
  -1  -3  11    0.60    0.80
   3   3 -11   41.40    6.50
  -3  -3 -11   54.29    7.50
  -3   3  11   47.10    7.70
   3   3 -11   51.99    5.90
   3  -3  11   47.10    6.50
  -3   3 -11   67.89    8.00
  -3  -3  11   34.40    6.40
   3  -3 -11   51.79    6.30
   3  -3 -11   59.79    7.40
   3   3  11   48.20    6.50
   3  -3 -11   50.49    6.30
  -3  -3  11   61.49    7.80
   5   3 -11    5.40    2.40
   5  -3  11    7.30    2.50
  -5   3  11   15.30    5.40
   5   3 -11    4.20    2.00
  -5  -3 -11    4.50    2.10
  -5  -3  11    9.60    4.20
   5   3  11    5.60    2.20
  -5   3 -11   10.70    3.80
   5  -3 -11    6.40    2.20
  -5  -3  11    4.80    2.20
   5  -3 -11    4.60    2.60
  -7  -3 -11   -0.70    0.60
   7  -3  11   -1.30    1.10
   7   3 -11   -0.10    1.50
   7   3 -11    0.00    0.80
   7   3  11    1.20    1.10
  -7  -3  11   -0.40    1.90
   7  -3 -11    0.50    1.30
  -7   3 -11    0.90    0.90
   0  -4  11  981.80   85.89
   0  -4 -11 1009.40   85.49
   0  -4  11 1002.70   85.39
   0  -4 -11  918.81   86.09
   0  -4 -11 1026.60   85.79
   0   4 -11 1036.80   86.49
   2  -4  11  627.14   59.39
  -2  -4 -11  741.53   61.69
   2   4 -11  693.33   59.79
  -2   4  11  753.72   62.29
   2   4 -11  729.63   61.19
  -2   4  11  615.64   60.39
  -2  -4 -11  650.23   60.69
   2  -4  11  701.83   60.49
  -2   4 -11  788.42   61.99
   2   4  11  734.43   60.69
   2  -4 -11  755.62   61.29
  -2  -4  11  624.84   60.59
   2  -4 -11  645.84   60.09
   2  -4 -11  689.93   60.39
   2  -4 -11  636.94   60.89
  -2  -4  11  726.43   61.69
   4  -4  11  376.56   30.70
   4   4 -11  309.57   30.50
   4   4 -11  294.07   28.80
  -4  -4 -11  355.86   31.80
  -4   4  11  312.47   32.60
  -4   4  11  312.77   30.80
  -4  -4  11  300.67   31.30
   4  -4 -11  331.57   30.80
   4  -4 -11  309.37   29.20
  -4  -4  11  279.87   30.80
  -4   4 -11  376.06   31.70
  -6   4  11  164.28   20.40
  -6  -4 -11  146.69   17.60
   6   4 -11  170.58   17.70
  -6  -4  11  135.29   17.60
   6  -4 -11  176.08   17.60
  -6  -4  11  151.88   19.10
   6  -4 -11  163.48   16.10
   8  -4  11  101.49   12.90
   8   4 -11   81.19   13.00
   8   4 -11  141.49   15.00
  -8  -4 -11  116.19   14.10
   8   4  11   94.69   12.10
   8  -4 -11  118.59   13.30
   1   5 -11    4.40    1.60
   1  -5  11    2.60    1.40
   1  -5  11    4.00    1.50
  -1  -5 -11    2.20    1.40
   1   5 -11    4.30    1.70
  -1  -5 -11    4.50    2.10
  -1   5  11    4.60    2.40
  -1   5  11    6.20    1.90
   1   5  11    4.20    1.80
  -1  -5  11    3.80    1.80
   1  -5 -11    4.70    1.60
   1  -5 -11    2.20    1.40
  -1   5 -11    1.40    1.20
  -1  -5  11    3.30    1.50
   1  -5 -11    5.80    2.10
  -1   5 -11    4.90    2.30
   1  -5 -11    4.30    1.70
  -3  -5 -11  186.88   18.80
   3   5 -11  174.18   18.00
  -3   5  11  148.29   18.80
   3   5 -11  156.58   16.30
   3  -5  11  206.28   18.00
   3  -5  11  170.88   16.00
  -3  -5  11  200.68   19.00
  -3   5 -11  195.38   18.70
  -3  -5  11  183.28   18.30
   3   5  11  163.58   17.20
   3  -5 -11  164.68   17.20
   3  -5 -11  191.18   18.30
   3  -5 -11  171.08   16.90
   5   5 -11    1.90    1.30
  -5   5  11    3.00    1.90
   5  -5  11    0.30    1.30
  -5  -5 -11    4.20    2.40
   5  -5 -11    4.50    1.70
   5   5  11    0.60    0.90
  -5  -5  11    0.10    1.70
   5  -5 -11    1.60    1.10
  -5   5 -11    3.70    2.10
  -5  -5  11    1.70    1.70
   7  -5  11    0.60    1.00
  -7   5  11    3.40    3.70
   7   5 -11    0.70    1.60
  -7  -5 -11    1.40    1.90
   7   5  11    0.70    1.00
   7  -5 -11    1.70    2.20
   0  -6 -11  334.27   31.50
   0  -6  11  363.76   30.60
   0  -6 -11  365.56   31.10
   0   6 -11  293.87   30.60
   0  -6 -11  357.56   30.80
   0  -6  11  330.17   31.20
  -2  -6 -11  298.97   26.80
   2   6 -11  279.77   27.70
   2  -6  11  303.57   28.00
  -2  -6 -11  362.06   30.30
   2  -6  11  281.67   28.40
  -2   6  11  273.27   29.90
  -2  -6 -11  325.17   27.20
   2   6 -11  320.07   29.40
  -2  -6  11  285.97   29.40
  -2   6 -11  366.46   30.00
   2  -6 -11  337.67   29.40
   2  -6 -11  331.27   28.80
  -2  -6  11  350.16   31.50
   2   6  11  324.87   29.80
  -2  -6  11  297.67   28.60
   2   6  11  293.67   28.60
   4  -6  11  548.35   56.39
  -4   6  11  535.35   58.79
   4   6 -11  681.13   55.29
   4  -6  11  668.63   54.59
  -4  -6 -11  703.63   58.39
  -4  -6  11  599.54   57.69
  -4   6 -11  578.44   57.19
  -4  -6  11  688.13   58.09
   4  -6 -11  725.33   55.79
   4  -6 -11  628.24   56.99
  -6  -6 -11  249.08   28.40
   6   6 -11  280.27   28.50
   6   6  11  328.47   27.90
   6  -6 -11  276.07   28.00
  -6  -6  11  327.97   29.70
  -6   6 -11  259.97   28.50
  -8  -6 -11  138.89   15.10
   8   6 -11  116.89   14.90
   8   6  11   94.59   12.60
   1  -7  11    6.30    2.00
   1  -7  11    6.80    2.30
   1   7 -11    7.70    2.50
  -1  -7 -11    5.40    1.70
  -1  -7 -11    3.00    1.80
   1   7 -11    4.80    1.70
  -1   7  11    4.00    1.80
  -1   7  11    5.90    2.00
  -1  -7 -11    6.60    2.20
   1  -7 -11    4.60    1.90
  -1   7 -11    5.80    1.80
  -1  -7  11    3.70    1.50
   1  -7 -11    6.10    2.00
  -1  -7  11    3.50    2.10
   1   7  11    6.30    2.20
  -1  -7  11    5.00    1.90
   1  -7 -11    3.20    1.60
  -1   7 -11    5.60    2.30
  -3   7  11    1.40    1.60
   3  -7  11    4.20    1.50
   3  -7  11    2.80    1.50
  -3  -7 -11    6.90    3.00
   3   7 -11    4.60    2.30
   3  -7 -11    3.10    1.50
  -3  -7  11    4.10    2.60
   3   7  11    4.50    2.00
  -3   7 -11    2.40    1.40
   3  -7 -11    1.30    1.10
  -5   7  11    1.50    1.90
   5  -7  11    4.00    1.30
   5   7 -11    1.60    1.20
   5  -7  11    1.50    1.20
  -5  -7 -11    2.30    2.00
   5  -7 -11    2.70    1.40
   5  -7 -11    2.10    1.00
  -5  -7  11   -0.90    0.90
  -5   7 -11   -0.60    2.70
   5   7  11    3.20    1.80
   7   7 -11    0.20    1.30
  -7  -7 -11    0.90    1.40
   7  -7  11    0.50    1.10
   7   7  11    0.30    0.90
  -7  -7  11    2.60    1.60
   7  -7 -11   -1.20    0.70
   0   8  11  288.97   26.90
   0  -8  11  322.37   26.50
   0   8 -11  281.37   27.00
   0  -8  11  323.57   27.60
   0  -8 -11  342.37   27.00
   0   8 -11  255.77   27.30
   0  -8 -11  285.17   27.40
   0   8  11  234.48   27.10
   2  -8  11  391.76   35.70
  -2  -8 -11  406.96   37.50
   2  -8  11  371.56   35.90
  -2   8  11  429.46   38.30
   2   8 -11  356.16   36.70
   2   8  11  448.96   36.80
   2  -8 -11  371.16   35.70
   2  -8 -11  417.16   36.60
  -2  -8  11  417.16   37.40
   4   8 -11  573.24   48.30
   4  -8  11  525.85   45.90
  -4   8  11  470.95   49.99
   4   8 -11  466.35   45.40
  -4  -8 -11  522.95   48.50
   4   8  11  531.15   47.20
   4  -8 -11  502.35   45.80
  -4  -8  11  607.14   49.40
   4  -8 -11  569.14   48.00
  -6  -8 -11  267.57   25.30
   6   8 -11  225.58   24.30
  -6   8  11  241.98   27.70
   6  -8 -11  247.08   23.80
  -6  -8  11  271.37   25.70
   6   8  11  190.78   22.70
   8   8 -11   90.19   12.60
  -8  -8 -11  107.89   12.90
   8  -8 -11  114.19   12.10
   8   8  11   69.19   10.50
  -1  -9 -11    3.00    1.70
   1   9 -11    2.70    1.40
  -1   9  11    2.40    1.40
   1  -9  11    2.40    1.30
  -1  -9 -11    2.40    1.10
   1  -9  11    4.40    1.80
   1  -9 -11    2.40    1.30
   1  -9 -11    1.30    1.30
  -1  -9  11    4.50    1.80
  -1   9 -11    2.10    1.30
  -1  -9  11    1.90    1.00
   1   9  11    3.90    2.00
   3  -9  11   58.99    6.50
   3   9 -11   49.90    5.70
   3  -9  11   60.79    7.40
  -3  -9 -11   44.00    7.30
  -3   9  11   44.10    8.10
   3   9 -11   39.40    7.00
   3  -9 -11   59.19    7.50
  -3  -9  11   62.49    7.00
   3  -9 -11   54.39    6.20
  -3   9 -11   56.99    7.80
  -3  -9  11   68.99    8.40
  -5   9  11    1.00    1.70
   5  -9  11    2.20    0.80
   5  -9  11   -1.00    0.60
  -5  -9 -11    1.60    1.80
   5   9 -11   -0.80    0.60
  -5  -9  11    1.50    1.50
   5   9  11    0.10    1.00
   5  -9 -11    0.10    0.70
  -5   9 -11   -0.90    0.80
   7   9 -11    2.80    1.70
  -7  -9 -11    1.70    1.80
   7  -9  11   -0.80    0.70
   7  -9 -11    2.10    1.40
   7   9  11    0.50    1.10
  -7  -9  11   -0.90    0.90
   0 -10  11  444.46   42.00
   0 -10  11  393.86   40.70
   0 -10  11  443.86   39.90
   0 -10 -11  480.95   41.60
   0  10  11  520.05   42.10
   0  10 -11  455.15   41.70
  -2 -10 -11  466.45   47.90
   2 -10  11  564.44   47.40
   2  10 -11  439.56   47.60
  -2  10  11  571.34   49.80
   2 -10  11  507.05   46.80
  -2  10 -11  497.25   47.20
   2 -10 -11  503.15   46.70
   2 -10 -11  563.04   47.80
   2 -10 -11  589.84   51.29
  -2 -10  11  604.34   48.80
   2  10  11  600.74   48.00
  -2 -10  11  505.95   46.40
  -4  10  11  274.97   28.20
   4 -10  11  258.87   24.90
   4  10 -11  221.78   25.00
  -4 -10 -11  233.28   25.50
   4 -10  11  279.07   23.80
  -4 -10  11  275.67   26.20
   4 -10 -11  243.68   24.80
   6 -10  11  221.18   20.60
  -6  10  11  199.68   24.00
  -6 -10 -11  174.18   20.30
   6  10 -11  153.68   19.80
  -6 -10  11  208.08   21.60
   6  10  11  186.08   19.20
   6 -10 -11  185.28   19.60
   8  10 -11   65.49    9.90
   8 -10  11   37.40    7.40
  -8 -10  11   48.40    8.50
   8  10  11   61.49    8.20
   8 -10 -11   77.89    9.20
   1 -11  11    0.60    0.70
   1  11 -11    2.30    1.10
  -1  11  11   -0.50    0.90
   1 -11  11    0.80    0.70
   1  11 -11    0.70    1.10
  -1 -11 -11    0.90    1.30
  -1  11 -11    2.20    1.70
   1 -11 -11    0.60    0.80
   1  11  11    0.80    1.20
   1 -11 -11    1.20    1.00
   1  11  11    1.40    1.20
  -1 -11  11   -0.30    0.90
  -3  11  11    4.10    2.20
   3 -11  11    1.00    1.10
   3  11 -11    3.20    1.90
  -3 -11 -11   -0.20    1.50
   3 -11  11    0.80    1.10
  -3  11 -11    2.70    1.20
   3 -11 -11    0.60    0.70
   3  11  11    1.80    1.30
  -3  11 -11    0.90    0.90
   3 -11 -11    0.30    0.60
  -3 -11  11    0.80    1.20
   5 -11  11   -0.30    0.70
   5  11 -11   -1.10    1.00
   5 -11  11    0.10    0.90
  -5 -11 -11    1.70    1.40
  -5  11 -11    0.20    1.10
   5 -11 -11   -1.20    0.80
   5  11  11   -0.80    0.80
  -5 -11  11   -0.20    1.10
   7  11 -11    1.50    1.80
  -7 -11 -11   -0.10    0.70
   7 -11  11   -0.90    1.00
  -7  11  11   -1.20    1.50
  -7 -11  11   -1.20    1.30
   7 -11 -11   -0.30    0.90
   7  11  11    0.30    1.00
   0 -12  11  309.97   24.60
   0  12  11  259.77   25.60
   0 -12  11  241.08   26.10
   0 -12 -11  307.37   25.90
   0  12 -11  223.58   25.40
   0 -12 -11  298.87   25.20
   0  12  11  217.78   25.40
   0 -12  11  270.07   25.50
  -2 -12 -11  516.95   44.30
   2 -12  11  432.86   45.20
   2 -12  11  460.25   42.60
   2  12 -11  418.76   43.60
   2 -12  11  464.75   42.80
  -2  12  11  436.56   44.80
  -2  12 -11  474.25   42.50
  -2  12 -11  558.44   44.50
   2 -12 -11  463.65   42.10
   2 -12 -11  516.15   43.40
   2  12  11  493.75   43.50
   2  12  11  447.86   42.30
  -2 -12  11  523.25   44.20
   4  12 -11  168.68   20.30
  -4  12  11  252.97   24.50
   4 -12  11  208.28   19.10
  -4 -12 -11  212.78   21.20
   4 -12  11  168.78   19.80
  -6  12  11  202.38   24.10
  -6 -12 -11  176.88   20.60
   6  12 -11  198.08   21.20
   6 -12 -11  215.58   20.30
  -6 -12  11  167.38   20.90
   8 -12  11   66.29    9.40
  -8 -12 -11   48.30    8.80
   8  12  11   71.89    8.90
   8 -12 -11   49.30    8.00
  -8 -12  11   77.69   10.80
   1  13 -11    2.50    1.50
   1 -13  11    1.20    1.70
  -1  13  11    1.20    0.80
  -1 -13 -11    1.00    1.20
   1 -13  11    1.10    1.20
  -1 -13 -11    0.70    1.00
  -1  13  11    0.60    1.30
   1 -13  11    0.20    0.50
  -1  13  11   -1.00    1.00
   1  13  11    1.90    1.10
  -1 -13  11    2.10    1.50
   1  13  11    1.60    1.60
  -1  13 -11    1.50    1.40
   1 -13 -11    0.80    0.90
  -1  13 -11    0.70    1.10
  -1 -13  11    3.00    1.10
  -1 -13  11    0.70    1.20
   1 -13 -11    0.20    0.90
   1  13  11    1.60    1.20
   3 -13  11   23.70    4.00
  -3  13  11   27.40    5.60
   3 -13  11   16.00    3.80
   3  13 -11   26.30    4.80
  -3 -13 -11   22.00    4.60
   3 -13 -11   20.00    3.90
  -3  13 -11   22.30    4.40
   3  13  11   17.60    3.90
  -3 -13  11   29.50    5.40
  -5 -13 -11    2.40    1.50
   5 -13  11    1.60    1.50
   5  13 -11   -0.60    1.30
  -5  13  11   -1.30    1.50
   5 -13  11    4.60    1.70
   5  13  11    1.60    1.90
   5 -13 -11    0.80    1.30
  -5 -13  11    1.40    1.30
  -5  13 -11    0.40    1.10
   7  13 -11    3.00    2.10
  -7 -13 -11    0.90    0.70
  -7 -13  11   -2.10    1.00
   7  13  11   -0.30    0.70
   0  14 -11  221.08   25.20
   0  14  11  312.47   27.00
   0  14  11  242.08   25.20
   0 -14 -11  278.27   24.70
   0 -14  11  275.97   24.00
   0 -14 -11  249.97   25.20
   0 -14  11  241.68   25.90
   0 -14  11  280.87   25.60
   2 -14  11  338.97   38.60
  -2 -14 -11  426.16   37.70
  -2  14  11  473.05   40.00
   2 -14  11  422.56   36.60
   2 -14  11  400.16   36.20
   2  14 -11  342.77   37.00
   2 -14 -11  381.16   35.30
  -2  14 -11  358.46   37.10
   2  14  11  460.95   37.60
  -2  14 -11  425.86   36.30
   2  14  11  395.46   36.30
   2 -14 -11  411.86   36.70
  -2 -14  11  338.07   36.70
   4  14 -11  193.98   18.80
   4 -14  11  140.99   16.10
  -4 -14 -11  151.58   17.90
  -4  14  11  188.08   20.90
   4 -14  11  142.99   17.60
   4 -14 -11  187.48   17.60
  -4 -14  11  182.88   18.70
   4  14  11  175.48   17.20
  -4  14 -11  133.49   17.40
  -6 -14 -11  214.28   21.20
   6  14 -11  204.88   21.20
   6 -14  11  187.68   20.00
  -6 -14  11  202.78   21.40
   6  14  11  151.38   18.60
   6 -14 -11  185.98   19.60
   1  15 -11    5.60    2.60
  -1 -15 -11    7.00    2.90
  -1  15  11    9.70    3.70
  -1  15  11    6.60    2.20
  -1 -15 -11   15.40    3.70
   1 -15  11    8.70    3.70
   1 -15  11   10.40    3.20
   1 -15  11   10.50    2.40
  -1  15 -11   14.20    4.40
   1  15  11    8.80    3.10
   1  15  11   15.60    3.30
   1 -15 -11    9.90    3.10
  -1 -15  11    9.80    3.30
   1 -15 -11    7.00    2.40
   3 -15  11   11.50    3.80
   3 -15  11    9.70    3.10
   3  15 -11    6.70    2.80
  -3  15  11    7.80    3.30
  -3 -15 -11    9.30    2.90
  -3  15 -11   12.90    4.40
  -3 -15  11    6.80    2.80
   3  15  11   10.60    3.60
   3 -15 -11    7.60    2.50
  -5  15  11    1.60    1.30
   5  15 -11    3.00    1.70
   5 -15  11    3.10    1.70
   5 -15  11    2.60    1.80
  -5 -15 -11    2.20    1.60
   5 -15 -11    0.20    1.30
   5  15  11    2.80    1.90
  -5 -15  11    3.10    2.00
  -7 -15 -11    3.10    1.60
   7  15 -11   -0.30    1.50
   7  15  11    0.00    1.00
   7 -15 -11    2.00    1.30
  -7 -15  11    3.90    3.00
   0  16  11  466.65   41.30
   0 -16 -11  439.56   39.10
   0 -16  11  388.16   39.40
   0 -16 -11  407.86   39.50
   0  16 -11  463.45   40.50
   2 -16  11  326.97   31.30
   2  16 -11  320.57   32.40
  -2  16  11  375.96   34.70
   2 -16  11  316.87   31.30
  -2 -16 -11  309.97   32.10
   2  16  11  361.56   32.40
  -2 -16  11  313.77   31.90
   2 -16 -11  371.66   31.80
  -4 -16 -11  117.49   13.30
   4 -16  11  112.19   11.80
   4 -16  11   86.89   11.80
   4  16 -11  111.99   13.10
  -4  16  11   80.79   13.60
   4  16  11   90.59   11.70
   4 -16 -11   93.39   11.70
  -4  16 -11  115.19   13.30
  -4 -16  11  122.19   13.40
   6  16 -11   72.39   11.10
  -6 -16 -11   91.09   11.70
  -6  16  11   99.69   14.20
   6 -16  11   87.59   11.20
  -6 -16  11   83.49   11.40
   6  16  11   72.89   10.40
   6 -16 -11   93.89   10.80
   1  17 -11    1.00    1.60
  -1 -17 -11    2.10    1.20
   1 -17  11    0.40    0.60
   1 -17  11   -0.10    0.90
  -1  17  11    1.80    1.50
  -1  17 -11    2.20    1.50
   1  17  11   -0.60    1.10
   1 -17 -11    1.20    1.10
  -1 -17  11   -0.10    1.00
   3  17 -11    1.80    1.40
   3 -17  11   -1.20    0.60
  -3  17  11    0.20    1.20
   3  17  11    1.50    1.30
  -3  17 -11   -0.70    0.70
   3 -17 -11    0.00    0.70
  -3 -17  11    1.40    1.10
   5 -17  11    0.30    1.30
  -5 -17 -11   -0.20    1.20
   5  17 -11   -0.90    1.00
  -5  17  11   -0.60    1.20
  -5 -17  11    1.40    1.40
   5  17  11    1.60    1.10
   5 -17 -11    2.40    1.50
   7  17 -11    3.10    2.90
  -7  17  11    3.60    3.40
   7 -17 -11    2.70    1.80
   7  17  11    4.80    3.00
  -7 -17  11    0.40    2.20
   0 -18  11  315.17   34.60
   0 -18 -11  397.76   34.60
   0 -18 -11  362.06   35.30
   0  18  11  393.36   37.00
   0  18 -11  419.16   36.10
   2 -18  11  226.58   22.00
   2 -18  11  198.18   20.40
  -2  18  11  181.38   22.50
   2  18 -11  176.08   20.90
  -2 -18 -11  209.68   21.50
  -2 -18  11  217.28   21.40
  -2  18 -11  227.08   21.80
   2  18  11  190.78   21.00
   2 -18 -11  202.38   20.40
   4 -18  11  135.19   14.30
   4  18 -11   96.19   14.30
  -4 -18 -11  146.09   15.80
  -4  18  11  116.29   16.90
   4 -18 -11  138.09   14.60
   4  18  11  138.89   15.10
  -6 -18 -11   63.99    9.40
   6  18 -11   57.09    9.20
  -6  18  11   42.30   10.10
   6  18  11   51.29    7.90
   6 -18 -11   62.19    8.20
  -6 -18  11   60.39    9.20
  -1 -19 -11   -0.20    0.90
  -1  19  11    2.60    2.10
   1 -19  11    3.80    2.20
   1  19 -11    6.30    3.10
   1  19  11    2.10    1.80
  -1 -19  11    2.30    1.60
   3 -19  11    1.20    1.30
  -3 -19 -11    3.60    2.20
   3  19 -11    6.30    3.10
  -3  19  11    3.20    2.40
   3 -19 -11    5.00    2.10
   3  19  11    3.40    2.50
  -3 -19  11    0.70    1.20
   5 -19  11    1.30    1.30
  -5 -19 -11    1.80    1.90
  -5  19  11   -1.80    1.40
   5  19  11    1.40    1.50
  -5 -19  11    0.30    1.50
   0 -20  11  251.37   23.40
   0  20  11  201.38   24.00
   0  20 -11  237.38   23.60
  -2  20  11  131.69   16.50
   2  20 -11  128.69   15.30
   2 -20  11  121.19   14.30
  -2 -20 -11  131.39   15.50
  -2  20 -11  125.59   14.90
   2 -20 -11  119.79   14.00
  -2 -20  11  152.38   15.60
   2  20  11  141.09   15.70
  -4  20  11  162.48   20.40
  -4 -20 -11  166.58   18.50
   4 -20  11  147.69   16.70
   4  20 -11  148.59   17.90
   4 -20  11  168.38   18.60
   4 -20 -11  150.48   18.90
   4  20  11  145.59   17.30
  -4 -20  11  183.38   18.30
  -6  20  11   53.39   10.90
   6  20  11   51.29    8.30
   6 -20 -11   55.69    7.70
  -6 -20  11   56.69    9.00
   1 -21  11    0.20    1.10
  -1  21  11    6.10    3.30
   1  21 -11    2.80    1.80
  -1  21 -11    2.60    2.10
   1  21  11    0.30    1.10
  -1 -21  11    0.60    1.20
   3  21 -11    1.20    1.80
  -3  21  11    1.30    1.50
   3 -21  11    1.00    1.30
   3  21  11   -1.20    1.10
  -3 -21  11    4.80    2.00
   5  21 -11    0.80    1.20
   5 -21  11   -0.70    1.60
   5  21  11    2.50    1.70
  -5 -21  11   -0.60    1.40
   0  22  11  173.78   19.40
   0 -22  11  153.98   17.00
   0  22 -11  151.78   17.40
   2 -22  11   71.69   10.40
  -2  22  11   90.29   13.40
   2  22 -11  105.39   12.20
   2 -22  11   85.39   10.70
  -2 -22  11   85.79   11.20
   2 -22 -11   93.69   10.70
   2  22  11   92.39   12.00
  -4  22  11  153.28   19.80
   4 -22  11  170.28   17.00
  -4 -22  11  145.89   17.20
   4  22  11  142.29   17.20
   1 -23  11   -0.90    1.00
   1  23 -11    0.20    1.10
  -1  23  11    0.60    1.50
   1  23  11   -1.50    1.30
  -1 -23  11    1.20    1.20
   3 -23  11    0.40    1.40
  -3  23  11    2.90    2.90
   3  23 -11   -0.40    0.90
   3  23  11   -0.20    1.10
  -3 -23  11    1.80    1.30
   5 -23  11   -0.20    1.80
  -5  23  11   -0.90    2.00
  -5 -23  11    1.90    1.40
   5  23  11   -0.10    1.40
   0  24  11  112.39   14.60
   0 -24  11   82.79   11.60
   0  24 -11  121.39   18.30
   2  24 -11   62.49    8.90
  -2  24  11   74.29   11.40
   2 -24  11   63.59    8.60
   2  24  11   45.20    8.80
  -2 -24  11   47.70    8.00
   4 -24  11  111.99   12.70
   4  24 -11   83.39   12.30
  -4 -24  11  103.69   13.30
   4  24  11  101.89   13.60
   4 -24 -11  115.49   12.60
   1 -25  11   -0.20    1.40
   1  25 -11   -0.40    1.10
  -1  25  11    1.60    1.90
   1  25  11   -0.40    1.30
  -1 -25  11    3.00    1.70
   3 -25  11    7.80    3.20
  -3  25  11    9.10    4.30
   3  25  11    2.40    2.00
  -3 -25  11    7.80    3.20
   0 -26  11   40.70    7.10
   0  26  11   53.39    9.60
   2  26 -11   73.29   10.80
   2 -26  11   65.19    9.90
  -2  26  11   89.49   13.40
  -2 -26  11   85.59   10.70
   2  26  11   85.99   12.20
   1  27 -11    4.70    2.30
  -1  27  11    3.40    3.50
   1 -27  11    2.60    1.90
  -1 -27  11    4.40    2.50
   1  27  11    1.70    2.10
   0 -28  11   53.89    8.20
   0  28  11   52.39   10.10
   0   0 -12  892.61   77.59
   0   0 -12  901.81   78.09
  -2   0  12  467.35   44.30
   2   0  12  486.25   43.40
   2   0 -12  489.55   43.00
  -2   0 -12  511.35   41.50
   2   0 -12  514.45   43.70
  -2   0 -12  445.06   43.80
   4   0  12  357.66   28.90
   4   0 -12  276.07   29.30
   4   0 -12  274.97   27.60
   4   0 -12  305.87   28.30
  -4   0  12  312.97   30.90
  -4   0 -12  274.17   29.10
   6   0 -12  144.59   16.90
   6   0 -12  199.48   18.80
  -6   0 -12  137.19   18.20
   6   0  12  169.38   17.20
   8   0 -12  111.49   13.60
   1   1 -12    6.60    2.10
  -1   1  12    7.40    2.60
  -1  -1 -12    3.40    1.90
   1  -1  12    4.30    1.70
   1  -1  12    6.20    2.00
   1   1 -12    4.50    1.60
  -1  -1  12    3.60    1.80
  -1  -1  12    6.00    2.30
  -1   1 -12    8.20    2.80
   1   1  12    5.80    2.10
   1  -1 -12    5.60    1.80
   1  -1 -12    2.50    1.60
   1  -1 -12    2.90    1.50
  -1   1 -12    6.70    2.50
   3  -1  12    3.00    1.50
  -3  -1 -12    4.40    2.30
   3   1 -12    3.60    1.70
  -3   1  12    1.60    1.90
  -3  -1  12    4.40    2.40
   3  -1 -12    3.10    1.60
   3   1  12    4.10    1.90
   3  -1 -12    1.70    1.20
   3  -1 -12    2.20    1.40
  -3   1 -12    0.60    1.50
  -3  -1  12    3.40    1.80
  -5  -1 -12   -0.90    0.80
   5   1 -12    0.50    1.10
  -5  -1  12    1.70    1.20
   5  -1 -12    0.60    1.00
   5  -1 -12    1.40    1.20
   5   1  12    0.50    1.10
   7   1 -12   -0.40    1.00
   7   1 -12    0.50    1.60
   7  -1  12    2.20    1.30
  -7  -1 -12    2.60    1.90
  -7   1 -12   -0.10    0.90
   7  -1 -12    1.10    1.10
   7   1  12    0.70    0.90
   7  -1 -12    2.40    1.80
   0   2 -12  470.95   41.40
   0  -2 -12  431.16   41.00
   0  -2 -12  492.25   41.40
   0  -2  12  462.45   41.30
   0   2 -12  426.86   40.60
   0  -2  12  499.15   41.80
   0  -2 -12  440.46   41.90
   0   2 -12  470.15   42.10
   0   2  12  479.45   41.70
  -2   2  12  779.92   70.89
   2   2 -12  871.81   70.49
  -2   2  12  783.22   70.49
   2   2 -12  749.53   68.99
  -2  -2 -12  795.92   70.89
   2  -2 -12  792.12   70.49
  -2  -2  12  823.62   70.59
   2  -2 -12  851.31   70.19
   2   2  12  710.63   69.39
  -2  -2  12  814.22   70.79
  -2   2 -12  847.02   67.99
   4   2 -12  177.38   18.30
  -4   2  12  174.18   20.50
  -4  -2 -12  191.68   19.50
   4   2 -12  170.38   17.30
  -4  -2  12  184.78   20.30
   4  -2 -12  203.48   18.30
  -4   2 -12  161.48   18.70
  -4  -2  12  146.89   18.70
   4  -2 -12  217.38   19.60
  -6  -2 -12  226.68   23.40
   6  -2 -12  223.78   21.90
  -6  -2  12  198.68   28.60
  -8  -2 -12   80.69   12.20
   8   2 -12  115.59   13.10
   8  -2 -12   87.19   11.90
  -1  -3 -12   32.30    5.30
  -1  -3 -12   37.90    5.10
   1   3 -12   36.50    5.20
   1  -3  12   32.00    5.20
   1   3 -12   25.90    4.20
  -1   3  12   31.60    4.90
   1  -3  12   33.50    4.50
  -1   3  12   30.70    5.00
   1  -3  12   34.80    4.70
   1  -3 -12   34.40    4.90
  -1  -3  12   30.10    4.70
  -1  -3  12   36.40    5.40
   1  -3 -12   24.10    4.20
   1  -3 -12   27.00    4.60
  -1   3 -12   43.60    5.80
  -1   3 -12   26.10    4.60
   1   3  12   41.00    5.20
   3   3 -12  167.28   16.30
  -3   3  12  132.59   17.00
  -3  -3 -12  140.39   16.50
   3   3 -12  148.69   14.90
   3  -3 -12  190.28   16.90
   3  -3 -12  159.18   15.70
  -3   3 -12  191.58   17.50
   3  -3 -12  133.69   15.10
  -3  -3  12  142.69   16.60
  -3  -3  12  158.68   16.90
  -5   3  12   30.60    6.60
   5   3 -12   25.90    5.20
   5  -3  12   31.10    5.30
  -5  -3 -12   42.30    6.80
   5  -3 -12   39.70    6.10
  -5  -3  12   40.80    6.60
   5  -3 -12   29.80    4.80
   5   3  12   34.80    5.50
  -5  -3  12   25.90    7.70
   7   3 -12    2.00    1.90
   7   3 -12   -0.80    0.90
   7  -3  12   -0.10    1.10
  -7  -3 -12   -0.90    1.20
  -7   3  12    0.00    1.90
  -7  -3  12    5.20    2.90
   7   3  12    0.00    0.80
   7  -3 -12    2.40    1.80
   0  -4  12  704.03   59.79
   0  -4  12  594.54   59.59
   0   4 -12  665.53   59.39
   0  -4 -12  631.74   58.89
   0  -4  12  667.43   58.99
   0   4  12  733.23   60.09
   0  -4 -12  770.32   59.69
   0  -4 -12  610.54   59.79
   0   4 -12  732.13   60.29
  -2   4  12  204.78   22.80
   2   4 -12  219.18   20.90
   2   4 -12  260.97   22.60
   2  -4  12  218.08   20.80
  -2  -4 -12  195.28   22.20
   2  -4  12  213.08   21.60
  -2  -4  12  241.68   22.30
   2  -4 -12  227.28   22.30
   2  -4 -12  236.58   21.90
  -2   4 -12  271.87   23.10
  -4   4  12  549.85   55.49
   4   4 -12  550.64   53.49
   4   4 -12  664.33   55.69
  -4   4  12  731.53   58.99
  -4  -4 -12  527.85   55.49
   4  -4  12  683.93   55.09
   4  -4 -12  630.14   54.39
  -4   4 -12  658.53   56.29
   4  -4 -12  521.35   54.89
  -4  -4  12  685.83   56.59
  -4  -4  12  601.94   56.59
  -6  -4 -12  205.08   21.00
   6  -4  12  221.88   20.00
   6   4 -12  178.48   19.80
  -6   4  12  163.18   22.30
  -6   4 -12  165.38   20.20
   6   4  12  200.38   19.60
   6  -4 -12  209.48   20.40
   6  -4 -12  167.28   18.60
  -8  -4 -12  131.49   16.80
   8  -4  12  149.88   16.10
   8   4 -12  128.89   16.70
   8   4 -12  108.79   16.10
   8  -4 -12  160.78   16.70
   8   4  12  178.38   16.70
   1   5 -12   16.40    3.10
  -1   5  12   12.80    2.50
  -1   5  12    9.30    3.30
   1  -5  12    7.30    2.20
  -1  -5 -12    9.70    3.00
   1   5 -12   11.70    2.90
   1  -5  12    8.60    2.50
  -1   5 -12    9.30    3.20
   1  -5 -12   11.80    3.30
  -1   5 -12    6.80    2.30
   1   5  12    6.80    2.40
   1  -5 -12    9.20    2.80
  -1  -5  12   11.00    2.50
  -1  -5  12   11.70    3.30
   1  -5 -12    6.20    2.10
   3  -5  12   11.30    2.60
   3   5 -12    5.70    1.80
   3  -5  12    6.90    1.80
  -3  -5 -12    6.90    2.60
  -3   5  12   10.20    4.10
   3   5 -12    5.20    2.10
   3  -5 -12    8.70    2.60
   3   5  12    9.60    2.80
  -3  -5  12    9.20    3.20
  -3   5 -12    5.00    2.30
  -3  -5  12   11.00    3.80
   3  -5 -12    7.70    2.60
  -5   5  12    4.10    1.80
   5  -5  12    8.90    3.00
  -5  -5 -12    9.00    3.70
   5   5 -12    5.20    2.50
   5  -5 -12    8.20    3.40
   5  -5 -12    8.40    2.60
  -5   5 -12    7.10    2.80
   5   5  12   10.70    3.60
  -5  -5  12    5.50    2.30
  -7  -5 -12    0.10    0.90
   7  -5  12    2.80    1.50
   7   5 -12   -2.30    1.20
   7   5  12   -0.80    0.60
   7  -5 -12   -0.90    0.70
   0  -6  12  556.14   51.19
   0  -6  12  551.14   50.19
   0  -6 -12  597.64   51.69
   0  -6 -12  573.04   50.49
   0   6  12  654.03   51.99
   0   6 -12  526.15   50.59
  -2  -6 -12  284.37   28.40
   2   6 -12  302.07   27.90
   2  -6  12  271.17   26.50
  -2   6  12  266.37   28.60
  -2  -6 -12  305.17   25.70
   2   6 -12  274.57   26.50
   2  -6  12  340.57   27.70
  -2  -6 -12  276.27   25.20
  -2  -6  12  327.97   28.70
   2  -6 -12  299.17   27.40
  -2   6 -12  342.17   28.70
  -2  -6  12  253.97   27.10
   2  -6 -12  283.67   27.60
   4   6 -12  546.25   50.49
   4   6 -12  671.43   53.39
  -4  -6 -12  660.73   53.99
  -4   6  12  508.75   54.39
   4  -6  12  554.64   49.60
   4  -6 -12  544.95   50.89
  -4   6 -12  659.63   53.59
  -4  -6  12  664.23   53.99
  -4  -6  12  577.34   53.49
   4  -6 -12  466.05   51.69
   6   6 -12  165.68   17.50
  -6  -6 -12  156.68   17.80
   6  -6 -12  147.09   16.80
  -6  -6  12  157.38   18.10
  -6   6 -12  154.88   17.90
  -8  -6 -12   94.19   13.20
   8   6 -12   99.09   13.70
   8   6 -12   99.09   13.80
   8  -6 -12  104.39   12.80
   8   6  12  124.59   12.90
   1   7 -12    3.70    1.70
  -1  -7 -12    3.00    1.90
  -1   7  12    5.70    2.20
   1  -7  12    4.80    2.00
  -1  -7 -12    2.30    1.60
   1  -7  12    8.70    2.50
   1   7 -12    2.30    1.70
   1  -7 -12    6.90    2.40
  -1   7 -12    4.90    2.10
  -1   7 -12    2.90    1.40
   1  -7 -12    4.90    1.80
   1   7  12    2.60    1.70
  -1  -7  12    3.10    2.00
  -1  -7  12    8.00    2.30
   3  -7  12   46.00    5.40
   3  -7  12   41.40    6.00
   3   7 -12   42.00    6.50
  -3   7  12   53.69    8.10
   3   7 -12   36.10    4.90
  -3  -7 -12   41.70    7.00
   3  -7 -12   38.70    6.20
   3   7  12   37.80    5.70
  -3   7 -12   53.09    7.30
  -3  -7  12   47.90    6.40
  -3  -7  12   40.30    6.70
   3  -7 -12   39.80    5.60
   5  -7  12    1.60    1.20
  -5  -7 -12    0.60    1.30
   5   7 -12   -0.40    0.80
  -5   7  12    2.90    1.60
   5  -7 -12   -0.90    0.60
   5  -7 -12    2.30    1.20
  -5  -7  12    0.10    1.30
   5   7  12    0.90    1.00
  -7  -7 -12   -0.90    0.80
   7  -7  12    0.70    1.00
   7   7 -12   -1.70    1.20
  -7  -7  12    0.20    1.10
   7  -7 -12   -1.90    1.00
   7   7  12   -0.30    0.80
   0  -8  12  460.65   38.70
   0  -8 -12  413.36   38.60
   0   8  12  408.16   38.60
   0   8 -12  403.06   38.00
   2  -8  12  609.74   51.59
   2  -8  12  614.94   51.69
  -2   8  12  598.84   53.99
  -2  -8 -12  597.14   50.19
   2   8 -12  611.94   52.89
   2  -8  12  514.05   53.89
   2  -8 -12  623.64   51.99
   2  -8 -12  646.74   52.59
  -2  -8  12  513.25   52.59
  -2  -8  12  512.05   53.09
   4  -8  12  272.47   23.20
  -4  -8 -12  239.38   23.70
  -4   8  12  220.18   25.10
   4   8 -12  197.58   22.60
   4  -8  12  244.98   21.10
   4  -8 -12  252.57   23.00
  -4  -8  12  189.28   23.00
   4  -8 -12  214.98   21.10
  -4   8 -12  212.88   23.20
  -6   8  12  143.39   20.20
   6   8 -12  167.68   18.10
   6  -8  12  144.09   16.90
  -6  -8  12  145.79   18.00
   6  -8 -12  193.48   17.90
   6   8  12  159.68   16.80
   8   8 -12   59.69    9.50
   8   8  12   49.30    7.90
   8  -8 -12   65.69    8.70
   1   9 -12    5.40    2.00
   1   9 -12    4.40    2.10
   1  -9  12    5.20    2.40
  -1  -9 -12    3.80    2.00
   1  -9  12    6.30    2.10
  -1   9  12    7.40    3.00
  -1  -9  12    2.30    1.20
  -1  -9  12    3.40    1.90
   1  -9 -12    8.00    2.70
   1  -9 -12    5.80    2.20
   1   9  12    2.30    1.60
   3   9 -12    4.70    2.20
   3  -9  12    7.40    2.40
  -3  -9 -12    4.30    2.20
  -3   9  12    7.60    3.20
   3   9 -12    3.40    1.20
   3  -9  12    3.60    1.80
   3   9  12    4.80    2.20
  -3  -9  12    4.60    2.20
  -3   9 -12    4.30    2.40
   3  -9 -12    4.00    1.70
   3  -9 -12    5.00    2.40
  -5   9  12    1.70    2.10
   5  -9  12   -1.20    0.80
  -5  -9 -12   -0.90    0.90
   5   9 -12    3.20    1.60
   5  -9 -12    0.80    1.00
   5   9  12   -0.20    0.80
   7   9 -12   -2.80    1.30
  -7  -9 -12   -0.90    0.90
   7  -9 -12   -0.90    1.00
  -7  -9  12   -1.60    1.10
   0 -10  12  330.07   29.50
   0 -10 -12  311.57   28.50
   0  10 -12  317.87   29.80
   0 -10 -12  293.97   29.30
   0 -10  12  303.77   28.10
   0  10  12  309.47   29.70
  -2 -10 -12  433.86   37.00
  -2  10  12  388.56   40.10
  -2 -10 -12  450.55   39.80
   2 -10  12  459.85   38.40
   2 -10  12  432.16   38.40
   2 -10  12  341.67   40.20
   2 -10 -12  437.56   38.20
   2 -10 -12  458.35   39.00
  -2  10 -12  413.96   37.70
  -2 -10  12  455.15   38.20
  -2 -10  12  364.16   39.00
   4 -10  12  259.87   26.00
  -4 -10 -12  305.27   28.80
   4 -10  12  336.97   28.10
   4  10 -12  305.57   28.10
  -4  10  12  232.88   29.40
   4 -10 -12  272.17   25.10
   4 -10 -12  284.47   27.60
  -4 -10  12  282.77   28.40
   6  10 -12  183.08   19.30
  -6  10  12  176.48   22.30
  -6 -10 -12  174.48   19.30
   6  10  12  138.49   17.20
  -6 -10  12  155.78   19.00
   6 -10 -12  217.28   19.20
   8  10 -12   51.09    9.20
  -8 -10 -12   56.99    9.00
  -8 -10  12   49.70    9.10
   8 -10 -12   62.09    8.70
   8  10  12   71.29    8.70
  -1 -11 -12    3.00    1.80
  -1  11  12    3.70    2.30
   1  11 -12    0.90    1.50
   1 -11  12    1.90    1.40
   1 -11  12    3.50    2.60
   1 -11  12    2.90    1.80
  -1 -11  12    3.30    1.80
   1 -11 -12    6.30    2.30
   1 -11 -12    3.20    1.90
   1  11  12    1.30    1.10
   1 -11 -12    3.60    2.00
  -1 -11  12    3.40    1.30
  -1  11 -12    4.50    1.60
  -1  11 -12    1.20    1.30
  -1 -11  12    0.30    1.40
  -3  11  12   12.60    4.20
   3 -11  12   16.00    3.30
   3 -11  12    8.80    2.90
  -3 -11 -12   13.10    3.90
   3 -11 -12   14.50    2.60
   3 -11 -12   12.50    3.80
   3  11  12   14.30    4.10
  -3 -11  12   18.60    4.90
  -3  11 -12   20.00    4.10
   5 -11  12    3.00    1.70
   5  11 -12    3.60    2.30
  -5  11  12   -0.10    2.40
  -5 -11 -12    4.20    1.90
   5 -11  12    3.40    1.80
   5 -11 -12    2.10    1.50
   5  11  12    3.50    1.80
  -5  11 -12    4.10    2.30
  -5 -11  12    1.90    1.70
   7  11 -12   -1.60    1.20
  -7 -11 -12   -1.10    0.80
   7 -11 -12    3.80    1.40
  -7 -11  12   -2.20    1.20
   0 -12 -12  273.57   26.40
   0 -12 -12  306.57   25.80
   0  12 -12  231.08   26.20
   0 -12  12  278.37   26.30
   0  12  12  247.98   26.40
   0 -12  12  311.47   25.20
   0 -12  12  252.77   27.30
  -2 -12 -12  341.67   36.60
  -2  12  12  435.66   38.80
   2 -12  12  367.66   35.60
   2 -12  12  389.36   35.90
   2 -12  12  391.26   39.00
   2  12 -12  457.35   37.70
   2 -12 -12  398.66   36.30
   2 -12 -12  344.37   35.10
  -2 -12  12  362.56   36.70
  -2  12 -12  401.66   37.20
   2  12  12  455.75   37.10
   4  12 -12  154.18   17.80
  -4  12  12  197.38   21.40
   4 -12  12  196.48   17.00
   4 -12  12  157.08   17.30
   4  12  12  131.29   16.70
  -4 -12  12  143.19   18.00
   4 -12 -12  212.88   18.50
   6  12 -12  204.48   21.60
  -6 -12 -12  190.68   21.20
   6  12  12  220.38   20.20
  -6 -12  12  159.78   20.90
   6 -12 -12  191.18   20.20
  -1 -13 -12    7.70    2.90
  -1  13  12    3.80    1.90
   1  13 -12    8.70    3.00
  -1  13  12    2.60    1.30
   1 -13  12    6.40    2.40
   1 -13  12    7.40    2.30
   1 -13 -12    1.70    1.30
  -1 -13  12    1.40    1.30
   1 -13 -12    4.80    2.10
  -1  13 -12    8.90    2.70
  -1 -13  12    5.60    2.70
   1  13  12    5.80    2.70
  -1  13 -12    2.80    1.70
   1  13  12    2.80    1.80
   3 -13  12   18.50    3.40
   3 -13  12   15.50    4.40
  -3 -13 -12   14.60    4.00
  -3  13  12   16.00    5.30
   3  13 -12    5.90    2.50
  -3 -13  12    4.80    2.30
   3 -13 -12   16.80    3.30
   3  13  12   11.20    3.20
   3 -13 -12   10.40    2.00
   5  13 -12   -0.70    1.00
   5 -13  12   -0.90    0.80
  -5  13  12    2.20    1.70
   5 -13  12   -0.30    1.10
   5 -13 -12    0.40    0.90
  -5 -13  12    1.60    1.60
   5  13  12   -0.50    0.80
  -7 -13 -12    0.20    1.50
   7  13 -12   -2.30    1.30
  -7 -13  12    4.30    2.70
   7  13  12    2.90    2.00
   7 -13 -12    1.50    1.30
   0 -14  12  409.06   36.60
   0  14 -12  428.86   37.60
   0  14  12  381.16   37.60
   0  14  12  362.26   36.50
   0  14  12  375.76   37.20
   0 -14  12  417.26   41.60
   0 -14  12  438.36   37.20
   0 -14 -12  371.96   36.80
   2 -14  12  382.16   34.70
   2  14 -12  314.07   35.10
   2 -14  12  395.36   34.90
  -2 -14 -12  372.46   35.80
  -2  14  12  417.26   37.80
   2 -14  12  415.86   40.20
  -2  14 -12  410.06   36.10
   2 -14 -12  344.07   33.70
   2  14  12  368.86   35.40
   2 -14 -12  363.96   34.80
   4 -14  12  116.19   12.70
   4  14 -12   87.89   12.80
  -4  14  12  115.29   15.90
  -4 -14 -12  140.39   14.70
   4  14  12  134.69   13.60
  -4  14 -12  113.59   14.10
  -4 -14  12  125.79   14.50
   4 -14 -12  103.29   12.80
   6  14 -12  111.49   13.20
  -6  14  12  106.59   19.80
   6 -14  12   83.19   11.70
  -6 -14 -12  106.79   13.10
   6  14  12   93.09   11.60
   6 -14 -12   95.29   11.80
  -6 -14  12  114.89   13.60
   1 -15  12    3.20    1.60
  -1  15  12    2.80    1.70
   1 -15  12    2.00    1.10
  -1 -15 -12    5.80    2.40
   1  15 -12    5.20    2.00
   1  15  12    3.20    2.10
   1 -15 -12    4.20    1.90
  -1 -15  12    7.10    2.80
   1 -15 -12    4.40    1.90
  -1  15 -12    5.10    2.40
   3  15 -12    3.60    2.10
   3 -15  12    0.70    1.20
  -3  15  12    3.10    1.90
  -3 -15 -12    1.00    1.10
   3 -15 -12    1.30    1.10
  -3 -15  12    2.10    1.80
   3  15  12    0.30    0.90
  -5 -15 -12   -0.20    0.80
   5 -15  12   -1.10    1.00
  -5  15  12   -0.40    1.00
   5  15 -12    0.20    1.50
   5 -15 -12    2.90    1.50
  -5 -15  12    0.90    1.10
   5  15  12    1.10    1.30
  -7 -15 -12    4.00    2.00
   7  15 -12    3.40    2.90
   7 -15 -12    1.60    1.40
   7  15  12   -0.20    1.10
   0  16 -12  289.67   31.90
   0 -16 -12  305.47   31.70
   0  16  12  385.46   33.90
   0 -16  12  381.76   32.50
  -2  16  12  306.87   29.60
   2  16 -12  306.37   27.90
   2 -16  12  276.17   26.60
  -2 -16 -12  264.37   27.20
  -2 -16  12  230.78   26.60
   2  16  12  273.57   27.10
   4  16 -12  146.59   15.70
   4 -16  12  123.99   14.20
   4 -16  12  125.59   14.80
  -4 -16 -12  148.49   16.00
  -4  16  12  105.79   16.30
   4 -16 -12  141.79   15.00
   4  16  12  151.18   15.30
  -4 -16  12  117.99   15.30
   6  16 -12   62.69   10.60
  -6  16  12  101.09   14.60
  -6 -16 -12  102.49   12.30
   6  16  12   85.99   10.90
   6 -16 -12   94.19   11.00
   1  17 -12   -0.20    1.10
   1 -17  12    1.80    1.50
  -1  17  12   -0.20    1.20
   1 -17  12    0.10    0.80
  -1 -17 -12    3.40    1.80
  -1 -17  12    3.00    1.80
   1  17  12    0.20    1.00
  -1  17 -12    1.70    1.80
   1 -17 -12    2.30    1.40
  -3 -17 -12   -0.70    0.70
   3 -17  12    0.70    0.90
   3  17 -12    2.30    1.50
  -3  17  12    1.20    1.60
   3 -17 -12    0.20    0.70
  -3  17 -12   -1.40    0.90
   3  17  12    2.00    1.10
  -5 -17 -12    1.90    1.70
   5 -17  12   -0.60    1.30
   5  17 -12    1.20    1.20
   5 -17 -12    0.90    1.00
   5  17  12    0.10    0.90
  -5 -17  12    1.00    1.30
   0 -18  12  233.08   23.00
   0  18 -12  226.78   23.30
   0  18  12  266.57   25.00
   0 -18 -12  192.58   22.30
   2  18 -12  197.08   22.60
  -2 -18 -12  201.18   22.60
  -2  18  12  251.17   25.50
   2 -18  12  206.78   22.00
   2  18  12  237.58   23.20
  -2 -18  12  222.38   22.80
  -2  18 -12  243.98   23.60
   4 -18  12  110.49   14.60
  -4  18  12  150.18   17.30
  -4 -18 -12  125.29   14.40
   4  18 -12   90.19   13.00
   4 -18  12  103.29   12.80
  -4 -18  12  132.59   14.60
   4  18  12  109.09   13.50
  -6 -18 -12   86.29   11.70
   6  18 -12   90.19   11.90
  -6  18  12   58.29   12.10
   6  18  12   77.89   10.80
   6 -18 -12  108.29   11.20
   1  19 -12    2.50    1.60
   1 -19  12    0.70    1.20
  -1 -19 -12   -0.10    0.80
  -1  19  12    0.10    1.20
  -1 -19  12   -0.40    1.00
  -1  19 -12   -0.70    1.00
   1  19  12    0.50    1.10
   3  19 -12    5.00    2.70
  -3 -19 -12    3.30    1.80
   3 -19  12    4.80    2.30
  -3  19  12    4.90    3.00
   3  19  12    4.50    2.20
   3 -19 -12    5.50    2.20
  -3 -19  12   11.30    4.20
   5 -19  12    1.30    1.40
   5  19 -12    1.00    0.90
  -5 -19 -12    0.60    1.70
   5  19  12   -1.60    1.00
   5 -19 -12   -1.30    0.80
  -5 -19  12    2.20    1.60
   0 -20  12  153.78   17.70
   0  20 -12  166.88   18.40
   0  20  12  190.48   20.00
   2 -20  12  130.99   15.40
   2 -20  12  112.99   13.30
   2  20 -12  110.69   14.00
  -2 -20 -12  113.19   14.10
  -2  20  12  111.99   15.30
  -2 -20  12  115.59   13.80
   2  20  12  118.89   14.20
   4  20 -12  154.78   17.30
   4 -20  12  164.28   16.80
  -4 -20 -12  148.09   17.50
  -4  20  12  156.28   19.80
  -4 -20  12  150.58   17.10
   4  20  12  127.99   16.40
   1  21 -12    2.50    1.90
  -1  21  12    3.50    2.40
   1 -21  12    1.30    1.60
  -1 -21  12    1.10    1.50
   1  21  12    1.70    2.10
  -1  21 -12    1.10    1.20
  -3  21  12    4.80    2.70
   3  21 -12    7.10    2.50
  -3 -21 -12    6.80    2.80
   3 -21  12    6.10    2.70
  -3 -21  12    9.10    3.10
   3  21  12    4.50    2.20
   5  21 -12   -1.40    0.90
  -5  21  12   -1.40    2.60
   5 -21  12    1.90    2.40
  -5 -21 -12    3.50    2.40
  -5 -21  12    0.70    1.90
   5  21  12    0.40    1.50
   5 -21 -12    3.00    1.30
   0 -22  12  160.48   17.20
   0  22  12  144.49   18.40
   0  22 -12  165.28   17.70
  -2  22  12   29.70    6.90
   2 -22  12   37.50    6.20
   2  22 -12   26.60    5.70
   2  22  12   39.10    6.80
  -2 -22  12   34.10    5.90
   4  22 -12  167.08   19.90
   4 -22  12  205.58   20.30
   4  22  12  174.98   20.10
  -4 -22  12  198.98   20.80
   1 -23  12    3.20    1.40
  -1  23  12    8.30    4.10
   1  23 -12    7.50    3.30
   1  23  12    5.20    2.80
  -1 -23  12    5.00    2.00
   3 -23  12   16.60    5.30
  -3  23  12   19.90   10.00
   3  23 -12   22.40    5.00
   3  23  12   21.40    6.20
  -3 -23  12   18.20    4.90
   0  24  12   68.29   11.10
   0 -24  12   78.49   10.20
   2  24 -12  106.19   13.00
  -2  24  12   94.09   14.10
   2 -24  12   99.69   12.30
   2  24  12   86.29   13.10
  -2 -24  12  103.19   12.50
  -4  24  12   56.69   10.90
   4  24 -12   76.19   10.10
   4 -24  12   68.99    9.70
   4  24  12   54.99    9.60
  -4 -24  12   75.59   10.30
  -1  25  12   -0.30    2.70
   1  25 -12    0.20    1.30
   1 -25  12   -1.60    1.10
  -1 -25  12   -1.40    0.80
   1  25  12   -0.20    1.50
   3 -25  12    1.40    2.00
   3  25  12    2.20    1.90
  -3 -25  12    1.00    2.20
   0 -26  12   44.30    7.40
   2 -26  12   60.39    9.60
  -2  26  12   86.59   12.90
   2  26  12   81.19   11.80
   1 -27  12    0.80    1.70
  -1  27  12    4.40    2.50
   1  27  12   -2.30    1.40
  -1 -27  12   -1.40    0.90
   0   0  13  337.57   28.90
   0   0 -13  264.27   28.60
   0   0 -13  309.27   28.80
   0   0 -13  319.47   28.60
  -2   0 -13  947.51   74.29
   2   0  13  922.61   76.39
   2   0 -13  838.92   76.59
   2   0 -13  850.51   75.79
  -2   0 -13  753.92   76.89
  -2   0  13  940.61   77.69
   4   0  13   86.39   11.70
   4   0 -13  110.89   13.50
  -4   0 -13  110.99   13.30
   4   0 -13  125.39   12.80
  -4   0  13  125.39   14.90
   4   0 -13  114.09   11.90
   6   0 -13  200.08   24.70
   6   0 -13  233.58   24.60
  -6   0 -13  308.77   27.20
   6   0  13  266.37   24.70
   8   0 -13   67.29    9.20
  -8   0 -13   47.10    8.70
  -1   1  13   56.69    7.80
   1   1 -13   66.59    8.20
   1   1 -13   60.79    7.30
   1  -1  13   61.99    7.40
   1   1  13   61.09    7.50
  -1  -1  13   73.19    8.30
  -1   1 -13   56.69    8.10
   1  -1 -13   65.89    8.10
  -1  -1  13   62.39    8.20
   1  -1 -13   48.00    7.30
  -1   1 -13   58.79    7.60
   1  -1 -13   68.89    7.60
   3   1 -13  104.89   10.80
   3   1 -13   96.29    9.70
  -3  -1 -13  116.89   11.90
   3  -1  13   74.69    9.70
  -3   1  13   96.09   11.90
   3   1  13   70.79    9.60
  -3   1 -13   79.09   10.60
   3  -1 -13   92.09   11.10
   3  -1 -13   84.29    9.60
  -3  -1  13   61.99   10.40
   3  -1 -13  103.69   10.40
  -5  -1 -13   13.40    4.00
   5  -1  13    6.30    2.40
   5   1 -13    9.50    3.20
  -5   1 -13   18.70    5.00
   5  -1 -13    9.80    3.10
   5   1  13    6.00    2.10
   7  -1  13    9.20    3.10
  -7  -1 -13    7.10    3.10
   7   1 -13    5.00    2.50
   7   1 -13    3.90    1.90
   7  -1 -13    4.20    2.30
  -7   1 -13    3.20    1.80
   7   1  13    4.10    2.20
   0  -2 -13  741.83   63.19
   0   2 -13  668.63   62.79
   0  -2  13  728.73   63.19
   0   2 -13  753.62   63.89
   0  -2 -13  627.54   63.39
   0  -2  13  797.82   63.19
  -2  -2 -13  230.98   20.90
   2   2 -13  193.68   20.80
  -2   2  13  202.08   20.50
   2  -2  13  155.68   18.50
   2   2 -13  178.68   19.20
   2   2  13  199.08   19.30
  -2  -2  13  226.58   20.60
   2  -2 -13  210.88   19.80
   2  -2 -13  207.28   19.90
  -2  -2  13  188.98   19.80
   2  -2 -13  183.48   18.60
  -4   2  13  459.45   45.40
   4   2 -13  411.76   43.50
   4   2 -13  492.85   43.20
  -4  -2 -13  510.95   45.30
  -4   2  13  519.45   47.20
  -4  -2  13  528.65   46.80
   4  -2 -13  446.16   44.30
   4  -2 -13  543.65   44.00
  -4   2 -13  485.15   45.00
   4   2  13  447.36   43.40
   6  -2  13  218.98   19.30
  -6  -2 -13  195.28   20.20
   6   2 -13  151.58   18.40
   6   2 -13  148.19   19.10
   6  -2 -13  224.68   20.20
  -6   2 -13  152.38   19.20
   6  -2 -13  160.98   18.20
  -8  -2 -13  103.59   14.30
   8  -2  13   98.19   12.90
   8   2 -13  107.59   13.90
  -8   2 -13  122.09   15.10
   8  -2 -13  146.69   15.00
   1  -3  13    0.60    0.80
   1   3 -13    0.60    0.90
  -1   3  13    1.30    1.60
  -1  -3 -13    0.90    0.90
   1   3 -13    0.40    0.60
   1  -3  13    0.60    0.90
  -1   3 -13    0.90    1.00
   1  -3 -13    1.50    1.10
  -1   3 -13    0.80    0.60
   1  -3 -13    0.30    0.60
   1   3  13    0.30    0.90
  -1  -3  13    1.60    1.50
   1  -3 -13    1.60    1.30
  -1  -3  13   -0.10    0.80
  -3  -3 -13   -0.80    0.90
  -3   3  13    0.80    1.40
   3   3 -13   -0.20    0.70
   3  -3  13    0.40    0.70
   3   3 -13    1.60    1.30
   3  -3 -13   -1.00    0.70
  -3  -3  13    1.90    1.70
  -3  -3  13    1.50    1.30
  -3   3 -13   -1.20    0.80
   3   3  13    1.00    1.00
  -5  -3 -13    0.10    1.20
  -5   3  13    5.00    3.10
   5   3 -13    0.30    1.50
   5  -3  13    0.30    0.90
   5   3  13    1.70    1.10
   5  -3 -13    2.50    1.40
  -5   3 -13    0.70    1.60
   5  -3 -13    1.30    1.10
  -7  -3 -13    0.40    1.00
   7   3 -13    1.40    1.50
   7   3 -13   -0.30    1.40
  -7   3  13    3.00    2.90
   7  -3  13    2.10    0.90
  -7  -3  13    1.40    2.70
   7  -3 -13   -2.00    1.40
   7   3  13    1.30    1.20
   0  -4  13  388.56   34.40
   0  -4 -13  383.46   35.30
   0   4 -13  355.36   34.40
   0   4 -13  315.87   34.60
   0   4  13  413.46   35.30
   0  -4  13  421.06   35.20
  -2   4  13  391.76   34.50
   2   4 -13  318.37   31.80
   2  -4  13  355.06   31.70
   2   4 -13  340.17   33.00
   2  -4  13  354.76   32.50
  -2  -4 -13  372.06   33.80
  -2  -4  13  366.86   33.80
  -2  -4  13  336.37   32.90
   2  -4 -13  331.67   32.90
   2  -4 -13  388.26   33.10
   4  -4  13  469.85   38.30
  -4   4  13  411.46   41.20
   4   4 -13  372.56   38.20
  -4  -4 -13  422.46   39.60
  -4  -4  13  388.06   39.90
   4  -4 -13  419.86   38.90
   4  -4 -13  399.86   37.80
  -4  -4  13  435.26   39.60
   6   4 -13  194.88   21.40
   6  -4  13  236.58   21.30
  -6  -4 -13  180.78   21.70
  -6   4  13  165.88   24.30
   6  -4 -13  224.08   22.40
  -6   4 -13  238.78   23.00
   6  -4 -13  187.98   21.20
   8  -4  13  147.39   16.90
   8   4 -13  122.49   15.20
   8  -4 -13  105.39   14.10
  -1   5  13   17.90    3.80
  -1  -5 -13   14.20    4.00
   1   5 -13   12.90    3.60
   1  -5  13   15.80    3.00
   1  -5  13   19.60    3.20
   1   5 -13   13.60    2.80
   1  -5 -13   15.70    3.10
   1  -5 -13    9.30    3.20
  -1  -5  13   13.50    3.90
  -1   5 -13   10.10    3.10
  -1  -5  13   12.80    2.90
  -1   5 -13   12.20    3.00
   1   5  13   18.20    3.60
   3   5 -13   13.20    2.70
  -3   5  13   10.70    4.20
  -3  -5 -13   17.80    4.90
   3  -5  13    9.40    2.80
   3   5 -13   15.20    3.40
   3  -5  13   15.80    2.40
   3  -5 -13   12.50    3.80
  -3  -5  13    9.30    3.30
  -3  -5  13   21.50    4.10
   3   5  13   16.00    3.40
  -3   5 -13   19.00    3.90
   3  -5 -13   12.70    3.00
  -5  -5 -13    6.20    3.40
   5   5 -13    5.30    2.70
  -5  -5  13    4.20    2.50
   5   5  13    9.00    3.20
   5  -5 -13    5.20    2.00
   5  -5 -13    6.60    2.20
  -5   5 -13   10.50    4.40
   7  -5  13    1.90    1.40
   7   5 -13    1.00    1.80
  -7  -5 -13    2.30    1.60
   7   5  13    2.20    1.60
   7  -5 -13   -0.10    1.00
   0  -6 -13  645.84   55.19
   0  -6  13  637.24   53.89
   0  -6  13  623.24   54.59
   0   6 -13  544.45   54.79
   2  -6  13  447.36   40.20
   2  -6  13  456.35   40.10
  -2  -6 -13  407.36   41.40
  -2   6  13  440.96   42.30
   2   6 -13  458.55   40.00
   2   6  13  471.65   40.80
   2  -6 -13  419.66   40.70
  -2   6 -13  487.35   41.80
  -2   6 -13  463.65   39.40
  -2  -6  13  460.15   41.80
  -2  -6  13  438.56   40.80
   2  -6 -13  425.36   40.60
  -4   6  13  232.18   28.10
   4  -6  13  279.77   25.90
   4   6 -13  300.57   26.90
  -4  -6 -13  223.28   26.50
   4   6  13  245.38   25.40
   4  -6 -13  273.87   25.50
   4  -6 -13  316.07   26.90
  -4  -6  13  273.37   27.30
   6  -6  13  115.39   12.90
  -6  -6 -13   95.39   13.30
   6   6 -13  120.69   13.90
  -6   6  13  121.39   17.10
  -6  -6  13   90.89   13.30
   6   6  13  120.69   13.00
   8   6 -13   78.29   11.70
   8  -6  13   89.99   10.80
   8   6  13   76.59    9.90
   8  -6 -13   70.19   10.10
  -1  -7 -13   14.60    4.10
   1  -7  13   12.40    2.70
  -1  -7 -13   16.70    4.50
  -1   7  13    9.40    3.10
   1  -7  13   14.90    3.20
   1   7 -13   10.80    3.10
   1   7 -13   18.70    3.80
   1  -7 -13   15.90    3.30
  -1   7 -13   16.70    3.80
   1  -7 -13   10.00    3.30
  -1  -7  13   14.00    3.00
   1  -7 -13   17.10    3.20
  -1   7 -13    9.70    3.40
   1   7  13   19.90    3.80
  -1  -7  13   17.40    3.60
   3   7 -13    7.60    2.60
  -3  -7 -13   19.60    5.30
   3  -7  13   10.90    3.20
   3   7 -13    9.10    2.10
  -3   7  13    9.50    4.00
   3  -7  13    8.50    2.40
  -3   7  13   13.60    3.70
  -3  -7  13    7.60    3.00
  -3  -7  13    8.50    3.10
   3  -7 -13   14.80    3.00
   3  -7 -13    9.40    3.00
   3   7  13    4.90    2.00
  -3   7 -13   11.50    3.70
  -5  -7 -13    6.00    2.70
   5   7 -13    2.20    1.50
  -5   7  13    1.80    1.90
  -5   7 -13    3.20    1.90
   5  -7 -13    1.30    1.30
   5  -7 -13    4.60    1.90
   5   7  13    4.70    1.90
  -5  -7  13    3.60    2.20
   7  -7  13    3.70    2.00
  -7  -7 -13   -0.80    0.70
   7   7 -13    4.20    2.20
   7   7  13    0.60    1.20
   7  -7 -13    0.90    0.70
   0  -8 -13  511.25   48.20
   0   8 -13  526.15   47.90
   0  -8  13  580.94   49.40
   0  -8 -13  541.65   49.30
   0  -8  13  535.35   47.80
   0   8  13  510.15   49.10
   0   8 -13  584.94   49.00
   0  -8 -13  564.94   49.00
  -2  -8 -13  290.67   30.00
   2  -8  13  356.66   29.40
   2   8 -13  285.37   29.40
   2  -8  13  343.27   29.10
   2   8 -13  280.87   28.20
   2  -8 -13  308.07   29.40
   2  -8 -13  304.77   29.10
  -2  -8  13  356.66   30.70
  -2  -8  13  309.17   29.10
   2   8  13  284.67   29.00
  -4  -8 -13  382.66   32.00
   4  -8  13  332.57   28.40
   4   8 -13  350.96   31.00
   4  -8  13  330.37   30.00
   4  -8 -13  342.57   29.20
  -4  -8  13  298.17   31.10
  -4   8 -13  287.67   30.60
   4  -8 -13  271.37   29.60
   4   8  13  249.78   29.00
  -6  -8 -13  129.99   16.10
   6   8 -13  130.09   15.70
  -6  -8  13  124.99   16.10
   6   8  13  161.48   15.40
   6  -8 -13  156.68   15.70
  -6   8 -13  106.19   16.70
   8  -8  13   58.69    8.70
  -8  -8 -13   82.09   11.90
   8   8  13   48.30    8.10
   8  -8 -13   79.19    9.50
   1  -9  13   11.20    2.50
   1   9 -13    8.40    2.80
  -1  -9 -13    8.90    3.20
   1  -9  13   10.20    3.10
   1   9 -13   11.10    2.60
   1  -9  13    8.10    3.00
  -1   9  13   17.10    4.60
  -1  -9  13   14.30    2.90
   1  -9 -13   13.50    3.80
  -1  -9  13   18.40    4.90
   1  -9 -13    8.10    2.80
  -1   9 -13    8.60    2.90
  -1   9 -13   11.40    2.50
   1   9  13   15.60    3.40
   3   9 -13   20.20    4.10
   3  -9  13   16.50    3.40
  -3   9  13    9.00    3.90
  -3  -9 -13   17.00    5.20
   3  -9  13   18.10    3.50
  -3  -9  13   24.20    6.10
   3   9  13   15.90    3.70
  -3   9 -13   21.70    4.40
   3  -9 -13   17.20    3.30
   5   9 -13    8.00    3.10
  -5  -9 -13    4.60    2.50
   5  -9  13    6.30    2.40
  -5   9  13   15.00    6.00
  -5   9 -13    5.20    2.80
   5   9  13    2.60    1.70
   5  -9 -13    7.80    2.50
  -5  -9  13    9.90    3.50
  -7  -9 -13   -0.40    0.80
   7   9 -13    0.40    1.70
   7  -9  13    2.60    2.00
   7   9  13    3.00    2.10
   7  -9 -13    1.40    1.40
  -7  -9  13    1.40    1.40
   0  10 -13  186.08   20.40
   0 -10 -13  227.28   21.20
   0 -10  13  196.18   19.20
   0 -10 -13  188.88   19.50
   0  10  13  228.58   21.30
   0  10 -13  189.68   19.50
   0 -10  13  226.78   20.90
  -2 -10 -13  535.95   47.20
   2 -10  13  541.95   45.60
   2  10 -13  476.25   44.60
  -2  10  13  562.04   48.20
   2 -10  13  546.05   45.60
  -2  10  13  497.85   45.40
   2  10 -13  544.35   46.70
   2  10  13  429.06   45.40
   2 -10 -13  488.55   45.40
   2 -10 -13  500.35   45.80
  -2 -10  13  473.45   46.50
  -2  10 -13  496.25   44.80
  -4 -10 -13  194.48   19.00
   4 -10  13  135.99   16.70
   4 -10  13  169.28   16.40
   4  10 -13  157.18   18.00
  -4  10  13  129.59   19.00
  -4  10 -13  179.68   18.70
   4 -10 -13  157.98   17.40
   4 -10 -13  205.88   19.20
  -4 -10  13  198.58   19.40
   4  10  13  154.38   16.80
  -6 -10 -13  195.78   22.20
   6  10 -13  195.78   21.80
  -6  10  13  215.48   25.70
  -6 -10  13  203.88   22.60
   6 -10 -13  223.08   21.70
   1  11 -13   24.10    4.30
  -1 -11 -13   17.80    4.30
   1 -11  13   11.40    3.30
   1 -11  13   15.20    3.00
  -1 -11 -13   20.20    4.20
  -1  11  13   18.70    4.40
   1 -11 -13   14.20    4.40
   1 -11 -13   24.80    3.90
  -1 -11  13   17.90    3.10
  -1 -11  13    8.70    3.20
   1  11  13   17.50    3.80
  -1 -11  13   14.30    4.00
  -1  11 -13   17.40    3.80
  -1  11 -13   19.60    3.60
   1 -11 -13   15.50    4.00
   3 -11  13   -0.70    0.80
  -3 -11 -13    1.30    1.40
   3  11 -13    0.20    0.80
  -3  11  13    1.80    1.10
   3 -11  13   -0.60    0.80
   3  11  13    0.40    1.00
   3 -11 -13    0.60    0.80
   3 -11 -13   -0.90    0.50
  -3  11 -13   -0.10    0.70
  -3 -11  13   -0.20    1.10
   5 -11  13    2.30    2.00
  -5 -11 -13    2.70    2.00
  -5  11  13    4.10    2.40
  -5 -11  13    0.80    1.50
   5  11  13    0.40    1.00
  -5  11 -13    4.20    1.90
  -7 -11 -13    1.60    1.90
   7  11 -13    1.80    1.50
   7  11  13    1.30    1.30
   7 -11 -13    1.80    1.30
  -7 -11  13   -0.50    1.70
   0 -12  13  433.56   37.90
   0 -12 -13  400.56   37.70
   0 -12 -13  404.96   38.00
   0 -12  13  401.36   39.00
   0  12 -13  364.46   37.60
   0 -12  13  420.66   36.20
  -2 -12 -13  357.26   32.50
  -2  12  13  348.47   33.50
   2 -12  13  328.77   31.00
   2 -12  13  337.97   30.70
   2  12 -13  316.27   31.70
  -2  12 -13  289.47   31.60
   2 -12 -13  337.67   30.80
   2  12  13  298.27   31.20
   2 -12 -13  354.86   32.00
  -2 -12  13  354.66   32.50
  -4 -12 -13  178.28   18.50
   4 -12  13  148.99   16.00
  -4  12  13  159.68   19.90
   4  12 -13  121.19   16.80
   4 -12 -13  174.38   17.30
  -4 -12  13  152.78   17.70
   4  12  13  185.68   17.40
   6 -12  13  119.89   13.60
  -6  12  13   85.59   15.70
  -6 -12 -13  114.79   14.20
  -6 -12  13  140.39   15.40
   6 -12 -13  123.79   13.50
   6  12  13   99.39   12.40
   1 -13  13    0.60    1.20
   1  13 -13    0.90    1.40
   1 -13  13    0.90    0.70
  -1 -13 -13    2.00    1.20
  -1  13  13    0.10    0.90
   1 -13 -13    1.20    1.10
  -1 -13  13    1.00    1.50
   1 -13 -13    1.90    1.40
   1  13  13    0.10    0.90
  -1  13 -13    1.20    1.30
   3 -13  13   -0.20    0.70
  -3 -13 -13    2.60    1.40
  -3  13  13   -1.20    1.00
   3 -13  13    0.70    0.90
   3  13 -13    1.80    1.20
   3  13  13    0.60    0.80
  -3  13 -13   -0.90    0.80
  -3 -13  13   -0.20    0.90
   3 -13 -13   -0.20    0.80
  -5  13  13    0.80    2.00
  -5 -13 -13   -1.80    0.90
   5 -13 -13    1.30    1.10
   5  13  13    0.90    1.20
  -5 -13  13    2.40    1.50
   7  13 -13   -0.10    1.30
   7 -13 -13   -0.80    1.00
  -7 -13  13   -2.10    1.30
   7  13  13   -0.30    0.90
   0 -14 -13  349.47   33.20
   0 -14  13  370.36   33.20
   0  14  13  325.07   33.50
  -2  14  13  265.37   28.40
   2  14 -13  332.37   27.70
  -2 -14 -13  274.77   27.30
   2 -14  13  278.77   26.30
   2 -14 -13  246.78   25.20
   2  14  13  223.68   26.10
  -2 -14  13  251.17   26.70
  -2  14 -13  312.47   27.80
   4 -14  13  141.49   15.60
  -4 -14 -13  146.69   17.10
  -4  14  13  130.99   18.40
   4  14 -13  161.68   17.10
  -4 -14  13  170.58   17.80
   4 -14 -13  134.79   15.80
  -4  14 -13  144.19   17.10
   4  14  13  165.18   16.50
   6  14 -13  107.19   12.60
  -6 -14 -13  110.19   12.70
  -6 -14  13   79.59   12.00
   6 -14 -13   95.99   11.30
   6  14  13   68.49   10.30
   1  15 -13   11.30    3.50
  -1  15  13   15.40    4.90
  -1 -15 -13    9.80    3.40
   1 -15  13    5.80    1.80
   1 -15  13    9.10    3.00
  -1  15 -13   11.00    3.60
  -1 -15  13    9.40    3.30
   1  15  13   16.70    5.00
   1 -15 -13    8.20    2.70
   1 -15 -13    3.80    2.40
   3 -15  13   -0.50    0.90
  -3 -15 -13   -0.30    1.00
   3  15 -13   -1.00    0.90
   3 -15 -13    1.10    1.10
   3  15  13   -1.10    0.70
  -3  15 -13   -0.50    0.60
  -3 -15  13    0.00    0.90
   5  15 -13    1.80    1.60
  -5  15  13    0.80    1.80
  -5 -15 -13   -1.10    0.80
  -5 -15  13    1.00    1.10
   5 -15 -13   -0.30    1.30
   5  15  13    1.20    1.30
   0 -16  13  191.08   19.30
   0 -16 -13  165.08   18.80
   0  16  13  192.68   20.30
   2 -16  13  256.77   26.40
   2 -16  13  270.77   26.50
  -2  16  13  288.07   29.30
  -2 -16 -13  274.27   27.30
  -2  16 -13  297.27   27.70
   2 -16 -13  278.17   26.80
   2  16  13  296.57   27.40
  -2 -16  13  220.48   26.50
  -4  16  13   98.99   15.20
   4 -16  13   99.89   12.40
   4 -16  13  113.49   13.10
   4  16 -13  137.69   14.40
  -4 -16 -13  100.79   13.20
  -4 -16  13  122.39   14.20
   4  16  13  101.39   12.70
  -6 -16 -13  127.09   15.60
   6  16 -13  131.69   15.50
   6 -16 -13  147.09   15.00
  -6 -16  13  119.99   15.60
   6  16  13  119.79   14.50
   1  17 -13    3.50    1.50
  -1  17  13    0.80    1.70
   1 -17  13    0.00    1.30
  -1 -17 -13    3.20    2.20
   1 -17 -13    3.40    2.00
   1  17  13    0.60    1.00
  -1 -17  13    3.40    2.40
   3  17 -13    8.40    3.10
   3 -17  13    0.00    1.20
  -3 -17 -13    3.60    2.80
  -3  17  13    1.30    1.80
  -3 -17  13    2.50    2.30
  -3  17 -13    6.70    3.20
   3 -17 -13    1.40    1.40
   3  17  13    1.20    1.40
   5  17 -13    1.10    1.10
  -5 -17 -13    0.50    1.00
  -5 -17  13   -1.70    0.90
   0  18 -13  171.78   17.50
   0 -18  13  152.78   16.70
   0 -18 -13  145.09   16.70
   0  18  13  144.09   17.70
  -2  18  13  143.89   18.20
  -2 -18 -13  154.98   17.00
   2 -18  13  155.68   16.30
   2  18 -13  157.68   16.80
  -2 -18  13  153.38   16.70
  -2  18 -13  121.49   16.10
   2  18  13  145.39   16.50
   4 -18  13  152.28   15.00
  -4 -18 -13  155.48   16.30
  -4  18  13  119.79   17.20
  -4 -18  13  115.59   15.20
   4  18  13  104.29   14.20
  -6  18  13   84.79   15.00
  -6 -18 -13  104.89   12.90
   6  18 -13   85.89   11.80
   6 -18 -13   99.29   11.70
   6  18  13   92.59   11.70
  -6 -18  13   78.09   11.90
   1  19 -13    1.50    1.00
  -1 -19 -13    0.10    1.10
   1 -19  13    0.40    1.00
  -1  19  13    0.30    1.70
  -1 -19  13    2.70    1.60
  -1  19 -13    0.40    1.10
   3 -19  13    3.30    1.70
  -3 -19 -13    5.90    3.00
  -3  19  13   14.00    5.10
   3  19 -13    9.70    3.50
   3  19  13    1.60    1.60
   3 -19 -13    6.90    2.60
  -3 -19  13    3.40    2.00
  -5 -19 -13    0.60    1.30
   5  19 -13    3.10    2.20
  -5 -19  13    0.10    1.20
   5  19  13    1.50    1.40
   5 -19 -13    3.60    1.80
   0  20 -13  199.68   20.10
   0  20  13  167.08   20.30
   0 -20  13  182.18   19.50
   2  20 -13   51.79    8.00
  -2  20  13   62.59   10.10
   2 -20  13   60.49    8.20
  -2 -20 -13   46.30    8.00
   2 -20  13   52.19    7.40
  -2  20 -13   64.09    8.80
  -2 -20  13   46.80    7.80
   2  20  13   49.80    8.30
  -4 -20 -13  166.88   20.20
   4 -20  13  192.48   19.80
  -4  20  13  191.28   23.20
  -4 -20  13  187.68   20.50
   4  20  13  180.68   20.00
   1 -21  13    3.30    1.90
   1  21 -13    4.60    2.30
   1  21  13    0.80    1.90
  -1 -21  13    2.60    2.10
   3 -21  13   17.80    5.10
   3  21 -13   13.50    4.00
  -3  21  13   22.00    6.80
   3 -21  13   18.30    4.10
  -3 -21  13   11.50    4.50
  -5  21  13   -0.80    1.60
  -5 -21 -13    0.80    1.50
   5  21  13    0.90    2.10
  -5 -21  13    0.00    1.70
   5 -21 -13    1.70    1.30
   0 -22  13   89.79   11.40
   0  22 -13   93.89   11.50
   0  22  13   86.39   12.60
  -2  22  13  121.49   16.50
   2 -22  13  106.99   13.90
   2  22 -13  149.59   15.70
   2  22  13  116.69   15.10
  -2 -22  13  131.59   15.00
  -4  22  13   71.59   13.00
   4 -22  13   65.69    9.70
  -4 -22  13   69.39   10.40
   4  22  13   85.09   10.90
  -1  23  13    4.00    2.10
   1  23 -13    0.80    1.40
   1 -23  13    3.40    2.20
  -1 -23  13    1.70    1.60
   1  23  13    8.80    3.20
   3  23 -13   -0.30    1.00
   3 -23  13   -1.40    1.00
   3  23  13    4.30    2.50
  -3 -23  13    1.50    2.10
   0 -24  13  175.88   18.20
   0  24  13  158.88   19.50
   0  24 -13  144.19   17.90
   2  24 -13   74.69    9.50
   2 -24  13   48.60    8.00
  -2 -24  13   45.50    8.20
   2  24  13   56.59    9.50
   1  25 -13    1.60    1.60
  -1  25  13   -1.60    1.80
   1 -25  13    1.80    1.90
  -1 -25  13    3.50    1.90
   0 -26  13   56.89    8.70
   0  26  13   51.69   10.00
   0   0  14  714.23   64.39
   0   0 -14  751.02   65.19
   2   0 -14   59.49    8.00
   2   0  14   74.09    8.10
  -2   0 -14   65.59    8.80
   2   0 -14   61.79    8.60
  -2   0  14   57.29    8.50
   2   0 -14   53.39    7.20
   4   0  14  711.23   60.79
  -4   0 -14  685.13   62.09
   4   0 -14  671.93   60.99
  -4   0  14  630.34   63.39
   4   0 -14  719.43   62.39
   6   0 -14  141.09   16.40
   6   0  14  137.49   15.90
  -6   0 -14  159.48   17.90
   6   0 -14  171.58   17.60
   8   0  14  114.89   13.50
  -1   1  14   27.60    4.90
   1   1 -14   26.60    4.10
  -1  -1 -14   23.70    4.80
   1   1 -14   23.60    4.60
   1  -1  14   21.50    4.00
   1   1 -14   22.80    4.20
   1  -1 -14   24.50    4.50
   1  -1 -14   29.70    4.90
   1  -1 -14   23.90    4.10
  -1   1 -14   27.80    3.60
  -1   1 -14   18.90    4.40
  -1  -1  14   27.00    4.70
   1   1  14   34.70    4.90
   3   1 -14   59.59    7.90
  -3   1  14   62.59    9.30
   3   1 -14   56.89    7.40
   3  -1  14   49.90    7.40
  -3  -1 -14   64.69    8.80
  -3  -1  14   59.29    8.90
   3   1  14   55.79    7.50
  -3   1 -14   59.29    8.50
   3  -1 -14   63.29    8.10
   3  -1 -14   71.49    8.80
   5   1 -14    8.90    3.10
  -5  -1 -14    2.00    2.30
   5  -1  14    6.40    2.10
   5   1 -14    5.10    2.50
   5  -1 -14    1.80    1.50
   5   1  14    3.10    1.90
  -5   1 -14    6.50    3.00
   7  -1  14    0.70    0.90
   7   1 -14   -2.00    1.90
   7   1 -14   -0.20    1.40
  -7  -1 -14   -1.40    1.50
  -7   1 -14   -1.80    0.90
   7  -1 -14    1.50    1.80
   7   1  14    3.00    2.00
   0   2 -14  189.08   19.90
   0  -2  14  216.18   20.70
   0   2 -14  187.58   19.40
   0  -2  14  208.48   20.20
   0   2 -14  201.68   20.70
   0  -2 -14  202.18   20.90
   0   2  14  247.98   21.20
   2   2 -14  414.96   41.90
  -2   2  14  499.45   44.20
  -2   2  14  373.46   48.00
   2  -2  14  427.76   42.10
   2   2 -14  407.86   42.50
  -2  -2 -14  546.85   44.50
   2  -2 -14  449.36   42.70
  -2  -2  14  524.15   44.20
   2   2  14  508.65   42.60
   2  -2 -14  518.05   43.60
  -2   2 -14  527.65   44.20
  -4  -2 -14  275.97   25.80
   4   2 -14  256.07   24.40
  -4   2  14  212.98   26.00
  -4   2 -14  215.18   24.60
   4  -2 -14  228.38   24.40
  -4  -2  14  261.97   26.80
   4  -2 -14  267.97   24.40
  -6  -2 -14  203.68   23.20
   6   2 -14  194.88   22.30
  -6   2  14  183.78   30.30
   6  -2  14  276.77   22.90
   6   2 -14  234.98   23.80
  -6   2 -14  174.98   22.60
  -6  -2  14  215.48   25.80
   6  -2 -14  250.67   22.90
  -8   2  14   76.59   17.20
   8  -2 -14   83.29   10.40
   8   2  14   51.69    8.30
   1   3 -14   18.20    3.90
   1   3 -14   30.50    4.50
  -1   3  14   18.30    4.20
   1  -3  14   23.10    3.90
  -1  -3 -14   23.00    4.80
   1  -3  14   24.80    4.10
   1   3 -14   29.00    4.90
  -1  -3  14   31.90    4.90
   1   3  14   20.50    4.00
  -1   3 -14   38.50    5.60
   1  -3 -14   22.00    4.00
   1  -3 -14   23.50    4.60
   1  -3 -14   21.00    4.10
  -1  -3  14   23.10    4.40
  -3  -3 -14    5.30    2.80
  -3   3  14    6.20    3.30
   3  -3  14    5.00    2.20
   3   3 -14    8.50    2.90
   3   3 -14    4.30    1.80
   3  -3 -14    5.70    2.50
  -3  -3  14    4.60    2.30
  -3  -3  14    7.30    3.30
   3  -3 -14    4.60    2.30
   3   3  14    3.20    1.60
  -3   3 -14    5.60    2.90
  -5  -3 -14    5.30    2.80
   5  -3  14    3.90    1.80
   5   3 -14    7.00    3.10
   5  -3 -14    8.20    3.10
   5  -3 -14    6.50    2.40
  -5   3 -14    8.30    3.20
   5   3  14    3.80    2.10
  -7  -3 -14    7.00    3.50
   7   3 -14    3.90    2.00
   7   3 -14    1.60    1.50
   7  -3  14    4.80    2.50
   7   3  14    2.20    1.70
  -7   3 -14    1.10    1.60
   7  -3 -14    0.60    1.70
   0   4  14  627.34   50.69
   0  -4  14  532.05   49.99
   0   4 -14  630.24   50.99
   0  -4 -14  542.95   50.39
   0  -4  14  514.95   49.20
   0   4 -14  508.95   48.80
  -2  -4 -14  411.36   36.30
   2  -4  14  427.26   35.00
  -2   4  14  410.56   36.80
   2  -4  14  376.06   33.90
   2   4 -14  318.57   34.00
   2   4 -14  428.86   35.90
   2  -4 -14  353.46   35.20
  -2  -4  14  346.57   35.70
   2   4  14  320.77   34.40
  -2  -4  14  383.66   35.60
   2  -4 -14  419.16   35.70
  -4  -4 -14  323.27   28.40
   4  -4  14  214.08   25.50
  -4   4  14  285.27   29.50
   4   4 -14  270.27   26.60
   4   4  14  278.77   26.20
  -4   4 -14  306.67   27.90
  -4  -4  14  254.87   28.20
   4  -4 -14  273.77   26.90
   4  -4 -14  272.67   26.40
  -6  -4 -14  117.29   14.60
  -6   4  14  117.99   17.20
   6   4 -14  119.39   14.20
  -6   4 -14  131.99   15.10
   6   4  14  106.99   13.00
  -1  -5 -14    7.80    3.10
  -1   5  14    3.20    2.00
   1   5 -14    5.90    2.00
   1  -5  14    5.40    2.20
   1   5 -14    5.00    2.10
   1  -5  14   11.00    3.00
   1   5 -14    7.50    2.80
  -1   5  14    5.10    2.30
  -1  -5 -14    6.00    1.90
   1  -5 -14    6.20    2.10
   1  -5 -14    5.50    2.30
  -1   5 -14    3.70    1.90
   1   5  14    6.60    2.70
  -1  -5  14    7.30    3.00
  -1  -5  14    4.30    2.20
   1  -5 -14    9.20    3.20
   3   5 -14    1.70    1.40
   3  -5  14   -0.60    0.50
  -3   5  14    3.10    2.10
  -3  -5 -14    0.50    0.90
   3   5 -14   -1.00    0.60
  -3   5 -14   -0.60    1.00
  -3  -5  14   -0.20    0.80
   3  -5 -14    0.80    1.10
  -3  -5  14   -1.10    0.90
   3   5  14    0.60    0.80
   3  -5 -14    1.30    1.30
  -5  -5 -14    1.00    1.30
   5   5 -14    1.00    1.20
   5  -5  14    1.60    1.30
   5   5  14    0.40    0.90
   5  -5 -14   -0.10    1.00
   5  -5 -14    1.50    1.20
  -5  -5  14    1.00    1.60
  -5   5 -14    2.20    1.50
  -7  -5 -14    2.70    1.80
   7   5 -14    1.00    2.10
   7   5 -14    1.30    2.10
   7  -5  14    0.80    1.30
   7   5  14    0.70    1.10
   7  -5 -14    1.10    1.60
   0  -6 -14  450.65   40.10
   0   6 -14  462.35   39.50
   0  -6  14  393.26   40.20
   0   6  14  455.15   40.90
   0   6 -14  422.66   40.00
   0  -6 -14  465.95   41.10
   0   6 -14  505.25   41.40
   0  -6  14  387.66   39.50
   2   6 -14  338.47   35.10
   2   6 -14  423.06   36.90
   2  -6  14  419.16   36.00
  -2  -6 -14  369.76   37.00
  -2   6  14  395.56   37.90
   2  -6  14  387.46   35.40
   2  -6 -14  360.66   36.00
  -2   6 -14  458.35   37.80
   2  -6 -14  387.76   36.40
  -2  -6  14  369.66   37.00
  -2   6 -14  360.06   34.50
  -2  -6  14  378.76   36.40
   2   6  14  465.55   36.80
  -4   6  14  257.87   28.30
  -4  -6 -14  304.27   27.60
   4   6 -14  239.48   25.60
  -4   6 -14  262.57   26.60
   4  -6 -14  233.58   24.90
   4  -6 -14  230.08   25.40
   4   6  14  299.67   25.70
  -4  -6  14  270.37   27.10
   6   6 -14  131.99   16.10
  -6  -6 -14  125.89   16.20
  -6  -6  14  150.48   17.20
  -6   6 -14  118.49   16.20
   6   6  14  167.28   15.80
   6  -6 -14  148.99   16.10
  -1   7  14    3.30    2.00
  -1  -7 -14    0.40    1.20
   1  -7  14    2.10    1.20
   1  -7  14    1.60    1.00
   1   7 -14    0.10    0.90
   1   7 -14    1.80    1.80
  -1   7 -14   -0.50    0.60
   1  -7 -14    1.10    1.10
  -1  -7  14    1.00    1.50
  -1   7 -14    0.00    1.00
  -1   7 -14    0.10    0.90
   1  -7 -14    1.50    1.10
  -1  -7  14    1.10    0.70
   1  -7 -14   -1.80    1.30
   1   7  14    1.10    1.30
  -3   7  14    0.20    1.10
   3  -7  14    0.00    0.80
   3  -7  14    0.90    1.00
  -3  -7 -14    0.10    0.90
   3   7 -14    0.00    1.00
  -3   7 -14    0.80    1.20
   3  -7 -14   -0.50    1.20
   3   7  14    0.30    0.70
   3  -7 -14    0.10    1.10
  -3  -7  14   -0.10    1.00
  -5   7  14    0.50    1.40
  -5  -7 -14    0.40    0.80
   5   7 -14    0.20    1.20
   5  -7  14    1.10    1.20
   5   7  14    0.50    1.20
  -5  -7  14   -1.30    1.00
  -5   7 -14    0.20    1.30
   5  -7 -14    2.10    1.40
   7   7 -14    0.40    1.80
  -7  -7 -14    2.70    1.70
   7   7  14    0.50    1.90
   7  -7 -14   -1.40    1.10
   0   8 -14  264.77   26.40
   0   8  14  237.48   27.20
   0   8 -14  336.07   28.50
   0   8 -14  286.47   27.40
   0  -8 -14  280.97   27.20
   0  -8 -14  293.97   28.00
   0  -8  14  308.37   28.10
   0  -8  14  296.47   26.80
   2  -8  14  475.95   42.90
  -2  -8 -14  443.46   44.30
  -2   8  14  390.16   43.60
   2   8 -14  502.05   44.10
   2  -8  14  498.05   43.30
   2  -8 -14  519.05   43.80
  -2  -8  14  437.46   43.20
  -2  -8  14  527.45   44.90
  -2   8 -14  530.95   44.60
   2  -8 -14  463.75   43.40
   4  -8  14  168.28   18.20
   4   8 -14  183.58   19.20
  -4   8  14  180.08   21.40
  -4  -8 -14  207.88   20.30
  -4  -8  14  155.68   19.20
   4  -8 -14  189.08   18.90
   4   8  14  205.18   18.60
  -4   8 -14  167.18   19.70
   4  -8 -14  152.68   17.50
   6  -8  14  127.19   15.50
   6   8 -14  141.89   16.80
  -6  -8 -14  163.18   17.60
   6   8  14  122.39   15.10
   6  -8 -14  184.28   17.10
  -6  -8  14  152.28   17.40
   1   9 -14   26.40    4.70
   1  -9  14   32.90    4.80
  -1   9  14   38.50    6.20
   1  -9  14   28.70    6.30
  -1  -9 -14   33.30    5.70
   1   9 -14   24.80    5.20
   1  -9  14   30.20    5.10
   1   9  14   44.60    6.30
  -1  -9  14   34.80    5.80
  -1   9 -14   34.30    5.00
  -1  -9  14   30.30    4.90
   1  -9 -14   25.90    5.50
  -1   9 -14   41.10    6.30
   1  -9 -14   32.80    5.50
  -3   9  14   -0.40    1.40
   3   9 -14    0.30    1.00
   3  -9  14    0.90    1.00
  -3  -9 -14   -0.80    1.00
   3  -9  14    0.10    1.20
  -3   9 -14    0.60    1.10
   3  -9 -14   -0.30    0.90
   3   9  14    1.20    1.30
  -3  -9  14    0.10    1.00
   3  -9 -14    0.20    1.20
  -5   9  14    8.20    4.60
   5  -9  14   13.60    3.90
  -5  -9 -14   12.90    4.10
   5  -9 -14    8.30    3.20
   5   9  14    4.10    1.90
  -5  -9  14   11.00    3.70
  -5   9 -14    8.60    3.30
  -7  -9 -14    5.50    3.00
   7   9 -14    6.50    3.20
   7  -9  14    3.10    1.80
   7   9  14    1.20    1.60
  -7  -9  14    1.80    2.20
   7  -9 -14    1.10    1.40
   0 -10  14  570.34   49.10
   0 -10 -14  526.45   48.60
   0 -10  14  571.84   47.60
   0 -10 -14  556.34   49.10
   0  10 -14  450.55   48.20
   2 -10  14  341.97   30.70
   2 -10  14  315.57   30.20
  -2 -10 -14  336.17   32.10
  -2  10  14  318.17   32.50
   2  10 -14  341.87   31.50
   2  10  14  266.17   30.40
  -2  10 -14  377.46   32.10
  -2 -10  14  358.06   32.20
   2 -10 -14  297.87   30.40
   4  10 -14  204.78   20.20
   4 -10  14  216.08   19.40
  -4  10  14  156.48   21.00
  -4 -10 -14  206.18   20.50
  -4  10 -14  160.88   22.10
  -4 -10  14  177.38   20.10
   4  10  14  164.48   18.50
   4 -10 -14  172.28   19.10
   6 -10  14   69.99   10.10
  -6  10  14   84.49   13.50
   6  10 -14   93.49   11.50
  -6 -10 -14   82.09   11.30
   6  10  14   69.69    9.70
   6 -10 -14   78.89   10.30
  -6 -10  14   95.69   11.90
   1 -11  14   13.40    4.00
  -1 -11 -14   10.30    3.90
   1 -11  14   12.00    2.70
  -1  11  14   13.60    4.20
   1  11 -14    9.90    3.40
   1 -11  14    6.50    4.80
   1 -11 -14   15.00    4.10
  -1  11 -14    7.60    3.10
  -1  11 -14   16.30    4.70
  -1 -11  14   15.70    4.70
   3  11 -14    5.60    2.20
   3 -11  14    7.50    2.80
  -3 -11 -14    1.70    1.30
  -3  11  14    3.70    2.10
   3 -11  14    2.00    1.20
   3 -11 -14    3.50    1.50
  -3 -11  14    5.70    2.60
   3  11  14    5.10    2.20
  -3  11 -14    5.30    2.90
   5  11 -14    5.90    2.80
  -5 -11 -14    0.80    1.10
   5 -11  14    3.10    1.60
   5  11  14    4.50    1.90
  -5 -11  14    6.20    2.20
  -5  11 -14    1.40    1.60
   7  11 -14   -0.10    2.10
   7  11  14    1.20    1.40
  -7 -11  14    4.10    2.10
   7 -11 -14   -1.40    1.10
   0 -12  14  327.87   29.20
   0 -12 -14  305.67   28.90
   0 -12  14  327.17   27.40
   0  12  14  266.47   28.60
   0  12 -14  245.28   28.10
  -2 -12 -14  354.16   34.70
   2 -12  14  372.96   33.80
  -2  12  14  286.77   34.70
   2  12 -14  359.06   34.20
   2  12  14  396.56   34.70
   2 -12 -14  350.86   33.40
  -2 -12  14  345.67   34.60
  -2  12 -14  411.46   35.20
   4 -12  14  110.49   12.40
  -4  12  14  118.69   15.70
   4  12 -14  143.79   14.30
  -4 -12 -14  133.09   14.60
  -4  12 -14   97.99   13.20
   4  12  14   85.69   12.10
   4 -12 -14  118.39   13.20
  -4 -12  14   97.29   13.20
  -6 -12 -14  101.59   13.30
   6  12 -14  114.89   13.70
   6 -12 -14  117.39   12.90
   6  12  14   89.39   11.70
   1  13 -14    2.70    2.00
  -1  13  14    2.20    1.80
   1 -13  14    5.30    2.10
   1 -13  14    1.70    2.00
  -1 -13 -14    3.10    1.80
   1 -13 -14    2.00    1.80
   1 -13 -14    7.00    2.90
   1  13  14    4.80    2.60
  -1 -13  14    2.20    1.60
  -3 -13 -14    4.90    2.00
   3  13 -14    6.90    2.90
   3 -13  14    4.10    2.10
  -3  13 -14    5.80    3.50
  -3 -13  14    4.10    2.10
   3  13  14    1.10    1.30
  -5 -13 -14    1.20    1.40
  -5  13  14    0.00    1.90
   5  13 -14    1.90    1.80
   5  13  14    0.40    1.40
   0 -14  14  237.68   22.90
   0 -14 -14  201.88   22.40
   0  14  14  216.08   23.10
   0  14 -14  233.18   23.00
  -2 -14 -14  313.07   27.70
   2  14 -14  213.78   25.60
   2 -14  14  287.07   26.10
  -2  14  14  237.88   27.40
  -2 -14  14  270.57   26.90
   2 -14 -14  265.67   25.40
   2  14  14  266.57   26.40
  -4  14  14  112.99   15.60
   4  14 -14  134.59   14.50
   4 -14  14  101.69   12.90
   4 -14  14  120.29   13.30
  -4 -14 -14  116.89   14.40
  -4  14 -14  123.09   14.40
  -4 -14  14  100.49   13.90
   4 -14 -14  117.69   13.30
   4  14  14  108.39   13.10
  -6 -14 -14  121.29   14.00
   6  14 -14   90.79   13.10
   6 -14 -14  102.99   12.50
   6  14  14  101.99   12.60
  -6 -14  14  109.39   13.90
   1  15 -14   -0.10    1.10
  -1 -15 -14    1.20    1.10
  -1 -15 -14   -0.70    0.80
   1 -15  14    3.50    2.00
  -1  15  14   -0.30    1.20
   1 -15 -14    1.10    1.10
  -1  15 -14    1.60    1.70
  -1 -15  14    0.20    1.30
  -3 -15 -14    4.70    2.40
   3 -15  14    2.80    1.80
   3  15 -14    9.90    3.00
  -3  15  14    2.60    2.50
  -3 -15  14    0.80    2.00
   3  15  14    6.40    2.90
  -3  15 -14    2.10    1.40
  -5 -15 -14   -0.70    1.20
   5  15  14    0.60    1.40
  -5 -15  14   -1.10    1.20
   0  16 -14  227.38   22.10
   0 -16 -14  198.78   20.60
   0 -16  14  212.78   21.60
   0 -16 -14  196.48   21.40
   0  16  14  204.48   22.30
   2  16 -14  137.99   17.10
   2 -16  14  160.68   17.20
  -2  16  14  152.98   18.90
  -2 -16 -14  157.98   18.00
  -2  16 -14  192.58   18.70
   2  16  14  185.98   18.10
  -2 -16  14  132.99   17.10
  -4  16  14  126.39   18.20
   4 -16  14  163.28   16.30
  -4 -16 -14  160.48   17.10
   4  16  14  142.49   16.10
  -4 -16  14  120.89   16.20
  -6  16  14   98.99   15.20
   6  16 -14   83.69   11.70
   6  16  14   72.29   10.60
  -6 -16  14   86.69   12.20
   6 -16 -14  105.59   11.60
   1  17 -14    3.70    2.50
  -1  17  14    1.80    1.90
  -1 -17 -14    0.50    0.90
   1 -17  14    0.20    1.40
   1  17  14    3.10    2.20
   1 -17 -14    2.60    1.80
  -1 -17  14    1.10    2.00
  -1  17 -14    2.30    2.10
   3  17 -14    8.90    3.30
  -3  17  14    4.70    2.40
  -3 -17 -14    3.10    2.60
   3 -17  14    0.10    1.50
   3  17  14    8.50    3.10
  -5 -17 -14   -0.70    1.10
  -5  17  14    3.00    2.20
   5  17 -14    1.80    1.50
   5  17  14    1.30    1.60
   0  18 -14  150.98   16.60
   0 -18 -14  133.29   16.10
   0  18  14  162.08   17.80
   0 -18  14  133.59   16.00
   2 -18  14   75.59    9.80
   2 -18  14   74.89   10.40
  -2 -18 -14   83.89   11.00
   2  18 -14   89.79   11.00
  -2  18  14   98.09   13.00
  -2  18 -14   65.59   10.30
   2  18  14   84.29   10.80
  -4 -18 -14  211.18   23.80
  -4  18  14  188.98   25.20
   4 -18  14  230.18   24.50
   4  18 -14  249.68   24.10
   4  18  14  230.48   23.50
  -4 -18  14  231.68   24.20
   1 -19  14    3.30    2.20
   1  19 -14    8.00    2.80
  -1  19  14    3.80    2.40
   1  19  14    4.20    2.50
  -1  19 -14    0.80    1.30
  -1 -19  14    2.60    1.60
  -3  19  14    7.90    4.20
  -3 -19 -14   20.10    5.90
   3 -19  14   19.80    5.10
   3  19 -14   14.20    4.50
  -3 -19  14   13.70    4.30
   3  19  14   21.90    5.90
  -5 -19 -14    1.60    2.00
  -5  19  14    2.40    2.20
  -5 -19  14    3.80    1.90
   5  19  14    2.60    1.60
   0  20  14  104.39   13.10
   0 -20 -14   75.99   11.10
   0 -20  14   77.09   10.80
   0  20 -14   97.49   11.80
  -2 -20 -14  135.79   15.50
   2 -20  14  138.09   14.70
   2  20 -14   90.39   13.50
  -2  20  14  154.88   17.50
  -2 -20  14  103.29   14.30
   2  20  14  129.49   15.10
  -4 -20 -14   82.39   11.90
  -4  20  14   91.89   15.80
   4 -20  14  121.69   14.70
   4  20 -14   81.69   11.60
  -4 -20  14   90.69   12.40
   4  20  14   85.19   11.70
   1 -21  14    2.40    1.80
  -1  21  14    7.90    4.00
  -1 -21 -14    5.40    2.70
   1  21 -14    4.40    1.60
  -1  21 -14    4.90    2.10
  -1 -21  14    3.50    2.00
   1  21  14    2.10    1.80
  -3  21  14   -0.50    2.60
   3 -21  14    3.40    2.30
   3  21 -14    1.40    1.80
  -3 -21 -14    2.20    2.60
   3  21  14    2.10    1.90
   0  22 -14  126.39   16.60
   0  22  14  153.68   18.40
   0 -22  14  181.28   17.90
   2 -22  14   72.09   10.50
   2  22 -14   95.09   11.40
  -2  22  14   68.29   17.40
  -2 -22  14   83.79   11.20
   2  22  14   74.39   11.30
  -4  22  14  109.89   20.60
   1 -23  14    0.40    1.50
   1  23 -14    2.20    1.80
  -1  23  14    3.50    3.30
   1  23  14    4.40    2.50
  -1  23 -14    0.30    2.70
  -1 -23  14    0.00    1.60
   3  23 -14    2.20    1.60
  -3  23  14    0.50    1.70
   3 -23  14   -1.80    1.80
  -3 -23  14    3.30    2.10
   3  23  14    1.40    2.50
   0 -24  14   35.60    6.70
   0  24 -14   40.10    6.90
   2 -24  14  101.59   13.60
  -2 -24  14  111.39   13.90
   2  24  14  127.59   15.50
  -1  25  14    9.50    4.50
   1 -25  14    4.20    2.90
  -1 -25  14   10.00    3.50
   1  25  14    3.50    2.80
   0   0 -15  245.68   23.90
   0   0  15  268.67   25.00
   0   0 -15  256.77   25.50
  -2   0  15  178.28   21.10
  -2   0 -15  226.58   22.00
   2   0 -15  211.28   21.20
   2   0 -15  217.28   21.70
  -4   0 -15  370.96   37.70
   4   0 -15  379.16   36.80
   4   0 -15  373.46   37.60
   4   0  15  449.95   37.10
   6   0 -15  145.19   17.40
   6   0  15  143.09   16.20
   6   0 -15  180.18   18.00
  -1  -1 -15   10.60    3.10
   1   1 -15    7.30    2.40
  -1  -1 -15   12.00    3.80
   1  -1  15   13.50    2.90
   1   1 -15    8.20    2.70
  -1   1  15    3.80    2.00
   1  -1 -15    5.60    2.20
   1  -1 -15    6.20    2.30
  -1  -1  15   15.50    3.30
  -1   1 -15    6.90    2.60
  -1   1 -15   12.50    2.30
   1  -1 -15   11.10    3.20
   1   1  15   14.00    3.00
  -3  -1 -15    6.00    2.60
  -3   1  15    3.30    2.10
   3  -1  15    3.80    2.00
   3   1  15    0.80    1.20
   3  -1 -15    3.10    1.80
   3  -1 -15    6.20    2.60
  -3   1 -15    5.20    2.50
   5   1 -15    1.10    1.90
   5   1 -15    0.90    1.50
   5  -1  15    2.20    1.50
  -5  -1 -15    0.90    2.00
   5  -1 -15    1.60    1.10
   5  -1 -15    1.50    1.50
  -5  -1  15    2.60    2.70
  -5   1 -15    0.30    0.90
   7   1 -15    2.40    2.10
  -7  -1 -15   -1.60    1.30
   7  -1 -15   -0.90    1.60
   7   1  15    0.90    0.90
   0  -2  15  525.65   48.00
   0   2 -15  625.64   49.20
   0   2 -15  480.95   47.10
   0  -2 -15  556.34   47.60
   0  -2 -15  492.45   48.50
  -2  -2 -15  141.69   17.50
   2  -2  15  161.88   16.70
  -2   2  15  182.98   18.60
   2   2 -15  183.08   18.20
   2   2 -15  178.98   17.80
  -2   2 -15  146.09   17.50
   2  -2 -15  143.99   17.10
   2  -2 -15  158.48   17.20
   2   2  15  187.38   17.20
  -2  -2  15  169.58   18.10
  -4  -2 -15  334.57   36.10
   4   2 -15  401.16   36.00
   4  -2 -15  413.16   35.80
  -4   2 -15  407.16   36.70
   4  -2 -15  380.36   36.10
   4   2  15  336.17   34.60
   6  -2  15  135.59   13.80
   6   2 -15  116.79   13.90
  -6  -2 -15  100.89   14.10
   6   2 -15  130.99   15.00
   6  -2 -15   94.29   13.40
  -6   2 -15  123.89   14.90
   1   3 -15   13.40    3.90
  -1  -3 -15   12.20    4.30
   1   3 -15   14.20    3.70
  -1   3  15   10.90    3.60
   1   3 -15    4.60    1.90
  -1  -3 -15    6.90    3.10
   1  -3  15   11.50    2.70
  -1  -3  15    7.60    2.80
   1   3  15    8.10    2.70
  -1  -3  15   16.30    3.40
   1  -3 -15    5.60    2.40
   1  -3 -15   15.70    3.20
  -1   3 -15    5.00    2.30
   1  -3 -15   15.30    4.30
  -3  -3 -15   47.10    7.40
  -3   3  15   45.60    7.80
   3   3 -15   39.50    6.60
   3  -3  15   40.70    6.20
   3  -3 -15   49.90    6.90
   3  -3 -15   43.10    6.80
  -3   3 -15   51.09    7.70
   3   3  15   50.99    6.60
  -3  -3  15   39.70    7.10
  -3  -3  15   39.30    7.10
   5  -3  15    3.60    1.60
  -5  -3 -15    3.10    1.50
   5   3 -15    4.70    2.30
  -5  -3  15    5.10    2.80
   5  -3 -15    5.60    2.20
  -5   3 -15    2.30    2.10
   5   3  15    1.60    1.20
   5  -3 -15    5.50    2.30
   7  -3  15   -0.40    1.30
  -7   3  15    0.80    3.00
   7   3 -15    0.80    2.00
   7   3 -15    1.10    1.40
  -7  -3 -15    0.90    1.30
   7  -3 -15    1.70    1.80
  -7   3 -15   -1.00    1.00
   0  -4 -15  245.88   24.00
   0  -4 -15  220.08   22.40
   0   4 -15  238.78   23.80
   0  -4  15  237.48   22.90
   0  -4  15  213.18   23.10
   0   4  15  266.97   24.00
  -2   4  15  475.05   44.60
   2   4 -15  531.05   43.90
   2   4 -15  400.76   42.10
  -2  -4 -15  456.25   43.90
   2  -4  15  477.05   42.70
  -2  -4  15  490.45   44.00
  -2  -4  15  416.56   43.50
   2  -4 -15  484.65   43.60
   2  -4 -15  538.75   44.10
   4   4 -15  175.08   18.00
   4  -4  15  148.09   16.80
  -4  -4 -15  203.38   19.50
  -4   4  15  133.49   18.90
  -4   4 -15  151.88   18.00
  -4  -4  15  158.08   18.50
   4  -4 -15  177.28   18.20
   4  -4 -15  182.68   17.60
   4   4  15  159.88   17.00
   6  -4  15  138.29   15.80
   6   4 -15  174.18   17.50
  -6  -4 -15  164.18   17.90
  -6   4 -15  132.19   17.00
   6   4  15  114.49   15.30
   6  -4 -15  188.18   17.70
   1   5 -15    8.20    2.90
  -1  -5 -15    6.10    2.80
   1  -5  15    7.10    2.50
   1   5 -15    6.00    2.40
   1  -5  15    9.70    2.70
  -1   5  15    5.10    2.60
  -1   5 -15    6.60    2.50
  -1  -5  15    4.50    2.50
   1   5  15    6.30    2.30
   1  -5 -15    8.50    3.00
  -1   5 -15    5.30    2.80
   1  -5 -15    6.60    2.40
  -1  -5  15   10.40    3.20
  -3  -5 -15    1.10    1.20
   3  -5  15    1.80    1.50
  -3   5  15   -1.50    0.90
   3   5 -15   -0.20    0.90
  -3  -5  15    1.40    1.50
  -3   5 -15   -0.30    1.00
  -3  -5  15   -1.40    1.20
   3  -5 -15   -1.40    0.90
   3  -5 -15    1.40    1.30
   3   5  15   -0.40    1.20
   5  -5  15    0.10    0.90
  -5  -5 -15    0.00    1.60
   5   5 -15    0.70    1.20
  -5  -5  15    3.00    2.10
   5  -5 -15    0.20    1.40
   5   5  15    0.90    1.10
  -5   5 -15    2.10    1.60
   7   5 -15    0.40    1.70
   7   5 -15    1.10    1.80
   7  -5  15    1.60    1.30
  -7   5 -15    1.10    1.30
   7  -5 -15    0.10    1.10
   0   6 -15  273.77   26.00
   0  -6  15  287.97   26.40
   0  -6 -15  300.97   27.80
   0   6 -15  266.67   26.70
   0  -6  15  275.07   27.20
   0  -6 -15  270.37   26.40
   2  -6  15  423.76   37.40
  -2   6  15  448.26   40.10
   2   6 -15  414.56   38.50
  -2  -6 -15  371.06   38.70
   2  -6  15  428.26   37.60
  -2  -6  15  384.56   38.30
   2  -6 -15  382.76   38.00
   2  -6 -15  418.26   38.40
  -2  -6  15  429.56   39.30
  -4  -6 -15  157.58   19.50
   4   6 -15  200.18   19.60
   4  -6  15  191.68   18.80
   4  -6 -15  192.88   19.50
  -4   6 -15  148.19   19.00
  -4  -6  15  193.58   20.30
   4  -6 -15  184.08   19.00
  -6  -6 -15  193.08   19.70
   6   6 -15  143.39   18.20
   6  -6 -15  165.88   18.40
  -6   6 -15  180.58   19.70
   1  -7  15   38.80    5.80
   1   7 -15   26.40    5.10
   1  -7  15   29.70    4.80
  -1   7  15   28.00    5.50
   1   7 -15   34.20    5.10
  -1  -7 -15   26.30    5.60
  -1  -7  15   41.40    5.80
   1  -7 -15   33.20    5.70
  -1  -7  15   38.10    6.00
   1   7  15   37.30    5.80
   1  -7 -15   35.70    5.70
  -1   7 -15   24.50    5.20
   3  -7  15   -0.20    0.90
   3   7 -15   -0.50    0.90
   3  -7  15    0.00    0.50
  -3   7  15   -0.10    0.90
   3  -7 -15   -1.70    0.90
  -3  -7  15    0.30    1.50
   3   7  15    1.40    1.30
   5   7 -15    5.60    2.70
  -5  -7 -15    7.40    2.70
  -5  -7  15   10.40    4.00
   5   7  15    9.90    3.30
  -5   7 -15    5.90    2.50
  -7  -7 -15    1.80    1.90
   7  -7  15    5.90    2.40
   7   7 -15    9.70    4.10
   7  -7 -15    7.30    2.80
   0  -8  15  546.65   45.10
   0   8 -15  471.45   44.40
   0   8 -15  401.76   44.10
   0  -8  15  500.95   43.70
   0   8 -15  449.76   43.20
   0  -8 -15  533.75   45.40
   0   8  15  504.85   44.90
  -2   8  15  374.66   36.60
   2   8 -15  319.37   34.70
  -2  -8 -15  396.36   36.20
   2  -8  15  336.07   34.10
   2  -8  15  389.86   34.60
  -2  -8  15  369.36   35.90
   2  -8 -15  330.77   34.50
  -2   8 -15  409.46   36.10
   2   8  15  435.26   35.40
  -2  -8  15  360.86   35.40
  -4  -8 -15  121.99   15.20
  -4   8  15  162.88   18.20
   4  -8  15  134.39   14.40
   4   8 -15   96.89   13.90
   4  -8 -15  138.29   14.40
   4  -8 -15   98.79   13.80
  -4   8 -15  144.29   15.90
  -4  -8  15  136.39   15.80
   4   8  15  147.19   14.50
  -6  -8 -15  108.09   12.90
   6   8 -15  105.19   12.50
  -6  -8  15   67.69   11.50
   6   8  15   77.29   10.50
   6  -8 -15   97.99   11.60
   1  -9  15    1.80    1.50
   1   9 -15    0.10    1.00
  -1  -9 -15    0.40    1.00
  -1   9  15    0.50    0.90
  -1  -9  15    0.10    0.80
  -1  -9  15    0.80    1.10
   1  -9 -15    3.20    2.10
  -1   9 -15    0.80    1.00
  -3  -9 -15    1.30    1.80
   3   9 -15    3.00    1.80
  -3   9  15    0.00    0.90
   3   9  15    0.60    0.90
  -3  -9  15    4.40    2.30
  -3   9 -15    1.10    1.40
   3  -9 -15    1.40    1.20
   5   9 -15    3.10    1.60
  -5  -9 -15    1.90    1.40
   5  -9  15   -0.30    0.90
   5   9  15    1.10    1.20
  -5   9 -15    1.30    1.10
  -5  -9  15   -1.00    1.20
   7   9 -15   -0.70    1.60
   7  -9  15   -1.10    1.20
  -7  -9  15    1.40    1.70
   7  -9 -15    0.40    1.60
   0  10  15  315.07   33.00
   0 -10 -15  323.17   33.30
   0 -10  15  376.16   32.40
   0 -10 -15  348.57   33.60
   0 -10  15  372.36   33.70
  -2 -10 -15  364.06   33.90
   2 -10  15  368.56   32.70
   2  10 -15  369.96   33.30
  -2  10  15  280.47   33.30
   2 -10 -15  330.87   32.50
  -2 -10  15  291.87   32.80
  -2  10 -15  407.66   33.90
   4 -10  15  119.89   13.90
   4  10 -15  143.99   15.30
  -4 -10 -15  120.19   15.20
  -4  10  15   92.19   15.50
  -4  10 -15  146.39   16.00
  -4 -10  15  142.59   16.10
   4 -10 -15  123.39   14.60
   4  10  15  148.19   14.80
   6  10 -15   77.99   10.40
   6  10  15   56.29    8.30
  -6 -10  15   68.39   10.30
  -1 -11 -15   -0.80    1.10
   1 -11  15    0.40    1.10
   1  11 -15    0.40    1.40
  -1  11  15    1.00    1.10
   1  11  15   -0.10    1.20
  -1  11 -15    0.30    1.00
  -1 -11  15   -0.80    0.80
  -3  11  15   13.00    5.20
   3  11 -15   11.30    3.70
  -3 -11 -15   10.30    3.70
   3 -11  15    5.90    2.50
  -3  11 -15    7.60    3.10
   3  11  15   12.30    3.90
   3 -11 -15   14.70    3.10
  -3 -11  15    4.40    3.10
   5  11 -15    1.30    1.20
  -5  11  15    4.30    2.20
  -5 -11  15   -0.80    1.20
   5  11  15    0.10    1.20
   0 -12  15  317.57   29.20
   0 -12  15  274.07   30.00
   0  12  15  335.07   30.90
   0 -12 -15  290.17   30.30
   0  12 -15  343.17   30.70
   2 -12  15  260.27   24.20
  -2  12  15  195.98   24.80
   2  12 -15  250.57   24.50
  -2 -12 -15  239.98   24.90
  -2  12 -15  273.47   25.10
   2  12  15  250.97   24.40
   2 -12 -15  211.18   23.50
  -2 -12  15  244.98   25.00
  -4  12  15  177.08   21.10
  -4 -12 -15  156.88   18.70
   4  12  15  165.38   17.80
  -4  12 -15  166.78   18.90
   4 -12 -15  182.18   18.50
  -4 -12  15  163.98   19.10
   6  12 -15   85.39   12.00
  -6 -12 -15   99.79   12.70
   6 -12 -15   87.79   11.40
  -6 -12  15   85.39   12.60
   6  12  15  101.59   11.70
   1 -13  15    9.00    3.10
  -1  13  15    2.80    2.10
  -1 -13 -15    6.60    2.50
   1  13 -15    7.40    2.50
   1  13  15    8.50    3.00
   1 -13 -15    6.10    2.80
  -1 -13  15   12.90    4.00
  -3  13  15    2.10    2.40
   3 -13  15    1.80    1.90
  -3 -13 -15   -1.10    0.70
   3  13 -15    1.20    1.30
  -3  13 -15    0.30    1.80
  -3 -13  15    0.40    1.40
   3  13  15   -0.30    0.90
   5  13 -15    1.40    1.20
  -5 -13 -15    1.40    1.30
   5  13  15    0.70    1.20
  -5 -13  15   -1.20    1.40
   0 -14  15  174.38   17.30
   0  14 -15  131.89   16.20
   0 -14 -15  155.28   16.90
   0  14  15  141.09   16.90
  -2 -14 -15  232.08   24.90
   2 -14  15  223.18   23.90
  -2  14  15  244.58   26.30
   2  14 -15  250.37   24.60
   2  14  15  290.87   25.30
   2 -14 -15  195.88   23.20
  -2 -14  15  254.97   25.20
  -4 -14 -15  121.69   14.20
  -4  14  15  118.79   15.80
   4  14 -15  102.59   13.00
   4 -14 -15   97.99   12.50
   4  14  15   98.79   12.40
   6  14 -15  108.79   13.10
  -6 -14  15   84.29   12.50
   6  14  15   92.39   11.70
   6 -14 -15   99.49   11.90
  -1 -15 -15    1.60    1.70
   1 -15  15    1.30    1.30
   1  15 -15   -0.20    1.40
  -1  15  15   -0.10    1.20
  -1  15 -15    3.10    1.70
   1  15  15    1.60    1.30
   1 -15 -15    1.70    1.40
  -1 -15  15   -0.30    1.70
   3  15 -15   12.90    3.90
  -3 -15 -15    7.70    3.70
   3 -15  15    8.80    3.70
  -3  15  15   21.70    6.90
   3 -15  15   13.20    3.90
  -3  15 -15   16.30    4.70
   3  15  15   16.70    4.70
  -3 -15  15   11.10    4.00
   5  15 -15    0.00    1.30
   5  15  15    2.90    1.90
  -5 -15  15    0.70    1.70
   0  16  15  142.59   16.00
   0 -16 -15  128.19   15.20
   0 -16  15  120.39   14.80
   2 -16  15   90.99   11.00
  -2 -16 -15   83.49   11.30
   2  16 -15   66.09   10.10
  -2  16  15   84.99   12.10
   2  16  15   85.79   10.90
  -2  16 -15   75.79   10.90
  -2 -16  15   93.19   11.50
  -4 -16 -15  208.58   22.70
   4  16 -15  211.78   22.30
  -4  16  15  191.58   24.10
  -4 -16  15  181.98   22.00
   4  16  15  238.38   22.40
   1  17 -15    2.30    1.60
  -1  17  15    1.50    1.50
   1 -17  15    4.30    2.00
  -1 -17 -15    2.20    2.20
  -1 -17  15   -0.60    1.50
   1  17  15    2.20    2.20
  -1  17 -15    3.90    2.00
   1 -17 -15    3.30    2.00
  -3 -17 -15   15.20    4.90
  -3  17  15   12.10    5.30
   3  17 -15   20.50    4.30
   3 -17  15   10.00    3.40
   3  17  15   11.40    4.10
  -3 -17  15   15.50    5.20
   5  17 -15    3.00    2.00
  -5  17  15    4.30    2.70
  -5 -17  15    2.00    2.40
   5  17  15    3.20    2.00
   0  18 -15  160.98   16.40
   0 -18 -15  125.99   15.50
   0 -18  15  143.39   15.90
   0  18  15  113.09   15.70
  -2  18  15   98.59   14.10
  -2 -18 -15  110.19   13.30
   2 -18  15  103.39   12.70
   2  18  15   95.79   12.60
  -2  18 -15   92.59   12.80
  -2 -18  15  110.09   13.30
  -4 -18 -15  137.69   16.50
  -4  18  15  120.79   17.80
   4  18 -15  128.39   15.70
   4 -18  15  123.69   15.30
  -4 -18  15  150.08   17.10
   4  18  15  155.28   16.50
  -1 -19 -15    1.00    2.00
  -1  19  15    0.30    1.20
   1 -19  15    1.10    1.90
   1  19 -15   -1.40    0.90
  -1  19 -15    0.50    1.10
   1  19  15   -1.10    1.30
  -1 -19  15    2.80    1.50
  -3 -19 -15   10.20    4.20
   3  19 -15    8.00    2.60
   3 -19  15    5.40    2.60
   3 -19  15   10.10    3.50
  -3 -19  15    9.50    3.80
   0  20 -15  151.48   17.20
   0 -20  15  165.78   17.60
   0  20  15  139.09   17.90
  -2 -20 -15  108.99   14.30
   2 -20  15  112.69   14.10
  -2  20  15  124.19   15.90
   2  20 -15  130.29   14.30
  -2 -20  15  101.29   13.60
  -4 -20 -15   90.89   12.60
  -4  20  15   81.79   13.70
   4  20 -15  107.69   14.60
   4  20  15   93.89   12.10
  -1 -21 -15    4.10    2.80
   1  21 -15    1.30    1.60
  -1  21  15    5.80    3.80
   1 -21  15    4.00    2.00
  -1 -21  15    2.40    1.90
   1  21  15    9.20    3.50
  -1  21 -15    3.00    1.90
  -3 -21 -15   -1.80    1.20
  -3  21  15    1.90    1.80
   3 -21  15    1.70    2.00
   3  21  15    2.70    1.50
  -3 -21  15    1.40    1.40
   0  22 -15   43.90    7.20
   0 -22  15   40.90    7.20
   2  22 -15   91.49   13.10
   2 -22  15  122.49   14.40
  -2 -22 -15   91.09   13.90
  -2  22 -15  152.28   16.90
  -2 -22  15  115.39   14.30
   2  22  15  114.19   14.60
  -1  23 -15   14.50    6.30
  -1 -23  15   15.20    4.90
   1  23  15   14.60    5.10
   0 -24  15   75.79   11.30
   0  24 -15   90.29   12.30
   0  24  15   90.29   13.20
   0   0  16  418.56   41.90
   0   0 -16  507.65   43.20
  -2   0  16  203.48   21.70
   2   0  16  193.98   20.00
   2   0 -16  203.08   21.00
   2   0 -16  209.88   21.40
  -2   0 -16  208.58   21.50
   4   0 -16  371.46   38.30
   4   0 -16  418.16   39.40
   4   0  16  402.06   37.70
  -4   0 -16  455.35   39.80
  -6   0  16   94.09   15.40
  -6   0 -16   90.99   12.90
   6   0  16  115.09   12.20
   6   0 -16   88.39   12.20
   1   1 -16   -2.20    1.00
   1   1 -16   -0.50    0.70
  -1   1  16   -1.10    0.60
  -1  -1 -16    0.10    1.10
   1  -1  16    0.20    0.80
   1  -1 -16    1.40    1.90
  -1   1 -16    3.50    2.30
  -1  -1  16    1.10    1.00
   1   1  16   -0.40    0.70
   1  -1 -16    0.00    0.70
  -3  -1 -16    3.10    1.80
   3   1 -16    1.80    1.40
   3  -1  16    0.00    0.60
  -3   1  16    0.10    1.30
   3  -1 -16    0.00    0.90
   3   1  16    0.70    0.90
  -3   1 -16    3.80    2.10
   5  -1  16    0.70    1.30
   5   1 -16    0.20    1.30
  -5  -1 -16    6.90    2.90
  -5   1 -16    5.90    2.60
   5  -1 -16    0.60    1.40
   5   1  16    0.10    1.20
   7   1 -16   -1.10    1.10
   7  -1  16    1.10    1.30
   7  -1 -16   -0.70    1.30
   0  -2  16  329.97   29.70
   0  -2 -16  249.18   29.50
   0   2  16  331.67   30.10
   0   2 -16  329.57   30.30
   2  -2  16  195.78   19.70
  -2   2  16  197.08   21.50
  -2  -2 -16  174.78   20.70
   2   2 -16  202.18   20.80
  -2   2 -16  227.08   21.60
   2   2  16  179.68   19.80
   2  -2 -16  222.28   21.00
   2  -2 -16  213.28   21.00
  -4  -2 -16  260.17   27.40
   4   2 -16  278.17   26.80
   4   2 -16  262.67   27.80
   4  -2  16  264.97   26.10
   4  -2 -16  266.97   27.10
  -4   2 -16  231.28   26.70
   4  -2 -16  288.67   27.10
  -4  -2  16  267.87   29.10
   4   2  16  293.37   26.20
  -6  -2 -16  125.19   16.00
   6  -2  16  141.69   14.70
   6   2 -16  138.09   15.70
   6   2 -16  147.79   16.40
  -6   2 -16  108.19   15.40
  -1   3  16    1.80    1.60
   1   3 -16    1.10    1.20
   1  -3  16    0.20    0.70
  -1  -3 -16    2.10    1.80
   1   3  16    0.90    1.00
  -1  -3  16    3.30    1.90
   1  -3 -16    4.30    2.00
  -1   3 -16    1.50    1.80
   3  -3  16    2.80    1.90
   3   3 -16    0.60    1.60
  -3  -3 -16    3.40    1.70
  -3   3  16    1.50    1.50
   3  -3 -16    3.80    2.00
   3   3  16    2.30    1.50
  -3   3 -16    0.20    1.20
   5  -3  16   -0.10    0.80
  -5   3  16    4.60    2.20
  -5  -3 -16    0.40    1.10
   5  -3 -16   -0.90    1.50
  -5  -3  16   -2.20    1.70
  -5   3 -16    3.00    1.80
   5   3  16    1.40    1.40
   7   3 -16    0.80    1.10
   7  -3  16    0.10    0.90
  -7   3  16    3.30    3.80
   7   3  16    1.30    1.30
   7  -3 -16   -0.30    1.00
   0   4 -16  275.07   30.10
   0  -4 -16  323.27   31.00
   0  -4  16  300.07   30.40
   0  -4  16  344.57   30.40
   0   4  16  345.87   31.10
   2  -4  16  250.37   22.90
   2   4 -16  201.18   23.00
  -2   4  16  192.28   23.80
  -2  -4 -16  250.37   24.30
   2  -4 -16  219.58   23.50
  -2   4 -16  265.27   24.60
  -2  -4  16  193.68   23.40
   2  -4 -16  251.07   23.60
   2   4  16  273.67   23.60
  -4  -4 -16  221.98   24.80
  -4   4  16  242.88   27.00
   4   4 -16  226.48   24.30
   4  -4  16  260.37   23.90
   4  -4 -16  283.17   25.30
  -4   4 -16  217.08   24.50
   4  -4 -16  231.98   24.00
   6   4 -16  129.39   15.40
   6   4 -16  143.39   16.60
  -6  -4 -16  129.49   15.80
  -6   4 -16  117.19   15.40
  -1   5  16    1.40    1.30
  -1  -5 -16   -0.80    1.10
   1  -5  16    1.30    1.30
   1  -5  16   -0.60    0.60
   1   5 -16   -1.40    0.90
  -1   5 -16    0.00    0.70
  -1  -5  16    0.40    1.70
  -1  -5  16    0.80    0.90
   1   5  16    0.00    0.80
   1  -5 -16   -0.20    1.00
   3  -5  16   29.40    4.60
   3   5 -16   25.20    5.00
  -3  -5 -16   19.60    5.50
   3  -5 -16   23.60    4.80
   3   5  16   25.10    4.60
  -3   5 -16   12.70    4.20
  -3  -5  16   18.30    5.40
   5  -5  16   -0.60    0.60
  -5  -5 -16    1.90    2.00
   5   5 -16   -0.50    1.00
  -5   5 -16    3.20    1.50
   5   5  16    0.10    1.20
   7   5 -16   -1.40    2.00
  -7  -5 -16   -0.70    1.00
   7   5 -16    1.00    1.50
   7  -5  16    0.70    1.00
   7   5  16    1.10    1.00
   0  -6  16  302.77   29.30
   0  -6  16  293.67   28.50
   0  -6 -16  276.77   29.10
   0   6  16  323.37   29.50
   2  -6  16  389.66   37.60
   2   6 -16  475.65   39.30
  -2   6  16  427.16   40.30
   2  -6  16  379.86   37.60
  -2  -6 -16  343.47   38.80
  -2   6 -16  462.05   39.90
   2   6  16  462.75   38.80
  -2  -6  16  427.06   39.80
   2  -6 -16  372.06   38.50
  -4  -6 -16  130.69   15.30
   4   6 -16  106.19   13.80
   4  -6  16  134.59   13.60
   4   6  16  141.99   13.70
  -4   6 -16   96.49   13.90
  -4  -6  16  104.49   14.30
   4  -6 -16  125.89   14.10
   4  -6 -16  105.99   16.40
  -6  -6 -16  107.99   13.90
   6   6 -16  121.29   13.90
   6   6  16   78.59   13.90
  -6   6 -16  127.39   14.90
   1   7 -16   14.70    4.60
   1  -7  16    8.00    2.90
  -1  -7 -16    7.60    3.40
  -1   7  16   14.70    4.50
   1   7  16    7.10    2.90
   1  -7 -16    8.70    3.40
  -1  -7  16   16.30    4.60
  -1   7 -16    7.60    3.00
  -1  -7  16   11.40    3.30
  -3  -7 -16    1.20    1.20
  -3   7  16   -1.10    1.60
   3   7 -16    0.60    0.90
   3  -7 -16    1.00    1.10
   3   7  16   -1.20    1.00
  -3  -7  16   -0.60    1.00
  -3   7 -16   -0.70    0.80
   5   7 -16    2.50    1.40
  -5  -7 -16    3.10    2.00
   5  -7  16    3.10    2.10
   5   7  16    3.50    2.10
  -5   7 -16    5.40    2.90
  -5  -7  16   -0.70    1.30
   0  -8 -16  359.26   33.80
   0  -8  16  351.86   33.50
   0  -8 -16  325.47   32.10
   0   8  16  349.07   33.30
   2   8 -16  426.16   35.20
   2  -8  16  340.07   33.60
  -2  -8 -16  363.56   35.10
  -2   8  16  407.06   36.50
   2  -8  16  365.66   33.40
   2   8  16  304.67   33.50
   2  -8 -16  334.17   34.10
  -2  -8  16  379.16   36.70
  -2  -8  16  332.87   34.80
   4   8 -16   99.29   12.00
  -4  -8 -16   96.69   12.50
  -4   8  16  125.29   16.70
  -4  -8  16  108.49   13.20
   4   8  16   76.09   10.60
  -4   8 -16   87.19   11.90
   6   8 -16   74.09   10.30
  -6  -8 -16   68.59   10.60
  -6   8 -16   62.39   10.30
   1  -9  16    1.20    1.60
  -1  -9 -16    3.20    1.90
   1   9 -16    1.90    1.50
  -1   9  16    1.50    1.60
   1   9  16    0.40    1.20
  -1  -9  16    1.20    1.20
  -1  -9  16    3.00    2.30
  -1   9 -16    2.40    1.40
   1  -9 -16    0.60    1.40
   3   9 -16    1.60    2.10
  -3   9  16    2.00    1.90
  -3  -9 -16    2.30    1.80
  -3   9 -16    3.30    1.90
   3  -9 -16    4.00    1.90
  -3  -9  16    5.10    2.70
   3   9  16    7.80    2.90
   5  -9  16    1.40    1.30
  -5  -9 -16   -0.70    1.40
   5   9 -16    0.40    1.30
  -5   9 -16    0.70    1.10
   5   9  16    1.50    1.40
  -5  -9  16   -1.10    1.10
   0 -10  16  293.47   28.80
   0 -10 -16  304.37   27.60
   0 -10 -16  286.87   28.90
   0  10 -16  344.17   29.50
   0  10  16  233.48   28.00
  -2 -10 -16  304.37   28.70
   2  10 -16  314.37   28.10
  -2  10  16  264.27   28.50
   2 -10  16  303.37   27.50
  -2  10 -16  215.48   26.70
  -2 -10  16  259.27   27.90
   2 -10 -16  267.77   27.20
   2 -10 -16  289.17   27.30
  -4  10  16   85.49   13.60
   4  10 -16  104.79   12.30
  -4 -10 -16   86.29   12.10
   4  10  16   92.89   11.50
  -4  10 -16  121.89   13.50
  -4 -10  16  123.29   13.90
   4 -10 -16   70.29   11.70
   6  10 -16  100.09   12.20
  -6 -10 -16  101.69   12.90
  -6 -10  16   60.09   11.00
   6 -10 -16   87.79   11.70
  -6  10 -16   79.69   11.70
  -1  11  16   -1.70    0.90
   1 -11  16    0.30    1.10
  -1 -11 -16   -0.80    1.00
   1  11 -16   -0.70    0.40
  -1 -11  16   -0.10    0.90
   1  11  16    0.60    0.90
   1 -11 -16    0.00    1.30
  -1  11 -16   -1.10    1.20
   3  11 -16    6.70    2.60
  -3 -11 -16    5.20    2.30
  -3  11  16    9.60    4.00
   3 -11  16   11.00    3.20
  -3  11 -16   12.00    3.70
  -3 -11  16    4.80    2.50
   3  11  16    3.90    1.90
   5 -11  16   -0.30    1.00
  -5 -11 -16    2.40    1.50
   5  11 -16    0.40    1.40
  -5  11 -16   -0.60    1.30
   5  11  16   -0.80    0.70
  -5 -11  16    0.80    1.30
   0  12  16  247.88   22.50
   0 -12 -16  200.38   21.70
   0  12 -16  167.58   20.70
   0 -12  16  201.88   21.50
  -2 -12 -16  227.08   24.80
  -2  12  16  211.28   25.20
   2  12 -16  274.27   25.10
   2 -12  16  226.58   24.10
   2  12  16  273.47   24.90
   2 -12 -16  194.48   23.60
  -2  12 -16  257.57   25.00
  -2 -12  16  259.87   25.30
   4  12 -16  102.39   13.80
  -4 -12 -16  121.09   15.10
  -4  12  16  166.28   21.60
  -4 -12  16   97.39   14.40
  -4  12 -16  149.49   15.70
   6  12 -16   83.09   12.10
   6 -12 -16  114.29   13.30
  -1 -13 -16   -1.90    0.80
   1  13 -16    0.30    0.90
  -1  13  16   -0.90    1.20
   1 -13  16    0.40    1.30
   1 -13 -16    3.30    1.50
  -1 -13  16    0.30    1.50
  -1  13 -16    0.40    0.70
   1  13  16    1.40    1.00
   3  13 -16   19.30    5.10
  -3  13  16   13.10    5.30
   3 -13  16   17.50    3.60
  -3 -13 -16   10.70    3.60
  -3 -13  16    5.30    2.60
   3  13  16   23.50    4.60
  -3  13 -16   10.10    3.00
   5  13 -16    3.60    2.50
  -5 -13 -16    1.20    1.80
  -5 -13  16    1.10    1.30
   5  13  16    0.20    1.80
   0 -14 -16  173.38   18.70
   0  14 -16  156.78   17.90
   0 -14  16  168.38   18.50
  -2  14  16  103.89   13.10
  -2 -14 -16   88.79   11.90
   2  14 -16  111.19   12.10
   2 -14  16   79.59   11.20
  -2 -14  16   88.29   11.70
   2  14  16   85.79   11.20
  -2  14 -16   63.79   10.50
   4  14 -16  186.08   22.40
  -4 -14 -16  274.17   24.90
  -4  14 -16  213.18   23.60
  -4 -14  16  212.58   23.50
  -1  15  16    8.60    3.70
   1 -15  16    6.90    2.40
  -1 -15 -16    2.20    1.80
   1  15 -16   10.00    3.50
   1 -15  16    5.90    2.70
  -1  15 -16    4.20    2.40
  -1 -15  16    9.20    3.80
   1  15  16    4.20    1.50
   1 -15 -16    3.80    2.70
  -3 -15 -16    6.80    3.00
  -3  15  16    9.80    3.90
   3  15 -16   14.00    4.20
  -3 -15  16   10.60    3.70
  -3  15 -16   10.60    3.70
  -5 -15 -16    0.00    1.30
   5  15 -16    6.30    3.20
   5  15  16   -0.90    1.30
  -5 -15  16   -0.20    1.20
   0  16 -16  108.29   12.60
   0  16  16   76.89   12.10
   0 -16  16  106.69   12.70
   0 -16 -16  109.29   13.00
  -2 -16 -16  139.69   16.60
   2 -16  16  133.39   15.80
   2  16 -16  134.29   15.80
  -2  16  16  118.39   16.60
  -2 -16  16  171.78   17.50
  -2  16 -16  129.09   16.00
   2  16  16  150.98   16.30
  -4  16  16  134.89   16.80
  -4 -16 -16  124.39   14.60
   4  16 -16  119.79   13.90
   4  16  16   94.49   13.00
  -4 -16  16   86.49   13.20
  -1 -17 -16   -1.00    1.30
  -1  17  16    0.20    1.40
   1  17 -16    3.90    2.20
  -1  17 -16    0.30    1.00
  -1 -17  16   -2.00    0.90
   1  17  16    0.60    1.00
  -3  17  16    4.40    2.10
   3  17 -16    9.70    3.00
  -3 -17 -16    7.30    3.30
  -3  17 -16   21.30    4.60
  -3 -17  16    3.50    2.00
   3  17  16   14.40    4.10
   0 -18  16  168.58   18.80
   0 -18 -16  152.08   18.40
   0  18  16  176.08   19.60
  -2 -18 -16  129.89   14.80
   2 -18  16  116.29   14.10
  -2  18  16  103.99   15.60
   2  18 -16  100.29   13.30
   2  18  16  105.39   13.60
  -2 -18  16  138.89   15.10
  -2  18 -16   93.99   13.20
   4 -18  16   81.89   12.40
  -4  18  16   93.09   14.00
  -4 -18 -16   81.89   11.90
  -4 -18  16   61.49   10.80
   4  18  16  109.09   12.20
  -1 -19 -16    0.50    1.80
   1  19 -16    6.20    2.90
   1 -19  16    1.70    1.90
  -1  19  16    2.80    1.70
  -1  19 -16    1.40    1.40
  -1 -19  16    0.50    1.50
   1  19  16    8.70    3.50
  -3  19  16    1.20    2.20
   3  19 -16   -0.70    1.10
  -3 -19 -16    2.40    1.40
   3  19  16    1.40    1.50
  -3 -19  16   -1.40    1.00
  -3  19 -16    4.30    2.10
   0  20 -16   57.39    8.60
   0 -20  16   51.09    8.60
   0  20  16   62.69   10.40
  -2  20  16  111.79   15.30
   2 -20  16   91.69   13.40
  -2 -20 -16  122.79   14.90
  -2 -20  16   94.99   13.70
  -2  20 -16  119.49   14.40
   2  20  16  123.69   14.60
   1  21 -16   -0.60    1.90
   1 -21  16    3.90    2.90
  -1  21 -16    3.00    2.50
   0 -22  16   59.69    9.30
   0   0  17  256.57   25.70
   0   0 -17  259.47   26.50
  -2   0 -17  297.87   26.20
   2   0  17  198.58   23.50
   2   0 -17  240.58   24.70
   2   0 -17  278.87   25.90
  -4   0 -17  241.28   25.90
   4   0 -17  260.67   25.60
   4   0  17  247.48   24.40
   6   0  17   99.79   12.70
  -6   0 -17  120.09   14.90
  -6   0  17  122.39   19.20
   6   0 -17  112.49   14.20
  -1  -1 -17    0.40    1.50
   1   1 -17    1.30    1.10
  -1   1  17    3.20    1.90
  -1  -1  17    0.80    0.90
   1  -1 -17    0.00    1.50
  -1   1 -17    1.50    1.50
   1   1  17    2.00    1.50
  -3  -1 -17    2.20    1.90
   3   1 -17    0.30    1.40
   3   1  17    0.00    0.80
   3  -1 -17   -1.00    0.70
  -3   1 -17    0.00    1.00
   5  -1  17    1.20    0.80
  -5  -1 -17    1.10    1.50
   5  -1 -17   -0.80    1.60
   5   1  17    1.40    1.20
   0   2 -17  299.27   29.80
   0  -2 -17  320.97   30.50
   0   2  17  330.87   30.30
   0  -2  17  286.97   29.50
  -2  -2 -17  216.88   21.70
  -2   2  17  167.48   21.30
   2   2 -17  221.18   21.40
   2   2  17  182.88   20.10
   2  -2 -17  225.58   21.60
   2  -2 -17  182.88   25.70
   4   2 -17  209.98   26.30
  -4  -2 -17  257.87   25.20
   4   2 -17  223.18   24.00
   4  -2  17  241.58   23.20
   4  -2 -17  235.38   23.90
   6  -2  17   89.49   12.30
   6   2 -17  118.69   14.30
   6   2 -17  116.09   14.30
  -6  -2 -17  108.99   14.40
   6  -2 -17  143.99   15.00
  -6   2 -17  112.59   14.30
   1   3 -17    7.80    2.80
   1  -3  17    4.40    2.80
  -1   3  17    7.40    3.10
  -1  -3 -17    5.00    2.40
   1   3  17    2.80    2.00
  -1   3 -17    3.00    1.80
   1  -3 -17    2.60    1.80
   3   3 -17    0.10    1.20
  -3   3  17   -2.40    1.30
   3  -3  17    0.30    1.00
  -3  -3  17    0.80    1.40
  -3   3 -17    1.00    1.00
   3  -3 -17   -0.70    1.10
   3   3  17    1.50    1.20
   5   3 -17    1.70    1.70
  -5  -3 -17    1.60    1.50
  -5   3 -17    0.80    1.70
   5   3  17    1.60    1.40
   0  -4 -17  383.56   34.50
   0   4  17  322.67   33.30
  -2  -4 -17  208.08   22.00
   2   4 -17  218.08   21.70
   2  -4 -17  204.58   21.70
  -2   4 -17  166.98   21.20
   2   4  17  236.88   21.40
  -4  -4 -17  219.28   21.60
   4  -4  17  158.38   19.30
   4   4 -17  172.78   19.80
  -4   4  17  206.18   23.20
   4  -4 -17  199.88   20.60
  -4   4 -17  189.88   20.70
  -4  -4  17  190.58   22.30
   6  -4  17  116.19   11.80
  -6  -4 -17   68.69   15.50
   6   4 -17   90.89   12.70
   6   4 -17   82.59   11.70
  -6   4 -17   89.39   12.50
   6  -4 -17   83.99   13.10
  -1  -5 -17    1.30    1.40
   1   5 -17    0.30    1.10
  -1   5  17    1.80    1.50
   1  -5  17    1.80    1.10
  -1   5 -17    1.90    1.40
  -1  -5  17    2.10    1.80
   1  -5 -17    1.60    1.60
   1   5  17    0.30    1.00
  -3  -5 -17    2.40    1.60
   3   5 -17   -0.70    0.80
   3  -5  17    1.30    0.90
  -3  -5  17    2.80    1.90
   3   5  17    0.80    1.30
  -3   5 -17    0.00    0.90
   3  -5 -17   -0.10    1.30
  -3  -5  17    0.40    1.80
   5   5 -17    3.20    1.70
  -5   5 -17    2.40    1.90
   5   5  17    0.50    1.10
   0  -6  17  346.67   36.30
   0   6  17  383.96   36.70
   0  -6 -17  387.76   35.80
   0  -6 -17  386.56   37.10
   0   6 -17  422.86   37.10
   2   6 -17  241.68   24.40
  -2   6  17  240.38   25.70
  -2  -6 -17  238.28   25.00
  -2  -6  17  223.28   24.70
   2  -6 -17  220.58   24.20
   2   6  17  271.07   24.30
   4   6 -17  152.48   17.80
  -4  -6 -17  186.28   19.50
   4  -6  17  129.69   16.50
  -4   6 -17  173.78   18.80
  -4  -6  17  161.78   18.90
   4   6  17  180.58   17.50
   4  -6 -17  173.48   19.20
   6   6 -17   71.79   10.10
   6   6  17   65.19   10.40
   1  -7  17   11.20    3.60
  -1  -7 -17    3.00    2.10
   1   7 -17    3.70    1.90
  -1   7  17    6.50    2.90
   1   7  17    4.00    2.50
   1  -7 -17    3.80    2.20
  -1  -7  17    1.80    1.60
  -1  -7  17    3.20    2.50
  -1   7 -17    3.20    1.60
   3   7 -17   -1.00    1.00
   3  -7  17   -0.80    1.10
  -3  -7 -17    1.40    1.50
  -3   7  17    1.90    1.50
  -3   7 -17   -0.50    1.10
   3   7  17    1.20    1.20
   3  -7 -17    0.40    1.40
  -3  -7  17   -0.20    1.30
  -5  -7 -17    2.30    1.30
   5   7 -17    1.10    1.50
   5   7  17    1.20    1.00
  -5   7 -17    0.60    1.40
  -5  -7  17    2.00    1.50
   0  -8  17  190.48   20.90
   0  -8 -17  170.88   20.70
   0   8  17  221.48   21.30
   0   8 -17  211.08   21.40
   2   8 -17  265.17   29.90
  -2   8  17  331.87   32.40
   2  -8  17  311.47   30.20
  -2  -8 -17  325.77   31.60
  -2  -8  17  286.27   31.10
   2   8  17  325.27   30.50
   2  -8 -17  325.07   31.00
  -2   8 -17  343.07   31.60
   4   8 -17  100.89   11.50
  -4  -8 -17   88.89   11.70
  -4   8 -17   57.79   10.00
   4   8  17   71.99    9.90
  -4  -8  17   88.19   11.70
   4  -8 -17  105.99   14.90
   6   8 -17  110.49   13.20
  -6   8 -17   87.59   12.90
  -1  -9 -17    3.90    2.00
   1   9 -17    0.70    1.40
  -1   9  17    1.00    1.20
   1  -9  17    4.40    1.90
  -1   9 -17    3.40    1.70
   1  -9 -17    2.40    2.10
  -1  -9  17    0.40    1.60
   1   9  17    4.40    2.40
   1  -9 -17    2.40    1.90
  -3  -9 -17    5.20    2.40
   3   9 -17    6.90    2.80
  -3  -9  17    1.60    2.40
   3   9  17    9.30    3.10
   3  -9 -17    7.70    3.00
  -5  -9 -17    2.20    1.60
   5   9 -17   -0.20    1.10
  -5   9 -17    2.20    1.40
  -5  -9  17    3.90    2.00
   0 -10  17  183.28   22.00
   0  10 -17  225.98   22.60
   0  10  17  232.08   22.90
   2 -10  17  275.07   26.90
  -2 -10 -17  280.47   28.10
  -2  10  17  306.57   29.10
   2  10 -17  295.87   27.40
  -2  10 -17  273.27   27.60
   2 -10 -17  249.28   26.90
  -2 -10  17  239.38   27.40
   2  10  17  243.28   26.50
   4  10 -17  105.79   12.50
  -4 -10 -17   90.09   12.60
  -4  10  17   78.79   13.20
  -4  10 -17  106.59   13.20
   4  10  17   99.59   11.70
  -4 -10  17   90.19   12.60
   1 -11  17    4.00    1.90
  -1 -11 -17    3.80    2.30
  -1  11  17    1.40    1.30
   1 -11  17    0.00    1.10
   1  11 -17    4.10    2.30
   1 -11 -17    0.50    1.60
   1  11  17    1.40    1.40
  -1 -11  17    5.40    2.50
  -1  11 -17    2.50    1.60
  -3 -11 -17   18.60    5.60
   3  11 -17   21.40    4.60
   3  11  17   15.40    4.60
  -3 -11  17   23.80    6.60
  -5 -11 -17    2.30    1.70
   5  11 -17    0.20    1.40
  -5 -11  17    2.30    1.50
  -5  11 -17    5.10    2.30
   0  12  17  193.48   20.20
   0 -12  17  174.28   19.60
   0 -12 -17  168.18   19.60
   2 -12  17  104.39   12.70
  -2 -12 -17   99.19   13.10
   2  12 -17  104.49   12.50
   2  12  17   73.19   11.60
   2 -12 -17  119.59   13.50
  -2 -12  17  107.09   13.10
  -2  12 -17   97.19   12.50
  -4 -12 -17  152.88   20.90
   4  12 -17  224.48   21.70
  -4  12 -17  172.78   21.20
   4  12  17  222.58   21.20
  -4 -12  17  220.68   22.70
   1 -13  17    1.40    1.30
   1 -13  17   -0.40    1.30
  -1  13  17   -1.20    1.20
  -1 -13 -17    0.10    1.60
   1 -13 -17    2.30    1.70
  -1  13 -17    0.90    1.00
   1  13  17    1.50    1.30
  -1 -13  17    2.00    2.10
  -3 -13 -17    2.60    2.20
   3  13 -17   -0.80    0.70
  -3 -13  17    0.70    2.00
   3  13  17    0.00    1.30
  -3  13 -17    1.20    1.90
   5  13 -17   -0.10    1.60
  -5 -13 -17   -2.00    1.10
  -5 -13  17   -3.20    1.40
   0 -14  17  125.99   16.00
   0 -14 -17  144.89   16.70
   0  14  17  164.28   17.20
   0  14 -17  120.59   15.50
   2 -14  17  144.79   16.00
  -2 -14 -17  108.39   15.30
   2  14 -17  150.38   15.90
  -2  14 -17  150.38   16.00
   2  14  17  126.39   15.10
  -2 -14  17  111.19   15.20
  -4 -14 -17  173.78   20.40
  -4  14 -17  193.48   20.90
  -4 -14  17  176.98   20.60
   1  15 -17   -1.50    0.90
   1 -15  17   -2.90    1.30
  -1  15  17   -0.80    0.90
  -1 -15 -17   -0.20    1.50
   1 -15  17   -0.20    1.50
  -1 -15  17    0.60    1.30
   1  15  17    0.90    0.80
  -3  15  17   15.00    5.80
   3  15 -17   21.50    5.50
  -3 -15 -17   16.30    5.60
  -3 -15  17    5.50    2.40
   3  15  17   10.20    3.30
   0 -16 -17  164.58   19.80
   0  16  17  160.88   19.90
   0 -16  17  189.78   20.50
   0  16 -17  203.68   20.20
  -2 -16 -17  115.59   14.50
   2 -16  17  136.99   15.00
  -2  16  17   91.49   14.40
  -2  16 -17  123.49   14.40
   2  16  17   95.69   13.20
  -2 -16  17  120.19   14.60
   4  16 -17   89.59   11.90
  -4  16  17  110.59   15.10
  -4 -16 -17   89.29   12.60
  -4 -16  17   87.89   12.80
   1  17 -17    5.10    2.10
  -1  17  17    2.40    3.70
  -1 -17 -17   14.90    4.80
   1 -17  17    5.80    2.40
  -1  17 -17   10.20    3.90
   1  17  17   10.70    3.70
  -1 -17  17    5.30    2.90
  -3  17  17    0.40    1.60
  -3 -17 -17    1.30    1.50
   3  17 -17    0.90    1.50
  -3  17 -17   -0.10    1.20
  -3 -17  17    4.20    2.70
   0  18 -17   53.29    8.60
   0  18  17   59.29   10.80
   0 -18  17   62.49    9.20
  -2 -18 -17  124.39   15.10
   2  18 -17   94.29   17.90
   2 -18  17  133.89   16.80
  -2 -18  17  112.89   14.80
  -2  18 -17  120.89   14.50
  -1  19  17   -0.70    0.90
   1 -19  17    2.60    2.10
  -1 -19 -17    1.00    2.20
   1  19 -17    1.50    1.30
  -1  19 -17   -0.60    0.80
  -1 -19  17   -1.70    1.00
  -3  19  17    2.50    2.70
   3  19  17    4.00    2.50
   0 -20  17   61.59    9.70
  -2 -20 -17   93.69   13.90
  -2  20 -17  111.49   13.60
  -2 -20  17  109.79   14.00
   0   0 -18  306.17   30.40
   2   0 -18  203.28   24.90
  -2   0 -18  302.97   27.10
   2   0  18  267.57   25.30
  -4   0 -18  172.18   19.20
   4   0  18  172.38   17.70
   4   0 -18  154.58   18.50
   6   0  18   66.99    8.80
   1   1 -18    0.70    0.90
  -1  -1 -18   -0.30    1.30
   1   1 -18    2.10    1.50
  -1   1 -18    0.40    1.20
   1  -1 -18    1.60    1.20
   1   1  18    1.00    1.40
   3  -1  18    0.00    0.80
   3   1 -18    1.70    1.60
  -3  -1 -18    0.30    0.90
   3   1  18   -0.10    0.80
   3  -1 -18   -1.70    0.80
  -3  -1  18    0.30    2.30
  -3   1 -18   -0.10    1.20
  -5  -1 -18   -0.30    1.40
   5   1 -18   -1.80    1.40
  -5   1 -18    1.90    1.80
   5   1  18   -1.40    1.10
   5  -1 -18   -0.90    2.20
  -5  -1  18   -0.60    1.90
   0   2  18  234.48   26.80
   0  -2  18  238.78   26.70
   0  -2 -18  334.27   28.80
   0   2 -18  299.17   28.10
   0   2 -18  298.17   30.30
  -2   2  18  242.48   24.40
   2   2 -18  219.18   22.60
   2  -2  18  210.18   21.70
  -2  -2 -18  275.77   24.20
   2   2  18  194.48   21.50
  -2   2 -18  171.88   22.20
   2  -2 -18  238.58   23.30
  -4  -2 -18  203.78   20.50
   4  -2  18  149.29   20.80
   4   2 -18  157.88   18.60
   4  -2 -18  165.88   18.80
   4   2  18  206.88   18.50
  -4   2 -18  146.19   18.70
  -6  -2 -18   74.39   11.50
   6  -2  18   83.99   10.50
   6   2  18   89.29   10.60
  -1   3  18   -0.10    1.40
  -1  -3 -18   -0.30    1.50
   1   3 -18    3.20    2.00
   1  -3 -18    0.30    1.50
   1   3  18    6.50    2.70
  -1   3 -18   -1.20    0.90
   3  -3  18    0.50    1.10
  -3  -3 -18   -1.20    1.20
  -3   3  18    0.80    1.70
   3   3 -18    2.00    1.50
   3  -3 -18    2.20    1.60
   3   3  18   -0.50    1.00
  -3   3 -18    1.30    1.20
   5   3 -18   -0.20    1.80
   5   3  18    1.50    1.00
  -5   3 -18   -0.50    1.20
   0  -4 -18  286.37   28.60
   0   4 -18  249.08   27.60
   0   4  18  311.97   28.50
  -2  -4 -18  255.87   24.90
   2   4 -18  204.98   23.60
  -2   4  18  193.38   24.30
   2  -4  18  225.58   23.00
   2   4  18  266.07   23.90
   2  -4 -18  225.98   24.20
  -2   4 -18  272.47   25.10
   4   4 -18  175.38   19.80
  -4  -4 -18  155.58   19.90
   4  -4 -18  189.88   20.40
   4   4  18  197.88   19.20
  -4   4 -18  206.18   21.00
  -4  -4  18  175.98   23.10
   6  -4  18   92.09   10.60
   6   4 -18   87.89   11.70
   6   4 -18   72.79   20.40
   6   4  18   67.49    9.70
   1   5 -18    1.70    1.40
   1  -5  18    1.20    0.90
  -1  -5 -18    3.10    1.60
  -1   5  18    3.90    2.10
   1   5  18    2.40    1.80
  -1  -5  18    5.10    1.90
   1  -5 -18    2.10    2.30
  -1   5 -18    0.10    1.20
  -3  -5 -18    1.50    1.70
   3   5  18    0.00    0.70
   3  -5 -18    1.40    2.10
  -3   5 -18    1.40    1.50
  -3  -5  18    1.30    2.10
   5   5 -18   -1.00    1.30
  -5  -5 -18    2.40    1.50
   0   6 -18  227.88   27.10
   0  -6  18  289.17   28.40
   0  -6 -18  305.97   28.70
   0   6  18  303.57   28.20
  -2  -6 -18  152.68   18.30
  -2   6  18  191.08   20.00
   2  -6  18  171.18   17.10
   2   6 -18  148.09   17.70
  -2   6 -18  201.38   19.30
  -2  -6  18  135.29   18.50
   2  -6 -18  158.28   18.30
  -2  -6  18  153.08   18.40
  -4  -6 -18  116.99   16.20
   4   6 -18  144.39   16.30
   4  -6  18  129.99   15.10
  -4   6 -18  168.68   17.70
   4   6  18  151.18   15.80
  -1   7  18    2.10    1.40
   1  -7  18    0.60    1.50
   1   7 -18    4.50    2.00
  -1  -7 -18    4.10    2.60
   1   7  18    1.70    1.70
   1  -7 -18    2.00    1.80
  -1  -7  18    2.30    2.00
  -3  -7 -18   -0.40    1.00
   3   7 -18    2.10    1.80
   3  -7 -18    0.10    1.60
  -3   7 -18    0.90    0.90
  -3  -7  18    2.10    1.60
  -5  -7 -18    3.10    2.40
   5   7 -18    0.50    1.60
   5   7  18    1.60    1.50
  -5   7 -18    0.90    1.40
   0   8 -18  198.78   19.40
   0   8  18  154.18   18.30
   0  -8 -18  166.78   19.00
   0  -8  18  159.38   18.80
   2   8 -18  222.18   23.90
  -2   8  18  241.28   25.60
   2  -8  18  225.78   22.90
  -2  -8 -18  226.28   24.80
   2   8  18  252.57   24.20
  -2  -8  18  266.17   25.70
  -2   8 -18  211.98   24.20
   2  -8 -18  237.78   24.50
   4   8 -18  113.89   14.20
  -4  -8 -18  119.29   15.00
   4   8  18  136.89   14.40
  -4  -8  18  104.59   14.70
  -1  -9 -18   -0.20    1.10
   1  -9  18   -1.70    1.30
   1   9 -18   -1.30    0.70
  -1   9 -18    0.70    1.40
   1  -9 -18    1.70    1.80
  -1  -9  18   -0.10    1.20
  -1  -9  18    1.40    2.00
   1   9  18   -0.40    0.80
  -3  -9 -18   11.00    3.80
   3   9 -18   11.80    4.10
  -3   9  18    9.10    4.30
  -3  -9  18   13.60    4.50
  -3   9 -18    6.60    3.40
   5   9 -18    3.30    2.40
   5   9  18    1.60    1.50
  -5  -9  18    2.60    2.00
   0  10  18  101.49   13.00
   0 -10  18  108.29   13.70
   0 -10  18  123.29   13.00
   0 -10 -18  112.19   13.80
   0  10 -18   86.89   12.50
   2 -10  18  137.49   15.10
  -2 -10 -18  155.78   17.30
  -2  10 -18  125.39   16.00
  -2 -10  18  146.19   17.00
   2 -10 -18  143.19   16.60
   2  10  18  132.39   15.70
   4  10 -18  193.28   19.10
  -4 -10 -18  148.09   18.50
  -4  10 -18  173.48   19.20
  -4 -10  18  183.18   19.70
   4  10  18  133.69   17.00
   1  11 -18   -0.10    1.20
   1 -11  18   -1.40    1.80
  -1  11  18   -0.50    1.10
  -1 -11 -18    0.60    1.80
  -1 -11  18    2.50    1.90
  -1  11 -18    1.10    1.10
   1 -11 -18    3.90    2.70
   1  11  18    0.50    1.20
  -3  11  18   -0.10    1.40
   3  11 -18    0.20    1.20
  -3 -11 -18   -0.50    1.20
   3  11  18   -0.60    0.90
  -3 -11  18    1.40    1.70
  -3  11 -18    1.40    1.50
  -5 -11 -18    0.70    1.60
   5  11 -18    0.20    1.40
  -5 -11  18    1.40    2.00
   5  11  18    0.50    1.30
   0 -12  18  136.69   15.00
   0 -12  18  123.99   15.60
   0  12  18  124.19   15.40
   0  12 -18  158.28   16.20
   0 -12 -18  129.29   15.70
   0 -12 -18  109.79   15.30
  -2 -12 -18  143.19   15.60
  -2  12 -18   98.29   13.70
  -2 -12  18  109.39   14.60
   2  12  18  118.09   14.00
   4  12 -18  137.19   17.00
  -4 -12 -18  136.89   17.50
  -4  12 -18  161.38   18.20
  -4 -12  18  172.28   18.80
   1 -13  18    0.20    1.60
  -1 -13 -18    2.10    1.70
  -1  13  18   -0.70    1.00
   1  13 -18   -0.30    1.30
  -1 -13  18   -2.10    1.10
   1  13  18    1.20    1.20
  -1  13 -18   -1.00    0.60
   3  13 -18   16.80    5.10
  -3 -13 -18    9.60    3.90
  -3  13 -18    8.50    3.50
   3  13  18    7.50    3.60
  -3 -13  18    6.90    2.90
   0 -14 -18  138.59   17.20
   0 -14  18  152.48   17.50
   0  14 -18  147.89   16.80
   0  14  18  140.49   17.30
  -2  14  18  175.78   20.20
   2 -14  18  167.18   17.60
  -2 -14 -18  166.98   19.30
   2  14 -18  124.79   17.10
  -2  14 -18  212.88   19.70
  -2 -14  18  147.39   18.60
   4  14 -18   78.39   10.30
  -4 -14 -18   60.59   10.10
   4  14  18   63.69    9.60
  -4 -14  18   79.59   11.20
   1 -15  18   -1.20    1.70
  -1  15  18    0.40    1.30
  -1 -15 -18    2.60    2.30
   1  15 -18    3.30    1.80
  -1  15 -18    0.60    1.50
   1  15  18    1.90    1.60
  -1 -15  18    3.30    2.20
  -3  15  18    1.00    1.80
   3  15 -18    1.60    1.20
  -3 -15 -18    3.00    2.10
  -3  15 -18   -2.00    1.20
   0 -16  18   87.89   12.90
   0 -16 -18   91.59   13.50
   0  16 -18  112.29   13.20
  -2  16  18  121.89   15.70
  -2 -16 -18   99.69   13.80
   2  16 -18  103.49   13.40
  -2  16 -18  116.49   14.00
  -2 -16  18  114.29   14.40
  -1 -17 -18   -2.50    1.70
   1 -17  18    2.50    2.30
  -1  17  18   -4.00    2.30
  -1  17 -18    1.80    1.60
  -1 -17  18    2.40    2.30
  -3  17  18    3.80    2.50
   3  17  18    3.10    2.00
   0  18 -18   51.09    8.20
   0  18  18   52.09    9.10
  -2 -18 -18  117.69   15.20
  -2  18  18  114.69   15.80
   2  18  18  112.89   14.20
  -2 -18  18  117.79   14.90
   1 -19  18   10.30    3.80
   1  19 -18    6.50    2.50
  -1 -19  18   15.60    5.00
   1  19  18   25.40    6.70
   0   0 -19  209.98   22.40
  -2   0 -19  221.48   23.20
   2   0  19  195.48   21.40
  -2   0  19  225.68   25.80
   2   0 -19  229.78   23.30
  -4   0 -19  134.49   15.80
   4   0 -19  124.69   15.20
  -1  -1 -19    1.40    1.50
  -1   1  19    0.00    1.90
   1   1 -19    1.00    1.20
   1   1  19    1.90    1.40
   1  -1 -19    0.40    1.20
  -1  -1  19    2.20    1.40
  -1   1 -19    0.10    1.30
   3   1 -19   -1.80    1.60
  -3  -1 -19   -0.80    0.60
   3  -1  19    0.30    0.80
   3  -1 -19   -0.50    1.10
   3   1  19    0.60    0.80
   5   1 -19   -1.30    1.90
   5   1  19    0.10    1.00
   0   2 -19  299.77   27.40
   0  -2  19  233.88   25.70
   0  -2 -19  250.57   26.60
   2   2 -19  169.08   20.00
  -2  -2 -19  235.58   21.80
  -2   2 -19  161.28   20.10
   2  -2 -19  208.28   21.20
  -4  -2 -19  104.79   14.30
   4   2 -19  119.49   14.70
  -4   2 -19  147.29   15.50
   4  -2 -19  126.89   15.30
  -4  -2  19  103.89   16.20
  -1  -3 -19    2.30    1.70
   1   3 -19    0.30    0.90
   1  -3 -19    0.40    1.30
  -1   3 -19    0.40    1.40
   1   3  19    1.20    1.00
  -3  -3 -19    6.30    3.20
   3  -3  19    7.20    2.50
   3   3 -19    2.60    2.50
   3   3  19    3.00    1.80
   3  -3 -19    5.40    3.00
  -3   3 -19    7.70    2.70
   5   3 -19   -0.30    1.70
  -5  -3 -19    0.80    1.40
   5   3  19   -1.20    0.90
  -5   3 -19   -1.40    1.30
   0   4 -19  229.28   24.30
   0  -4 -19  231.48   24.60
   0   4  19  240.28   24.30
  -2  -4 -19  146.69   19.30
   2   4 -19  155.68   19.10
   2  -4 -19  191.38   20.30
  -2   4 -19  197.78   20.30
   2   4  19  206.88   19.50
   4   4 -19  135.49   15.40
  -4  -4 -19  125.79   15.60
  -4   4 -19  160.38   16.40
   4   4  19   97.19   13.40
   1   5 -19   -0.50    1.30
   1  -5  19   -1.00    0.80
  -1  -5 -19    1.10    1.20
   1  -5 -19   -1.50    1.10
  -1   5 -19    2.70    1.80
  -3  -5 -19    2.70    2.90
   3   5 -19    2.70    1.70
   3   5  19    1.70    1.40
  -3   5 -19   -0.80    1.00
   3  -5 -19    2.00    1.70
   5   5 -19    0.60    1.60
  -5   5 -19    2.00    1.20
   5   5  19    1.70    1.10
   0   6 -19  124.89   14.70
   0  -6 -19  126.69   15.20
   2   6 -19  269.57   23.90
  -2  -6 -19  210.78   23.30
   2   6  19  224.28   22.50
   2  -6 -19  223.48   23.60
  -2   6 -19  164.88   22.10
  -4  -6 -19   99.89   13.80
   4   6 -19  101.39   13.30
  -4   6 -19  110.29   13.80
   4   6  19  116.99   13.10
   1   7 -19   22.40    4.50
   1  -7  19   17.50    4.90
  -1  -7 -19   17.20    5.40
   1   7  19   17.20    5.10
   1  -7 -19   14.00    4.50
  -1   7 -19   16.80    5.40
  -3  -7 -19   26.80    5.80
   3   7 -19   26.70    5.40
   3   7  19   20.20    4.60
  -3   7 -19   33.00    6.20
  -3  -7  19   28.30    6.00
   5   7 -19    3.80    2.40
   5   7  19    5.00    2.00
  -5   7 -19    1.20    2.10
   0   8  19  316.47   28.80
   0   8 -19  277.37   27.90
   0  -8 -19  231.08   27.80
   0  -8  19  285.37   28.60
   2   8 -19   65.89    9.40
  -2   8  19   62.69   10.20
  -2  -8 -19   65.79    9.90
  -2  -8  19   73.89   10.50
   2   8  19   67.29    9.60
   2  -8 -19   51.99    9.10
  -2   8 -19   84.29   10.70
   4   8 -19  217.58   20.30
  -4  -8 -19  193.68   20.40
  -4  -8  19  138.39   19.20
  -4   8 -19  151.08   19.30
  -1   9  19    7.10    2.60
  -1  -9 -19   13.20    4.80
   1   9 -19    6.00    2.90
  -1   9 -19    6.30    2.80
   1  -9 -19    3.20    2.10
  -1  -9  19    4.70    3.20
   1   9  19    2.00    2.30
  -1  -9  19    9.20    3.00
  -3  -9 -19    3.70    2.60
   3   9 -19    3.10    2.00
  -3  -9  19    0.60    1.30
  -3   9 -19    3.10    2.50
   0 -10  19  108.49   12.80
   0  10  19   68.19   10.80
   0 -10 -19   89.49   12.30
   0  10 -19   98.99   12.10
  -2  10  19  155.18   18.10
  -2 -10 -19  116.19   15.50
   2  10 -19  139.19   15.30
   2  10  19   99.39   14.00
  -2 -10  19  116.49   15.60
  -2  10 -19  147.39   16.10
  -4 -10 -19  111.59   14.80
   4  10 -19  124.69   14.80
  -4 -10  19  115.59   15.20
  -1 -11 -19    2.10    1.90
   1 -11  19    2.40    1.40
   1  11  19    1.70    1.40
   1 -11 -19    1.90    1.90
  -1 -11  19    0.10    1.70
  -1  11 -19    5.00    2.60
   3  11 -19   22.40    5.90
  -3  11 -19   20.10    5.50
   3  11  19   19.10    6.30
   0  12 -19   75.39   11.20
   0 -12 -19   82.99   12.00
   0  12  19   96.79   12.40
   0 -12  19   91.79   12.30
   2  12 -19  202.18   21.20
  -2 -12 -19  196.98   22.30
  -2 -12  19  195.18   22.20
   4  12 -19   54.69    9.00
  -4 -12 -19   66.99   10.50
  -4 -12  19   79.79   11.30
   4  12  19   66.39   10.10
  -1 -13 -19    1.00    1.70
   1  13 -19   -0.30    0.90
  -1  13  19   -0.10    0.70
  -1 -13  19   -2.60    1.20
  -1  13 -19    0.60    0.90
   3  13 -19    2.90    1.60
  -3 -13 -19    3.20    2.20
  -3 -13  19    1.60    1.90
   0  14  19   66.39   10.90
   0  14 -19   83.59   11.30
   0 -14  19   95.19   12.40
   0 -14 -19   81.09   12.00
  -2  14  19  116.69   15.40
  -2 -14 -19  109.99   14.90
   2  14 -19  146.39   16.80
  -2  14 -19   89.39   13.50
   2  14  19  121.29   14.30
  -2 -14  19  106.79   14.50
  -1  15  19    2.60    1.60
  -1 -15 -19    2.90    2.20
   1  15 -19    0.00    1.30
  -1 -15  19    1.40    1.80
   1  15  19    4.60    2.70
   0  16  19   28.00    6.10
   0 -16  19   12.20    3.80
  -2 -16 -19  149.59   19.00
  -2  16  19  172.98   20.50
   2  16  19  196.58   19.60
  -2 -16  19  141.69   19.00
  -1  17  19   36.00    8.10
   1  17  19   50.49    9.00
  -1  17 -19   61.09    9.00
  -1 -17  19   44.80    8.50
   0   0 -20  271.27   27.90
  -2   0 -20  154.98   17.60
   2   0 -20  159.78   17.60
   2   0  20  133.79   15.90
  -4   0 -20  157.28   17.30
   4   0 -20  126.09   16.30
   1   1 -20    1.80    1.60
  -1   1 -20    0.00    1.50
   1  -1 -20    1.70    1.50
  -3  -1 -20    1.00    1.50
   3   1 -20    1.70    1.60
   3  -1 -20   -2.40    1.40
  -3   1 -20    0.40    0.90
   0  -2 -20  190.08   22.10
   0   2 -20  226.58   22.70
   2   2 -20  147.99   18.20
  -2  -2 -20  196.48   19.70
   2   2  20  144.59   17.60
   2  -2 -20  198.38   19.90
   4   2 -20  110.29   14.50
  -4   2  20  138.69   22.10
   1   3 -20   -1.60    0.90
  -1  -3 -20    0.30    1.70
   1   3  20    1.00    1.40
   1  -3 -20    0.90    1.80
  -1   3 -20   -0.10    1.20
   3   3 -20   -0.20    1.60
   3  -3 -20    6.60    3.00
  -3   3 -20   -0.90    1.10
  -3  -3  20   -2.80    1.90
   0  -4 -20  116.09   14.90
   0   4  20  149.59   15.40
   0   4 -20  108.19   14.60
  -2  -4 -20  198.08   22.70
   2   4 -20  203.68   22.10
  -2  -4  20  215.78   23.80
   2  -4 -20  223.18   23.40
   4   4 -20   71.39   10.50
  -1   5  20   12.40    4.20
   1   5 -20    9.50    3.70
  -1  -5 -20   11.10    4.00
   1   5  20    9.40    3.20
   1  -5 -20   16.70    5.10
  -1   5 -20   10.70    3.30
  -3  -5 -20   39.90    7.00
   3   5 -20   32.20    6.20
   3   5  20   21.90    5.00
   3  -5 -20   34.80    7.20
  -3   5 -20   29.60    6.00
   0  -6 -20  219.88   22.10
   0   6 -20  177.88   20.90
   0   6  20  189.28   21.00
  -2  -6 -20   51.99    8.60
  -2   6  20   32.80   15.00
   2  -6 -20   49.80    8.50
  -4  -6 -20  169.78   20.00
   4   6 -20  179.78   19.50
   4   6  20  146.29   17.80
  -4   6 -20  201.38   20.40
  -1  -7 -20    1.10    2.10
   1   7 -20    1.90    1.60
  -1   7 -20    1.40    1.50
   1  -7 -20    0.40    1.50
  -3  -7 -20   -1.60    1.20
   3   7 -20    0.20    1.10
   3   7  20    0.20    0.80
   0   8 -20   67.29    9.90
   0  -8 -20   66.59   10.30
   0  -8  20  101.99   15.10
   2   8 -20  113.69   15.00
  -2  -8 -20  126.09   16.10
   2   8  20  125.79   15.00
  -2   8 -20  150.98   16.50
  -2  -8  20  122.39   16.20
   2  -8 -20  146.69   17.00
   4   8 -20  115.59   15.30
  -4  -8 -20  131.29   16.20
   4   8  20  148.59   15.30
  -4   8 -20  112.59   15.50
  -1  -9 -20    4.10    2.50
  -1  -9  20    5.80    2.70
   1  -9 -20    3.10    2.40
   3   9 -20   -0.80    1.00
  -3  -9 -20    1.70    1.80
   3   9  20    1.60    1.50
  -3  -9  20    1.40    2.60
  -3   9 -20    2.70    2.40
   0  10 -20  221.48   21.70
   0 -10 -20  196.38   22.20
   0 -10  20  151.78   24.60
   2  10 -20  123.99   14.20
  -2 -10 -20  111.89   14.80
   2 -10  20  105.39   13.10
   2  10  20  138.59   14.70
  -2 -10  20   91.49   14.00
   1  11 -20    1.40    2.00
  -1 -11 -20    5.10    2.90
  -1  11 -20    7.90    3.40
   1 -11 -20    9.90    4.90
  -1 -11  20   -1.30    2.70
   1  11  20    4.00    2.60
   3  11 -20    1.20    1.40
  -3 -11 -20   -0.90    1.30
  -3 -11  20    0.20    2.30
  -3  11 -20   -1.10    1.10
   3  11  20    1.40    1.60
   0  12  20   81.19   11.30
   0 -12 -20   82.19   11.90
   0  12 -20   70.09   10.30
   2  12 -20  119.79   13.90
  -2 -12 -20   93.79   13.60
  -2  12 -20   92.49   13.20
   2  12  20  122.69   13.90
  -2 -12  20  105.49   14.70
  -1 -13 -20   11.20    3.90
  -1  13  20    3.40    2.60
  -1 -13  20    2.20    2.50
   1  13  20    4.20    2.00
   0  14  20    5.50    2.90
   0   0 -21  160.68   18.60
   2   0 -21  149.99   18.10
  -2   0 -21  160.98   18.10
  -1  -1 -21    0.40    1.20
   1   1 -21   -1.30    1.00
   1  -1 -21    1.80    1.70
  -1   1 -21    1.10    1.30
  -3  -1 -21   -0.70    1.60
   3   1 -21    0.70    2.20
   3  -1 -21   -2.80    1.30
   0  -2 -21  177.58   18.40
   0   2 -21  122.79   16.50
   2   2 -21  158.18   18.40
  -2  -2 -21  199.88   19.40
  -2   2 -21  123.19   17.40
   2  -2 -21  158.38   18.40
  -1  -3 -21    7.00    3.00
  -1   3 -21    6.60    3.00
   1  -3 -21    1.40    2.00
   3   3 -21    3.90    2.60
  -3  -3 -21    7.60    3.10
   3  -3 -21    7.90    3.20
   0   4 -21  142.59   18.30
   0  -4 -21  192.68   19.80
  -2  -4 -21  101.99   13.50
   2  -4 -21  100.29   13.50
  -2   4 -21  103.29   13.30
   1   5 -21    2.40    1.80
  -1  -5 -21    1.50    2.00
  -1   5 -21    3.50    2.90
   1  -5 -21   -1.60    1.50
   3   5 -21   -1.20    1.30
  -3  -5 -21   -1.50    1.50
  -3   5 -21    4.80    3.00
   0   6 -21   79.19   11.50
   0  -6 -21   93.59   12.30
   2   6 -21  154.08   16.90
  -2  -6 -21  145.49   17.40
  -2   6 -21  131.29   17.50
   2  -6 -21  135.29   17.20
   1   7 -21    2.50    2.10
  -1  -7 -21    3.70    2.50
   1  -7  21    0.20    1.10
  -1   7 -21    0.00    1.60
   1  -7 -21    6.30    3.60
  -3  -7 -21   -1.40    1.50
   3   7 -21    1.00    1.80
   3   7  21   -0.40    1.40
   0  -8 -21  129.89   17.70
   0   8 -21  186.18   18.80
   2   8 -21   85.59   12.50
  -2  -8 -21  104.79   13.80
   2   8  21  102.19   12.70
   1   9 -21    0.30    1.10
  -1  -9 -21    0.60    1.50
  -1  -9  21    1.40    4.00
   1   9  21    0.50    1.60
   1  -9 -21    1.10    2.40
   0 -10 -21   82.79   12.40
  -1 -11 -21   -2.70    1.70
  -1  11  21    1.50    1.90
  -1 -11  21   -0.20    2.60
   1  11  21   -0.40    0.80
   0   0 -22  121.09   15.10
   2   0 -22  156.88   19.10
  -2   0 -22  171.18   19.10
  -1  -1 -22    2.00    2.00
   1   1 -22    1.30    1.90
   1  -1 -22    6.10    2.70
  -1   1 -22    1.60    1.40
   0   2 -22  154.48   18.90
   0  -2 -22  177.98   19.80
  -2  -2 -22   86.59   12.40
   2   2 -22   84.59   11.90
   2  -2 -22   89.29   12.70
  -2   2 -22  112.69   13.20
  -2  -2  22   79.79   13.20
   1   3 -22   -1.20    1.40
  -1  -3 -22   -1.70    1.30
   1  -3 -22   -0.10    1.70
  -1  -3  22   -0.70    1.90
  -1   3 -22    0.70    1.90
   0  -4 -22  116.29   15.20
   0   4 -22  125.19   15.20
  -1  -5 -22   -0.20    1.70
   1   5 -22    1.40    1.70
   1  -5 -22   -3.40    2.40
   0  -6  22   85.99   17.30
   0   6 -22   98.99   13.40
   0  -6 -22  131.19   15.50
   0   0   0    0.00    0.00

_computing_structure_solution     'SHELXT 2014/5 (Sheldrick, 2014)'
;
_shelx_hkl_checksum              41972
_shelx_fab_file
;
    2    0    0     93.71      0.00
    4    0    0     46.35      0.00
    6    0    0      9.59      0.00
    8    0    0      4.06      0.00
   10    0    0      1.92      0.00
    1    1    0   -107.65      0.00
    3    1    0    -38.97      0.00
    5    1    0    -14.59      0.00
    7    1    0     -3.94      0.00
    9    1    0     -2.90      0.00
    2    2    0    -16.25      0.00
    4    2    0      4.52      0.00
    6    2    0      1.19      0.00
    8    2    0      3.37      0.00
   10    2    0      0.52      0.00
    1    3    0    -13.12      0.00
    3    3    0      0.55      0.00
    5    3    0     -2.23      0.00
    7    3    0     -2.86      0.00
    9    3    0     -1.26      0.00
    0    4    0     84.21      0.00
    2    4    0     17.70      0.00
    4    4    0      9.58      0.00
    6    4    0      3.32      0.00
    8    4    0      1.76      0.00
   10    4    0     -0.38      0.00
    1    5    0    -33.84      0.00
    3    5    0    -14.28      0.00
    5    5    0     -5.00      0.00
    7    5    0     -2.71      0.00
    9    5    0     -0.89      0.00
    0    6    0     23.36      0.00
    2    6    0     12.69      0.00
    4    6    0      5.86      0.00
    6    6    0      3.63      0.00
    8    6    0      0.84      0.00
   10    6    0     -0.03      0.00
    1    7    0    -14.66      0.00
    3    7    0     -7.28      0.00
    5    7    0     -7.49      0.00
    7    7    0     -2.54      0.00
    9    7    0     -0.01      0.00
    0    8    0     11.54      0.00
    2    8    0      7.11      0.00
    4    8    0      6.04      0.00
    6    8    0      3.91      0.00
    8    8    0      0.08      0.00
   10    8    0     -0.82      0.00
    1    9    0    -12.36      0.00
    3    9    0     -5.35      0.00
    5    9    0     -5.30      0.00
    7    9    0     -2.55      0.00
    9    9    0     -2.24      0.00
    0   10    0     14.74      0.00
    2   10    0     10.83      0.00
    4   10    0      5.50      0.00
    6   10    0      2.97      0.00
    8   10    0      1.41      0.00
    1   11    0    -11.96      0.00
    3   11    0     -3.02      0.00
    5   11    0     -5.20      0.00
    7   11    0     -1.41      0.00
    9   11    0     -0.59      0.00
    0   12    0     16.84      0.00
    2   12    0      8.27      0.00
    4   12    0      5.92      0.00
    6   12    0      2.67      0.00
    8   12    0      0.60      0.00
    1   13    0    -22.44      0.00
    3   13    0     -9.73      0.00
    5   13    0     -4.63      0.00
    7   13    0     -2.35      0.00
    9   13    0     -1.87      0.00
    0   14    0     15.23      0.00
    2   14    0     11.20      0.00
    4   14    0      4.39      0.00
    6   14    0      1.76      0.00
    8   14    0     -0.07      0.00
    1   15    0     -0.42      0.00
    3   15    0      1.65      0.00
    5   15    0     -1.02      0.00
    7   15    0      1.38      0.00
    9   15    0      0.35      0.00
    0   16    0      3.19      0.00
    2   16    0     -2.14      0.00
    4   16    0     -0.70      0.00
    6   16    0      0.40      0.00
    8   16    0     -0.33      0.00
    1   17    0     -2.54      0.00
    3   17    0      2.46      0.00
    5   17    0     -0.53      0.00
    7   17    0     -0.55      0.00
    0   18    0     -3.93      0.00
    2   18    0     -2.85      0.00
    4   18    0     -0.90      0.00
    6   18    0      0.82      0.00
    8   18    0      0.35      0.00
    1   19    0      3.68      0.00
    3   19    0      4.14      0.00
    5   19    0     -0.56      0.00
    7   19    0      0.61      0.00
    0   20    0      6.06      0.00
    2   20    0      3.42      0.00
    4   20    0      1.05      0.00
    6   20    0      0.20      0.00
    8   20    0     -0.11      0.00
    1   21    0     -9.68      0.00
    3   21    0     -3.53      0.00
    5   21    0     -1.59      0.00
    7   21    0      0.75      0.00
    0   22    0      5.67      0.00
    2   22    0      5.00      0.00
    4   22    0      2.85      0.00
    6   22    0      1.73      0.00
    1   23    0     -2.41      0.00
    3   23    0      0.21      0.00
    5   23    0     -2.46      0.00
    7   23    0     -1.10      0.00
    0   24    0      0.97      0.00
    2   24    0      1.54      0.00
    4   24    0     -0.02      0.00
    6   24    0      1.56      0.00
    1   25    0      0.48      0.00
    3   25    0     -0.66      0.00
    5   25    0     -0.84      0.00
    0   26    0     -1.89      0.00
    2   26    0     -0.45      0.00
    4   26    0      0.67      0.00
    6   26    0     -0.44      0.00
    1   27    0      2.05      0.00
    3   27    0      0.87      0.00
    5   27    0     -0.27      0.00
    0   28    0     -1.51      0.00
    2   28    0     -1.13      0.00
    4   28    0     -0.79      0.00
    1   29    0      0.75      0.00
    3   29    0     -1.51      0.00
    0   30    0      2.00      0.00
    2   30    0      1.20      0.00
    1   31    0     -1.10      0.00
    0   32    0      0.51      0.00
    2    0    1    -77.53      0.00
    4    0    1    -24.75      0.00
    6    0    1     -7.62      0.00
    8    0    1      0.43      0.00
   10    0    1     -0.58      0.00
    1    1    1     19.62      0.00
    3    1    1     19.13      0.00
    5    1    1      9.27      0.00
    7    1    1      0.62      0.00
    9    1    1      0.12      0.00
    2    2    1      7.80      0.00
    4    2    1      4.06      0.00
    6    2    1     -0.90      0.00
    8    2    1     -0.14      0.00
   10    2    1     -0.25      0.00
    1    3    1     -8.01      0.00
    3    3    1     -1.09      0.00
    5    3    1      4.05      0.00
    7    3    1      0.71      0.00
    9    3    1      0.62      0.00
    0    4    1    -28.99      0.00
    2    4    1    -34.87      0.00
    4    4    1    -14.87      0.00
    6    4    1     -4.49      0.00
    8    4    1     -1.79      0.00
   10    4    1     -0.63      0.00
    1    5    1     47.89      0.00
    3    5    1     23.34      0.00
    5    5    1      9.98      0.00
    7    5    1      1.64      0.00
    9    5    1      1.53      0.00
    0    6    1    -41.65      0.00
    2    6    1    -29.70      0.00
    4    6    1    -16.42      0.00
    6    6    1     -3.73      0.00
    8    6    1     -2.40      0.00
   10    6    1     -1.14      0.00
    1    7    1     32.91      0.00
    3    7    1     17.77      0.00
    5    7    1      7.36      0.00
    7    7    1      1.55      0.00
    9    7    1      0.06      0.00
    0    8    1    -19.73      0.00
    2    8    1     -8.90      0.00
    4    8    1     -8.99      0.00
    6    8    1     -1.98      0.00
    8    8    1     -1.40      0.00
    1    9    1     -0.81      0.00
    3    9    1      4.35      0.00
    5    9    1     -0.18      0.00
    7    9    1      1.08      0.00
    9    9    1     -0.12      0.00
    0   10    1      3.22      0.00
    2   10    1      4.72      0.00
    4   10    1      1.08      0.00
    6   10    1     -0.10      0.00
    8   10    1     -1.37      0.00
    1   11    1    -13.93      0.00
    3   11    1     -5.13      0.00
    5   11    1     -1.82      0.00
    7   11    1      0.38      0.00
    9   11    1     -1.55      0.00
    0   12    1      8.91      0.00
    2   12    1      6.20      0.00
    4   12    1      0.78      0.00
    6   12    1     -0.75      0.00
    8   12    1     -1.20      0.00
    1   13    1      3.72      0.00
    3   13    1      6.02      0.00
    5   13    1      1.58      0.00
    7   13    1      2.10      0.00
    9   13    1      0.92      0.00
    0   14    1     -1.55      0.00
    2   14    1     -5.91      0.00
    4   14    1     -4.04      0.00
    6   14    1     -0.93      0.00
    8   14    1     -1.69      0.00
    1   15    1     -3.00      0.00
    3   15    1      3.85      0.00
    5   15    1      1.22      0.00
    7   15    1      0.19      0.00
    9   15    1      0.74      0.00
    0   16    1     -1.20      0.00
    2   16    1     -2.77      0.00
    4   16    1     -3.19      0.00
    6   16    1     -0.68      0.00
    8   16    1     -1.34      0.00
    1   17    1      5.59      0.00
    3   17    1      6.46      0.00
    5   17    1      1.96      0.00
    7   17    1      2.15      0.00
    0   18    1      3.15      0.00
    2   18    1     -0.28      0.00
    4   18    1     -2.06      0.00
    6   18    1     -0.95      0.00
    8   18    1     -0.58      0.00
    1   19    1     -5.49      0.00
    3   19    1      0.50      0.00
    5   19    1      0.57      0.00
    7   19    1      0.45      0.00
    0   20    1     -0.65      0.00
    2   20    1      0.35      0.00
    4   20    1     -0.28      0.00
    6   20    1      1.05      0.00
    8   20    1      0.43      0.00
    1   21    1      1.87      0.00
    3   21    1      2.77      0.00
    5   21    1     -0.57      0.00
    7   21    1     -1.42      0.00
    0   22    1      1.64      0.00
    2   22    1      1.92      0.00
    4   22    1     -0.69      0.00
    6   22    1      1.55      0.00
    1   23    1     -4.10      0.00
    3   23    1     -1.16      0.00
    5   23    1     -0.46      0.00
    7   23    1     -0.41      0.00
    0   24    1      1.48      0.00
    2   24    1      2.97      0.00
    4   24    1      0.74      0.00
    6   24    1      0.61      0.00
    1   25    1      0.29      0.00
    3   25    1     -0.20      0.00
    5   25    1     -0.32      0.00
    0   26    1     -3.54      0.00
    2   26    1     -0.10      0.00
    4   26    1     -1.31      0.00
    6   26    1      0.42      0.00
    1   27    1      3.40      0.00
    3   27    1     -0.48      0.00
    5   27    1      0.47      0.00
    0   28    1     -2.68      0.00
    2   28    1      0.17      0.00
    4   28    1      0.22      0.00
    1   29    1      1.35      0.00
    3   29    1     -0.97      0.00
    0   30    1     -1.48      0.00
    2   30    1     -1.05      0.00
    1   31    1      0.96      0.00
    0   32    1      0.78      0.00
    0    0    2    138.88      0.00
    2    0    2     51.96      0.00
    4    0    2     30.01      0.00
    6    0    2      6.96      0.00
    8    0    2      2.81      0.00
   10    0    2      0.61      0.00
    1    1    2    -53.04      0.00
    3    1    2    -25.44      0.00
    5    1    2    -10.06      0.00
    7    1    2     -2.65      0.00
    9    1    2     -1.17      0.00
    0    2    2     40.33      0.00
    2    2    2     -7.92      0.00
    4    2    2      3.72      0.00
    6    2    2      0.32      0.00
    8    2    2      1.77      0.00
   10    2    2      0.19      0.00
    1    3    2     -5.93      0.00
    3    3    2     -2.79      0.00
    5    3    2     -0.61      0.00
    7    3    2     -1.71      0.00
    9    3    2     -0.60      0.00
    0    4    2     25.83      0.00
    2    4    2     10.07      0.00
    4    4    2      5.51      0.00
    6    4    2      1.62      0.00
    8    4    2      1.64      0.00
   10    4    2     -0.18      0.00
    1    5    2     -4.78      0.00
    3    5    2     -8.27      0.00
    5    5    2     -3.10      0.00
    7    5    2     -1.74      0.00
    9    5    2     -0.22      0.00
    0    6    2      5.40      0.00
    2    6    2     10.01      0.00
    4    6    2      3.13      0.00
    6    6    2      1.54      0.00
    8    6    2      0.50      0.00
   10    6    2     -0.12      0.00
    1    7    2     -9.78      0.00
    3    7    2     -7.10      0.00
    5    7    2     -3.75      0.00
    7    7    2     -1.94      0.00
    9    7    2     -0.51      0.00
    0    8    2     -9.54      0.00
    2    8    2      7.84      0.00
    4    8    2      3.15      0.00
    6    8    2      1.88      0.00
    8    8    2      0.82      0.00
    1    9    2     -0.02      0.00
    3    9    2     -2.28      0.00
    5    9    2     -2.79      0.00
    7    9    2     -1.70      0.00
    9    9    2     -1.35      0.00
    0   10    2      0.70      0.00
    2   10    2      4.76      0.00
    4   10    2      1.32      0.00
    6   10    2      0.82      0.00
    8   10    2      1.34      0.00
    1   11    2     -3.72      0.00
    3   11    2      0.75      0.00
    5   11    2     -2.23      0.00
    7   11    2     -1.57      0.00
    9   11    2     -1.41      0.00
    0   12    2      3.41      0.00
    2   12    2      4.01      0.00
    4   12    2      3.04      0.00
    6   12    2      1.84      0.00
    8   12    2      1.03      0.00
    1   13    2    -13.08      0.00
    3   13    2     -5.63      0.00
    5   13    2     -3.63      0.00
    7   13    2     -1.95      0.00
    9   13    2     -0.91      0.00
    0   14    2     10.86      0.00
    2   14    2      4.53      0.00
    4   14    2      2.99      0.00
    6   14    2      1.15      0.00
    8   14    2      0.57      0.00
    1   15    2      2.12      0.00
    3   15    2      3.06      0.00
    5   15    2     -0.29      0.00
    7   15    2      0.07      0.00
    9   15    2     -0.40      0.00
    0   16    2      0.50      0.00
    2   16    2     -3.24      0.00
    4   16    2     -1.22      0.00
    6   16    2      0.17      0.00
    8   16    2     -0.04      0.00
    1   17    2     -0.38      0.00
    3   17    2      3.01      0.00
    5   17    2      0.31      0.00
    7   17    2     -0.01      0.00
    0   18    2     -4.16      0.00
    2   18    2     -5.10      0.00
    4   18    2     -1.16      0.00
    6   18    2     -0.06      0.00
    8   18    2      0.07      0.00
    1   19    2      5.17      0.00
    3   19    2      3.99      0.00
    5   19    2      0.06      0.00
    7   19    2      0.24      0.00
    0   20    2      3.65      0.00
    2   20    2      2.03      0.00
    4   20    2      0.96      0.00
    6   20    2      0.90      0.00
    8   20    2      0.27      0.00
    1   21    2     -7.94      0.00
    3   21    2     -2.12      0.00
    5   21    2     -1.69      0.00
    7   21    2     -0.18      0.00
    0   22    2      5.28      0.00
    2   22    2      4.06      0.00
    4   22    2      2.03      0.00
    6   22    2      1.23      0.00
    1   23    2     -2.09      0.00
    3   23    2     -0.31      0.00
    5   23    2     -1.01      0.00
    7   23    2     -0.91      0.00
    0   24    2      0.02      0.00
    2   24    2      0.39      0.00
    4   24    2     -0.46      0.00
    6   24    2      1.26      0.00
    1   25    2      0.60      0.00
    3   25    2      0.95      0.00
    5   25    2     -0.60      0.00
    0   26    2     -0.68      0.00
    2   26    2      0.80      0.00
    4   26    2      0.23      0.00
    6   26    2     -0.12      0.00
    1   27    2      0.29      0.00
    3   27    2     -1.31      0.00
    5   27    2     -0.38      0.00
    0   28    2     -1.27      0.00
    2   28    2     -0.71      0.00
    4   28    2     -0.55      0.00
    1   29    2      0.80      0.00
    3   29    2      0.97      0.00
    0   30    2      1.24      0.00
    2   30    2      0.52      0.00
    1   31    2     -1.02      0.00
    0   32    2      0.58      0.00
    0    0    3    -17.53      0.00
    2    0    3    -35.07      0.00
    4    0    3    -13.17      0.00
    6    0    3     -4.50      0.00
    8    0    3     -1.30      0.00
   10    0    3     -0.30      0.00
    1    1    3     27.03      0.00
    3    1    3      9.38      0.00
    5    1    3      5.83      0.00
    7    1    3      1.05      0.00
    9    1    3      0.85      0.00
    0    2    3     -6.64      0.00
    2    2    3     -4.35      0.00
    4    2    3      0.13      0.00
    6    2    3     -0.82      0.00
    8    2    3     -0.33      0.00
   10    2    3     -0.06      0.00
    1    3    3     18.68      0.00
    3    3    3     -1.00      0.00
    5    3    3      1.45      0.00
    7    3    3      0.50      0.00
    9    3    3      0.87      0.00
    0    4    3    -19.30      0.00
    2    4    3     -8.47      0.00
    4    4    3     -5.21      0.00
    6    4    3     -2.01      0.00
    8    4    3     -1.22      0.00
   10    4    3     -0.17      0.00
    1    5    3     19.83      0.00
    3    5    3      4.86      0.00
    5    5    3      4.51      0.00
    7    5    3      0.33      0.00
    9    5    3      0.38      0.00
    0    6    3    -47.27      0.00
    2    6    3     -9.49      0.00
    4    6    3     -7.71      0.00
    6    6    3     -2.06      0.00
    8    6    3     -0.34      0.00
   10    6    3     -0.01      0.00
    1    7    3     30.83      0.00
    3    7    3      8.67      0.00
    5    7    3      3.52      0.00
    7    7    3      0.40      0.00
    9    7    3      0.32      0.00
    0    8    3    -30.65      0.00
    2    8    3     -2.47      0.00
    4    8    3     -5.04      0.00
    6    8    3     -1.21      0.00
    8    8    3     -0.29      0.00
    1    9    3      5.10      0.00
    3    9    3      0.86      0.00
    5    9    3     -0.54      0.00
    7    9    3     -0.39      0.00
    9    9    3     -1.32      0.00
    0   10    3    -15.41      0.00
    2   10    3      3.97      0.00
    4   10    3      0.89      0.00
    6   10    3      0.53      0.00
    8   10    3      0.19      0.00
    1   11    3     -3.58      0.00
    3   11    3     -2.82      0.00
    5   11    3     -1.86      0.00
    7   11    3     -0.63      0.00
    9   11    3     -0.92      0.00
    0   12    3      2.29      0.00
    2   12    3      3.15      0.00
    4   12    3      0.68      0.00
    6   12    3      0.11      0.00
    8   12    3      0.93      0.00
    1   13    3      3.43      0.00
    3   13    3      3.60      0.00
    5   13    3     -0.44      0.00
    7   13    3     -0.67      0.00
    9   13    3     -1.47      0.00
    0   14    3     -4.42      0.00
    2   14    3     -4.56      0.00
    4   14    3     -1.10      0.00
    6   14    3      0.40      0.00
    8   14    3     -0.11      0.00
    1   15    3     -0.48      0.00
    3   15    3      1.68      0.00
    5   15    3      0.02      0.00
    7   15    3     -0.37      0.00
    9   15    3      0.41      0.00
    0   16    3      1.52      0.00
    2   16    3     -2.90      0.00
    4   16    3     -0.56      0.00
    6   16    3      0.27      0.00
    8   16    3      0.33      0.00
    1   17    3      2.72      0.00
    3   17    3      2.25      0.00
    5   17    3     -0.04      0.00
    7   17    3     -0.50      0.00
    0   18    3      2.66      0.00
    2   18    3      1.74      0.00
    4   18    3      0.66      0.00
    6   18    3      1.36      0.00
    8   18    3      0.50      0.00
    1   19    3     -3.81      0.00
    3   19    3     -0.53      0.00
    5   19    3     -0.53      0.00
    7   19    3     -1.01      0.00
    0   20    3     -0.40      0.00
    2   20    3     -0.40      0.00
    4   20    3     -0.50      0.00
    6   20    3      0.87      0.00
    1   21    3      0.95      0.00
    3   21    3      1.74      0.00
    5   21    3      0.42      0.00
    7   21    3     -0.32      0.00
    0   22    3      1.13      0.00
    2   22    3      1.68      0.00
    4   22    3      0.24      0.00
    6   22    3      1.45      0.00
    1   23    3     -2.94      0.00
    3   23    3     -0.95      0.00
    5   23    3     -1.57      0.00
    7   23    3     -1.63      0.00
    0   24    3      1.47      0.00
    2   24    3      3.40      0.00
    4   24    3      0.97      0.00
    6   24    3      1.30      0.00
    1   25    3     -1.38      0.00
    3   25    3     -2.23      0.00
    5   25    3      0.09      0.00
    0   26    3     -1.58      0.00
    2   26    3      0.71      0.00
    4   26    3     -0.86      0.00
    1   27    3      1.54      0.00
    3   27    3      1.23      0.00
    5   27    3      0.51      0.00
    0   28    3     -2.22      0.00
    2   28    3      0.07      0.00
    4   28    3     -1.35      0.00
    1   29    3      1.69      0.00
    3   29    3     -0.86      0.00
    0   30    3     -1.97      0.00
    2   30    3     -0.83      0.00
    1   31    3     -0.17      0.00
    0    0    4      9.90      0.00
    2    0    4      7.32      0.00
    4    0    4      9.60      0.00
    6    0    4      1.66      0.00
    8    0    4      0.23      0.00
   10    0    4      0.08      0.00
    1    1    4     -0.23      0.00
    3    1    4     -5.91      0.00
    5    1    4     -3.48      0.00
    7    1    4     -0.39      0.00
    9    1    4      0.59      0.00
    0    2    4      9.86      0.00
    2    2    4     -1.96      0.00
    4    2    4      1.54      0.00
    6    2    4     -0.03      0.00
    8    2    4     -0.32      0.00
   10    2    4     -0.18      0.00
    1    3    4      0.49      0.00
    3    3    4     -0.66      0.00
    5    3    4     -0.92      0.00
    7    3    4     -0.74      0.00
    9    3    4      0.48      0.00
    0    4    4    -11.43      0.00
    2    4    4      1.84      0.00
    4    4    4      2.70      0.00
    6    4    4      0.12      0.00
    8    4    4      0.55      0.00
   10    4    4      0.16      0.00
    1    5    4      9.23      0.00
    3    5    4     -2.61      0.00
    5    5    4     -1.95      0.00
    7    5    4     -0.78      0.00
    9    5    4      0.81      0.00
    0    6    4    -15.07      0.00
    2    6    4      8.76      0.00
    4    6    4      3.08      0.00
    6    6    4     -0.01      0.00
    8    6    4      0.36      0.00
    1    7    4     -2.30      0.00
    3    7    4     -4.85      0.00
    5    7    4     -1.44      0.00
    7    7    4     -0.78      0.00
    9    7    4     -0.24      0.00
    0    8    4    -20.93      0.00
    2    8    4      2.94      0.00
    4    8    4     -0.14      0.00
    6    8    4     -1.04      0.00
    8    8    4      0.10      0.00
    1    9    4     10.74      0.00
    3    9    4      2.77      0.00
    5    9    4      0.96      0.00
    7    9    4     -0.34      0.00
    9    9    4      0.54      0.00
    0   10    4    -21.67      0.00
    2   10    4     -1.61      0.00
    4   10    4     -2.13      0.00
    6   10    4     -1.18      0.00
    8   10    4      0.59      0.00
    1   11    4      7.42      0.00
    3   11    4      3.09      0.00
    5   11    4     -0.01      0.00
    7   11    4     -0.26      0.00
    9   11    4     -0.95      0.00
    0   12    4     -6.69      0.00
    2   12    4     -2.19      0.00
    4   12    4     -0.18      0.00
    6   12    4     -0.97      0.00
    8   12    4     -0.54      0.00
    1   13    4     -4.16      0.00
    3   13    4     -1.39      0.00
    5   13    4      0.18      0.00
    7   13    4      0.16      0.00
    9   13    4      0.62      0.00
    0   14    4      5.16      0.00
    2   14    4      0.90      0.00
    4   14    4      0.77      0.00
    6   14    4     -0.51      0.00
    8   14    4      0.64      0.00
    1   15    4      2.08      0.00
    3   15    4      1.37      0.00
    5   15    4      0.01      0.00
    7   15    4     -0.75      0.00
    0   16    4     -0.74      0.00
    2   16    4     -2.09      0.00
    4   16    4     -0.62      0.00
    6   16    4     -0.22      0.00
    8   16    4     -0.05      0.00
    1   17    4      1.08      0.00
    3   17    4      1.22      0.00
    5   17    4      2.06      0.00
    7   17    4      0.15      0.00
    0   18    4     -3.16      0.00
    2   18    4     -3.79      0.00
    4   18    4     -2.60      0.00
    6   18    4     -0.87      0.00
    8   18    4     -0.32      0.00
    1   19    4      3.31      0.00
    3   19    4      3.49      0.00
    5   19    4      1.90      0.00
    7   19    4      0.85      0.00
    0   20    4      0.85      0.00
    2   20    4      0.76      0.00
    4   20    4     -0.94      0.00
    6   20    4      0.05      0.00
    1   21    4     -2.50      0.00
    3   21    4      0.24      0.00
    5   21    4      0.11      0.00
    7   21    4     -1.26      0.00
    0   22    4      0.41      0.00
    2   22    4      0.74      0.00
    4   22    4     -0.56      0.00
    6   22    4      0.58      0.00
    1   23    4     -0.34      0.00
    3   23    4      0.63      0.00
    5   23    4      0.76      0.00
    7   23    4      0.65      0.00
    0   24    4     -0.69      0.00
    2   24    4      0.01      0.00
    4   24    4     -0.62      0.00
    6   24    4     -0.26      0.00
    1   25    4     -0.06      0.00
    3   25    4      0.48      0.00
    5   25    4     -0.01      0.00
    0   26    4      0.15      0.00
    2   26    4      1.62      0.00
    4   26    4     -0.58      0.00
    1   27    4     -0.35      0.00
    3   27    4     -1.96      0.00
    5   27    4     -0.15      0.00
    0   28    4     -1.00      0.00
    2   28    4      0.61      0.00
    4   28    4      0.16      0.00
    1   29    4     -0.46      0.00
    3   29    4      0.54      0.00
    0   30    4     -0.21      0.00
    2   30    4     -0.38      0.00
    1   31    4      1.34      0.00
    0    0    5     -8.63      0.00
    2    0    5     -5.62      0.00
    4    0    5     -3.18      0.00
    6    0    5     -1.18      0.00
    8    0    5     -1.53      0.00
   10    0    5      0.45      0.00
    1    1    5      7.33      0.00
    3    1    5      0.75      0.00
    5    1    5      0.64      0.00
    7    1    5      0.57      0.00
    9    1    5     -0.11      0.00
    0    2    5     -4.14      0.00
    2    2    5      4.24      0.00
    4    2    5      4.00      0.00
    6    2    5      0.43      0.00
    8    2    5     -0.47      0.00
   10    2    5      0.63      0.00
    1    3    5      0.99      0.00
    3    3    5     -6.42      0.00
    5    3    5     -2.58      0.00
    7    3    5     -0.53      0.00
    9    3    5      0.10      0.00
    0    4    5     -5.89      0.00
    2    4    5     11.13      0.00
    4    4    5      5.53      0.00
    6    4    5      1.48      0.00
    8    4    5      0.44      0.00
    1    5    5     -8.90      0.00
    3    5    5     -7.44      0.00
    5    5    5     -3.63      0.00
    7    5    5     -1.68      0.00
    9    5    5     -0.12      0.00
    0    6    5     -6.69      0.00
    2    6    5      8.55      0.00
    4    6    5      3.68      0.00
    6    6    5      1.03      0.00
    8    6    5      0.23      0.00
    1    7    5      6.63      0.00
    3    7    5     -2.43      0.00
    5    7    5     -1.89      0.00
    7    7    5     -1.17      0.00
    9    7    5      0.93      0.00
    0    8    5    -30.28      0.00
    2    8    5      5.03      0.00
    4    8    5      2.50      0.00
    6    8    5      0.57      0.00
    8    8    5      0.60      0.00
    1    9    5      3.57      0.00
    3    9    5     -3.34      0.00
    5    9    5     -1.50      0.00
    7    9    5     -0.27      0.00
    9    9    5     -0.36      0.00
    0   10    5     -6.79      0.00
    2   10    5      3.76      0.00
    4   10    5      0.68      0.00
    6   10    5     -0.86      0.00
    8   10    5     -0.66      0.00
    1   11    5     -2.39      0.00
    3   11    5     -2.04      0.00
    5   11    5     -0.58      0.00
    7   11    5      0.45      0.00
    9   11    5      0.36      0.00
    0   12    5     -5.80      0.00
    2   12    5      1.45      0.00
    4   12    5      1.11      0.00
    6   12    5     -0.40      0.00
    8   12    5      0.17      0.00
    1   13    5      2.76      0.00
    3   13    5      0.72      0.00
    5   13    5     -1.19      0.00
    7   13    5     -0.34      0.00
    9   13    5     -0.76      0.00
    0   14    5      2.37      0.00
    2   14    5     -0.83      0.00
    4   14    5      0.67      0.00
    6   14    5     -0.20      0.00
    8   14    5      0.16      0.00
    1   15    5     -4.66      0.00
    3   15    5     -3.29      0.00
    5   15    5     -0.31      0.00
    7   15    5     -0.11      0.00
    0   16    5      4.12      0.00
    2   16    5      2.21      0.00
    4   16    5      1.92      0.00
    6   16    5      0.83      0.00
    8   16    5      0.48      0.00
    1   17    5     -1.15      0.00
    3   17    5     -1.61      0.00
    5   17    5     -1.34      0.00
    7   17    5     -1.18      0.00
    0   18    5      4.15      0.00
    2   18    5      3.84      0.00
    4   18    5      1.26      0.00
    6   18    5      1.48      0.00
    8   18    5      0.62      0.00
    1   19    5     -3.82      0.00
    3   19    5     -2.10      0.00
    5   19    5     -0.20      0.00
    7   19    5     -1.20      0.00
    0   20    5     -0.55      0.00
    2   20    5      0.32      0.00
    4   20    5     -0.05      0.00
    6   20    5      0.98      0.00
    1   21    5      1.56      0.00
    3   21    5      1.67      0.00
    5   21    5      0.21      0.00
    7   21    5      0.89      0.00
    0   22    5     -1.69      0.00
    2   22    5     -0.62      0.00
    4   22    5     -0.55      0.00
    6   22    5     -0.26      0.00
    1   23    5     -0.18      0.00
    3   23    5     -0.04      0.00
    5   23    5      0.24      0.00
    0   24    5      0.34      0.00
    2   24    5      2.02      0.00
    4   24    5      0.45      0.00
    6   24    5      0.68      0.00
    1   25    5     -0.73      0.00
    3   25    5     -2.48      0.00
    5   25    5     -0.83      0.00
    0   26    5     -1.74      0.00
    2   26    5      0.82      0.00
    4   26    5      1.00      0.00
    1   27    5      0.40      0.00
    3   27    5     -0.19      0.00
    5   27    5     -0.04      0.00
    0   28    5     -0.64      0.00
    2   28    5     -0.39      0.00
    4   28    5     -1.39      0.00
    1   29    5      1.74      0.00
    3   29    5     -0.02      0.00
    0   30    5     -2.45      0.00
    2   30    5     -0.41      0.00
    1   31    5     -0.21      0.00
    0    0    6     -7.01      0.00
    2    0    6     -2.73      0.00
    4    0    6      0.84      0.00
    6    0    6     -0.71      0.00
    8    0    6     -0.39      0.00
    1    1    6     11.55      0.00
    3    1    6      2.98      0.00
    5    1    6      1.80      0.00
    7    1    6      0.52      0.00
    9    1    6     -0.03      0.00
    0    2    6    -17.95      0.00
    2    2    6     -6.55      0.00
    4    2    6     -1.39      0.00
    6    2    6     -1.26      0.00
    8    2    6     -1.46      0.00
    1    3    6      1.08      0.00
    3    3    6      1.64      0.00
    5    3    6     -0.43      0.00
    7    3    6      0.12      0.00
    9    3    6      0.54      0.00
    0    4    6      7.06      0.00
    2    4    6      5.05      0.00
    4    4    6      2.93      0.00
    6    4    6     -0.23      0.00
    8    4    6     -0.66      0.00
    1    5    6     -2.98      0.00
    3    5    6     -2.28      0.00
    5    5    6     -0.86      0.00
    7    5    6     -0.67      0.00
    9    5    6      1.19      0.00
    0    6    6    -18.93      0.00
    2    6    6      4.27      0.00
    4    6    6      3.81      0.00
    6    6    6      0.03      0.00
    8    6    6      1.03      0.00
    1    7    6     -1.45      0.00
    3    7    6     -2.49      0.00
    5    7    6     -0.79      0.00
    7    7    6     -1.07      0.00
    9    7    6      0.31      0.00
    0    8    6     -1.83      0.00
    2    8    6      3.60      0.00
    4    8    6     -0.93      0.00
    6    8    6     -1.53      0.00
    8    8    6      0.26      0.00
    1    9    6      1.27      0.00
    3    9    6      1.59      0.00
    5    9    6      1.64      0.00
    7    9    6      0.07      0.00
    9    9    6      0.53      0.00
    0   10    6    -19.29      0.00
    2   10    6     -3.33      0.00
    4   10    6     -1.60      0.00
    6   10    6     -1.90      0.00
    8   10    6     -0.04      0.00
    1   11    6      8.47      0.00
    3   11    6      4.17      0.00
    5   11    6      1.58      0.00
    7   11    6      0.54      0.00
    9   11    6      0.65      0.00
    0   12    6     -3.19      0.00
    2   12    6     -5.54      0.00
    4   12    6     -2.80      0.00
    6   12    6     -1.61      0.00
    8   12    6     -0.17      0.00
    1   13    6     -0.69      0.00
    3   13    6      0.09      0.00
    5   13    6      0.00      0.00
    7   13    6      0.20      0.00
    9   13    6      0.74      0.00
    0   14    6      1.51      0.00
    2   14    6     -0.47      0.00
    4   14    6      1.63      0.00
    6   14    6     -0.15      0.00
    8   14    6     -0.12      0.00
    1   15    6      0.37      0.00
    3   15    6     -1.11      0.00
    5   15    6     -1.54      0.00
    7   15    6     -1.27      0.00
    0   16    6      3.50      0.00
    2   16    6      1.58      0.00
    4   16    6      1.39      0.00
    6   16    6      0.80      0.00
    8   16    6      0.86      0.00
    1   17    6     -2.43      0.00
    3   17    6     -2.63      0.00
    5   17    6     -0.33      0.00
    7   17    6     -0.34      0.00
    0   18    6     -0.31      0.00
    2   18    6     -0.42      0.00
    4   18    6      0.25      0.00
    6   18    6      0.38      0.00
    8   18    6      0.04      0.00
    1   19    6      1.73      0.00
    3   19    6      1.63      0.00
    5   19    6      0.49      0.00
    7   19    6     -0.04      0.00
    0   20    6     -0.21      0.00
    2   20    6     -0.36      0.00
    4   20    6     -1.12      0.00
    6   20    6     -0.51      0.00
    1   21    6     -0.10      0.00
    3   21    6      0.83      0.00
    5   21    6      1.53      0.00
    7   21    6     -0.05      0.00
    0   22    6     -1.71      0.00
    2   22    6     -1.08      0.00
    4   22    6     -0.70      0.00
    6   22    6     -0.89      0.00
    1   23    6      1.93      0.00
    3   23    6      0.83      0.00
    5   23    6      1.04      0.00
    0   24    6     -2.75      0.00
    2   24    6     -1.27      0.00
    4   24    6     -0.60      0.00
    6   24    6     -1.24      0.00
    1   25    6      0.56      0.00
    3   25    6     -0.09      0.00
    5   25    6      0.93      0.00
    0   26    6      0.44      0.00
    2   26    6      0.82      0.00
    4   26    6     -0.62      0.00
    1   27    6     -0.08      0.00
    3   27    6     -1.60      0.00
    0   28    6     -1.09      0.00
    2   28    6      0.58      0.00
    4   28    6      0.80      0.00
    1   29    6     -0.43      0.00
    3   29    6     -1.03      0.00
    0   30    6      0.15      0.00
    2   30    6     -0.68      0.00
    0    0    7    -19.45      0.00
    2    0    7     -3.08      0.00
    4    0    7     -1.38      0.00
    6    0    7     -0.69      0.00
    8    0    7     -2.34      0.00
    1    1    7      3.16      0.00
    3    1    7     -1.18      0.00
    5    1    7      0.16      0.00
    7    1    7      0.79      0.00
    9    1    7     -1.52      0.00
    0    2    7      6.86      0.00
    2    2    7      8.82      0.00
    4    2    7      3.26      0.00
    6    2    7      1.20      0.00
    8    2    7     -0.35      0.00
    1    3    7     -5.01      0.00
    3    3    7     -4.66      0.00
    5    3    7     -0.84      0.00
    7    3    7     -0.28      0.00
    9    3    7     -0.09      0.00
    0    4    7    -11.01      0.00
    2    4    7      5.53      0.00
    4    4    7      4.42      0.00
    6    4    7      1.07      0.00
    8    4    7     -0.49      0.00
    1    5    7     -8.86      0.00
    3    5    7     -6.60      0.00
    5    5    7     -3.47      0.00
    7    5    7     -0.47      0.00
    9    5    7      0.29      0.00
    0    6    7     13.56      0.00
    2    6    7     14.99      0.00
    4    6    7      4.38      0.00
    6    6    7      0.52      0.00
    8    6    7      0.07      0.00
    1    7    7    -13.02      0.00
    3    7    7     -6.62      0.00
    5    7    7     -0.71      0.00
    7    7    7     -0.51      0.00
    9    7    7     -0.17      0.00
    0    8    7     -9.31      0.00
    2    8    7      5.63      0.00
    4    8    7      2.71      0.00
    6    8    7     -0.72      0.00
    8    8    7      0.72      0.00
    1    9    7      1.30      0.00
    3    9    7     -0.98      0.00
    5    9    7      1.02      0.00
    7    9    7      1.12      0.00
    9    9    7      0.40      0.00
    0   10    7     -3.54      0.00
    2   10    7     -1.27      0.00
    4   10    7     -3.65      0.00
    6   10    7     -2.59      0.00
    8   10    7     -0.31      0.00
    1   11    7      0.10      0.00
    3   11    7      2.16      0.00
    5   11    7      1.98      0.00
    7   11    7      1.44      0.00
    9   11    7     -0.27      0.00
    0   12    7     -1.06      0.00
    2   12    7     -2.46      0.00
    4   12    7     -1.70      0.00
    6   12    7     -2.49      0.00
    8   12    7     -0.76      0.00
    1   13    7      1.37      0.00
    3   13    7      1.48      0.00
    5   13    7      0.43      0.00
    7   13    7      1.06      0.00
    0   14    7      1.34      0.00
    2   14    7     -1.67      0.00
    4   14    7     -0.33      0.00
    6   14    7     -0.78      0.00
    8   14    7      0.56      0.00
    1   15    7     -0.60      0.00
    3   15    7     -1.75      0.00
    5   15    7     -1.15      0.00
    7   15    7      0.44      0.00
    0   16    7      2.36      0.00
    2   16    7      0.13      0.00
    4   16    7      1.47      0.00
    6   16    7      0.45      0.00
    8   16    7      0.19      0.00
    1   17    7     -1.39      0.00
    3   17    7     -1.33      0.00
    5   17    7     -2.01      0.00
    7   17    7     -1.17      0.00
    0   18    7      4.20      0.00
    2   18    7      3.10      0.00
    4   18    7      2.28      0.00
    6   18    7      1.03      0.00
    1   19    7     -2.72      0.00
    3   19    7     -2.04      0.00
    5   19    7     -0.78      0.00
    7   19    7      1.07      0.00
    0   20    7     -0.77      0.00
    2   20    7     -1.11      0.00
    4   20    7      0.36      0.00
    6   20    7     -0.66      0.00
    1   21    7      2.62      0.00
    3   21    7      1.88      0.00
    5   21    7      0.99      0.00
    7   21    7      0.34      0.00
    0   22    7     -2.52      0.00
    2   22    7     -1.71      0.00
    4   22    7     -0.73      0.00
    6   22    7     -0.54      0.00
    1   23    7      0.88      0.00
    3   23    7     -0.12      0.00
    5   23    7      0.34      0.00
    0   24    7     -1.07      0.00
    2   24    7      0.10      0.00
    4   24    7      0.42      0.00
    6   24    7      0.10      0.00
    1   25    7      0.45      0.00
    3   25    7     -0.88      0.00
    5   25    7     -0.60      0.00
    0   26    7     -0.57      0.00
    2   26    7     -0.08      0.00
    4   26    7      0.44      0.00
    1   27    7     -0.62      0.00
    3   27    7     -0.87      0.00
    0   28    7      0.77      0.00
    2   28    7     -0.02      0.00
    1   29    7     -0.02      0.00
    3   29    7     -0.74      0.00
    0   30    7      0.15      0.00
    2   30    7     -0.24      0.00
    0    0    8    -10.11      0.00
    2    0    8     -4.07      0.00
    4    0    8     -1.93      0.00
    6    0    8      0.18      0.00
    8    0    8     -1.02      0.00
    1    1    8     12.15      0.00
    3    1    8      4.46      0.00
    5    1    8      2.90      0.00
    7    1    8      0.32      0.00
    9    1    8     -0.91      0.00
    0    2    8    -21.42      0.00
    2    2    8     -7.93      0.00
    4    2    8     -2.98      0.00
    6    2    8     -0.60      0.00
    8    2    8     -1.71      0.00
    1    3    8      5.45      0.00
    3    3    8      2.46      0.00
    5    3    8      0.31      0.00
    7    3    8      0.53      0.00
    9    3    8     -0.38      0.00
    0    4    8      3.47      0.00
    2    4    8      3.65      0.00
    4    4    8      0.58      0.00
    6    4    8      0.15      0.00
    8    4    8     -1.67      0.00
    1    5    8     -6.03      0.00
    3    5    8     -0.38      0.00
    5    5    8      1.04      0.00
    7    5    8      0.18      0.00
    9    5    8      1.04      0.00
    0    6    8     -4.68      0.00
    2    6    8      0.45      0.00
    4    6    8      0.80      0.00
    6    6    8     -0.45      0.00
    8    6    8     -0.14      0.00
    1    7    8     -2.50      0.00
    3    7    8     -0.12      0.00
    5    7    8      0.09      0.00
    7    7    8      0.78      0.00
    9    7    8      0.13      0.00
    0    8    8      1.37      0.00
    2    8    8      2.39      0.00
    4    8    8     -1.72      0.00
    6    8    8     -1.11      0.00
    8    8    8      0.63      0.00
    1    9    8     -3.45      0.00
    3    9    8      1.17      0.00
    5    9    8      1.14      0.00
    7    9    8     -0.54      0.00
    9    9    8     -1.73      0.00
    0   10    8      0.77      0.00
    2   10    8     -2.85      0.00
    4   10    8     -1.46      0.00
    6   10    8     -0.89      0.00
    8   10    8      0.89      0.00
    1   11    8      1.40      0.00
    3   11    8      2.08      0.00
    5   11    8      0.43      0.00
    7   11    8      1.03      0.00
    0   12    8     -2.37      0.00
    2   12    8     -4.18      0.00
    4   12    8     -1.74      0.00
    6   12    8     -0.77      0.00
    8   12    8      0.58      0.00
    1   13    8      3.43      0.00
    3   13    8      0.48      0.00
    5   13    8     -0.70      0.00
    7   13    8     -0.47      0.00
    0   14    8      0.53      0.00
    2   14    8     -1.82      0.00
    4   14    8      0.66      0.00
    6   14    8      0.80      0.00
    8   14    8      0.69      0.00
    1   15    8     -1.03      0.00
    3   15    8     -2.40      0.00
    5   15    8     -3.71      0.00
    7   15    8     -1.72      0.00
    0   16    8      4.92      0.00
    2   16    8      4.38      0.00
    4   16    8      4.29      0.00
    6   16    8      2.18      0.00
    8   16    8      1.47      0.00
    1   17    8     -4.06      0.00
    3   17    8     -4.64      0.00
    5   17    8     -2.59      0.00
    7   17    8      0.14      0.00
    0   18    8      1.01      0.00
    2   18    8      0.99      0.00
    4   18    8      1.48      0.00
    6   18    8      0.64      0.00
    1   19    8      1.36      0.00
    3   19    8      0.50      0.00
    5   19    8     -0.73      0.00
    7   19    8     -1.00      0.00
    0   20    8     -0.22      0.00
    2   20    8      0.02      0.00
    4   20    8      0.69      0.00
    6   20    8      0.51      0.00
    1   21    8     -0.62      0.00
    3   21    8     -1.23      0.00
    5   21    8      0.16      0.00
    0   22    8     -1.88      0.00
    2   22    8      0.08      0.00
    4   22    8      0.32      0.00
    6   22    8     -0.60      0.00
    1   23    8      1.97      0.00
    3   23    8      0.29      0.00
    5   23    8      0.84      0.00
    0   24    8     -1.98      0.00
    2   24    8     -0.65      0.00
    4   24    8     -1.31      0.00
    1   25    8     -0.18      0.00
    3   25    8      0.03      0.00
    5   25    8      0.77      0.00
    0   26    8      0.26      0.00
    2   26    8      0.50      0.00
    4   26    8     -0.57      0.00
    1   27    8     -0.33      0.00
    3   27    8     -1.11      0.00
    0   28    8     -0.21      0.00
    2   28    8     -0.34      0.00
    1   29    8      0.54      0.00
    0   30    8     -0.21      0.00
    2    0    9     -2.80      0.00
    4    0    9     -1.03      0.00
    6    0    9      1.03      0.00
    8    0    9     -0.15      0.00
    1    1    9      3.39      0.00
    3    1    9      2.21      0.00
    5    1    9     -0.06      0.00
    7    1    9      0.51      0.00
    9    1    9     -1.69      0.00
    0    2    9     -0.50      0.00
    2    2    9     -0.34      0.00
    4    2    9     -0.16      0.00
    6    2    9     -0.25      0.00
    8    2    9     -3.44      0.00
    1    3    9     -1.05      0.00
    3    3    9      1.83      0.00
    5    3    9      1.35      0.00
    7    3    9      1.95      0.00
    9    3    9      1.29      0.00
    0    4    9     -2.76      0.00
    2    4    9     -0.52      0.00
    4    4    9     -0.70      0.00
    6    4    9     -0.19      0.00
    8    4    9     -1.12      0.00
    1    5    9     -2.14      0.00
    3    5    9      0.24      0.00
    5    5    9     -0.84      0.00
    7    5    9      0.74      0.00
    9    5    9     -0.13      0.00
    0    6    9      1.08      0.00
    2    6    9      3.72      0.00
    4    6    9      0.55      0.00
    6    6    9      0.22      0.00
    8    6    9     -1.37      0.00
    1    7    9     -5.03      0.00
    3    7    9     -0.44      0.00
    5    7    9      0.38      0.00
    7    7    9      0.80      0.00
    9    7    9      0.16      0.00
    0    8    9      3.51      0.00
    2    8    9     -1.02      0.00
    4    8    9     -1.43      0.00
    6    8    9     -1.17      0.00
    8    8    9     -0.38      0.00
    1    9    9     -0.92      0.00
    3    9    9      2.37      0.00
    5    9    9      1.98      0.00
    7    9    9      2.77      0.00
    9    9    9     -0.34      0.00
    0   10    9     -4.24      0.00
    2   10    9     -4.13      0.00
    4   10    9     -4.73      0.00
    6   10    9     -2.57      0.00
    8   10    9     -0.48      0.00
    1   11    9      6.75      0.00
    3   11    9      4.72      0.00
    5   11    9      3.29      0.00
    7   11    9      1.29      0.00
    0   12    9     -4.76      0.00
    2   12    9     -6.91      0.00
    4   12    9     -4.98      0.00
    6   12    9     -2.05      0.00
    8   12    9     -1.01      0.00
    1   13    9      4.49      0.00
    3   13    9      2.84      0.00
    5   13    9      0.45      0.00
    7   13    9      1.78      0.00
    0   14    9     -1.30      0.00
    2   14    9     -1.44      0.00
    4   14    9     -1.62      0.00
    6   14    9     -0.75      0.00
    8   14    9      0.04      0.00
    1   15    9      1.40      0.00
    3   15    9      0.00      0.00
    5   15    9      1.25      0.00
    7   15    9      1.09      0.00
    0   16    9     -1.97      0.00
    2   16    9     -0.97      0.00
    4   16    9     -1.86      0.00
    6   16    9     -0.99      0.00
    1   17    9      2.17      0.00
    3   17    9      1.22      0.00
    5   17    9     -1.24      0.00
    7   17    9      0.75      0.00
    0   18    9      0.59      0.00
    2   18    9     -0.27      0.00
    4   18    9      1.02      0.00
    6   18    9      0.34      0.00
    1   19    9     -0.61      0.00
    3   19    9     -0.70      0.00
    5   19    9     -0.22      0.00
    7   19    9      1.69      0.00
    0   20    9     -2.46      0.00
    2   20    9     -0.41      0.00
    4   20    9      0.07      0.00
    6   20    9     -0.15      0.00
    1   21    9      2.69      0.00
    3   21    9      0.72      0.00
    5   21    9      0.36      0.00
    0   22    9     -1.75      0.00
    2   22    9     -0.27      0.00
    4   22    9     -1.00      0.00
    6   22    9     -0.06      0.00
    1   23    9     -0.60      0.00
    3   23    9     -0.15      0.00
    5   23    9      0.52      0.00
    0   24    9     -0.24      0.00
    2   24    9      0.41      0.00
    4   24    9     -0.43      0.00
    1   25    9      0.29      0.00
    3   25    9     -0.30      0.00
    5   25    9     -1.58      0.00
    0   26    9     -0.02      0.00
    2   26    9     -0.42      0.00
    4   26    9      0.21      0.00
    1   27    9     -0.03      0.00
    3   27    9      0.40      0.00
    0   28    9      1.07      0.00
    2   28    9     -0.42      0.00
    1   29    9     -1.30      0.00
    0    0   10     -0.38      0.00
    2    0   10     -1.83      0.00
    4    0   10      0.01      0.00
    6    0   10     -1.89      0.00
    8    0   10     -2.90      0.00
    1    1   10      1.05      0.00
    3    1   10      1.01      0.00
    5    1   10      1.44      0.00
    7    1   10      0.01      0.00
    9    1   10     -0.71      0.00
    0    2   10     -1.85      0.00
    2    2   10     -0.86      0.00
    4    2   10      1.03      0.00
    6    2   10      0.82      0.00
    8    2   10      1.38      0.00
    1    3   10      1.22      0.00
    3    3   10      0.27      0.00
    5    3   10     -0.58      0.00
    7    3   10     -1.66      0.00
    9    3   10     -0.95      0.00
    0    4   10      0.11      0.00
    2    4   10      0.37      0.00
    4    4   10      1.36      0.00
    6    4   10      0.43      0.00
    8    4   10     -2.30      0.00
    1    5   10     -4.70      0.00
    3    5   10     -0.25      0.00
    5    5   10      0.17      0.00
    7    5   10      0.80      0.00
    9    5   10      1.50      0.00
    0    6   10      7.43      0.00
    2    6   10      1.12      0.00
    4    6   10      0.57      0.00
    6    6   10      0.27      0.00
    8    6   10      0.13      0.00
    1    7   10     -5.70      0.00
    3    7   10     -0.98      0.00
    5    7   10     -1.18      0.00
    7    7   10     -0.32      0.00
    0    8   10      3.19      0.00
    2    8   10      1.92      0.00
    4    8   10      1.33      0.00
    6    8   10      1.46      0.00
    8    8   10      0.46      0.00
    1    9   10     -2.19      0.00
    3    9   10     -0.98      0.00
    5    9   10     -1.30      0.00
    7    9   10     -0.53      0.00
    0   10   10      4.43      0.00
    2   10   10     -0.80      0.00
    4   10   10      0.10      0.00
    6   10   10      0.73      0.00
    8   10   10     -0.13      0.00
    1   11   10     -1.83      0.00
    3   11   10     -1.39      0.00
    5   11   10     -1.67      0.00
    7   11   10      0.15      0.00
    0   12   10      2.14      0.00
    2   12   10      1.14      0.00
    4   12   10     -0.07      0.00
    6   12   10      1.12      0.00
    8   12   10      0.78      0.00
    1   13   10     -0.22      0.00
    3   13   10     -1.81      0.00
    5   13   10      0.57      0.00
    7   13   10     -0.95      0.00
    0   14   10      0.55      0.00
    2   14   10      2.82      0.00
    4   14   10     -0.10      0.00
    6   14   10      0.20      0.00
    8   14   10     -0.18      0.00
    1   15   10     -1.67      0.00
    3   15   10     -3.39      0.00
    5   15   10     -3.30      0.00
    7   15   10      0.02      0.00
    0   16   10      3.50      0.00
    2   16   10      3.41      0.00
    4   16   10      2.85      0.00
    6   16   10      2.13      0.00
    1   17   10     -2.80      0.00
    3   17   10     -2.51      0.00
    5   17   10     -1.35      0.00
    7   17   10     -0.42      0.00
    0   18   10      0.61      0.00
    2   18   10      2.57      0.00
    4   18   10      1.26      0.00
    6   18   10      1.14      0.00
    1   19   10     -0.67      0.00
    3   19   10     -1.51      0.00
    5   19   10     -1.60      0.00
    0   20   10      0.75      0.00
    2   20   10      1.69      0.00
    4   20   10      1.35      0.00
    6   20   10      0.67      0.00
    1   21   10     -1.05      0.00
    3   21   10     -1.86      0.00
    5   21   10     -0.52      0.00
    0   22   10     -1.23      0.00
    2   22   10      1.18      0.00
    4   22   10      0.72      0.00
    6   22   10      1.52      0.00
    1   23   10      0.90      0.00
    3   23   10     -0.84      0.00
    5   23   10     -0.99      0.00
    0   24   10     -0.92      0.00
    2   24   10      0.59      0.00
    4   24   10     -0.42      0.00
    1   25   10      0.37      0.00
    3   25   10      0.31      0.00
    0   26   10     -0.14      0.00
    2   26   10     -1.86      0.00
    4   26   10     -1.63      0.00
    1   27   10      1.14      0.00
    3   27   10      0.66      0.00
    0   28   10     -0.46      0.00
    2   28   10     -0.93      0.00
    0    0   11      0.67      0.00
    2    0   11     -0.10      0.00
    4    0   11      1.58      0.00
    6    0   11     -1.37      0.00
    8    0   11      0.71      0.00
    1    1   11      0.67      0.00
    3    1   11      1.39      0.00
    5    1   11      1.45      0.00
    7    1   11      0.35      0.00
    9    1   11     -0.56      0.00
    0    2   11     -0.80      0.00
    2    2   11     -2.26      0.00
    4    2   11     -0.48      0.00
    6    2   11     -2.20      0.00
    8    2   11     -1.65      0.00
    1    3   11     -0.09      0.00
    3    3   11      2.44      0.00
    5    3   11      1.60      0.00
    7    3   11      0.91      0.00
    0    4   11      0.42      0.00
    2    4   11     -1.09      0.00
    4    4   11     -0.76      0.00
    6    4   11     -0.56      0.00
    8    4   11      0.99      0.00
    1    5   11      0.47      0.00
    3    5   11      1.38      0.00
    5    5   11      0.70      0.00
    7    5   11     -0.89      0.00
    0    6   11     -2.41      0.00
    2    6   11     -1.41      0.00
    4    6   11     -0.28      0.00
    6    6   11      0.65      0.00
    8    6   11     -0.33      0.00
    1    7   11      1.14      0.00
    3    7   11      2.30      0.00
    5    7   11      0.46      0.00
    7    7   11      0.88      0.00
    0    8   11     -0.03      0.00
    2    8   11     -3.36      0.00
    4    8   11     -2.77      0.00
    6    8   11     -0.67      0.00
    8    8   11     -0.07      0.00
    1    9   11      1.52      0.00
    3    9   11      2.72      0.00
    5    9   11      0.94      0.00
    7    9   11      0.02      0.00
    0   10   11     -2.48      0.00
    2   10   11     -3.33      0.00
    4   10   11     -3.05      0.00
    6   10   11      0.54      0.00
    8   10   11      0.72      0.00
    1   11   11      4.84      0.00
    3   11   11      3.33      0.00
    5   11   11      2.06      0.00
    7   11   11     -0.36      0.00
    0   12   11     -4.76      0.00
    2   12   11     -2.39      0.00
    4   12   11     -3.69      0.00
    6   12   11     -0.87      0.00
    8   12   11     -0.49      0.00
    1   13   11      3.27      0.00
    3   13   11      1.23      0.00
    5   13   11      0.30      0.00
    7   13   11     -0.07      0.00
    0   14   11     -1.85      0.00
    2   14   11     -1.80      0.00
    4   14   11     -2.73      0.00
    6   14   11      0.39      0.00
    1   15   11      2.85      0.00
    3   15   11      2.95      0.00
    5   15   11      2.25      0.00
    7   15   11      0.21      0.00
    0   16   11     -2.84      0.00
    2   16   11     -1.39      0.00
    4   16   11     -2.11      0.00
    6   16   11     -1.18      0.00
    1   17   11      1.59      0.00
    3   17   11      1.16      0.00
    5   17   11     -0.53      0.00
    7   17   11      1.43      0.00
    0   18   11     -0.20      0.00
    2   18   11     -1.28      0.00
    4   18   11      0.37      0.00
    6   18   11     -0.18      0.00
    1   19   11      0.49      0.00
    3   19   11      0.39      0.00
    5   19   11     -0.06      0.00
    0   20   11     -0.88      0.00
    2   20   11     -0.05      0.00
    4   20   11      0.62      0.00
    6   20   11      0.92      0.00
    1   21   11      0.56      0.00
    3   21   11     -0.40      0.00
    5   21   11     -0.69      0.00
    0   22   11     -0.74      0.00
    2   22   11      0.84      0.00
    4   22   11      0.16      0.00
    1   23   11     -0.57      0.00
    3   23   11     -0.98      0.00
    5   23   11     -0.16      0.00
    0   24   11      2.15      0.00
    2   24   11     -0.48      0.00
    4   24   11     -0.32      0.00
    1   25   11      0.05      0.00
    3   25   11      0.56      0.00
    0   26   11      0.39      0.00
    2   26   11     -0.92      0.00
    1   27   11      0.81      0.00
    0   28   11      0.84      0.00
    0    0   12     -0.90      0.00
    2    0   12      0.89      0.00
    4    0   12      2.38      0.00
    6    0   12     -1.98      0.00
    8    0   12      0.39      0.00
    1    1   12     -1.46      0.00
    3    1   12     -1.76      0.00
    5    1   12      1.27      0.00
    7    1   12     -0.50      0.00
    0    2   12      2.63      0.00
    2    2   12      3.65      0.00
    4    2   12      2.03      0.00
    6    2   12     -1.45      0.00
    8    2   12      1.07      0.00
    1    3   12     -2.79      0.00
    3    3   12     -2.08      0.00
    5    3   12      1.86      0.00
    7    3   12     -1.15      0.00
    0    4   12      0.69      0.00
    2    4   12      1.69      0.00
    4    4   12      1.89      0.00
    6    4   12     -0.12      0.00
    8    4   12      0.83      0.00
    1    5   12     -1.76      0.00
    3    5   12     -1.13      0.00
    5    5   12      0.02      0.00
    7    5   12     -0.28      0.00
    0    6   12      2.57      0.00
    2    6   12      1.93      0.00
    4    6   12     -0.20      0.00
    6    6   12     -0.26      0.00
    8    6   12      0.78      0.00
    1    7   12     -4.01      0.00
    3    7   12     -1.19      0.00
    5    7   12      0.28      0.00
    7    7   12     -0.59      0.00
    0    8   12      4.65      0.00
    2    8   12      2.15      0.00
    4    8   12      1.63      0.00
    6    8   12      1.20      0.00
    8    8   12      0.63      0.00
    1    9   12     -2.93      0.00
    3    9   12     -2.05      0.00
    5    9   12     -1.15      0.00
    7    9   12      0.03      0.00
    0   10   12      3.34      0.00
    2   10   12      4.04      0.00
    4   10   12      0.99      0.00
    6   10   12      0.03      0.00
    8   10   12      0.10      0.00
    1   11   12     -4.52      0.00
    3   11   12     -3.02      0.00
    5   11   12     -1.16      0.00
    7   11   12     -1.48      0.00
    0   12   12      5.08      0.00
    2   12   12      3.14      0.00
    4   12   12      0.35      0.00
    6   12   12      1.25      0.00
    1   13   12     -1.42      0.00
    3   13   12     -1.06      0.00
    5   13   12      0.24      0.00
    7   13   12     -1.19      0.00
    0   14   12      0.58      0.00
    2   14   12      2.82      0.00
    4   14   12      0.90      0.00
    6   14   12     -0.24      0.00
    1   15   12     -1.96      0.00
    3   15   12     -2.02      0.00
    5   15   12     -1.34      0.00
    7   15   12     -0.86      0.00
    0   16   12      3.43      0.00
    2   16   12      1.50      0.00
    4   16   12      1.04      0.00
    6   16   12      0.84      0.00
    1   17   12     -1.51      0.00
    3   17   12     -0.27      0.00
    5   17   12     -0.02      0.00
    0   18   12      0.71      0.00
    2   18   12      0.67      0.00
    4   18   12      1.07      0.00
    6   18   12      0.22      0.00
    1   19   12     -0.44      0.00
    3   19   12     -0.71      0.00
    5   19   12     -1.04      0.00
    0   20   12      0.22      0.00
    2   20   12      1.18      0.00
    4   20   12      1.08      0.00
    1   21   12     -1.79      0.00
    3   21   12     -1.49      0.00
    5   21   12      0.12      0.00
    0   22   12      3.11      0.00
    2   22   12      1.39      0.00
    4   22   12     -0.12      0.00
    1   23   12     -0.57      0.00
    3   23   12     -0.18      0.00
    0   24   12     -1.01      0.00
    2   24   12     -0.71      0.00
    4   24   12     -0.21      0.00
    1   25   12      1.28      0.00
    3   25   12     -0.45      0.00
    0   26   12      2.21      0.00
    2   26   12     -1.37      0.00
    1   27   12      0.13      0.00
    0    0   13      1.53      0.00
    2    0   13      1.00      0.00
    4    0   13      0.14      0.00
    6    0   13     -0.92      0.00
    8    0   13      0.46      0.00
    1    1   13     -0.98      0.00
    3    1   13      1.15      0.00
    5    1   13      1.20      0.00
    7    1   13     -0.02      0.00
    0    2   13     -1.91      0.00
    2    2   13     -0.63      0.00
    4    2   13      1.60      0.00
    6    2   13     -0.40      0.00
    8    2   13      0.52      0.00
    1    3   13      1.03      0.00
    3    3   13      1.04      0.00
    5    3   13     -0.03      0.00
    7    3   13     -0.12      0.00
    0    4   13     -1.90      0.00
    2    4   13     -0.79      0.00
    4    4   13     -1.73      0.00
    6    4   13     -0.03      0.00
    8    4   13      0.90      0.00
    1    5   13      0.85      0.00
    3    5   13      3.20      0.00
    5    5   13      1.76      0.00
    7    5   13      0.06      0.00
    0    6   13     -1.62      0.00
    2    6   13     -3.13      0.00
    4    6   13     -1.24      0.00
    6    6   13      0.34      0.00
    8    6   13      0.57      0.00
    1    7   13      2.40      0.00
    3    7   13      2.40      0.00
    5    7   13      0.83      0.00
    7    7   13      1.61      0.00
    0    8   13     -3.26      0.00
    2    8   13     -0.81      0.00
    4    8   13     -2.82      0.00
    6    8   13     -1.64      0.00
    8    8   13     -0.95      0.00
    1    9   13      1.03      0.00
    3    9   13      2.69      0.00
    5    9   13      1.21      0.00
    7    9   13      1.14      0.00
    0   10   13     -0.10      0.00
    2   10   13     -2.34      0.00
    4   10   13     -2.07      0.00
    6   10   13     -0.37      0.00
    1   11   13      1.90      0.00
    3   11   13      1.70      0.00
    5   11   13      0.87      0.00
    7   11   13     -0.08      0.00
    0   12   13     -1.43      0.00
    2   12   13      1.22      0.00
    4   12   13     -0.38      0.00
    6   12   13     -1.01      0.00
    1   13   13     -0.54      0.00
    3   13   13      0.51      0.00
    5   13   13      0.35      0.00
    7   13   13     -1.07      0.00
    0   14   13      1.56      0.00
    2   14   13     -0.83      0.00
    4   14   13     -1.54      0.00
    6   14   13     -0.71      0.00
    1   15   13      1.44      0.00
    3   15   13      1.95      0.00
    5   15   13      1.74      0.00
    0   16   13     -1.84      0.00
    2   16   13     -1.61      0.00
    4   16   13     -0.28      0.00
    6   16   13     -1.99      0.00
    1   17   13      1.48      0.00
    3   17   13      1.26      0.00
    5   17   13      0.23      0.00
    0   18   13     -0.27      0.00
    2   18   13     -0.98      0.00
    4   18   13      0.32      0.00
    6   18   13      0.09      0.00
    1   19   13     -0.46      0.00
    3   19   13      0.40      0.00
    5   19   13      0.61      0.00
    0   20   13      1.20      0.00
    2   20   13      0.05      0.00
    4   20   13     -0.73      0.00
    1   21   13     -0.32      0.00
    3   21   13      0.20      0.00
    5   21   13     -0.19      0.00
    0   22   13     -0.79      0.00
    2   22   13     -0.02      0.00
    4   22   13      0.76      0.00
    1   23   13      0.25      0.00
    3   23   13     -0.77      0.00
    0   24   13      2.60      0.00
    2   24   13     -0.26      0.00
    1   25   13     -0.06      0.00
    0   26   13      0.00      0.00
    0    0   14      2.11      0.00
    2    0   14      1.72      0.00
    4    0   14      3.35      0.00
    6    0   14      0.05      0.00
    8    0   14     -0.76      0.00
    1    1   14     -2.52      0.00
    3    1   14     -0.75      0.00
    5    1   14     -0.12      0.00
    7    1   14     -0.60      0.00
    0    2   14      2.00      0.00
    2    2   14      0.57      0.00
    4    2   14      1.17      0.00
    6    2   14      1.14      0.00
    8    2   14      1.03      0.00
    1    3   14     -2.01      0.00
    3    3   14      0.45      0.00
    5    3   14      0.17      0.00
    7    3   14     -1.03      0.00
    0    4   14      1.41      0.00
    2    4   14      0.08      0.00
    4    4   14      1.41      0.00
    6    4   14      1.26      0.00
    1    5   14     -0.91      0.00
    3    5   14     -0.49      0.00
    5    5   14      0.47      0.00
    7    5   14      0.02      0.00
    0    6   14     -0.72      0.00
    2    6   14      0.95      0.00
    4    6   14     -0.88      0.00
    6    6   14     -0.31      0.00
    1    7   14     -0.34      0.00
    3    7   14      0.83      0.00
    5    7   14      0.14      0.00
    7    7   14      1.32      0.00
    0    8   14      1.40      0.00
    2    8   14     -1.34      0.00
    4    8   14     -0.19      0.00
    6    8   14      0.89      0.00
    1    9   14     -0.96      0.00
    3    9   14     -0.18      0.00
    5    9   14     -0.45      0.00
    7    9   14      0.02      0.00
    0   10   14      1.67      0.00
    2   10   14      3.50      0.00
    4   10   14      1.67      0.00
    6   10   14     -0.08      0.00
    1   11   14     -2.61      0.00
    3   11   14     -1.59      0.00
    5   11   14     -1.43      0.00
    7   11   14      0.06      0.00
    0   12   14      2.65      0.00
    2   12   14      0.87      0.00
    4   12   14      0.49      0.00
    6   12   14     -0.54      0.00
    1   13   14     -0.05      0.00
    3   13   14     -0.03      0.00
    5   13   14      0.23      0.00
    0   14   14     -0.02      0.00
    2   14   14      0.39      0.00
    4   14   14      1.24      0.00
    6   14   14     -1.02      0.00
    1   15   14      0.57      0.00
    3   15   14      0.64      0.00
    5   15   14      0.21      0.00
    0   16   14      0.05      0.00
    2   16   14     -0.47      0.00
    4   16   14      0.06      0.00
    6   16   14      0.11      0.00
    1   17   14     -0.27      0.00
    3   17   14     -0.29      0.00
    5   17   14      0.16      0.00
    0   18   14      0.21      0.00
    2   18   14      0.38      0.00
    4   18   14     -0.17      0.00
    1   19   14     -0.26      0.00
    3   19   14      0.49      0.00
    5   19   14      0.11      0.00
    0   20   14     -0.54      0.00
    2   20   14      0.51      0.00
    4   20   14      0.16      0.00
    1   21   14     -0.34      0.00
    3   21   14      0.08      0.00
    0   22   14      0.78      0.00
    2   22   14     -0.29      0.00
    4   22   14     -2.11      0.00
    1   23   14      0.45      0.00
    3   23   14      0.71      0.00
    0   24   14     -0.45      0.00
    2   24   14     -0.81      0.00
    1   25   14      0.75      0.00
    0    0   15      0.30      0.00
    2    0   15     -1.51      0.00
    4    0   15      1.94      0.00
    6    0   15      2.08      0.00
    1    1   15     -0.97      0.00
    3    1   15      0.44      0.00
    5    1   15     -0.66      0.00
    7    1   15     -0.59      0.00
    0    2   15      0.49      0.00
    2    2   15      0.22      0.00
    4    2   15      1.61      0.00
    6    2   15      1.27      0.00
    1    3   15     -0.41      0.00
    3    3   15      0.25      0.00
    5    3   15      0.85      0.00
    7    3   15      0.06      0.00
    0    4   15     -1.02      0.00
    2    4   15     -0.99      0.00
    4    4   15     -0.34      0.00
    6    4   15      0.39      0.00
    1    5   15      0.63      0.00
    3    5   15      1.27      0.00
    5    5   15      0.26      0.00
    7    5   15      1.32      0.00
    0    6   15     -1.07      0.00
    2    6   15     -2.19      0.00
    4    6   15     -1.72      0.00
    6    6   15      1.22      0.00
    1    7   15      0.80      0.00
    3    7   15      2.05      0.00
    5    7   15      1.37      0.00
    7    7   15      0.59      0.00
    0    8   15     -0.91      0.00
    2    8   15      0.51      0.00
    4    8   15     -1.07      0.00
    6    8   15     -0.50      0.00
    1    9   15      0.02      0.00
    3    9   15      0.01      0.00
    5    9   15      0.01      0.00
    7    9   15      2.13      0.00
    0   10   15      0.14      0.00
    2   10   15     -0.40      0.00
    4   10   15     -1.46      0.00
    6   10   15     -0.78      0.00
    1   11   15      0.22      0.00
    3   11   15      1.10      0.00
    5   11   15      0.76      0.00
    0   12   15      0.92      0.00
    2   12   15      0.77      0.00
    4   12   15      1.09      0.00
    6   12   15     -0.72      0.00
    1   13   15     -0.27      0.00
    3   13   15     -0.07      0.00
    5   13   15      0.63      0.00
    0   14   15      0.55      0.00
    2   14   15      0.50      0.00
    4   14   15     -0.88      0.00
    6   14   15     -1.82      0.00
    1   15   15     -0.29      0.00
    3   15   15     -0.16      0.00
    5   15   15      1.09      0.00
    0   16   15      0.03      0.00
    2   16   15     -0.04      0.00
    4   16   15     -0.23      0.00
    1   17   15      0.82      0.00
    3   17   15      1.48      0.00
    5   17   15      1.82      0.00
    0   18   15     -1.09      0.00
    2   18   15     -0.10      0.00
    4   18   15     -1.17      0.00
    1   19   15     -0.63      0.00
    3   19   15     -0.33      0.00
    0   20   15      0.23      0.00
    2   20   15     -0.27      0.00
    4   20   15     -0.42      0.00
    1   21   15      0.91      0.00
    3   21   15      0.78      0.00
    0   22   15     -1.10      0.00
    2   22   15     -1.15      0.00
    1   23   15      0.88      0.00
    0   24   15      0.07      0.00
    0    0   16      2.56      0.00
    2    0   16     -0.48      0.00
    4    0   16      2.95      0.00
    6    0   16      1.65      0.00
    1    1   16     -1.22      0.00
    3    1   16     -0.01      0.00
    5    1   16      0.02      0.00
    7    1   16     -0.92      0.00
    0    2   16      0.83      0.00
    2    2   16     -2.06      0.00
    4    2   16      1.89      0.00
    6    2   16      0.55      0.00
    1    3   16     -0.36      0.00
    3    3   16     -0.09      0.00
    5    3   16      0.06      0.00
    7    3   16      0.12      0.00
    0    4   16     -0.66      0.00
    2    4   16     -0.93      0.00
    4    4   16      0.27      0.00
    6    4   16      0.80      0.00
    1    5   16      0.29      0.00
    3    5   16      0.49      0.00
    5    5   16      1.92      0.00
    7    5   16     -0.36      0.00
    0    6   16     -0.28      0.00
    2    6   16     -0.43      0.00
    4    6   16     -0.64      0.00
    6    6   16      0.17      0.00
    1    7   16      0.37      0.00
    3    7   16     -0.23      0.00
    5    7   16      0.04      0.00
    0    8   16     -0.78      0.00
    2    8   16     -1.04      0.00
    4    8   16     -1.35      0.00
    6    8   16      1.45      0.00
    1    9   16      0.26      0.00
    3    9   16      1.01      0.00
    5    9   16     -0.48      0.00
    0   10   16      1.05      0.00
    2   10   16      0.14      0.00
    4   10   16      1.62      0.00
    6   10   16      1.36      0.00
    1   11   16      0.60      0.00
    3   11   16     -0.62      0.00
    5   11   16     -1.08      0.00
    0   12   16     -1.01      0.00
    2   12   16     -0.51      0.00
    4   12   16     -0.64      0.00
    6   12   16     -0.54      0.00
    1   13   16      1.55      0.00
    3   13   16      0.92      0.00
    5   13   16      0.06      0.00
    0   14   16     -0.33      0.00
    2   14   16     -0.92      0.00
    4   14   16      0.72      0.00
    1   15   16      1.02      0.00
    3   15   16      1.06      0.00
    5   15   16      1.51      0.00
    0   16   16     -1.09      0.00
    2   16   16     -0.41      0.00
    4   16   16     -1.86      0.00
    1   17   16      0.28      0.00
    3   17   16     -0.12      0.00
    0   18   16     -0.40      0.00
    2   18   16     -0.33      0.00
    4   18   16      0.20      0.00
    1   19   16      0.75      0.00
    3   19   16      0.76      0.00
    0   20   16     -0.98      0.00
    2   20   16     -0.86      0.00
    1   21   16      0.05      0.00
    0   22   16      0.59      0.00
    0    0   17     -1.75      0.00
    2    0   17     -1.65      0.00
    4    0   17      1.05      0.00
    6    0   17      0.22      0.00
    1    1   17      0.11      0.00
    3    1   17      0.25      0.00
    5    1   17     -0.05      0.00
    0    2   17     -0.64      0.00
    2    2   17     -0.93      0.00
    4    2   17      1.32      0.00
    6    2   17      1.18      0.00
    1    3   17      0.18      0.00
    3    3   17      0.47      0.00
    5    3   17      1.96      0.00
    0    4   17     -0.70      0.00
    2    4   17     -0.24      0.00
    4    4   17     -0.94      0.00
    6    4   17     -0.94      0.00
    1    5   17     -0.37      0.00
    3    5   17     -0.40      0.00
    5    5   17      1.07      0.00
    0    6   17     -1.22      0.00
    2    6   17     -0.13      0.00
    4    6   17     -1.43      0.00
    6    6   17     -0.02      0.00
    1    7   17     -0.92      0.00
    3    7   17      0.59      0.00
    5    7   17      1.42      0.00
    0    8   17      2.13      0.00
    2    8   17      1.06      0.00
    4    8   17     -0.92      0.00
    6    8   17      0.73      0.00
    1    9   17     -0.71      0.00
    3    9   17     -0.77      0.00
    5    9   17     -0.35      0.00
    0   10   17     -0.19      0.00
    2   10   17      0.89      0.00
    4   10   17     -0.11      0.00
    1   11   17     -0.17      0.00
    3   11   17     -1.16      0.00
    5   11   17     -0.50      0.00
    0   12   17      1.39      0.00
    2   12   17      1.66      0.00
    4   12   17      1.62      0.00
    1   13   17     -0.65      0.00
    3   13   17     -1.40      0.00
    5   13   17      0.76      0.00
    0   14   17     -0.09      0.00
    2   14   17      0.99      0.00
    4   14   17     -0.78      0.00
    1   15   17      0.61      0.00
    3   15   17     -0.53      0.00
    0   16   17      0.13      0.00
    2   16   17      0.97      0.00
    4   16   17      0.07      0.00
    1   17   17     -1.20      0.00
    3   17   17     -0.31      0.00
    0   18   17      0.25      0.00
    2   18   17      0.03      0.00
    1   19   17      0.28      0.00
    3   19   17     -0.34      0.00
    0   20   17      0.34      0.00
    2   20   17     -0.78      0.00
    0    0   18      3.65      0.00
    2    0   18     -2.89      0.00
    4    0   18      2.28      0.00
    6    0   18      2.38      0.00
    1    1   18     -1.30      0.00
    3    1   18      1.86      0.00
    5    1   18     -0.49      0.00
    0    2   18      0.85      0.00
    2    2   18     -1.09      0.00
    4    2   18      0.39      0.00
    6    2   18     -0.82      0.00
    1    3   18     -0.99      0.00
    3    3   18      0.24      0.00
    5    3   18     -0.36      0.00
    0    4   18     -0.56      0.00
    2    4   18     -2.16      0.00
    4    4   18      0.27      0.00
    6    4   18     -0.19      0.00
    1    5   18      0.68      0.00
    3    5   18      2.01      0.00
    5    5   18      1.79      0.00
    0    6   18      1.05      0.00
    2    6   18     -1.14      0.00
    4    6   18     -1.62      0.00
    1    7   18     -0.28      0.00
    3    7   18      0.14      0.00
    5    7   18     -1.14      0.00
    0    8   18     -0.51      0.00
    2    8   18     -1.16      0.00
    4    8   18      1.04      0.00
    1    9   18      0.77      0.00
    3    9   18      0.17      0.00
    5    9   18     -1.06      0.00
    0   10   18      0.74      0.00
    2   10   18     -0.90      0.00
    4   10   18     -0.28      0.00
    1   11   18      0.59      0.00
    3   11   18      0.22      0.00
    5   11   18     -0.27      0.00
    0   12   18      0.22      0.00
    2   12   18      0.27      0.00
    4   12   18      1.14      0.00
    1   13   18      0.84      0.00
    3   13   18     -1.01      0.00
    0   14   18     -0.10      0.00
    2   14   18      0.65      0.00
    4   14   18      0.18      0.00
    1   15   18     -0.99      0.00
    3   15   18     -0.21      0.00
    0   16   18      0.93      0.00
    2   16   18     -0.15      0.00
    1   17   18      0.91      0.00
    3   17   18     -0.13      0.00
    0   18   18     -0.23      0.00
    2   18   18     -0.45      0.00
    1   19   18     -0.81      0.00
    0    0   19     -2.11      0.00
    2    0   19     -0.60      0.00
    4    0   19     -0.53      0.00
    1    1   19      0.01      0.00
    3    1   19      1.12      0.00
    5    1   19     -0.88      0.00
    0    2   19     -0.28      0.00
    2    2   19     -1.76      0.00
    4    2   19      0.46      0.00
    1    3   19      1.00      0.00
    3    3   19      1.98      0.00
    5    3   19      0.71      0.00
    0    4   19     -0.77      0.00
    2    4   19     -0.74      0.00
    4    4   19     -1.39      0.00
    1    5   19     -0.65      0.00
    3    5   19     -0.43      0.00
    5    5   19     -0.80      0.00
    0    6   19     -0.43      0.00
    2    6   19     -0.36      0.00
    4    6   19      0.49      0.00
    1    7   19     -0.10      0.00
    3    7   19      0.31      0.00
    5    7   19      0.09      0.00
    0    8   19      1.87      0.00
    2    8   19     -0.55      0.00
    4    8   19     -1.44      0.00
    1    9   19     -0.74      0.00
    3    9   19      0.05      0.00
    0   10   19      0.99      0.00
    2   10   19      1.50      0.00
    4   10   19      2.14      0.00
    1   11   19     -0.25      0.00
    3   11   19     -2.50      0.00
    0   12   19     -0.68      0.00
    2   12   19      1.14      0.00
    4   12   19      0.12      0.00
    1   13   19     -0.15      0.00
    3   13   19     -0.94      0.00
    0   14   19      1.18      0.00
    2   14   19      1.61      0.00
    1   15   19     -0.21      0.00
    0   16   19     -0.01      0.00
    2   16   19      0.71      0.00
    1   17   19     -1.49      0.00
    0    0   20      1.74      0.00
    2    0   20     -0.50      0.00
    4    0   20      0.60      0.00
    1    1   20      0.07      0.00
    3    1   20      1.35      0.00
    0    2   20     -0.87      0.00
    2    2   20     -1.59      0.00
    4    2   20     -0.85      0.00
    1    3   20     -0.24      0.00
    3    3   20      0.10      0.00
    0    4   20      0.74      0.00
    2    4   20     -0.09      0.00
    4    4   20      0.39      0.00
    1    5   20      0.18      0.00
    3    5   20      0.02      0.00
    0    6   20      0.94      0.00
    2    6   20     -2.38      0.00
    4    6   20     -0.43      0.00
    1    7   20      0.84      0.00
    3    7   20      1.03      0.00
    0    8   20      0.11      0.00
    2    8   20     -0.79      0.00
    4    8   20      0.89      0.00
    1    9   20     -0.25      0.00
    3    9   20     -1.14      0.00
    0   10   20      0.75      0.00
    2   10   20     -0.40      0.00
    1   11   20      0.50      0.00
    3   11   20      0.76      0.00
    0   12   20      0.75      0.00
    2   12   20      0.83      0.00
    1   13   20     -0.69      0.00
    0   14   20      0.43      0.00
    0    0   21     -3.75      0.00
    2    0   21     -1.44      0.00
    1    1   21      1.79      0.00
    3    1   21      0.24      0.00
    0    2   21     -1.24      0.00
    2    2   21      0.57      0.00
    1    3   21      1.36      0.00
    3    3   21     -0.33      0.00
    0    4   21     -1.24      0.00
    2    4   21     -1.59      0.00
    1    5   21      0.65      0.00
    3    5   21     -0.47      0.00
    0    6   21      0.87      0.00
    2    6   21      0.68      0.00
    1    7   21     -1.22      0.00
    3    7   21     -1.84      0.00
    0    8   21      1.91      0.00
    2    8   21      0.00      0.00
    1    9   21      0.02      0.00
    0   10   21     -0.05      0.00
    1   11   21     -0.75      0.00
    0    0   22     -0.22      0.00
    2    0   22      0.44      0.00
    1    1   22      0.58      0.00
    0    2   22     -0.54      0.00
    2    2   22     -0.24      0.00
    1    3   22      0.13      0.00
    0    4   22      1.40      0.00
    1    5   22     -0.24      0.00
    0    6   22      1.58      0.00
    0    2    0     56.58      0.00
    0    0    1    -31.34      0.00
    0    2    1     92.21      0.00
    0    0    9     -8.10      0.00
    0    0    0      0.00      0.00
# SQUEEZE RESULTS (Version = 150216)
# Note: Data are Listed for all Voids in the P1 Unit Cell
# i.e. Centre of Gravity, Solvent Accessible Volume,
# Recovered number of Electrons in the Void and
# Details about the Squeezed Material
loop_
  _platon_squeeze_void_nr
  _platon_squeeze_void_average_x
  _platon_squeeze_void_average_y
  _platon_squeeze_void_average_z
  _platon_squeeze_void_volume
  _platon_squeeze_void_count_electrons
  _platon_squeeze_void_content
   1 -0.067  0.000  0.000       245        51 ' '
   2 -0.034  0.500  0.000       245        51 ' '
   3 -0.123  0.320  0.500       689       125 ' '
# Missing Reflections Below sin(th)/lambda = 0.25
loop_
  _platon_missing_refln_index_h
  _platon_missing_refln_index_k
  _platon_missing_refln_index_l
  _platon_missing_refln_theta
    0    2    0     1.854
    0    0    1     1.323
    0    2    1     2.278
_platon_squeeze_void_probe_radius                  1.20
_platon_squeeze_details
)
TITL hq1-15b3_a.res in Cmmm
CELL    7.2195   22.5222   15.7802     90.00     90.00     90.00
SPGR Cmmm
# Solvent Accessible Volume =      1175
# Electrons Found in S.A.V. =       225
# Note: Atoms in Void as Cxxx and Qxxx all others
C101 1.000 0.500 0.500 !       4.94 eA-3
C102 1.000 0.499 0.422 !       4.55 eA-3
C103 1.000 0.415 0.059 !       2.98 eA-3
C104 0.500 0.141 0.507 !       2.28 eA-3
C105 0.500 0.234 0.500 !       2.00 eA-3
C106 0.500 0.188 0.499 !       1.69 eA-3
C107 1.000 0.211 0.494 !       1.46 eA-3
C108 1.000 0.505 0.156 !       1.22 eA-3
C109 0.139 0.505 0.078 !       1.21 eA-3
C110 0.253 0.062 0.000 !       1.11 eA-3
C111 1.000 0.277 0.358 !       1.10 eA-3
Q112 0.500 0.211-0.002 !       0.97 eA-3
C113 1.000 0.442 0.015 !       0.91 eA-3
C114 0.880 0.443 0.043 !       0.88 eA-3
Q115 0.500 0.458 0.450 !       0.69 eA-3
C116 1.000 0.503 0.047 !       0.65 eA-3
C117 0.500 0.063 0.491 !       0.63 eA-3
Q118 1.000 0.252 0.064 !       0.60 eA-3
C119 0.320 0.500 0.094 !       0.57 eA-3
Q120 0.280 0.500 0.500 !       0.57 eA-3
C121 1.000 0.447 0.075 !       0.57 eA-3
Q122 1.000 0.368 0.112 !       0.57 eA-3
C123 1.000 0.055-0.003 !       0.57 eA-3
C124 0.639 0.476 0.043 !       0.56 eA-3
Q125 0.345 0.368 0.301 !       0.55 eA-3
Q126 0.777 0.390 0.123 !       0.51 eA-3
Q127 0.651 0.295 0.112 !       0.51 eA-3
)
;
_shelx_fab_checksum              258
loop_
_space_group_symop_operation_xyz
'x, y, z'
'-x, -y, z'
'-x, y, -z'
'x, -y, -z'
'x+1/2, y+1/2, z'
'-x+1/2, -y+1/2, z'
'-x+1/2, y+1/2, -z'
'x+1/2, -y+1/2, -z'
'-x, -y, -z'
'x, y, -z'
'x, -y, z'
'-x, y, z'
'-x+1/2, -y+1/2, -z'
'x+1/2, y+1/2, -z'
'x+1/2, -y+1/2, z'
'-x+1/2, y+1/2, z'
loop_
_atom_site_label
_atom_site_type_symbol
_atom_site_fract_x
_atom_site_fract_y
_atom_site_fract_z
_atom_site_U_iso_or_equiv
_atom_site_adp_type
_atom_site_occupancy
_atom_site_site_symmetry_order
_atom_site_calc_flag
_atom_site_refinement_flags_posn
_atom_site_refinement_flags_adp
_atom_site_refinement_flags_occupancy
_atom_site_disorder_assembly
_atom_site_disorder_group
In01 In 0.250000 0.250000 0.000000 0.02057(12) Uani 1 4 d S T P . .
O1 O 0.500000 0.20417(11) 0.000000 0.0295(5) Uani 1 4 d S T P . .
N1 N 0.500000 0.43870(14) 0.500000 0.0409(8) Uani 1 4 d S T P . .
C1 C 0.500000 0.46899(11) 0.42767(15) 0.0329(6) Uani 1 2 d S T P . .
C2 C 0.500000 0.43313(11) 0.34778(15) 0.0345(6) Uani 1 2 d S T P . .
C3 C 0.6605(12) 0.4024(3) 0.3243(4) 0.0557(18) Uani 0.5 1 d . . P . .
H3A H 0.767328 0.405651 0.356894 0.067 Uiso 0.5 1 calc R U P . .
C4 C 0.6596(12) 0.3676(3) 0.2530(5) 0.0513(19) Uani 0.5 1 d . . P . .
H4A H 0.766755 0.347595 0.237029 0.062 Uiso 0.5 1 calc R U P . .
C5 C 0.500000 0.36189(12) 0.20439(15) 0.0317(5) Uani 1 2 d S T P . .
C6 C 0.3445(11) 0.3915(3) 0.2285(4) 0.0486(16) Uani 0.5 1 d . . P . .
H6A H 0.236329 0.387315 0.197037 0.058 Uiso 0.5 1 calc R U P . .
C7 C 0.3455(9) 0.4279(3) 0.2997(4) 0.0479(15) Uani 0.5 1 d . . P . .
H7A H 0.239198 0.448791 0.314442 0.058 Uiso 0.5 1 calc R U P . .
C8 C 0.500000 0.32305(11) 0.12723(15) 0.0306(5) Uani 1 2 d S T P . .
O2 O 0.3465(2) 0.30891(8) 0.09807(10) 0.0511(4) Uani 1 1 d . . . . .
loop_
_atom_site_aniso_label
_atom_site_aniso_U_11
_atom_site_aniso_U_22
_atom_site_aniso_U_33
_atom_site_aniso_U_23
_atom_site_aniso_U_13
_atom_site_aniso_U_12
In01 0.02203(16) 0.02523(16) 0.01445(15) 0.000 0.000 -0.00178(7)
O1 0.0261(12) 0.0280(12) 0.0344(13) 0.000 0.000 0.000
N1 0.078(3) 0.0263(15) 0.0180(14) 0.000 0.000 0.000
C1 0.0576(16) 0.0264(11) 0.0146(10) -0.0019(9) 0.000 0.000
C2 0.0591(17) 0.0273(12) 0.0171(11) -0.0047(9) 0.000 0.000
C3 0.070(4) 0.063(4) 0.034(3) -0.027(3) -0.024(3) 0.018(4)
C4 0.049(3) 0.062(4) 0.043(4) -0.027(3) -0.011(3) 0.020(4)
C5 0.0397(14) 0.0343(13) 0.0210(11) -0.0083(10) 0.000 0.000
C6 0.043(3) 0.068(5) 0.035(3) -0.031(3) -0.006(3) 0.008(3)
C7 0.046(3) 0.063(4) 0.035(3) -0.029(3) -0.003(2) 0.016(3)
C8 0.0406(14) 0.0298(12) 0.0213(11) -0.0083(9) 0.000 0.000
O2 0.0401(8) 0.0662(10) 0.0469(9) -0.0351(8) -0.0112(7) 0.0081(8)
loop_
_atom_type_symbol
_atom_type_description
_atom_type_scat_dispersion_real
_atom_type_scat_dispersion_imag
_atom_type_scat_source
C C 0.0034 0.0017
'XDISP Program in WinGX S.Brennan & P.L.Cowan Rev.Sci.Instrum.63,850 1992'
H H 0.0000 0.0000
'XDISP Program in WinGX S.Brennan & P.L.Cowan Rev.Sci.Instrum.63,850 1992'
N N 0.0065 0.0035
'XDISP Program in WinGX S.Brennan & P.L.Cowan Rev.Sci.Instrum.63,850 1992'
O O 0.0115 0.0064
'XDISP Program in WinGX S.Brennan & P.L.Cowan Rev.Sci.Instrum.63,850 1992'
In In -0.6542 1.3759
'XDISP Program in WinGX S.Brennan & P.L.Cowan Rev.Sci.Instrum.63,850 1992'
loop_
_geom_angle_atom_site_label_1
_geom_angle_atom_site_label_2
_geom_angle_atom_site_label_3
_geom_angle
_geom_angle_site_symmetry_1
_geom_angle_site_symmetry_3
_geom_angle_publ_flag
O1 In01 O1 180.00(12) 13 . ?
O1 In01 O2 88.56(6) 13 . ?
O1 In01 O2 91.44(6) . . ?
O1 In01 O2 91.44(6) 13 13 ?
O1 In01 O2 88.56(6) . 13 ?
O2 In01 O2 180.0 . 13 ?
O1 In01 O2 88.56(6) 13 10 ?
O1 In01 O2 91.44(6) . 10 ?
O2 In01 O2 91.85(10) . 10 ?
O2 In01 O2 88.15(10) 13 10 ?
O1 In01 O2 91.44(6) 13 6 ?
O1 In01 O2 88.56(6) . 6 ?
O2 In01 O2 88.15(10) . 6 ?
O2 In01 O2 91.85(10) 13 6 ?
O2 In01 O2 180.00(7) 10 6 ?
In01 O1 In01 120.47(12) 3_655 . ?
C1 N1 C1 118.3(3) 10_556 . ?
N1 C1 C1 120.87(15) . 2_665 ?
N1 C1 C2 116.5(2) . . ?
C1 C1 C2 122.65(13) 2_665 . ?
C7 C2 C7 110.9(6) . 12_655 ?
C7 C2 C3 29.1(3) . 12_655 ?
C7 C2 C3 119.4(3) 12_655 12_655 ?
C7 C2 C3 119.4(3) . . ?
C7 C2 C3 29.1(3) 12_655 . ?
C3 C2 C3 111.8(6) 12_655 . ?
C7 C2 C1 121.3(3) . . ?
C7 C2 C1 121.3(3) 12_655 . ?
C3 C2 C1 119.3(3) 12_655 . ?
C3 C2 C1 119.3(3) . . ?
C4 C3 C2 119.7(6) . . ?
C4 C3 H3A 120.1 . . ?
C2 C3 H3A 120.1 . . ?
C3 C4 C5 120.6(7) . . ?
C3 C4 H4A 119.7 . . ?
C5 C4 H4A 119.7 . . ?
C6 C5 C6 111.3(6) 12_655 . ?
C6 C5 C4 27.9(3) 12_655 . ?
C6 C5 C4 119.0(3) . . ?
C6 C5 C4 119.0(3) 12_655 12_655 ?
C6 C5 C4 27.9(3) . 12_655 ?
C4 C5 C4 112.0(7) . 12_655 ?
C6 C5 C8 120.9(3) 12_655 . ?
C6 C5 C8 120.9(3) . . ?
C4 C5 C8 120.1(3) . . ?
C4 C5 C8 120.1(3) 12_655 . ?
C5 C6 C7 120.7(6) . . ?
C5 C6 H6A 119.7 . . ?
C7 C6 H6A 119.7 . . ?
C2 C7 C6 120.6(6) . . ?
C2 C7 H7A 119.7 . . ?
C6 C7 H7A 119.7 . . ?
O2 C8 O2 126.4(2) 12_655 . ?
O2 C8 C5 116.78(11) 12_655 . ?
O2 C8 C5 116.78(11) . . ?
C8 O2 In01 135.46(13) . . ?
loop_
_geom_bond_atom_site_label_1
_geom_bond_atom_site_label_2
_geom_bond_distance
_geom_bond_site_symmetry_2
_geom_bond_publ_flag
In01 O1 2.0792(12) 13 ?
In01 O1 2.0792(12) . ?
In01 O2 2.1542(13) . ?
In01 O2 2.1543(13) 13 ?
In01 O2 2.1543(13) 10 ?
In01 O2 2.1543(13) 6 ?
N1 C1 1.330(3) 10_556 ?
N1 C1 1.330(3) . ?
C1 C1 1.397(5) 2_665 ?
C1 C2 1.497(3) . ?
C2 C7 1.354(7) . ?
C2 C7 1.354(7) 12_655 ?
C2 C3 1.399(8) 12_655 ?
C2 C3 1.399(8) . ?
C3 C4 1.372(10) . ?
C3 H3A 0.9300 . ?
C4 C5 1.390(8) . ?
C4 H4A 0.9300 . ?
C5 C6 1.360(8) 12_655 ?
C5 C6 1.360(8) . ?
C5 C8 1.499(3) . ?
C6 C7 1.392(9) . ?
C6 H6A 0.9300 . ?
C7 H7A 0.9300 . ?
C8 O2 1.2417(18) 12_655 ?
C8 O2 1.2417(18) . ?
