#------------------------------------------------------------------------------
#$Date: 2021-10-15 01:17:29 +0300 (Fri, 15 Oct 2021) $
#$Revision: 269954 $
#$URL: file:///home/coder/svn-repositories/cod/cif/1/56/49/1564930.cif $
#------------------------------------------------------------------------------
#
# This file is available in the Crystallography Open Database (COD),
# http://www.crystallography.net/
#
# All data on this site have been placed in the public domain by the
# contributors.
#
data_1564930
loop_
_publ_author_name
'Albalad, jorge'
'Peralta, Ricardo'
'Huxley, Michael'
'Tsoukatos, Steven'
'Shi, Zhaolin'
'Zhang, Yue-Biao'
'Evans, Jack D.'
'Sumby, Christopher J.'
'Doonan, Christian J.'
_publ_section_title
;
 Coordination Modulated On-Off Switching of Flexibility in a Metal-organic
 Framework
;
_journal_name_full               'Chemical Science'
_journal_paper_doi               10.1039/D1SC04712D
_journal_year                    2021
_chemical_formula_sum            'C20 H10 N4 O2'
_chemical_formula_weight         338.32
_space_group_crystal_system      monoclinic
_space_group_IT_number           4
_space_group_name_Hall           'P 2yb'
_space_group_name_H-M_alt        'P 1 21 1'
_atom_sites_solution_hydrogens   geom
_audit_update_record
;
2021-07-31 deposited with the CCDC.	2021-10-11 downloaded from the CCDC.
;
_cell_angle_alpha                90
_cell_angle_beta                 109.7650(10)
_cell_angle_gamma                90
_cell_formula_units_Z            2
_cell_length_a                   6.9147(2)
_cell_length_b                   12.4146(3)
_cell_length_c                   9.8883(2)
_cell_measurement_reflns_used    5123
_cell_measurement_temperature    302.(2)
_cell_measurement_theta_max      68.14
_cell_measurement_theta_min      5.94
_cell_volume                     798.84(3)
_computing_cell_refinement       'Bruker SAINT'
_computing_data_collection       'Bruker APEX2'
_computing_data_reduction        'Bruker SAINT'
_computing_molecular_graphics    'Bruker SHELXTL'
_computing_publication_material  'Bruker SHELXTL'
_computing_structure_refinement  'SHELXL-2014 (Sheldrick 2014)'
_computing_structure_solution    'SHELXS-97 (Sheldrick 2008)'
_diffrn_ambient_temperature      302.(2)
_diffrn_measured_fraction_theta_full 0.997
_diffrn_measured_fraction_theta_max 0.997
_diffrn_measurement_device       'Bruker APEX-II CCD'
_diffrn_measurement_method       '\f and \w scans'
_diffrn_radiation_type           'Cu K\a'
_diffrn_radiation_wavelength     1.54178
_diffrn_reflns_av_R_equivalents  0.0304
_diffrn_reflns_av_unetI/netI     0.0234
_diffrn_reflns_limit_h_max       8
_diffrn_reflns_limit_h_min       -7
_diffrn_reflns_limit_k_max       14
_diffrn_reflns_limit_k_min       -14
_diffrn_reflns_limit_l_max       11
_diffrn_reflns_limit_l_min       -11
_diffrn_reflns_number            12287
_diffrn_reflns_theta_full        67.68
_diffrn_reflns_theta_max         68.36
_diffrn_reflns_theta_min         4.75
_exptl_absorpt_coefficient_mu    0.777
_exptl_absorpt_correction_T_max  0.7531
_exptl_absorpt_correction_T_min  0.7000
_exptl_absorpt_correction_type   none
_exptl_absorpt_process_details
;
;
_exptl_crystal_colour            yellow
_exptl_crystal_density_diffrn    1.407
_exptl_crystal_density_method    'not measured'
_exptl_crystal_description       needle-like
_exptl_crystal_F_000             348
_exptl_crystal_size_max          0.060
_exptl_crystal_size_mid          0.020
_exptl_crystal_size_min          0.020
_refine_diff_density_max         0.783
_refine_diff_density_min         -0.276
_refine_ls_abs_structure_details
;

Refined as a perfect inversion twin.
;
_refine_ls_abs_structure_Flack   0.500000
_refine_ls_extinction_method     none
_refine_ls_goodness_of_fit_ref   1.055
_refine_ls_hydrogen_treatment    constr
_refine_ls_matrix_type           full
_refine_ls_number_parameters     235
_refine_ls_number_reflns         2904
_refine_ls_number_restraints     1
_refine_ls_restrained_S_all      1.055
_refine_ls_R_factor_all          0.0650
_refine_ls_R_factor_gt           0.0617
_refine_ls_shift/su_max          0.000
_refine_ls_shift/su_mean         0.000
_refine_ls_structure_factor_coef Fsqd
_refine_ls_weighting_details
'w=1/[\s^2^(Fo^2^)+(0.1387P)^2^+0.1303P] where P=(Fo^2^+2Fc^2^)/3'
_refine_ls_weighting_scheme      calc
_refine_ls_wR_factor_gt          0.1722
_refine_ls_wR_factor_ref         0.1798
_reflns_Friedel_coverage         0.906
_reflns_Friedel_fraction_full    0.999
_reflns_Friedel_fraction_max     0.999
_reflns_number_gt                2663
_reflns_number_total             2904
_reflns_threshold_expression     'I > 2\s(I)'
_cod_data_source_file            d1sc04712d2.cif
_cod_data_source_block           20210728a
_cod_database_code               1564930
_shelx_res_file
;

TITL 7_a.res in P2(1)
    7_a.res
    created by SHELXL-2018/3 at 15:17:08 on 30-Jul-2021
REM Old TITL 7 in P2(1)/m
REM SHELXT solution in P2(1): R1 0.125, Rweak 0.007, Alpha 0.051
REM <I/s>   1.626 for    7 systematic absences,  Orientation as input
REM Flack x =  0.242 ( 0.121 ) from  1216 Parsons' quotients
REM Formula found by SHELXT:  C18 N7 O
CELL  1.54178   6.9147  12.4146   9.8883   90.000  109.765   90.000
ZERR   2.000   0.0002   0.0003   0.0002    0.000    0.001    0.000
LATT -1
SYMM -X, 1/2+Y, -Z
SFAC C H N O
UNIT 40 20 8 4
ACTA
TEMP 28.850
L.S. 10
size 0.02 0.02 0.06
BOND $h
htab
EQIV $1 -x+1, y-1/2, -z
HTAB O1 N4_$1
HTAB O2 N2
conf
LIST 4
TWIN
FMAP 2
PLAN 20
WGHT    0.138700    0.130300
FVAR       1.48763
O1    4    0.803885    0.036372    0.399317    11.00000    0.07193    0.05886 =
         0.04894   -0.02108    0.00704    0.00015
AFIX  83
H1    2    0.753270    0.083785    0.340190    11.00000   -1.50000
AFIX   0
O2    4    1.030030    0.489638    0.895598    11.00000    0.05807    0.04295 =
         0.04427   -0.00877    0.00708    0.00183
AFIX  83
H2    2    0.974730    0.525257    0.822918    11.00000   -1.50000
AFIX   0
N1    3    0.509975    0.392843    0.389223    11.00000    0.06851    0.03997 =
         0.07466    0.01513    0.02349    0.00461
N2    3    0.756956    0.623700    0.659453    11.00000    0.07413    0.06808 =
         0.03750    0.01222    0.00679    0.00476
N3    3    0.476421    0.990972    0.101629    11.00000    0.06086    0.04283 =
         0.05460    0.01454    0.01800    0.00438
N4    3    0.244216    0.746430   -0.173675    11.00000    0.08108    0.09787 =
         0.02763    0.01270    0.00265   -0.01256
C1    1    0.498066    0.587368    0.295828    11.00000    0.02978    0.03289 =
         0.03272    0.00084    0.01266    0.00335
C2    1    0.587612    0.670970    0.391704    11.00000    0.03199    0.03851 =
         0.02766    0.00316    0.01165    0.00364
C3    1    0.582341    0.775361    0.340736    11.00000    0.03147    0.03661 =
         0.02571   -0.00366    0.00694    0.00094
AFIX  43
H3    2    0.640555    0.831232    0.404075    11.00000   -1.20000
AFIX   0
C4    1    0.489981    0.796496    0.194873    11.00000    0.02872    0.03323 =
         0.03296    0.00399    0.01249    0.00310
C5    1    0.404055    0.711210    0.099714    11.00000    0.02771    0.03694 =
         0.02796    0.00097    0.00858    0.00106
C6    1    0.404893    0.606720    0.150101    11.00000    0.03365    0.03779 =
         0.03410   -0.00278    0.01280   -0.00195
AFIX  43
H6    2    0.344210    0.550904    0.087377    11.00000   -1.20000
AFIX   0
C7    1    0.502964    0.478694    0.348918    11.00000    0.04092    0.04108 =
         0.04116    0.00793    0.01429    0.00156
C8    1    0.683030    0.647752    0.542563    11.00000    0.04750    0.04324 =
         0.03127    0.00347    0.01115    0.00362
C9    1    0.482964    0.904291    0.142925    11.00000    0.03308    0.03886 =
         0.03278    0.00310    0.00847    0.00657
C10   1    0.314275    0.731740   -0.051702    11.00000    0.04397    0.05258 =
         0.03280    0.00204    0.00701   -0.00306
C11   1    0.883292    0.080450    0.530710    11.00000    0.03623    0.04480 =
         0.03909   -0.00635    0.01252   -0.00218
C12   1    0.874353    0.190196    0.553160    11.00000    0.03570    0.03797 =
         0.02966    0.00167    0.00986    0.00101
AFIX  43
H12   2    0.814818    0.236022    0.475833    11.00000   -1.20000
AFIX   0
C13   1    0.956169    0.232474    0.694279    11.00000    0.02829    0.03286 =
         0.03087    0.00155    0.01224   -0.00161
C14   1    0.950573    0.343639    0.722434    11.00000    0.03044    0.02998 =
         0.03493    0.00759    0.00827    0.00336
AFIX  43
H14   2    0.891580    0.391229    0.647097    11.00000   -1.20000
AFIX   0
C15   1    1.030810    0.381514    0.858863    11.00000    0.03277    0.03293 =
         0.03911   -0.00192    0.01252    0.00091
C16   1    1.121978    0.310774    0.975867    11.00000    0.03597    0.04646 =
         0.02824   -0.00091    0.00806   -0.00349
AFIX  43
H16   2    1.174801    0.337619    1.068988    11.00000   -1.20000
AFIX   0
C17   1    1.131635    0.203692    0.951074    11.00000    0.03338    0.04479 =
         0.03190    0.00833    0.00923    0.00120
AFIX  43
H17   2    1.193911    0.157767    1.027780    11.00000   -1.20000
AFIX   0
C18   1    1.048885    0.160707    0.810976    11.00000    0.02484    0.03584 =
         0.03096    0.00769    0.01025    0.00117
C19   1    1.056112    0.049311    0.781436    11.00000    0.03661    0.04201 =
         0.03919    0.00664    0.01305    0.00030
AFIX  43
H19   2    1.116805    0.002041    0.856846    11.00000   -1.20000
AFIX   0
C20   1    0.975225    0.009358    0.643441    11.00000    0.03615    0.03802 =
         0.04794   -0.00180    0.01488   -0.00274
AFIX  43
H20   2    0.981904   -0.063898    0.625852    11.00000   -1.20000
AFIX   0
HKLF 4




REM  7_a.res in P2(1)
REM wR2 = 0.179823, GooF = S = 1.05523, Restrained GooF = 1.05503 for all data
REM R1 = 0.061717 for 2663 Fo > 4sig(Fo) and 0.065019 for all 2904 data
REM 235 parameters refined using 1 restraints

END

WGHT      0.1389      0.1300

REM Instructions for potential hydrogen bonds
HTAB O1 N4_$1
HTAB O2 N2

REM Highest difference peak  0.783,  deepest hole -0.276,  1-sigma level  0.065
Q1    1   1.1920  0.3531  1.0962  11.00000  0.05    0.78
Q2    1   0.9687 -0.1038  0.5952  11.00000  0.05    0.78
Q3    1   0.1960  0.6368  0.0997  11.00000  0.05    0.30
Q4    1   1.0292  0.1756  0.7799  11.00000  0.05    0.22
Q5    1   0.9880  0.2008  0.7468  11.00000  0.05    0.19
Q6    1   0.5230  0.9983  0.1197  11.00000  0.05    0.17
Q7    1   0.2458  0.8418 -0.0998  11.00000  0.05    0.15
Q8    1   0.7550  0.0458  0.5941  11.00000  0.05    0.14
Q9    1   0.5363  1.0680  0.1561  11.00000  0.05    0.14
Q10   1   1.1809  0.3732  0.7432  11.00000  0.05    0.14
Q11   1   0.9445 -0.2016  0.5629  11.00000  0.05    0.14
Q12   1   1.1010 -0.1470  0.6766  11.00000  0.05    0.14
Q13   1   0.2293  0.7447 -0.1336  11.00000  0.05    0.13
Q14   1   0.9153  0.8356  0.4786  11.00000  0.05    0.13
Q15   1   1.2823  0.1350  0.8905  11.00000  0.05    0.12
Q16   1   0.9583  0.6437  0.6099  11.00000  0.05    0.12
Q17   1   1.1152  0.2516  1.1649  11.00000  0.05    0.11
Q18   1   0.3425  1.0165  0.1998  11.00000  0.05    0.11
Q19   1   1.2697 -0.0017  0.8360  11.00000  0.05    0.11
Q20   1   0.2107  0.5042  0.0581  11.00000  0.05    0.11
;
_shelx_res_checksum              23045
_shelx_hkl_file
;
  -1   0   0   99.69    3.20
   1   0   0   93.79    4.20
   1   0   0  100.99    3.20
   1   0   0   99.59    4.10
   3   0   0  556.34   17.90
   3   0   0  524.95   19.00
  -3   0   0  528.45   12.90
  -3   0   0  504.65   12.70
  -4   0   0  843.92   21.00
   4   0   0  852.91   27.10
  -4   0   0  834.52   21.10
   4   0   0  855.61   29.60
   4   0   0  797.02   25.00
   5   0   0   73.39    9.80
   5   0   0   89.89    6.20
   5   0   0   85.29    5.70
   5   0   0   94.29    8.40
   5   0   0   86.59    5.90
  -5   0   0   91.99    5.00
   6   0   0   29.40    7.80
   6   0   0   28.10    3.80
   6   0   0   33.80    4.60
   6   0   0   20.70    3.10
   7   0   0    7.90    2.00
   7   0   0    4.50    1.90
   7   0   0    6.60    1.80
   0  -1   0   -0.10    0.50
   0  -1   0    0.10    0.30
   0   1   0    0.30    0.60
   0   1   0    0.10    0.30
   1  -1   0  248.78    8.10
  -1  -1   0  243.38    6.40
   1  -1   0  249.18    8.10
  -1  -1   0  242.98    7.00
   1   1   0  234.38    7.30
  -1   1   0  240.58    6.40
  -1   1   0  247.48    6.50
  -1   1   0  254.97    8.00
   1   1   0  240.98    7.50
   2  -1   0  643.64   17.50
   2  -1   0  614.94   18.20
   2  -1   0  671.63   19.40
   2   1   0  643.34   17.70
  -2   1   0  617.24   15.20
  -2   1   0  637.54   15.30
   2   1   0  630.44   18.50
  -2   1   0  650.03   17.50
   3  -1   0   65.29    6.20
   3  -1   0   68.29    5.70
  -3   1   0   62.59    3.40
   3   1   0   70.49    8.00
  -3   1   0   64.09    4.10
   3   1   0   65.19    5.00
  -3   1   0   57.79    3.40
  -4  -1   0    2.50    0.90
   4  -1   0    1.80    1.50
  -4  -1   0    4.60    1.10
   4  -1   0    3.90    2.50
   4  -1   0    1.10    1.90
  -4   1   0    3.50    1.30
   4   1   0    4.00    2.80
   4   1   0    7.70    2.70
   5  -1   0   95.69   10.70
   5  -1   0   94.89    6.00
   5  -1   0   97.39    8.90
   5  -1   0  113.09   13.50
  -5  -1   0   98.09    4.70
   5  -1   0  103.09    6.50
   5   1   0  107.19   12.40
   5   1   0   92.19    5.90
  -5   1   0   96.99    5.80
   5   1   0   94.39    8.10
   5   1   0   96.99    6.50
   5   1   0   92.19    5.80
   6  -1   0   43.90    4.90
   6  -1   0   33.30    4.20
   6  -1   0   30.60    3.90
   6  -1   0   37.50    8.30
  -6   1   0   36.30    4.30
   6   1   0   29.60    4.00
   6   1   0   40.00    4.30
   6   1   0   50.59    5.70
   6   1   0   33.70    8.00
   7  -1   0   20.10    3.10
   7  -1   0   18.20    2.60
   7   1   0   18.70    3.10
   7   1   0   24.20    3.30
   7   1   0   17.90    2.40
   0  -2   0 3105.89  105.79
   0   2   0 3146.99  105.19
  -1  -2   0  137.09    5.60
   1  -2   0  127.59    5.70
  -1  -2   0  132.49    3.90
   1  -2   0  135.29    4.70
   1  -2   0  143.19    6.80
  -1   2   0  137.39    6.70
  -1   2   0  134.29    4.90
   1   2   0  136.09    4.80
   1   2   0  135.29    5.10
   2  -2   0 5090.29  169.88
   2   2   0 5093.29  122.09
   2   2   0 4871.81  121.09
  -2   2   0 4867.31  167.38
  -3  -2   0  275.27    6.90
   3  -2   0  267.07   12.30
  -3  -2   0  261.27    6.80
   3  -2   0  277.07   13.60
   3  -2   0  279.27   11.80
  -3   2   0  260.77   11.60
   3   2   0  281.77   13.20
   3   2   0  273.87   11.10
  -3   2   0  271.37    9.30
  -4  -2   0 1623.94   35.40
   4  -2   0 1520.35   38.30
   4  -2   0 1531.85   39.60
   4  -2   0 1680.33   45.90
   4  -2   0 1608.94   38.70
  -4  -2   0 1603.84   35.30
   4  -2   0 1645.44   48.40
  -4   2   0 1385.06   38.00
  -4   2   0 1634.54   38.90
   4   2   0 1535.45   39.00
   4   2   0 1567.04   44.50
   4   2   0 1622.44   42.10
   5  -2   0   47.70    9.60
   5  -2   0   35.10    4.50
   5  -2   0   35.80    4.50
   5  -2   0   39.80    7.20
   5   2   0   40.40    4.40
   5   2   0   36.30    4.50
  -5   2   0   38.00    4.90
  -5   2   0   32.80    3.30
   5   2   0   35.60    7.10
   5   2   0   43.90    6.50
   6  -2   0  285.47   11.40
   6  -2   0  256.47   20.20
   6  -2   0  292.57   11.80
   6  -2   0  263.27   19.00
  -6   2   0  273.77   11.50
   6   2   0  303.67   13.20
   6   2   0  275.97   12.80
  -6   2   0  273.87    9.40
   6   2   0  253.97   16.60
   7  -2   0   87.69    5.40
   7  -2   0   87.19    5.20
  -7   2   0   83.39    4.40
   7   2   0   88.09    5.20
   7   2   0   88.89    5.00
   0  -3   0    3.10    2.00
   0  -3   0    3.60    1.20
   0   3   0    0.50    0.80
   0   3   0    2.70    2.00
   1  -3   0  571.04   16.10
  -1  -3   0  528.35   16.70
  -1  -3   0  556.24   13.80
   1  -3   0  562.14   18.50
   1  -3   0  555.84   14.70
  -1   3   0  573.74   18.60
  -1   3   0  559.64   15.00
   1   3   0  570.24   16.90
   2  -3   0   94.99    6.50
   2  -3   0   88.89    6.00
   2  -3   0   93.89    7.00
  -2  -3   0   90.59    4.80
  -2  -3   0   84.79    3.40
  -2  -3   0   83.59    3.50
  -2   3   0   88.99    4.80
   2   3   0   84.49    4.70
   2   3   0   86.69    4.90
   3  -3   0  524.65   20.50
  -3  -3   0  522.75   13.10
   3  -3   0  503.45   19.80
   3  -3   0  549.05   19.80
   3   3   0  513.75   17.00
   3   3   0  507.25   17.40
  -3   3   0  524.75   21.80
  -3   3   0  528.55   16.00
  -4  -3   0  940.91   23.30
   4  -3   0  885.51   31.50
   4  -3   0  973.90   34.70
   4  -3   0  963.90   25.60
  -4  -3   0  981.50   23.10
   4  -3   0  999.50   32.90
   4  -3   0  961.10   25.70
  -4   3   0  981.90   26.90
   4   3   0  961.10   26.80
   4   3   0  977.40   28.60
   4   3   0  962.90   30.40
  -4   3   0  917.51   23.40
   5  -3   0  273.37   18.20
   5  -3   0  272.37   16.20
   5  -3   0  222.98   10.20
   5  -3   0  257.07   10.70
   5  -3   0  274.87   11.00
  -5   3   0  247.88    8.80
   5   3   0  267.17   11.50
   5   3   0  275.87   12.40
  -5   3   0  256.27   11.80
   5   3   0  243.18   10.00
   5   3   0  248.38   14.40
   6  -3   0  269.77   22.10
   6  -3   0  215.58   17.60
   6  -3   0  221.08    9.90
   6  -3   0  220.88   10.00
   6   3   0  238.08   11.00
   6   3   0  224.48    8.90
  -6   3   0  243.18    8.70
  -6   3   0  228.58   11.10
   6   3   0  228.88    9.20
   7  -3   0  124.49    6.30
   7  -3   0  119.39    6.00
  -7   3   0  118.79    5.20
   7   3   0  120.29    5.40
   7   3   0  118.39    6.10
   0  -4   0  424.36   16.00
   0  -4   0  402.06   12.00
   0   4   0  408.96   12.00
   0   4   0  412.16   16.00
   1  -4   0  361.46   11.40
   1  -4   0  358.46   12.40
  -1  -4   0  372.26   10.90
   1  -4   0  360.86   15.40
  -1  -4   0  382.46   14.40
  -1   4   0  370.36   15.70
  -1   4   0  366.26   11.70
   1   4   0  366.06   14.10
   2  -4   0   38.20    7.30
  -2  -4   0   70.29    5.40
  -2  -4   0   62.29    5.10
  -2  -4   0   51.79    3.60
  -2  -4   0   62.59    3.80
   2  -4   0   58.99    7.40
  -2   4   0   58.29    4.30
  -2   4   0   60.89    7.60
   3  -4   0  175.08   11.20
   3  -4   0  171.28   10.60
  -3  -4   0  161.08    6.90
   3  -4   0  162.08   18.60
  -3  -4   0  162.48    6.30
  -3   4   0  160.18    8.20
  -3   4   0  166.58   12.10
  -3   4   0  164.68    6.10
   3   4   0  160.68    7.90
  -4  -4   0   27.80    3.00
   4  -4   0   30.20    5.90
   4  -4   0   26.80    6.30
   4  -4   0   22.10    3.10
   4  -4   0   30.60    3.80
   4  -4   0   21.90    3.40
  -4   4   0   28.40    4.20
  -4   4   0   34.80    3.50
   4   4   0   21.70    3.40
   4   4   0   28.70    4.90
  -5  -4   0   25.20    2.80
   5  -4   0   25.10    3.80
   5  -4   0   24.60    5.90
   5  -4   0   17.70    6.00
   5  -4   0   18.40    3.00
   5  -4   0   22.30    3.10
   5   4   0   22.80    4.10
  -5   4   0   19.30    2.90
   5   4   0   23.50    3.80
   5   4   0   29.60    4.40
  -5   4   0   18.60    3.90
   6  -4   0    2.40    1.70
   6  -4   0    8.50    5.00
   6  -4   0    3.40    1.80
  -6   4   0    2.80    1.40
   6   4   0    4.40    1.90
  -6   4   0    4.00    2.50
   6   4   0    1.30    1.70
   7  -4   0   40.40    4.00
   7  -4   0   36.30    3.60
   7   4   0   36.60    3.70
  -7   4   0   41.10    2.90
   0  -5   0    8.30    2.00
   0  -5   0    7.50    3.10
   0   5   0    4.30    1.40
   0   5   0    4.40    2.40
   1  -5   0 3366.66   84.59
  -1  -5   0 3424.56   82.29
  -1   5   0 3417.16   84.99
   2  -5   0   15.00    3.70
  -2  -5   0   18.40    4.00
  -2  -5   0   14.00    2.30
  -2  -5   0   17.80    4.00
   2  -5   0   13.50    2.60
   2  -5   0   17.70    4.60
  -2   5   0   11.90    1.80
  -2   5   0   13.20    2.70
  -2   5   0   14.70    4.60
   3  -5   0  146.99   10.50
   3  -5   0  172.58   10.30
   3  -5   0  172.38   11.50
   3  -5   0  158.18    7.20
  -3  -5   0  146.69    6.80
  -3   5   0  159.28    6.30
   3   5   0  147.79    7.50
  -3   5   0  152.08    8.50
   4  -5   0   17.20    3.00
   4  -5   0   10.70    2.50
   4  -5   0   14.90    5.00
   4  -5   0    9.60    3.70
  -4  -5   0   16.20    2.70
   4  -5   0   21.00    3.60
   4   5   0   13.00    2.80
  -4   5   0   13.20    2.80
  -4   5   0   11.60    2.20
  -4   5   0   13.00    3.20
   5  -5   0    7.80    2.30
   5  -5   0    5.50    2.10
   5  -5   0   12.00    2.90
   5  -5   0    7.00    4.30
  -5   5   0    7.80    2.00
   5   5   0    9.10    2.90
  -5   5   0    6.80    2.80
  -5   5   0    8.70    2.50
   6  -5   0    5.20    2.00
   6  -5   0    3.00    1.60
   6   5   0    2.90    1.80
  -6   5   0    3.90    1.50
   7  -5   0   12.80    2.20
   7  -5   0   12.30    2.30
   7   5   0   11.60    2.30
  -7   5   0   16.10    2.10
   0  -6   0  893.41   31.80
   0  -6   0  915.41   24.90
   0  -6   0  897.61   23.60
   0   6   0  894.61   32.20
   0   6   0  911.61   24.60
  -1  -6   0 2826.42   70.59
   1  -6   0 2523.65   71.39
   1  -6   0 2695.23   62.59
  -1  -6   0 2520.25   58.09
   1  -6   0 2581.24   58.19
   1  -6   0 2714.43   61.79
   1   6   0 2618.24   68.99
  -1   6   0 2611.54   61.69
  -1   6   0 2571.24   71.69
  -2  -6   0  205.08   12.60
   2  -6   0  184.58   16.20
  -2  -6   0  200.98    8.70
  -2  -6   0  191.38    8.30
   2  -6   0  182.88   10.80
   2  -6   0  199.48    9.70
  -2   6   0  206.58    9.90
  -2   6   0  189.08    7.00
  -2   6   0  205.58   15.60
  -3  -6   0  150.88    7.50
   3  -6   0  141.29    7.00
   3  -6   0  161.38   11.50
  -3  -6   0  137.49    5.60
   3  -6   0  131.29    6.90
   3  -6   0  134.89    7.60
   3  -6   0  150.78   11.40
  -3  -6   0  124.99    8.90
   3   6   0  140.09    7.40
  -3   6   0  139.49    8.70
  -3   6   0  134.39    7.30
  -3   6   0  143.49    6.10
   4  -6   0   34.40    7.40
   4  -6   0   34.80    4.20
   4  -6   0   29.00    6.80
  -4  -6   0   30.50    3.20
   4  -6   0   33.00    4.20
  -4  -6   0   37.60    4.40
  -4   6   0   36.00    3.80
  -4   6   0   34.50    5.70
  -4   6   0   29.50    4.10
   4   6   0   38.90    5.20
   5  -6   0   37.00    4.40
  -5  -6   0   43.80    4.60
   5  -6   0   42.70    4.70
   5  -6   0   27.70    6.90
   5  -6   0   42.40    4.80
   5  -6   0   42.40    8.60
   5   6   0   41.90    5.80
  -5   6   0   38.50    4.40
  -5   6   0   42.30    4.30
  -5   6   0   31.80    5.60
   6  -6   0    1.10    1.40
   6  -6   0    0.00    1.40
  -6   6   0    2.60    1.30
   6   6   0    1.20    1.60
  -6   6   0    2.00    1.90
   7  -6   0    5.50    1.40
   7  -6   0    2.40    1.30
   7   6   0    4.20    1.40
  -7   6   0    5.60    1.30
   0  -7   0   -0.40    1.00
   0  -7   0    1.00    1.20
   0  -7   0    0.70    1.60
   0  -7   0    1.80    3.00
   0   7   0   -0.40    1.20
   0   7   0    2.10    3.00
   1  -7   0  826.92   21.80
   1  -7   0  877.11   36.30
  -1  -7   0  865.51   34.10
  -1  -7   0  825.02   20.60
   1  -7   0  897.91   25.80
   1  -7   0  853.41   26.00
  -1  -7   0  876.31   21.80
  -1  -7   0  876.81   25.30
  -1   7   0  854.81   21.10
  -1   7   0  850.21   35.40
  -1   7   0  867.11   25.60
  -2  -7   0  184.68    7.10
   2  -7   0  188.68   11.30
  -2  -7   0  193.78    9.50
  -2  -7   0  180.78   13.80
   2  -7   0  186.48    8.10
   2  -7   0  198.98   10.30
   2  -7   0  171.08    8.60
  -2   7   0  196.88    7.40
   2   7   0  188.18    8.60
  -2   7   0  192.78    8.70
  -2   7   0  177.18   10.10
   2   7   0  190.38    8.30
   3  -7   0  293.07   11.50
  -3  -7   0  297.67    9.90
   3  -7   0  302.57   17.40
   3  -7   0  330.47   11.80
   3  -7   0  315.47   17.90
  -3  -7   0  317.57   12.90
   3  -7   0  281.97   11.20
   3  -7   0  296.17   12.50
  -3   7   0  291.57   12.00
  -3   7   0  325.67   14.90
   3   7   0  302.47   10.50
  -3   7   0  312.27   10.40
   3   7   0  307.57   11.90
   4  -7   0   37.90    8.50
  -4  -7   0   28.40    4.40
   4  -7   0   23.10    3.90
  -4  -7   0   29.10    3.40
   4  -7   0   25.00    6.90
   4  -7   0   31.50    4.10
   4  -7   0   29.10    3.80
  -4   7   0   31.90    3.80
  -4   7   0   25.50    5.00
  -4   7   0   26.20    3.80
   4   7   0   33.10    4.50
  -5  -7   0   13.80    2.60
   5  -7   0    9.90    2.50
   5  -7   0    8.50    2.40
   5  -7   0    5.90    4.50
   5  -7   0   14.50    7.70
   5  -7   0    8.10    2.10
  -5   7   0   11.10    3.60
  -5   7   0    6.90    2.00
  -5   7   0   12.50    2.80
   5   7   0    3.90    2.20
   6  -7   0   10.40    2.20
   6  -7   0    7.80    2.50
  -6   7   0   11.20    2.20
   6   7   0    7.40    2.10
   0  -8   0  343.27   14.40
   0  -8   0  336.17   11.20
   0  -8   0  316.57   12.90
   0  -8   0  333.17   12.10
   0  -8   0  336.67   23.20
   0   8   0  316.67   11.70
   0   8   0  322.47   14.50
   1  -8   0   47.70    6.30
   1  -8   0   52.49    6.40
   1  -8   0   38.30    5.30
   1  -8   0   49.30    4.50
   1  -8   0   41.80    4.10
  -1  -8   0   46.80    4.30
  -1  -8   0   44.30    5.70
   1  -8   0   40.80    4.80
  -1  -8   0   39.10    4.60
   1   8   0   44.00    4.80
  -1   8   0   32.90    5.00
  -1   8   0   23.50    8.80
   1   8   0   41.70    5.40
  -1   8   0   50.09    5.20
  -1   8   0   51.39    6.40
  -1   8   0   40.70    3.50
  -2  -8   0   78.89    7.90
  -2  -8   0   73.29    4.60
   2  -8   0   71.19    5.80
  -2  -8   0   59.99    6.00
   2  -8   0   66.59    8.50
   2  -8   0   62.49    5.40
   2  -8   0   71.59    4.90
   2   8   0   67.59    5.10
  -2   8   0   66.79    7.20
  -2   8   0   69.79    8.10
  -2   8   0   70.69    4.20
  -2   8   0   66.59    5.30
   2   8   0   72.89    5.40
   3  -8   0  247.58   10.40
   3  -8   0  255.17   10.60
  -3  -8   0  260.77   12.30
  -3  -8   0  241.08    9.30
   3  -8   0  253.47   11.80
   3  -8   0  228.08   15.40
  -3  -8   0  247.08   11.30
   3  -8   0  257.67   16.90
   3   8   0  240.88    9.50
  -3   8   0  269.97   14.10
   3   8   0  276.37   11.10
  -3   8   0  266.67   11.50
  -4  -8   0  575.14   20.40
  -4  -8   0  601.04   16.90
   4  -8   0  589.04   18.70
   4  -8   0  570.74   17.20
   4  -8   0  566.54   27.90
   4  -8   0  626.94   29.00
   4  -8   0  578.44   19.60
   4   8   0  580.44   18.90
  -4   8   0  565.94   23.10
  -4   8   0  566.54   19.20
  -4   8   0  578.74   22.50
   5  -8   0   78.59    5.10
   5  -8   0   82.99    5.50
  -5  -8   0   76.09    5.00
   5  -8   0   74.29    5.60
  -5   8   0   72.59    5.50
  -5   8   0   82.79    4.90
   5   8   0   78.69    5.80
   6  -8   0   14.60    2.30
   6  -8   0   12.90    2.10
  -6   8   0   13.80    2.20
   6   8   0   15.60    2.80
   0  -9   0   -2.10    2.20
   0  -9   0    0.20    1.20
   0  -9   0   -0.20    1.50
   0  -9   0    0.70    2.00
   0   9   0    1.00    2.20
   0   9   0    3.10    1.90
   0   9   0    1.40    1.40
  -1  -9   0   89.19    6.70
  -1  -9   0   98.29    7.80
   1  -9   0   92.69    7.80
   1  -9   0   93.89    7.00
   1  -9   0  107.69    5.80
   1  -9   0   86.39    6.60
  -1  -9   0   92.79    5.60
   1   9   0   94.59    6.00
  -1   9   0   95.89    7.40
  -1   9   0  100.39    4.80
   1   9   0   86.29    6.50
  -1   9   0   99.49    6.30
   1   9   0  109.39    6.60
  -2  -9   0   85.39    5.40
   2  -9   0   75.39    9.40
   2  -9   0   82.19    5.50
  -2  -9   0   78.49    6.40
  -2  -9   0   71.39    7.70
   2  -9   0  115.79    9.50
   2   9   0   90.29    7.00
  -2   9   0   76.19    4.50
  -2   9   0   75.69    8.40
   2   9   0   84.49    6.20
  -2   9   0   77.89    7.10
  -2   9   0   81.79    6.00
   3  -9   0  515.85   19.00
  -3  -9   0  552.14   16.80
   3  -9   0  531.45   17.20
   3  -9   0  504.45   24.20
  -3  -9   0  537.85   18.60
   3  -9   0  535.05   17.30
   3  -9   0  505.45   32.30
  -3  -9   0  565.54   24.40
  -3   9   0  538.95   18.40
   3   9   0  551.84   16.50
  -3   9   0  540.75   15.80
  -3   9   0  539.55   22.70
   3   9   0  538.25   17.60
  -3   9   0  537.05   20.50
  -4  -9   0  220.58    9.20
   4  -9   0  231.38   10.20
   4  -9   0  230.18    8.80
  -4  -9   0  224.08   12.00
   4  -9   0  245.28   23.30
   4  -9   0  247.58   12.00
   4  -9   0  215.88   16.90
  -4   9   0  222.08   14.00
  -4   9   0  237.98    9.00
  -4   9   0  211.28   10.40
   4   9   0  238.58   11.50
  -5  -9   0  182.58    7.60
   5  -9   0  191.08    8.30
   5  -9   0  191.18    8.50
   5  -9   0  180.28    7.20
  -5   9   0  190.58    8.70
   5   9   0  185.08    8.60
   6  -9   0  236.08    8.50
   6   9   0  254.77    8.90
  -6   9   0  240.18    8.50
  -6   9   0  247.68    8.00
   0 -10   0  450.75   14.70
   0 -10   0  418.06   19.20
   0 -10   0  454.65   17.80
   0 -10   0  442.56   16.80
   0  10   0  455.05   14.80
   0  10   0  404.96   14.10
   0  10   0  451.35   17.40
   1 -10   0  336.77   15.00
  -1 -10   0  334.17   16.40
   1 -10   0  353.66   14.30
   1 -10   0  325.57   11.70
  -1 -10   0  344.97   14.50
  -1  10   0  344.77   15.20
  -1  10   0  348.37   13.20
   1  10   0  345.87   12.90
   1  10   0  352.36   14.50
   2 -10   0  885.41   27.60
  -2 -10   0  889.41   24.30
   2 -10   0  876.51   26.00
  -2 -10   0  827.62   29.80
  -2 -10   0  839.52   26.10
   2  10   0  845.32   23.90
  -2  10   0  859.71   27.50
  -2  10   0  848.32   25.40
  -2  10   0  852.41   22.00
   2  10   0  832.52   25.10
  -3 -10   0  398.56   17.90
  -3 -10   0  411.96   14.10
  -3 -10   0  402.16   15.80
   3 -10   0  416.86   14.20
   3 -10   0  424.06   23.80
   3 -10   0  411.76   14.40
   3 -10   0  408.96   16.40
   3  10   0  409.26   13.30
   3  10   0  418.76   14.60
  -3  10   0  393.96   18.00
  -3  10   0  399.66   20.00
  -3  10   0  410.06   15.40
  -4 -10   0   12.80    3.30
  -4 -10   0   14.40    2.70
   4 -10   0    8.00    2.20
   4 -10   0   12.10    3.20
  -4  10   0   11.90    2.60
   4  10   0   14.40    3.00
  -4  10   0   10.40    2.30
   5 -10   0   34.30    3.50
  -5 -10   0   46.10    6.50
   5 -10   0   46.70    3.70
   5  10   0   36.70    3.90
  -5  10   0   48.60    3.90
  -5  10   0   40.80    3.10
   0 -11   0    1.10    2.50
   0 -11   0   -1.10    2.90
   0 -11   0    1.80    1.70
   0 -11   0    0.70    1.90
   0  11   0   -1.30    1.30
   0  11   0   -0.80    1.20
  -1 -11   0    1.30    1.50
   1 -11   0    5.80    3.50
   1 -11   0    0.30    2.10
  -1 -11   0    1.80    2.50
   1 -11   0    1.70    1.80
  -1 -11   0    0.40    1.60
   1  11   0    1.60    1.80
  -1  11   0    2.40    1.70
   1  11   0    3.10    1.90
  -1  11   0    1.20    1.90
  -2 -11   0  303.87   16.40
   2 -11   0  385.96   20.80
   2 -11   0  283.77   19.00
   2 -11   0  339.47   14.80
  -2 -11   0  338.87   20.00
  -2 -11   0  307.57   12.20
   2  11   0  328.17   13.80
  -2  11   0  327.47   13.20
  -2  11   0  312.27    9.90
  -3 -11   0   18.70    3.60
   3 -11   0   13.40    2.70
  -3 -11   0   15.30    3.10
   3 -11   0   24.70    4.80
  -3  11   0   17.50    2.60
  -3  11   0   23.10    3.50
   3  11   0   20.70    3.50
  -3  11   0   17.00    4.00
   3  11   0   15.60    2.50
  -4 -11   0  127.39    6.50
  -4 -11   0  135.49    7.30
   4 -11   0  131.59    7.50
  -4  11   0  124.99    7.00
   4  11   0  132.59    6.70
  -4  11   0  118.79    5.50
   5 -11   0   12.70    2.00
  -5 -11   0   15.60    2.30
   5  11   0   14.40    2.30
  -5  11   0   10.70    1.70
  -5  11   0   13.60    2.30
   0 -12   0  135.09    9.00
   0 -12   0  135.39    8.70
   0 -12   0  149.29    7.20
   0  12   0  130.79    6.40
   0  12   0  138.59    8.70
  -1 -12   0    8.90    5.00
   1 -12   0    9.80    3.20
   1 -12   0    7.00    2.30
  -1 -12   0    7.40    2.30
  -1 -12   0    7.30    2.40
  -1  12   0    4.70    1.90
   1  12   0    7.80    2.20
  -1  12   0    4.70    2.50
   1  12   0    5.00    2.20
   2 -12   0  133.19    7.70
   2 -12   0  128.59    8.60
  -2 -12   0  132.89    8.10
   2  12   0  137.19    7.40
   2  12   0  129.69    6.80
  -2  12   0  129.19    7.10
  -2  12   0  121.69    8.30
   3 -12   0    4.30    2.40
  -3 -12   0    6.00    2.00
  -3 -12   0    6.00    2.70
  -3  12   0    5.30    2.90
  -3  12   0    5.30    1.80
  -4 -12   0  105.49    6.20
  -4 -12   0  110.19    5.80
   4 -12   0  108.09    6.20
  -4  12   0  114.99    5.90
   4  12   0  111.79    5.60
   0 -13   0    0.60    1.40
   0 -13   0    2.50    1.90
   0 -13   0   -1.90    3.10
   0  13   0    0.70    1.70
  -1 -13   0   19.40    3.10
  -1 -13   0   11.50    2.70
   1 -13   0   10.70    2.70
   1 -13   0   16.70    3.40
   1  13   0   16.80    3.30
  -1  13   0   16.10    3.50
  -1  13   0   12.60    2.30
   2 -13   0   12.20    3.70
   2 -13   0    8.10    2.00
  -2 -13   0    5.00    1.90
  -2 -13   0    8.30    2.90
  -2  13   0    8.00    2.00
   2  13   0   10.10    2.10
  -2  13   0    6.00    2.30
   3 -13   0    3.00    1.80
  -3 -13   0    1.90    1.90
  -3 -13   0    1.80    1.40
  -3  13   0    0.00    1.00
   0 -14   0    2.70    2.40
   0 -14   0   -0.20    1.10
   0  14   0    1.80    1.40
  -1 -14   0    6.00    1.90
  -1 -14   0    5.50    1.90
   1 -14   0    5.50    2.10
   1 -14   0    3.60    1.80
  -1  14   0    5.00    2.10
   1  14   0    5.00    1.80
  -2 -14   0    0.80    1.10
   2 -14   0   -0.30    1.40
  -2 -14   0    1.80    1.50
   2 -14   0    1.40    1.50
  -2  14   0    1.30    1.60
   8   0  -1    0.30    1.30
   7   0  -1   -0.20    1.10
   7   0  -1    2.60    1.70
   7   0  -1    1.20    1.80
   6   0  -1    4.30    1.80
   6   0  -1    4.40    1.80
   6   0  -1    4.60    4.00
   6   0  -1    4.70    3.50
   6   0  -1    9.80    2.60
  -5   0   1   -0.10    0.80
   5   0  -1   -1.00    1.60
   5   0  -1   -0.40    1.90
   5   0  -1    1.00    1.30
   5   0  -1   -1.30    2.10
   5   0  -1   -0.30    1.20
   4   0  -1   13.30    4.00
   4   0  -1    9.60    3.20
  -4   0   1    7.70    1.30
  -4   0   1   10.50    1.60
  -3   0   1  237.58    6.00
   3   0  -1  250.97   11.80
   3   0  -1  224.48   10.50
   2   0  -1   26.00    1.70
   2   0  -1   16.10    2.60
   2   0  -1   27.20    1.70
   2   0  -1   20.70    2.90
   1   0  -1   11.60    1.80
  -1   0   1   12.00    0.90
  -1   0   1   11.30    1.50
   1   0  -1   10.30    1.60
  -1   0   1   11.80    0.80
   1   0  -1   14.20    1.70
   0   0   1   10.90    0.70
   0   0  -1   12.10    1.70
   0   0  -1   13.30    1.20
   0   0   1   10.40    1.60
   0   0   1   13.30    1.00
   0   0  -1   11.60    0.60
  -1   0  -1  194.88    5.60
  -1   0  -1  187.28    5.50
   1   0   1  196.08    7.30
   1   0   1  188.68    5.80
  -1   0  -1  191.58    7.40
  -2   0  -1  533.35   15.60
  -2   0  -1  506.55   13.10
   2   0   1  536.55   16.90
   2   0   1  518.75   15.00
  -2   0  -1  534.75   13.30
  -3   0  -1   37.70    2.80
   3   0   1   37.30    6.00
  -3   0  -1   38.90    3.30
  -3   0  -1   31.90    3.20
   3   0   1   36.70    3.30
   3   0   1   42.40    4.70
   4   0   1    4.00    2.90
  -4   0  -1    8.30    1.90
   4   0   1    8.70    2.50
   4   0   1    6.60    2.50
   5   0   1    0.40    2.60
   5   0   1    0.70    2.10
   5   0   1    1.00    1.80
   5   0   1    0.70    2.60
  -5   0  -1   -0.40    1.10
   5   0   1   -1.90    1.10
  -6   0  -1   10.30    2.60
   6   0   1    2.20    1.90
  -6   0  -1    9.80    2.80
   6   0   1    9.70    2.70
   6   0   1   10.10    2.30
   6   0   1   13.30    6.20
   7   0   1    1.30    1.40
   7   0   1    0.20    1.40
   8  -1  -1   10.40    2.20
   8  -1  -1    9.50    1.50
   8   1  -1    7.50    1.60
   7  -1  -1    2.10    1.50
   7  -1  -1    1.10    1.30
   7   1  -1    2.60    1.60
   7   1  -1    2.50    1.60
   6  -1  -1  101.69   11.80
   6  -1  -1   88.99    6.20
   6  -1  -1   88.39    6.20
   6  -1  -1   98.69    6.40
   6  -1  -1  103.69   13.60
  -6   1   1   96.79    5.20
   6   1  -1   82.29   11.20
   6   1  -1   91.99   10.30
   6   1  -1   91.69    6.10
   6   1  -1   89.39    6.30
   6   1  -1   87.49    5.90
   5  -1  -1   48.00    5.20
   5  -1  -1   53.59    5.30
   5  -1  -1   35.90    6.60
   5  -1  -1   51.69    7.70
   5  -1  -1   46.20    4.90
   5   1  -1   39.80    4.40
   5   1  -1   58.19    8.10
  -5   1   1   54.79    3.90
   5   1  -1   53.39    5.20
   5   1  -1   42.50    7.50
   5   1  -1   44.30    4.80
   4  -1  -1  193.48   11.30
   4  -1  -1  170.48   11.60
  -4   1   1  172.28    7.10
   4   1  -1  184.18   11.30
   4   1  -1  185.68   10.50
  -4   1   1  173.48    6.70
   3  -1  -1  446.16   12.90
   3  -1  -1  475.75   17.60
   3  -1  -1  472.75   12.90
   3  -1  -1  414.16   18.50
  -3   1   1  456.35   12.10
  -3   1   1  447.36   11.80
   3   1  -1  428.36   17.20
   1  -1  -1   91.39    5.00
   1  -1  -1  102.39    4.60
   1  -1  -1   91.59    4.70
   1  -1  -1  104.39    4.60
  -1  -1   1  110.39    4.30
  -1  -1   1  109.69    2.90
  -1  -1   1  106.79    3.00
   1   1  -1  109.59    4.30
   1   1  -1  114.69    4.70
  -1   1   1  106.29    3.60
   1   1  -1  107.99    4.50
   0  -1  -1 8293.67  208.88
   0  -1   1 7973.40  208.98
   0   1   1 8502.65  209.18
   0   1  -1 7961.50  208.88
   1  -1   1  397.46   12.60
  -1  -1  -1  389.66   11.80
  -1  -1  -1  379.46    9.60
  -1  -1  -1  387.76    9.70
  -1   1  -1  393.06   12.60
   1   1   1  399.46   11.00
   1   1   1  383.76    9.80
   1   1   1  385.16   11.80
  -1   1  -1  396.16   10.30
   2  -1   1   17.30    3.20
   2  -1   1   13.20    2.60
  -2  -1  -1   13.50    2.30
   2  -1   1   13.80    2.40
  -2  -1  -1   12.10    1.50
  -2  -1  -1   13.90    1.50
   2   1   1   17.50    3.10
  -2   1  -1   15.00    1.90
   2   1   1   14.00    2.20
  -2   1  -1   12.80    2.70
   2   1   1   16.80    2.50
   3  -1   1   92.39    7.60
  -3  -1  -1   86.59    4.10
  -3  -1  -1   85.29    4.20
   3  -1   1   90.59    6.30
   3  -1   1   93.29    6.30
  -3   1  -1   86.19    4.70
  -3   1  -1   80.89    4.80
  -3   1  -1   94.09    6.30
   3   1   1   88.29    6.90
   3   1   1   84.29    5.50
   4  -1   1  132.59   10.90
   4  -1   1  128.59    7.00
   4  -1   1  137.09    9.10
   4  -1   1  131.89    6.60
  -4  -1  -1  130.89    6.00
   4  -1   1  136.79    6.80
   4   1   1  134.69   10.30
  -4   1  -1  126.79    6.80
   4   1   1  137.19    9.60
   4   1   1  123.99    6.80
   4   1   1  126.49    7.80
  -5  -1  -1  100.19    5.80
   5  -1   1  103.49    6.10
   5  -1   1   98.79   12.90
   5  -1   1   96.39    6.20
   5  -1   1  102.59    6.60
   5   1   1   99.39   12.00
   5   1   1  103.79    7.00
   5   1   1   93.59    6.00
  -5   1  -1   99.69    4.90
   5   1   1   93.19    6.00
  -5   1  -1  104.79    6.70
   6  -1   1   10.00    2.80
   6  -1   1    4.70    2.00
   6  -1   1    9.10    2.30
   6  -1   1    5.80    5.10
  -6   1  -1    5.10    2.20
  -6   1  -1    6.10    2.00
   6   1   1    7.90    2.40
   6   1   1    6.60    2.30
   6   1   1    6.50    5.60
   6   1   1    5.10    1.90
   7  -1   1    3.10    2.90
   7  -1   1    0.80    1.40
   7  -1   1    3.20    1.60
  -7   1  -1    0.70    1.80
   7   1   1    2.40    1.50
   7   1   1    2.30    1.50
   7  -2  -1   72.89    5.00
   7  -2  -1   82.29    5.40
   7   2  -1   77.59    4.90
   7   2  -1   75.89    6.20
   7   2  -1   71.39    5.30
   6  -2  -1  161.18   14.40
   6  -2  -1  170.88   13.30
   6  -2  -1  176.38    8.70
   6  -2  -1  161.68    8.40
   6   2  -1  170.38    8.70
   6   2  -1  177.48    8.40
   6   2  -1  166.68    8.20
  -6   2   1  152.68    7.90
   6   2  -1  168.48   13.10
  -6   2   1  171.38    6.80
   6   2  -1  163.88   11.90
   5  -2  -1   11.20    2.60
   5  -2  -1   14.20    2.80
   5  -2  -1    6.70    3.60
   5  -2  -1   18.20    5.10
   5   2  -1   11.50    2.50
   5   2  -1   14.10    2.90
   5   2  -1   12.00    3.40
   5   2  -1   12.60    2.70
  -5   2   1   11.40    2.60
   5   2  -1    9.40    3.60
   4  -2  -1   98.59    5.80
   4  -2  -1   90.49    6.00
   4  -2  -1  108.79    9.50
   4  -2  -1  117.99    9.20
   4   2  -1  113.19    8.50
  -4   2   1  108.79    5.60
   4   2  -1  101.29    7.60
   3  -2  -1   54.89    6.30
   3  -2  -1   54.79    6.80
   3  -2  -1   57.39    5.10
   3  -2  -1   52.09    6.10
  -3   2   1   53.39    3.40
   3   2  -1   51.49    5.50
  -3   2   1   46.70    3.50
   2  -2  -1   55.19    4.60
  -2  -2   1   49.70    2.40
   2  -2  -1   54.59    4.60
   2  -2  -1   53.79    4.60
   2   2  -1   45.30    3.90
   2   2  -1   52.99    4.00
  -2   2   1   57.29    3.10
   1  -2  -1  171.68    6.50
   1  -2  -1  170.18    5.60
   1  -2  -1  194.68    8.20
  -1  -2   1  168.18    5.00
  -1  -2   1  179.08    7.10
  -1  -2   1  167.18    5.30
   1   2  -1  174.48    6.90
   1   2  -1  165.08    6.30
  -1   2   1  182.98    5.80
   0  -2   1 3277.87  115.09
   0   2   1 3132.59  114.19
   0   2   1 3155.48  112.29
   0   2  -1 3252.47  114.09
   1  -2   1 1267.67   32.90
  -1  -2  -1 1230.78   31.20
  -1  -2  -1 1287.07   31.20
   1  -2   1 1235.38   28.50
   1   2   1 1251.07   28.40
  -1   2  -1 1244.78   32.70
   2  -2   1 3598.54   84.69
  -2   2  -1 3707.93   84.99
  -3  -2  -1  690.13   17.60
   3  -2   1  690.73   23.50
  -3  -2  -1  677.33   17.80
   3  -2   1  697.23   22.50
   3  -2   1  720.13   25.10
   3   2   1  695.23   22.50
  -3   2  -1  717.13   19.70
   3   2   1  685.03   19.80
  -3   2  -1  709.23   25.20
   4  -2   1  218.18    8.90
   4  -2   1  126.09   18.60
   4  -2   1  216.78    8.90
  -4  -2  -1  193.38    7.70
   4  -2   1  211.48   11.90
  -4   2  -1  209.78    7.30
   4   2   1  209.48    9.40
   4   2   1  200.18    8.30
   4   2   1  221.48   12.80
   4   2   1  205.28   10.00
   5  -2   1  211.98    9.20
  -5  -2  -1  202.68    8.30
   5  -2   1  214.68    9.80
   5  -2   1  190.08   15.40
   5  -2   1  210.68    9.40
   5   2   1  195.98   10.00
  -5   2  -1  204.88   10.40
  -5   2  -1  201.08    7.50
   5   2   1  192.98    8.70
   5   2   1  215.88    9.00
   5   2   1  192.68   13.60
   6  -2   1    8.70    2.40
   6  -2   1    8.40    2.50
   6  -2   1   11.30    2.30
   6  -2   1    6.80    5.20
   6   2   1    7.00    2.50
  -6   2  -1   11.30    3.20
   6   2   1    7.30    2.20
  -6   2  -1   11.80    2.80
   7  -2   1   39.10    3.00
   7  -2   1   46.70    3.80
   7   2   1   40.40    3.90
  -7   2  -1   41.10    3.00
   7   2   1   40.90    3.20
   7  -3  -1   15.40    2.80
   7  -3  -1   15.00    2.60
   7   3  -1   16.60    3.70
   7   3  -1   16.40    2.50
  -7   3   1   17.50    2.30
   7   3  -1   17.20    2.50
   6  -3  -1   78.99    5.80
   6  -3  -1   67.09   10.70
   6  -3  -1   81.09    5.90
   6  -3  -1   88.59   11.40
  -6   3   1   82.29    6.20
   6   3  -1   86.19    5.60
  -6   3   1   83.69    4.80
   6   3  -1   91.79   11.00
   6   3  -1   80.19    6.10
   6   3  -1   77.19    5.50
   5  -3  -1   32.30    5.60
   5  -3  -1   33.90    6.90
   5  -3  -1   30.30    5.90
  -5   3   1   40.80    5.00
  -5   3   1   37.60    3.60
   5   3  -1   36.50    4.20
   5   3  -1   39.50    7.20
   5   3  -1   43.40    6.80
   5   3  -1   39.90    4.50
   5   3  -1   33.10    4.40
   4  -3  -1  113.79    9.50
  -4  -3   1  108.09    3.70
   4  -3  -1  102.39    6.00
   4  -3  -1  116.79   10.10
   4  -3  -1  104.69    5.90
   4   3  -1  107.49    7.80
  -4   3   1  110.09    6.40
  -4   3   1  102.49    5.00
   4   3  -1  101.59    7.80
   4   3  -1  106.49    6.40
   3  -3  -1  133.29    8.80
   3  -3  -1  121.59    8.50
  -3  -3   1  124.49    4.30
   3  -3  -1  121.49    8.60
  -3  -3   1  121.49    4.20
  -3   3   1  120.39    6.10
   3   3  -1  122.29    7.20
   2  -3  -1  399.76   14.70
  -2  -3   1  415.96   12.60
  -2  -3   1  395.76   10.80
  -2  -3   1  407.06   10.30
   2  -3  -1  401.86   14.60
   2  -3  -1  388.46   15.50
   2   3  -1  424.36   13.60
  -2   3   1  423.56   12.40
   2   3  -1  399.06   12.80
  -2   3   1  407.26   15.70
   2   3  -1  419.86   12.60
  -1  -3   1 2149.39   51.19
   1  -3  -1 2100.39   52.79
  -1   3   1 2252.47   53.29
   0  -3   1  101.19    4.30
   0  -3  -1   82.09    6.00
   0  -3  -1  102.19    6.90
   0  -3  -1   96.39    4.30
   0  -3   1   95.59    6.40
   0   3   1   89.09    4.10
   0   3  -1   93.29    4.40
   0   3  -1  108.69    6.90
  -1  -3  -1  766.92   18.90
   1  -3   1  778.42   19.50
   1  -3   1  768.22   24.10
  -1  -3  -1  756.42   22.40
  -1  -3  -1  762.32   22.50
  -1   3  -1  769.52   20.00
  -1   3  -1  775.52   24.20
   2  -3   1  735.63   24.70
   2  -3   1  761.92   23.50
  -2  -3  -1  699.13   18.70
  -2  -3  -1  752.52   21.30
  -2  -3  -1  724.93   18.30
  -2  -3  -1  734.63   21.20
  -2   3  -1  750.52   20.20
  -2   3  -1  733.33   24.60
   2   3   1  714.53   19.50
  -3  -3  -1   76.39    4.10
  -3  -3  -1   67.89    4.30
   3  -3   1   84.29    6.90
   3  -3   1   84.19   10.00
  -3   3  -1   71.09    4.50
   3   3   1   70.79    5.50
  -3   3  -1   75.79    6.20
  -3   3  -1   71.49    8.50
   4  -3   1  347.27   16.80
   4  -3   1  352.06   19.60
   4  -3   1  346.47   12.60
  -4  -3  -1  329.57   12.20
   4  -3   1  351.16   12.40
   4  -3   1  338.87   12.10
   4   3   1  346.87   11.70
   4   3   1  356.86   13.20
   4   3   1  337.97   15.50
  -4   3  -1  328.37   13.50
   5  -3   1  193.58    9.00
   5  -3   1  160.78   12.60
   5  -3   1  172.78   15.20
   5  -3   1  168.78    8.60
  -5  -3  -1  169.48    7.50
   5  -3   1  186.48    8.80
   5   3   1  183.18    8.10
  -5   3  -1  176.68   10.00
   5   3   1  179.48    9.60
   6  -3   1    3.10    1.60
   6  -3   1    4.30    2.20
   6  -3   1    6.40    2.20
   6  -3   1    5.30    5.60
   6   3   1    8.50    2.40
  -6   3  -1    6.90    2.00
   6   3   1    5.00    2.00
   7  -3   1   24.60    3.20
   7  -3   1   24.70    2.60
   7   3   1   24.60    3.00
  -7   3  -1   29.80    2.80
   7  -4  -1   41.60    4.10
   7  -4  -1   52.79    4.10
   7   4  -1   48.20    4.70
  -7   4   1   38.70    3.40
   6  -4  -1   17.70    6.10
   6  -4  -1   28.00    4.50
   6  -4  -1   28.90    7.90
   6  -4  -1   20.50    4.10
   6   4  -1   25.70    3.40
   6   4  -1   26.20    5.20
  -6   4   1   14.90    3.30
  -6   4   1   21.20    2.90
   6   4  -1   18.90    2.90
   5  -4  -1  139.89    7.50
   5  -4  -1  147.89    6.30
   5  -4  -1  148.29   12.70
   5  -4  -1  149.69   16.80
   5  -4  -1  133.99    7.50
   5   4  -1  130.39    6.90
   5   4  -1  124.39    9.70
   5   4  -1  138.59    8.00
  -5   4   1  141.59    8.70
   5   4  -1  139.69    7.50
  -5   4   1  131.39    6.20
   4  -4  -1   67.79    4.90
   4  -4  -1   70.79    4.90
   4  -4  -1   75.19    9.50
   4  -4  -1   68.79    4.90
   4  -4  -1   63.29    8.70
  -4  -4   1   75.99    3.70
  -4   4   1   75.19    4.30
   4   4  -1   70.49    6.20
  -4   4   1   70.89    9.70
   4   4  -1   73.59    5.50
   4   4  -1   74.79    6.50
  -3  -4   1  253.67    8.90
   3  -4  -1  274.37   13.90
   3  -4  -1  277.77   13.90
  -3  -4   1  263.97    8.10
   3  -4  -1  253.67   14.40
   3   4  -1  255.17   11.20
  -3   4   1  254.57   10.40
   3   4  -1  259.07   10.90
   2  -4  -1   19.90    4.20
   2  -4  -1   18.90    3.70
   2  -4  -1   15.10    2.40
  -2  -4   1   16.00    3.10
  -2  -4   1   15.60    2.40
  -2  -4   1   17.70    2.20
  -2   4   1   16.70    3.10
   2   4  -1   24.40    3.60
  -2   4   1   15.80    4.10
   1  -4  -1 3294.07   77.89
  -1  -4   1 3319.17   76.09
   1   4  -1 3135.39   71.49
  -1   4   1 3217.28   77.99
   0  -4  -1 1611.04   35.40
   0  -4  -1 1639.04   38.40
   0  -4  -1 1671.03   43.80
   0  -4   1 1674.83   43.90
   0   4   1 1663.73   38.20
   0   4  -1 1643.54   47.10
   0   4  -1 1640.04   38.50
   1  -4   1  296.37   10.00
  -1  -4  -1  309.17   13.30
  -1  -4  -1  301.37    9.70
   1  -4   1  295.17   14.30
  -1  -4  -1  301.27   14.60
  -1   4  -1  264.27   13.60
  -1   4  -1  300.77   10.60
  -2  -4  -1  104.79    5.10
  -2  -4  -1  108.49    7.40
  -2  -4  -1  107.89    7.20
   2  -4   1   88.79    7.10
   2  -4   1   83.39    9.20
  -2   4  -1   99.49    4.40
  -2   4  -1  107.79    6.10
  -2   4  -1  108.39    9.20
   3  -4   1   86.09    8.20
   3  -4   1   94.39    7.90
  -3  -4  -1   87.49    4.90
  -3   4  -1   87.49    4.40
  -3   4  -1   84.39    6.00
   3   4   1   88.79    5.60
   4  -4   1   91.69    5.80
   4  -4   1   93.39    5.90
   4  -4   1   96.69   11.40
   4  -4   1   77.59   10.80
   4  -4   1   97.19    5.90
  -4   4  -1   92.29    4.90
   4   4   1   96.09    6.60
  -4   4  -1   91.79    7.00
   5  -4   1  185.38    8.90
   5  -4   1  192.28   16.30
   5  -4   1  183.88    7.20
   5  -4   1  186.68    9.10
  -5  -4  -1  215.88    9.70
   5  -4   1  202.68    9.20
   5   4   1  181.88    7.90
   5   4   1  194.28    9.90
  -5   4  -1  208.58    8.00
  -5   4  -1  178.68    8.80
  -5   4  -1  193.18   11.10
   6  -4   1    2.60    1.70
   6  -4   1    3.80    1.90
   6   4   1    0.10    1.70
  -6   4  -1    4.90    1.60
   6   4   1    0.30    1.80
   7  -4   1   14.60    2.40
   7  -4   1   13.30    1.90
   7   4   1   13.40    2.40
  -7   4  -1   11.80    1.80
   7  -5  -1   29.90    3.40
   7  -5  -1   31.40    3.50
   7   5  -1   30.30    3.40
   6  -5  -1   11.10    6.00
   6  -5  -1    7.50    2.30
   6  -5  -1    4.10    1.80
   6  -5  -1    2.30    4.10
   6   5  -1    7.00    2.00
  -6   5   1    6.10    2.80
  -6   5   1    8.10    2.00
   6   5  -1    9.80    2.80
   5  -5  -1   83.09    5.20
   5  -5  -1   79.89    5.80
   5  -5  -1   91.99   12.80
  -5  -5   1   81.89    4.50
   5  -5  -1   86.69    5.80
   5  -5  -1   87.89   11.70
  -5   5   1   82.79    5.10
   5   5  -1   92.79    6.60
  -5   5   1   94.19    6.40
  -5   5   1   94.39    7.50
   5   5  -1   85.49    5.80
   4  -5  -1   68.69    9.40
   4  -5  -1   71.39    5.10
   4  -5  -1   57.49    8.50
  -4  -5   1   65.09    4.60
   4  -5  -1   76.19    5.30
   4  -5  -1   76.09    5.20
   4   5  -1   74.59    5.50
  -4   5   1   75.39    5.90
  -4   5   1   61.29    6.70
  -4   5   1   78.89    4.50
   4   5  -1   75.09    5.60
  -3  -5   1  184.48    7.40
   3  -5  -1  181.28   11.70
  -3  -5   1  181.18    7.50
  -3  -5   1  190.38    7.80
   3  -5  -1  184.78   11.60
  -3   5   1  192.38    9.40
  -3   5   1  187.08    7.00
  -2  -5   1  143.49    9.10
   2  -5  -1  124.49   10.20
  -2  -5   1  143.39    6.20
   2  -5  -1  136.49    6.80
   2  -5  -1  125.59    9.10
   2   5  -1  124.29    8.40
  -2   5   1  130.19   10.70
  -2   5   1  122.09    6.80
   1  -5  -1 1877.21   44.70
   1  -5  -1 1860.41   44.60
  -1  -5   1 1864.21   43.80
  -1  -5   1 1893.11   50.19
   1  -5  -1 1899.41   52.49
  -1   5   1 1916.41   44.80
   1   5  -1 1855.91   50.69
  -1   5   1 1877.11   52.09
   0  -5  -1   63.59    7.80
   0  -5   1   52.89    6.90
   0  -5  -1   53.89    2.40
   0  -5  -1   54.59    4.10
   0  -5   1   54.69    4.00
   0   5  -1   49.20    3.90
   0   5  -1   57.59    7.60
   0   5   1   59.99    4.10
   1  -5   1  917.11   24.70
  -1  -5  -1  901.51   30.50
  -1  -5  -1  905.91   29.50
  -1  -5  -1  937.71   24.30
  -1   5  -1  944.41   32.20
  -1   5  -1  934.41   25.30
   2  -5   1  341.17   12.60
   2  -5   1  372.96   16.10
  -2  -5  -1  363.76   12.20
   2  -5   1  363.06   19.40
  -2  -5  -1  353.76   15.90
  -2  -5  -1  349.37   16.00
  -2   5  -1  360.56   13.50
  -2   5  -1  370.76   19.50
  -2   5  -1  354.06   10.40
   3  -5   1  147.09   11.60
  -3  -5  -1  155.58    7.40
   3  -5   1  179.88    7.80
   3  -5   1  196.38   11.40
  -3  -5  -1  185.28   12.30
  -3  -5  -1  190.88    8.30
   3  -5   1  185.58   11.80
   3  -5   1  182.88   12.60
  -3   5  -1  203.18   10.10
  -4  -5  -1    4.60    1.80
   4  -5   1   16.30    6.10
   4  -5   1    3.90    1.90
   4  -5   1    8.10    2.50
   4  -5   1    8.00    3.90
   4  -5   1    8.00    2.20
  -4  -5  -1    9.40    2.60
  -4   5  -1    7.50    2.70
  -4   5  -1    7.30    1.80
  -4   5  -1    8.00    2.10
   5  -5   1    9.10    2.30
   5  -5   1   11.10    2.60
   5  -5   1    8.90    5.10
   5  -5   1   13.20    2.70
   5  -5   1    6.10    4.60
  -5  -5  -1   12.00    2.60
   5   5   1   15.10    3.40
  -5   5  -1    7.90    2.90
  -5   5  -1   17.20    3.20
  -5   5  -1   15.30    2.50
   6  -5   1    9.70    2.20
   6  -5   1   10.50    2.50
  -6   5  -1    6.80    1.90
   6   5   1   13.60    3.10
   7  -5   1    0.00    0.90
   7  -5   1    0.60    1.00
   7   5   1    0.00    0.90
  -7   5  -1   -0.50    0.90
   7  -6  -1    1.60    1.20
   7  -6  -1   -0.20    1.20
  -7   6   1    1.80    1.10
   7   6  -1    1.20    1.30
   6  -6  -1    4.60    2.10
   6  -6  -1    2.50    1.60
  -6   6   1    4.10    2.00
   6   6  -1    5.30    2.20
  -6   6   1    3.90    1.40
  -5  -6   1   18.20    3.00
   5  -6  -1   23.80    6.40
   5  -6  -1   22.60    6.70
   5  -6  -1   17.30    3.30
   5  -6  -1   20.80    3.40
   5  -6  -1   21.10    3.30
   5   6  -1   23.80    3.30
  -5   6   1   22.30    4.70
  -5   6   1   22.50    3.30
  -5   6   1   20.10    3.40
   5   6  -1   20.00    3.70
   4  -6  -1    3.40    1.90
  -4  -6   1    4.20    1.70
   4  -6  -1    0.70    2.50
   4  -6  -1    2.00    1.90
   4  -6  -1    0.60    1.20
   4  -6  -1    2.90    2.60
  -4   6   1    3.80    1.90
   4   6  -1    2.40    1.90
  -4   6   1    0.70    1.60
  -4   6   1    2.00    1.40
   4   6  -1    4.90    2.50
  -3  -6   1 1166.08   28.10
   3  -6  -1 1191.78   30.30
  -3  -6   1 1218.48   30.90
   3  -6  -1 1178.08   38.60
   3  -6  -1 1214.18   37.80
  -3   6   1 1141.09   31.40
  -3   6   1 1249.18   34.00
   3   6  -1 1158.38   33.90
  -3   6   1 1201.88   29.00
   2  -6  -1  420.76   14.90
   2  -6  -1  449.86   17.10
  -2  -6   1  416.06   19.00
   2  -6  -1  395.66   21.60
   2   6  -1  392.06   18.30
  -2   6   1  411.06   22.10
  -2   6   1  419.66   12.00
  -2   6   1  422.16   15.30
  -1  -6   1 1154.18   29.90
  -1  -6   1 1186.38   37.90
   1  -6  -1 1142.29   27.60
   1  -6  -1 1118.99   39.10
   1  -6  -1 1166.68   30.80
   1  -6  -1 1141.09   30.00
  -1   6   1 1125.19   27.50
   1   6  -1 1153.78   37.50
  -1   6   1 1133.89   39.00
  -1   6   1 1177.48   30.70
   0  -6  -1   24.20    3.50
   0  -6   1   21.60    3.20
   0  -6   1   17.80    4.70
   0  -6  -1   21.10    5.20
   0   6  -1   27.40    3.80
   0   6  -1   27.00    5.50
   0   6   1   23.20    3.30
   1  -6   1  203.88    9.20
  -1  -6  -1  203.28   13.90
   1  -6   1  200.38   14.30
   1  -6   1  198.28    7.30
   1  -6   1  207.48   10.50
  -1  -6  -1  210.08   13.80
  -1  -6  -1  192.98    6.90
  -1  -6  -1  196.98    8.90
  -1   6  -1  213.68    9.80
  -1   6  -1  198.58   14.60
  -1   6  -1  203.48    6.90
  -2  -6  -1  271.27   15.40
   2  -6   1  256.57   18.10
  -2  -6  -1  284.07   11.10
   2  -6   1  287.07   14.70
  -2  -6  -1  266.87    8.70
  -2   6  -1  270.77   12.30
  -2   6  -1  263.77   18.40
  -3  -6  -1   11.40    2.60
   3  -6   1   11.70    4.20
   3  -6   1   12.00    2.40
   3  -6   1   11.30    2.20
   3  -6   1   11.50    2.90
  -3  -6  -1   13.50    2.10
   3   6   1   17.20    3.20
  -3   6  -1   14.20    2.90
  -3   6  -1   16.00    3.80
  -3   6  -1   10.40    1.90
   3   6   1   11.40    2.50
  -4  -6  -1    2.50    1.70
  -4  -6  -1    2.50    1.70
   4  -6   1    1.60    3.20
   4  -6   1    2.60    1.80
   4  -6   1    3.20    1.80
   4  -6   1    3.80    1.90
   4  -6   1    5.10    3.70
  -4   6  -1    2.70    1.50
  -4   6  -1    4.00    1.60
  -4   6  -1    1.40    1.90
   4   6   1    4.50    2.00
   5  -6   1    7.80    6.20
   5  -6   1    4.60    4.20
  -5  -6  -1    7.20    2.50
  -5  -6  -1    6.70    2.10
  -5   6  -1   11.20    2.10
  -5   6  -1    4.80    2.00
  -5   6  -1   14.10    3.90
   6  -6   1    0.20    1.20
   6  -6   1    3.60    1.80
  -6   6  -1    1.60    1.20
   6   6   1    1.50    1.40
  -6   6  -1   -1.30    1.30
   7  -7  -1    0.70    1.20
   7  -7  -1    1.90    1.10
  -7   7   1    3.40    1.10
   7   7  -1    0.30    1.10
   6  -7  -1   60.39    4.70
   6  -7  -1   56.99    4.30
  -6   7   1   57.19    3.90
  -6   7   1   55.99    4.50
   6   7  -1   62.19    5.00
   5  -7  -1   17.40    3.40
   5  -7  -1   20.20    3.20
   5  -7  -1   17.90    5.90
   5  -7  -1   26.80    7.00
   5  -7  -1   13.30    2.70
  -5  -7   1   21.60    3.50
  -5  -7   1   21.60    3.30
  -5   7   1   16.90    2.70
  -5   7   1   22.10    3.60
  -5   7   1   16.90    4.40
   5   7  -1   24.30    4.10
   4  -7  -1    9.20    4.20
   4  -7  -1   12.00    4.80
   4  -7  -1   10.70    2.90
  -4  -7   1   10.70    2.30
   4  -7  -1    9.30    2.30
  -4  -7   1   10.00    2.70
  -4   7   1    6.40    2.00
   4   7  -1    5.40    2.00
  -4   7   1    9.50    3.20
  -4   7   1   14.30    3.20
   3  -7  -1  236.48    9.40
   3  -7  -1  201.78    9.20
   3  -7  -1  231.48   15.00
  -3  -7   1  212.88    8.00
   3  -7  -1  197.08    8.60
   3  -7  -1  218.08   13.60
   3  -7  -1  208.38    9.90
  -3  -7   1  218.88   10.00
  -3   7   1  230.08    8.50
   3   7  -1  197.38    9.20
   3   7  -1  214.28    8.60
  -3   7   1  230.28   10.30
   3   7  -1  228.58    9.70
  -3   7   1  243.48   12.20
  -2  -7   1  441.66   13.20
   2  -7  -1  473.65   18.30
  -2  -7   1  414.06   22.00
   2  -7  -1  442.26   15.10
   2  -7  -1  450.25   15.80
  -2  -7   1  471.65   16.10
  -2   7   1  443.36   17.00
   2   7  -1  456.25   14.40
  -2   7   1  441.26   15.20
   2   7  -1  444.76   14.80
   1  -7  -1 2192.48   50.39
  -1  -7   1 2217.38   53.99
   1  -7  -1 2182.88   67.39
   1  -7  -1 2238.78   53.49
  -1  -7   1 2274.87   65.69
  -1  -7   1 2209.28   50.59
   1  -7  -1 2218.08   54.89
  -1   7   1 2258.07   54.89
  -1   7   1 2200.48   49.50
   1   7  -1 2288.07   65.69
   0  -7   1  295.47    9.90
   0  -7  -1  284.97   18.90
   0  -7  -1  297.47   12.30
   0  -7  -1  296.27   19.00
   0  -7   1  282.27   18.70
   0  -7   1  290.47   12.20
   0  -7  -1  288.07    9.60
   0   7  -1  300.57   19.10
   0   7  -1  294.17   12.10
   0   7   1  284.47   11.80
   1  -7   1   70.99   11.90
   1  -7   1   58.39    6.30
  -1  -7  -1   61.29   10.00
   1  -7   1   60.39    7.50
   1  -7   1   62.69    4.10
  -1  -7  -1   65.69    3.90
  -1  -7  -1   51.69    5.60
  -1   7  -1   46.50    9.10
  -1   7  -1   57.59    6.30
  -1   7  -1   56.19    6.30
  -1   7  -1   55.49    3.40
   2  -7   1  372.26   13.60
   2  -7   1  374.26   12.90
   2  -7   1  386.96   18.20
  -2  -7  -1  386.36   17.80
   2  -7   1  350.06   13.90
  -2   7  -1  344.27   13.00
  -2   7  -1  379.76   15.80
   2   7   1  362.36   15.50
  -2   7  -1  364.86   11.30
   3  -7   1   48.40    8.60
   3  -7   1   48.70    4.90
   3  -7   1   46.30    7.40
   3  -7   1   49.20    4.60
  -3  -7  -1   50.09    4.30
  -3  -7  -1   49.90    5.90
   3  -7   1   70.39    7.50
  -3   7  -1   45.40    4.20
  -3   7  -1   35.40    5.60
  -3   7  -1   44.70    4.80
   3   7   1   43.10    5.00
   3   7   1   44.30    3.90
   4  -7   1    3.40    5.30
   4  -7   1    5.70    2.30
  -4  -7  -1   10.50    2.90
   4  -7   1    8.90    2.90
   4  -7   1    6.60    4.20
  -4  -7  -1    8.50    2.20
   4  -7   1    7.50    2.50
  -4   7  -1    8.30    3.40
  -4   7  -1   10.00    2.20
   4   7   1   16.90    3.60
  -4   7  -1    9.20    2.60
  -5  -7  -1    0.40    1.50
   5  -7   1    3.40    2.00
   5  -7   1    2.00    4.60
   5  -7   1    2.00    1.60
   5  -7   1    0.70    1.40
  -5   7  -1    0.20    1.30
   5   7   1    2.80    2.10
  -5   7  -1    0.90    2.50
   6  -7   1    1.90    1.40
   6  -7   1    1.90    1.30
  -6   7  -1    2.60    1.30
   6   7   1    2.20    1.50
  -6   7  -1    2.90    1.50
   6  -8  -1   63.59    4.50
   6  -8  -1   53.89    3.80
  -6   8   1   60.89    3.80
  -6   8   1   60.69    4.30
   6   8  -1   60.49    4.70
   5  -8  -1  394.66   13.70
  -5  -8   1  361.26   14.40
   5  -8  -1  344.67   24.50
   5  -8  -1  412.26   12.80
   5  -8  -1  349.77   22.10
   5  -8  -1  396.86   14.10
   5   8  -1  403.96   14.50
  -5   8   1  387.66   18.40
  -5   8   1  389.16   14.40
  -5   8   1  398.96   12.80
   4  -8  -1   34.60    8.00
   4  -8  -1   37.50    5.30
  -4  -8   1   35.40    5.00
   4  -8  -1   26.40    3.60
   4  -8  -1   34.70    9.10
   4  -8  -1   32.60    4.30
  -4  -8   1   36.00    4.00
   4   8  -1   35.70    4.80
  -4   8   1   29.50    4.30
  -4   8   1   31.10    3.70
  -4   8   1   39.50    6.50
   3  -8  -1  674.83   19.80
  -3  -8   1  668.63   22.30
   3  -8  -1  622.04   19.60
   3  -8  -1  654.13   26.70
  -3  -8   1  688.43   18.90
  -3  -8   1  643.84   21.00
   3  -8  -1  713.03   29.70
   3   8  -1  654.33   18.90
  -3   8   1  648.24   26.90
  -3   8   1  652.23   24.10
  -3   8   1  671.83   18.50
   2  -8  -1   34.00    4.50
   2  -8  -1   32.50    3.70
  -2  -8   1   26.50    4.00
  -2  -8   1   31.40    3.70
  -2  -8   1   37.20    5.10
   2  -8  -1   41.40    6.30
   2  -8  -1   32.80    4.80
  -2   8   1   27.20    3.70
  -2   8   1   31.80    3.20
  -2   8   1   31.20    5.20
   2   8  -1   43.20    4.80
   2   8  -1   29.60    4.00
   1  -8  -1   21.30   14.90
   1  -8  -1   31.20    4.80
   1  -8  -1   39.40    5.00
   1  -8  -1   39.00    4.80
   1  -8  -1   34.10    3.80
   1  -8  -1   39.90    5.60
  -1  -8   1   28.70    3.50
   1  -8  -1   27.00    9.10
  -1  -8   1   35.60    5.00
  -1  -8   1   33.80    4.70
  -1   8   1   24.70    6.50
   1   8  -1   31.50    4.40
  -1   8   1   31.30    3.10
   1   8  -1   31.90    3.70
  -1   8   1   36.70    4.30
  -1   8   1   35.50    5.30
   0  -8  -1  492.65   14.50
   0  -8   1  487.55   17.80
   0  -8  -1  483.75   19.80
   0  -8   1  474.15   14.60
   0  -8  -1  515.65   42.60
   0  -8  -1  517.35   18.70
   0  -8   1  476.95   18.00
   0  -8   1  441.96   27.20
   0  -8   1  470.95   16.90
   0   8   1  471.05   15.20
   0   8  -1  491.05   15.30
   1  -8   1  397.56   28.00
  -1  -8  -1  432.36   18.40
   1  -8   1  406.46   12.80
   1  -8   1  382.66   16.40
   1  -8   1  421.76   15.90
  -1  -8  -1  402.96   12.80
  -1  -8  -1  398.36   14.70
   1  -8   1  416.96   17.70
   1  -8   1  431.36   13.80
   1  -8   1  412.06   15.10
  -1   8  -1  497.75   21.00
  -1   8  -1  426.66   28.80
   1   8   1  390.26   14.90
  -1   8  -1  409.56   16.70
   1   8   1  383.56   13.60
  -1   8  -1  400.56   14.10
   2  -8   1   57.39    5.60
   2  -8   1   72.89   10.20
  -2  -8  -1   56.39    6.70
   2  -8   1   65.89    7.20
   2  -8   1   67.99    5.00
  -2  -8  -1   67.99    4.40
  -2  -8  -1   59.79    5.20
  -2   8  -1   60.89    4.00
  -2   8  -1   67.09    5.30
  -2   8  -1   56.89    6.30
   2   8   1   69.39    5.00
   2   8   1   63.09    5.20
  -2   8  -1   72.69    8.70
   3  -8   1  115.99   13.20
   3  -8   1  116.89    7.00
   3  -8   1  125.69    7.30
  -3  -8  -1  121.69    8.40
   3  -8   1  132.29   12.10
   3  -8   1  130.99    8.30
  -3  -8  -1  126.79    6.20
  -3  -8  -1  116.69    7.50
   3   8   1  120.29    6.30
  -3   8  -1  123.19    9.70
   3   8   1  117.59    7.10
  -3   8  -1  119.99    7.40
  -4  -8  -1   44.70    6.00
   4  -8   1   55.09    6.50
   4  -8   1   35.30    4.20
  -4  -8  -1   40.70    4.20
   4  -8   1   31.00    7.20
   4  -8   1   38.70    4.40
   4  -8   1   50.59   10.00
  -4   8  -1   46.30    7.50
   4   8   1   35.90    4.60
  -4   8  -1   46.10    5.50
  -4   8  -1   36.30    4.10
  -5  -8  -1    0.80    1.50
   5  -8   1    0.10    1.20
   5  -8   1    3.40    1.70
   5  -8   1    2.10    1.70
   5   8   1    1.00    1.50
  -5   8  -1    2.30    1.30
  -5   8  -1    1.90    1.50
   6  -8   1  147.99    6.30
   6  -8   1  136.79    5.60
  -6   8  -1  142.49    5.70
   6   8   1  145.99    6.60
  -6   8  -1  143.89    6.10
   6  -9  -1   51.99    3.70
  -6  -9   1   49.20    4.90
   6   9  -1   53.39    4.00
  -6   9   1   55.09    5.40
  -6   9   1   47.70    3.60
   5  -9  -1  286.77   11.20
   5  -9  -1  279.97   11.20
   5  -9  -1  286.27   10.50
  -5  -9   1  306.07   10.60
  -5   9   1  290.27   11.60
   5   9  -1  284.27   11.40
  -5   9   1  293.37   10.20
   4  -9  -1   82.99    5.80
   4  -9  -1   70.09   10.50
  -4  -9   1   75.79    5.20
   4  -9  -1   51.19    9.40
  -4  -9   1   80.09    8.10
   4  -9  -1   66.49    5.80
  -4   9   1   82.89    5.10
  -4   9   1   81.79    9.90
   4   9  -1   77.99    5.90
  -4   9   1   76.09    6.10
  -3  -9   1  311.17   13.20
   3  -9  -1  327.87   12.20
  -3  -9   1  303.17   11.50
   3  -9  -1  309.57   17.30
   3  -9  -1  320.77   12.40
  -3  -9   1  300.87   14.60
   3  -9  -1  314.27   13.70
   3  -9  -1  327.07   20.30
  -3   9   1  327.67   13.30
  -3   9   1  300.77   16.10
   3   9  -1  316.77   11.40
  -3   9   1  323.47   10.90
  -3   9   1  305.27   14.60
   3   9  -1  321.67   12.50
   2  -9  -1   13.80    2.60
   2  -9  -1   21.40    4.00
  -2  -9   1   15.80    3.00
  -2  -9   1   12.20    3.00
  -2  -9   1   12.80    3.50
   2   9  -1   20.80    3.60
  -2   9   1   17.20    4.40
  -2   9   1   21.30    3.70
  -2   9   1   19.10    2.70
  -2   9   1   22.20    5.10
   1  -9  -1  159.48    8.80
  -1  -9   1  164.58    7.70
   1  -9  -1  149.88    9.20
   1  -9  -1  161.78    7.20
  -1  -9   1  153.58    8.80
   1  -9  -1  153.88   10.30
  -1  -9   1  169.18   10.30
  -1   9   1  150.58    9.40
   1   9  -1  155.38    8.70
  -1   9   1  166.68    6.30
   1   9  -1  163.08    7.20
   1   9  -1  154.28    7.70
  -1   9   1  156.88    8.10
   0  -9  -1  260.77   10.00
   0  -9   1  263.27   13.60
   0  -9  -1  260.97   11.60
   0  -9  -1  259.97   12.40
   0  -9   1  245.88   12.20
   0  -9   1  251.47   10.00
   0  -9  -1  247.88   13.20
   0  -9   1  247.18   12.30
   0  -9   1  278.57   12.10
   0   9  -1  268.17   10.20
   0   9  -1  267.97   12.20
   0   9   1  243.68   10.10
   0   9   1  253.67   12.10
   0   9  -1  255.67   10.10
   1  -9   1 1044.70   29.60
  -1  -9  -1 1025.70   29.00
   1  -9   1  998.40   30.00
  -1  -9  -1 1023.70   26.60
  -1  -9  -1 1011.40   32.00
   1  -9   1  958.10   32.60
   1  -9   1 1013.80   26.20
   1   9   1  998.40   26.60
  -1   9  -1  997.00   30.20
  -1   9  -1 1018.40   24.70
   1   9   1 1024.80   29.50
  -1   9  -1 1012.90   27.90
  -2  -9  -1  153.78    8.80
   2  -9   1  143.69    9.00
   2  -9   1  133.99   11.30
   2  -9   1  146.89    7.80
   2  -9   1  143.39    8.40
  -2  -9  -1  146.09    9.90
  -2  -9  -1  145.49    7.20
  -2   9  -1  139.69    6.40
   2   9   1  148.49    8.20
  -2   9  -1  149.69    8.20
  -2   9  -1  149.09   10.70
   2   9   1  139.59    7.40
   3  -9   1  412.66   16.30
   3  -9   1  423.26   15.00
  -3  -9  -1  426.36   15.60
  -3  -9  -1  424.86   18.00
   3  -9   1  428.86   23.20
  -3  -9  -1  411.46   13.80
   3  -9   1  419.36   22.70
   3  -9   1  421.36   14.30
   3   9   1  431.46   14.90
   3   9   1  402.16   13.40
  -3   9  -1  396.46   19.30
  -3   9  -1  391.86   17.20
  -3   9  -1  407.26   15.30
  -4  -9  -1    0.60    1.30
   4  -9   1   -1.40    1.50
   4  -9   1   -3.20    3.30
  -4  -9  -1    0.20    1.90
   4  -9   1   -4.50    3.50
   4  -9   1   -0.70    1.10
   4  -9   1   -0.50    1.60
  -4   9  -1    2.90    1.70
  -4   9  -1    0.70    3.00
  -4   9  -1    0.70    1.00
   4   9   1    1.30    1.60
  -5  -9  -1    2.80    1.70
   5  -9   1    2.70    1.40
   5  -9   1    4.40    1.60
  -5   9  -1    3.10    1.40
   5   9   1    2.70    1.50
  -6  10   1   21.80    2.40
  -6  10   1   27.00    2.30
   6  10  -1   19.30    2.50
   5 -10  -1   41.60    4.40
  -5 -10   1   42.20    4.10
  -5  10   1   41.30    5.80
   5  10  -1   40.90    4.20
  -4 -10   1  115.59    7.50
   4 -10  -1  121.19    7.80
  -4 -10   1  112.19    8.00
   4 -10  -1  110.09    6.50
  -4  10   1  119.09    7.40
   4  10  -1  117.09    6.90
  -4  10   1  118.49    5.80
   3 -10  -1   23.00    3.30
   3 -10  -1   22.80    3.60
  -3 -10   1   20.00    4.60
  -3 -10   1   25.60    4.30
   3 -10  -1   28.50    7.00
  -3 -10   1   21.50    3.60
   3 -10  -1   23.40    4.50
  -3  10   1   17.20    5.00
   3  10  -1   27.50    3.80
  -3  10   1   26.00    3.30
   3  10  -1   29.20    4.30
  -3  10   1   28.10    5.00
  -3  10   1   24.30    4.00
  -2 -10   1   -0.20    1.40
   2 -10  -1    7.00    2.50
   2 -10  -1    4.90    2.60
  -2 -10   1    3.60    2.30
   2  10  -1    2.20    2.10
  -2  10   1   -1.00    3.30
  -2  10   1    2.40    1.40
  -2  10   1    8.40    3.40
  -2  10   1    7.80    2.50
   2  10  -1    2.90    1.90
   1 -10  -1   79.09    9.20
  -1 -10   1   56.59    7.90
  -1 -10   1   52.09    6.30
   1 -10  -1   64.09    6.70
   1 -10  -1   61.39    4.70
   1  10  -1   58.29    5.50
   1  10  -1   60.49    7.10
  -1  10   1   52.49    6.60
  -1  10   1   60.09    5.20
   0 -10  -1  182.08    8.40
   0 -10   1  173.88    9.70
   0 -10  -1  178.28   11.20
   0 -10  -1  150.88   10.90
   0 -10  -1  182.98    9.90
   0 -10   1  173.48    8.20
   0 -10   1  166.28   11.50
   0  10  -1  177.08   10.10
   0  10   1  173.28   10.00
   0  10  -1  175.38    8.70
   0  10  -1  166.58    8.00
   0  10   1  171.38    8.20
  -1 -10  -1  391.86   15.80
  -1 -10  -1  392.66   13.70
   1 -10   1  395.16   12.90
   1 -10   1  419.86   16.10
  -1 -10  -1  396.76   18.20
  -1  10  -1  403.96   16.60
  -1  10  -1  385.16   14.20
   1  10   1  398.96   15.70
   1  10   1  391.66   13.30
  -2 -10  -1   48.30    5.80
  -2 -10  -1   37.60    6.10
   2 -10   1   42.40    5.30
   2 -10   1   75.69   10.00
  -2 -10  -1   39.70    4.60
   2  10   1   50.69    5.90
  -2  10  -1   43.30    5.20
  -2  10  -1   45.20    4.00
   2  10   1   41.70    4.70
  -2  10  -1   54.49    7.00
  -3 -10  -1  335.77   12.10
   3 -10   1  335.27   20.80
  -3 -10  -1  342.57   16.40
   3 -10   1  353.06   14.90
  -3 -10  -1  334.97   13.70
   3 -10   1  326.37   11.80
  -3  10  -1  317.77   11.00
   3  10   1  316.27   11.10
   3  10   1  329.67   12.40
  -3  10  -1  329.47   14.60
  -3  10  -1  327.57   13.30
   4 -10   1  185.78    9.50
  -4 -10  -1  180.88    8.00
  -4 -10  -1  184.98    9.10
  -4  10  -1  182.28    7.40
  -4  10  -1  190.68    9.10
   4  10   1  185.98    8.50
  -5 -10  -1  174.58    6.90
   5 -10   1  171.98    6.70
   5  10   1  169.78    7.30
  -5  10  -1  171.78    6.50
  -5 -11   1   -0.20    1.20
   5 -11  -1    0.60    1.20
  -5  11   1    1.00    1.20
  -5  11   1    0.50    1.00
   5  11  -1    1.60    1.60
  -4 -11   1    7.00    2.10
  -4 -11   1    4.70    2.20
   4 -11  -1    6.00    2.30
  -4  11   1    7.20    1.80
   4  11  -1    9.50    2.70
  -4  11   1    8.30    2.30
  -3 -11   1   20.70    3.40
   3 -11  -1   22.10    4.60
  -3 -11   1   19.00    3.40
   3 -11  -1   18.80    3.00
   3 -11  -1   23.20    6.80
  -3 -11   1   19.70    4.80
  -3  11   1   15.30    3.00
   3  11  -1   16.90    3.40
  -3  11   1   22.60    4.60
  -3  11   1   23.40    3.80
   3  11  -1   19.10    2.90
   2 -11  -1   36.00    4.80
  -2 -11   1   31.30    5.80
   2 -11  -1   41.70    8.50
  -2 -11   1   31.50    4.40
  -2 -11   1   33.50    5.00
   2 -11  -1   47.70    7.50
  -2  11   1   38.80    6.20
   2  11  -1   31.60    4.60
   2  11  -1   32.70    4.50
  -2  11   1   31.90    4.20
   1 -11  -1    7.80    2.50
   1 -11  -1   16.90    4.30
  -1 -11   1    6.00    2.40
  -1 -11   1    8.60    2.60
  -1 -11   1    6.60    3.30
   1 -11  -1   11.50    2.70
   1  11  -1   11.30    2.80
  -1  11   1   11.90    2.60
   1  11  -1    9.20    2.70
  -1  11   1   11.20    3.50
   0 -11  -1   29.50    4.50
   0 -11   1   32.40    6.40
   0 -11   1   30.40    5.20
   0 -11  -1   27.50    5.10
   0 -11   1   41.30    5.90
   0 -11  -1   32.20    4.10
   0 -11   1   31.90    4.20
   0 -11  -1   35.70    6.70
   0  11  -1   42.90    4.70
   0  11  -1   37.70    4.10
   0  11   1   39.50    4.30
   0  11   1   26.20    4.50
   0  11  -1   25.30    4.50
   1 -11   1  145.59    9.60
  -1 -11  -1  146.19    9.00
   1 -11   1  158.98    9.20
  -1 -11  -1  152.68    7.80
  -1 -11  -1  144.89   11.30
   1  11   1  133.09    7.00
   1  11   1  128.29    8.40
  -1  11  -1  140.49    7.70
  -1  11  -1  136.39    9.20
   2 -11   1   42.90    5.10
  -2 -11  -1   36.00    4.50
  -2 -11  -1   35.20    6.50
   2 -11   1   45.40    6.40
  -2 -11  -1   37.40    4.80
  -2  11  -1   33.70    3.40
  -2  11  -1   40.10    5.70
  -2  11  -1   38.40    4.50
   2  11   1   37.40    4.40
   2  11   1   40.20    5.20
  -3 -11  -1    7.00    2.20
   3 -11   1    5.30    2.50
  -3 -11  -1    1.50    1.70
  -3  11  -1    4.20    1.60
  -3  11  -1    0.90    1.20
   3  11   1    3.40    2.00
   3  11   1    4.30    1.50
  -3  11  -1    1.20    2.80
  -4 -11  -1   55.39    4.20
   4 -11   1   62.89    6.80
  -4 -11  -1   52.69    7.10
  -4  11  -1   50.89    3.60
   4  11   1   48.00    3.90
  -4  11  -1   48.20    5.00
  -5 -11  -1   50.69    3.30
  -5  11  -1   49.20    3.40
   5  11   1   48.90    3.30
  -4 -12   1  106.19    5.70
   4 -12  -1  116.19    6.50
  -4 -12   1  103.49    6.10
   4  12  -1  118.59    5.80
  -4  12   1  116.19    6.00
   3 -12  -1    3.00    2.30
  -3 -12   1    3.60    1.90
  -3 -12   1    2.60    1.80
  -3  12   1    0.30    2.20
   3  12  -1    4.30    2.10
  -3  12   1    0.40    1.20
  -2 -12   1    4.10    2.00
   2 -12  -1    3.20    1.80
   2 -12  -1    5.10    2.60
  -2 -12   1    2.20    1.80
  -2  12   1    6.60    2.60
  -2  12   1    5.70    2.00
   2  12  -1    5.00    2.00
   2  12  -1    7.50    2.40
   1 -12  -1   12.10    2.80
  -1 -12   1   19.90    3.40
  -1 -12   1   20.70    4.20
   1 -12  -1   17.00    4.00
  -1 -12   1   11.90    5.80
   1  12  -1   16.70    2.80
   1  12  -1   16.40    3.80
  -1  12   1   15.50    3.70
  -1  12   1   12.60    2.50
   0 -12  -1   77.69    5.20
   0 -12   1   71.79    5.10
   0 -12   1   78.09    6.50
   0 -12   1   69.89    7.90
   0 -12  -1   65.69    7.40
   0  12  -1   75.49    6.50
   0  12   1   67.09    6.10
   0  12   1   70.29    4.50
  -1 -12  -1   31.90    4.20
   1 -12   1   53.69    7.10
  -1 -12  -1   31.20    4.50
   1 -12   1   40.00    5.10
  -1  12  -1   30.90    4.70
  -1  12  -1   36.40    4.20
   1  12   1   44.90    5.70
   2 -12   1  103.19    6.50
  -2 -12  -1  116.09    6.70
  -2 -12  -1  112.79    7.40
   2 -12   1  110.59    7.70
   2  12   1  123.49    6.90
  -2  12  -1  106.29    7.70
  -2  12  -1  114.09    6.60
   2  12   1  119.69    6.40
  -3 -12  -1   13.20    2.60
  -3 -12  -1   15.00    2.80
   3 -12   1   10.20    2.60
  -3  12  -1   16.00    3.40
   3  12   1   14.90    2.50
  -3  12  -1   14.10    2.60
  -4 -12  -1   15.40    2.30
   4 -12   1   13.00    2.30
  -4 -13   1   20.70    2.50
   4 -13  -1   22.00    2.80
  -4  13   1   28.40    2.90
   4  13  -1   20.50    2.10
  -3 -13   1   23.20    3.20
   3 -13  -1   23.90    3.80
  -3 -13   1   26.60    3.50
   3  13  -1   25.20    2.80
  -3  13   1   23.80    3.70
  -3  13   1   25.90    3.00
  -2 -13   1    5.80    1.90
   2 -13  -1    5.60    2.50
  -2 -13   1   10.40    2.70
   2 -13  -1    6.80    2.40
   2  13  -1   10.10    2.10
  -2  13   1    9.80    3.90
   2  13  -1    8.80    2.30
  -2  13   1    8.10    2.00
  -1 -13   1   15.50    3.30
   1 -13  -1   16.60    3.20
   1 -13  -1   12.70    2.90
  -1 -13   1   16.90    2.80
  -1  13   1   11.80    2.90
  -1  13   1   18.10    2.70
   1  13  -1   10.90    2.80
   0 -13   1   10.70    2.70
   0 -13  -1    4.20    2.00
   0 -13   1    1.10    1.60
   0 -13  -1    2.50    2.50
   0 -13  -1    4.70    2.10
   0 -13   1    3.70    2.70
   0  13   1    6.30    2.30
   0  13  -1    2.10    1.80
  -1 -13  -1   34.40    4.50
   1 -13   1   47.00    5.20
  -1 -13  -1   44.90    4.40
   1 -13   1   54.89    6.30
   1  13   1   52.19    5.90
  -1  13  -1   52.59    6.50
   2 -13   1    0.10    1.30
  -2 -13  -1    1.40    1.40
  -2 -13  -1   -1.30    0.90
   2 -13   1    0.00    1.50
   2  13   1    0.50    1.20
  -2  13  -1    0.80    1.50
   3 -13   1   23.80    3.40
  -3 -13  -1   23.60    2.90
  -3 -13  -1   20.50    2.90
  -3  13  -1   23.50    3.60
  -2 -14   1   19.00    2.90
  -2 -14   1   12.50    2.20
   2 -14  -1   16.80    2.20
   2 -14  -1   16.80    2.80
  -2  14   1   15.60    3.00
   2  14  -1   17.50    2.10
  -1 -14   1    1.60    1.40
  -1 -14   1    3.30    1.80
   1 -14  -1    2.40    1.90
   1 -14  -1    2.10    1.50
  -1  14   1    2.30    1.70
   1  14  -1    3.10    1.60
   0 -14   1    5.50    2.80
   0 -14  -1    6.90    2.00
   0 -14   1   14.20    2.80
   0 -14  -1    8.40    3.10
   0  14   1   11.80    2.40
   0  14  -1    9.70    2.40
   1 -14   1   18.80    3.20
  -1 -14  -1   21.00    3.00
   1 -14   1   24.30    3.10
  -1 -14  -1   19.40    2.70
  -1  14  -1   20.20    3.10
   1  14   1   23.70    3.10
  -2 -14  -1    9.60    2.30
  -2 -14  -1    9.60    1.80
   2 -14   1    9.60    2.30
  -2  14  -1    6.30    1.30
  -2  14  -1    5.10    2.80
   8   0  -2    1.10    1.30
   8   0  -2    2.10    1.40
   7   0  -2   26.00    3.50
   7   0  -2   24.30    3.70
   6   0  -2   36.80    4.70
   6   0  -2   28.10    3.90
   6   0  -2   27.00    6.90
   6   0  -2   28.60    6.50
   6   0  -2   28.90    3.90
   5   0  -2  274.27   16.40
   5   0  -2  263.27   10.80
   5   0  -2  269.47   10.90
   5   0  -2  267.77   11.00
   5   0  -2  270.27   15.40
  -3   0   2    5.40    1.00
  -3   0   2    6.30    1.10
   3   0  -2    4.80    2.00
   3   0  -2    3.90    2.00
   3   0  -2    6.80    1.10
  -1   0   2  312.67    8.60
  -1   0   2  333.67   11.40
   1   0  -2  330.57    9.90
   1   0  -2  316.57    8.70
   0   0  -2   75.19    5.40
   0   0   2   84.29    3.50
   0   0   2   87.39    5.60
  -1   0  -2  669.63   20.50
   1   0   2  680.33   20.70
  -1   0  -2  679.43   17.30
   1   0   2  676.83   15.10
  -2   0  -2  527.05   18.40
   2   0   2  501.05   17.50
  -3   0  -2  413.86   16.40
  -3   0  -2  454.95   13.90
   3   0   2  416.66   13.60
   3   0   2  415.86   17.80
   4   0   2  224.68    9.10
   4   0   2  245.08    9.70
   4   0   2  245.98   15.20
  -4   0  -2  250.17   10.70
   4   0   2  231.38   10.30
   5   0   2   -1.80    1.30
   5   0   2    1.80    1.80
  -5   0  -2    0.50    1.30
  -5   0  -2    1.40    2.00
   5   0   2    1.50    1.80
  -6   0  -2   70.79    4.30
   6   0   2   80.99    5.90
   6   0   2   64.19    5.00
   7   0   2  380.66   11.30
   7   0   2  398.46   11.40
   8  -1  -2   57.49    3.50
   8  -1  -2   62.29    3.80
   8   1  -2   57.49    3.20
   8   1  -2   66.19    3.80
   7  -1  -2   13.50    2.90
   7  -1  -2   11.70    2.70
   7   1  -2    8.90    2.30
   7   1  -2   11.10    2.40
   6  -1  -2  446.06   22.50
   6  -1  -2  416.26   23.30
   6  -1  -2  416.16   15.10
   6  -1  -2  426.46   15.00
   6   1  -2  432.36   15.20
  -6   1   2  409.36   13.00
   6   1  -2  398.36   21.60
   6   1  -2  410.06   14.60
   6   1  -2  404.86   20.10
   6   1  -2  419.56   14.20
   5  -1  -2  137.29   11.10
   5  -1  -2  125.49    7.10
   5  -1  -2  123.69    7.10
   5  -1  -2  139.49   11.60
   5   1  -2  131.59   10.30
  -5   1   2  131.99    6.10
   5   1  -2  128.89   11.10
   5   1  -2  121.29    7.10
   5   1  -2  119.59    7.00
   5   1  -2  122.89    7.20
   4  -1  -2 2409.06   60.79
   4  -1  -2 2358.06   61.69
  -4  -1   2 2245.08   49.50
  -4   1   2 2203.78   52.69
   4   1  -2 2302.07   60.29
   4   1  -2 2336.57   59.29
  -3  -1   2   70.59    2.70
   3  -1  -2   76.29    4.90
   3  -1  -2   70.79    6.10
   3  -1  -2   80.69    6.40
   3   1  -2   83.79    6.30
  -3   1   2   73.89    3.60
   3   1  -2   73.79    5.90
  -3   1   2   77.39    4.00
   1  -1  -2    2.40    1.90
  -1  -1   2    6.50    1.10
   1  -1  -2    4.50    1.10
  -1  -1   2    4.50    1.70
   1  -1  -2    4.60    1.30
   1  -1  -2    3.60    1.40
   1   1  -2    5.30    1.40
  -1   1   2    2.50    1.90
   1   1  -2    5.30    1.30
  -1   1   2    4.10    1.00
   0  -1   2 4020.30  140.39
   0  -1  -2 3698.13  135.09
   0   1  -2 3829.12  137.59
   0   1   2 3913.91  136.49
  -1  -1  -2 1974.10   48.00
   1  -1   2 1926.61   43.20
   1  -1   2 1949.01   48.70
   1   1   2 1954.00   44.60
   1   1   2 1918.21   47.90
  -1   1  -2 1974.80   48.90
   2  -1   2 2552.04   58.29
   2  -1   2 2563.04   63.99
  -2  -1  -2 2569.54   61.89
   2  -1   2 2638.54   63.49
   2   1   2 2570.64   60.69
  -2   1  -2 2539.45   63.39
   3  -1   2  478.35   16.30
  -3  -1  -2  520.25   17.60
  -3  -1  -2  523.35   15.40
   3  -1   2  505.65   20.50
   3   1   2  517.25   14.80
   3   1   2  530.95   19.90
  -3   1  -2  532.95   16.30
  -3   1  -2  482.95   13.20
  -4  -1  -2  343.07   12.80
   4  -1   2  354.26   11.90
   4  -1   2  349.57   11.50
   4  -1   2  337.67   12.20
  -4  -1  -2  338.47   10.20
   4  -1   2  337.27   18.90
   4   1   2  330.17   11.80
   4   1   2  351.56   13.20
  -4   1  -2  348.17   13.60
   4   1   2  328.37   22.20
   5  -1   2  265.77   10.90
  -5  -1  -2  279.97   12.10
   5  -1   2  265.17   10.30
   5  -1   2  254.57   11.50
  -5  -1  -2  259.07    8.90
   5  -1   2  271.57   18.50
  -5   1  -2  259.47    9.10
   5   1   2  272.57   12.00
  -5   1  -2  274.77   12.40
   5   1   2  254.27   10.50
  -6  -1  -2  133.49    5.80
   6  -1   2  127.29    7.30
   6  -1   2  130.79    7.10
   6  -1   2  129.29    6.10
   6   1   2  124.59    7.50
  -6   1  -2  131.49    5.90
   6   1   2  125.29    6.70
   7  -1   2   25.60    2.60
   7  -1   2   26.10    2.80
   7   1   2   22.50    3.10
   7   1   2   26.50    2.70
   8  -2  -2  128.69    5.60
   8  -2  -2  126.59    5.40
   8   2  -2  123.89    4.90
   7  -2  -2    0.10    1.20
   7  -2  -2   -0.50    1.00
   7   2  -2   -1.30    1.40
  -7   2   2   -0.50    1.50
   7   2  -2    0.40    1.10
   7   2  -2    0.70    1.20
   6  -2  -2  282.27   19.10
   6  -2  -2  295.67   12.00
   6  -2  -2  286.17   17.90
   6  -2  -2  289.07   12.00
   6   2  -2  301.47   16.80
   6   2  -2  291.37   11.50
  -6   2   2  281.27   10.00
   6   2  -2  280.57   17.10
   6   2  -2  299.17   12.00
   6   2  -2  299.27   11.60
  -6   2   2  299.47   11.40
   5  -2  -2   30.20    3.90
   5  -2  -2   27.70    5.80
   5  -2  -2   31.90    3.90
   5  -2  -2   36.50    7.20
   5   2  -2   33.00    4.30
   5   2  -2   23.90    4.80
   5   2  -2   26.60    3.90
   5   2  -2   34.30    6.80
   5   2  -2   32.20    4.10
  -5   2   2   25.30    3.60
  -4  -2   2  691.03   15.60
   4  -2  -2  668.63   25.70
   4  -2  -2  681.53   22.20
   4  -2  -2  702.53   25.90
   4   2  -2  671.53   23.90
  -4   2   2  689.33   19.10
   4   2  -2  665.63   23.50
   3  -2  -2  859.01   25.50
  -3  -2   2  831.42   18.80
   3  -2  -2  812.12   26.10
   3  -2  -2  796.52   25.90
  -3   2   2  838.32   21.30
   3   2  -2  832.42   24.90
   3   2  -2  847.72   25.00
   2  -2  -2 1643.74   40.40
   2  -2  -2 1658.53   41.90
  -2  -2   2 1577.94   36.50
  -2  -2   2 1607.14   38.90
   2  -2  -2 1672.23   41.80
   2  -2  -2 1618.34   40.70
   2   2  -2 1643.74   39.80
   2   2  -2 1649.04   38.90
  -1  -2   2  740.43   18.00
   1  -2  -2  745.63   19.90
   1  -2  -2  774.92   22.80
  -1  -2   2  747.73   21.60
   1  -2  -2  750.72   22.40
  -1   2   2  746.03   18.70
   1   2  -2  771.32   19.50
   0  -2  -2  331.47   13.00
   0  -2  -2  324.07    9.80
   0  -2   2  340.77   13.00
   0  -2   2  333.07    9.60
   0   2  -2  324.67   14.50
   0   2   2  321.57   13.00
   0   2  -2  334.17   10.10
   0   2   2  319.27    9.40
  -1  -2  -2  873.01   25.50
   1  -2   2  867.51   21.60
  -1  -2  -2  878.21   21.80
   1  -2   2  881.01   26.70
  -1   2  -2  878.81   26.70
   1   2   2  903.71   26.10
   1   2   2  865.41   21.40
  -1   2  -2  886.51   22.60
   2  -2   2  120.49    6.50
  -2  -2  -2  118.29    7.60
   2  -2   2  129.59    9.20
   2  -2   2  129.39    8.30
  -2   2  -2  118.59    8.80
   2   2   2  113.79    6.50
  -2   2  -2  118.09    6.20
  -3  -2  -2  653.33   18.70
   3  -2   2  649.54   25.60
  -3  -2  -2  659.53   20.00
   3  -2   2  664.43   25.10
  -3   2  -2  666.93   20.10
   3   2   2  643.34   22.30
  -3   2  -2  643.64   16.60
   4  -2   2  187.18    8.50
  -4  -2  -2  181.68    8.60
   4  -2   2  193.78   14.40
   4  -2   2  170.28    8.00
   4  -2   2  190.08    8.10
  -4  -2  -2  162.58    6.80
  -4   2  -2  183.38    6.90
  -4   2  -2  187.68   10.00
   4   2   2  181.58    8.10
   4   2   2  197.98    9.50
   4   2   2  174.88   11.70
   5  -2   2  134.19    7.20
  -5  -2  -2  142.19    6.20
   5  -2   2  144.19    8.20
   5  -2   2  141.99   16.60
  -5  -2  -2  144.49    7.80
   5  -2   2  142.19    7.70
  -5   2  -2  131.89    6.10
  -5   2  -2  143.79    9.00
   5   2   2  133.69    7.10
   5   2   2  150.78    8.70
  -6  -2  -2   49.99    3.70
   6  -2   2   48.50    5.00
   6  -2   2   52.69    5.20
   6  -2   2   43.70    3.80
   6   2   2   51.29    4.10
  -6   2  -2   53.09    3.70
   6   2   2   47.70    5.50
   7  -2   2   77.09    4.20
   7   2   2   71.09    4.10
  -7   2  -2   62.39    3.60
   8  -3  -2    6.00    1.50
   8  -3  -2   10.10    1.80
   7  -3  -2    0.10    1.00
   7  -3  -2    1.30    1.40
   7   3  -2   -0.40    1.40
   7   3  -2   -1.10    1.10
  -7   3   2   -0.20    1.30
   7   3  -2    0.40    1.20
   6  -3  -2    3.00    1.80
   6  -3  -2    2.60    3.60
   6  -3  -2    5.10    2.20
   6  -3  -2    7.20    4.10
   6   3  -2    2.30    2.80
  -6   3   2    4.80    2.10
   6   3  -2    7.80    2.30
   6   3  -2    4.20    3.60
   6   3  -2    2.80    1.60
  -6   3   2    4.10    1.70
   6   3  -2    3.70    1.90
   5  -3  -2    0.80    2.30
   5  -3  -2   -0.70    1.20
   5  -3  -2   -1.50    1.00
   5  -3  -2    1.90    2.70
   5   3  -2   -0.50    1.20
   5   3  -2   -1.60    1.50
   5   3  -2    0.60    2.00
  -5   3   2    0.60    1.30
   5   3  -2    1.00    1.50
  -5   3   2    0.70    1.30
   5   3  -2    2.60    1.90
  -4  -3   2  348.37    9.20
   4  -3  -2  337.37   12.10
  -4  -3   2  344.17   10.00
   4  -3  -2  346.27   17.50
   4  -3  -2  365.16   17.70
   4  -3  -2  342.37   12.00
  -4   3   2  341.07   10.70
   4   3  -2  341.17   15.30
   4   3  -2  345.87   15.10
  -4   3   2  360.66   12.60
   3  -3  -2   65.09    7.40
   3  -3  -2   50.89    6.60
  -3  -3   2   54.09    3.30
  -3  -3   2   60.19    2.90
   3  -3  -2   62.79    7.40
   3  -3  -2   68.49    7.70
   3   3  -2   62.69    5.40
   3   3  -2   57.39    5.10
  -3   3   2   63.09    4.20
  -2  -3   2  743.93   21.60
  -2  -3   2  701.43   19.20
   2  -3  -2  744.83   22.00
   2  -3  -2  730.33   24.80
   2  -3  -2  743.03   24.40
   2  -3  -2  741.63   22.60
  -2  -3   2  761.62   18.20
   2   3  -2  779.92   21.80
   2   3  -2  756.32   21.50
  -2   3   2  766.52   19.80
  -1  -3   2  645.94   16.30
   1  -3  -2  615.44   17.10
  -1  -3   2  661.83   20.80
   1  -3  -2  670.93   21.80
   1  -3  -2  654.73   21.90
  -1   3   2  659.63   17.10
   1   3  -2  650.83   16.60
   1   3  -2  532.05   21.90
   0  -3   2 9999.00  299.27
   0   3   2 9894.01  298.87
   0   3   2 9843.52  301.17
   0   3  -2 9898.21  300.37
  -1  -3  -2   60.69    7.30
  -1  -3  -2   70.49    6.00
   1  -3   2   63.59    3.90
   1  -3   2   59.79    7.00
  -1  -3  -2   70.29    4.00
   1   3   2   61.79    2.40
  -1   3  -2   60.49    4.30
  -1   3  -2   62.09    7.20
   2  -3   2 2678.63   63.39
  -2  -3  -2 2694.03   65.59
   2  -3   2 2635.14   69.09
  -2  -3  -2 2755.82   65.69
  -2   3  -2 2692.33   69.59
   2   3   2 2646.44   60.59
  -2   3  -2 2636.74   58.39
  -3  -3  -2  576.54   16.80
  -3  -3  -2  516.15   14.70
   3  -3   2  536.45   23.10
   3  -3   2  561.64   19.90
  -3  -3  -2  550.94   17.80
   3  -3   2  534.75   16.20
   3   3   2  561.04   20.40
  -3   3  -2  565.64   18.80
   3   3   2  549.45   17.20
  -3   3  -2  552.74   14.70
   4  -3   2  534.25   16.90
   4  -3   2  532.95   16.70
   4  -3   2  545.85   26.20
  -4  -3  -2  533.35   17.30
   4  -3   2  531.25   16.40
   4   3   2  520.35   15.80
   4   3   2  544.95   18.00
  -4   3  -2  543.15   15.10
  -4   3  -2  509.35   17.00
  -4   3  -2  530.75   19.40
   5  -3   2  135.49   17.30
  -5  -3  -2  109.09    6.80
   5  -3   2  108.69    6.50
  -5  -3  -2  116.59    5.60
   5  -3   2  114.39    6.90
   5  -3   2  110.19    7.00
  -5   3  -2  124.39    8.70
   5   3   2  110.59    6.30
   5   3   2  122.49    8.00
  -5   3  -2  115.09    5.70
  -6  -3  -2   -1.00    1.60
   6  -3   2   -0.10    1.20
   6  -3   2    1.60    1.80
   6  -3   2    0.10    1.70
  -6   3  -2   -0.80    1.00
   6   3   2    1.60    1.60
   7  -3   2    1.10    1.10
   7   3   2    2.50    1.50
  -7   3  -2   -0.60    0.90
   7  -4  -2   24.50    3.30
   7  -4  -2   27.80    3.60
  -7   4   2   34.10    3.20
   7   4  -2   30.10    3.20
   7   4  -2   24.80    4.50
   7   4  -2   35.00    3.40
   6  -4  -2    1.50    1.80
   6  -4  -2    2.80    1.50
   6  -4  -2    2.90    3.60
   6  -4  -2   11.00    5.10
   6   4  -2    5.70    2.20
  -6   4   2    3.50    1.60
   6   4  -2    3.50    2.00
  -6   4   2    0.80    1.60
   6   4  -2    6.10    2.20
   5  -4  -2    0.70    2.20
   5  -4  -2    1.10    1.40
   5  -4  -2   -1.40    2.10
   5  -4  -2    1.00    1.20
   5  -4  -2    1.70    1.60
   5   4  -2   -0.40    1.40
   5   4  -2    2.10    2.00
  -5   4   2    0.90    1.10
  -5   4   2    1.80    1.70
   5   4  -2    1.20    1.70
   5   4  -2    0.00    1.90
   4  -4  -2   37.80    4.30
   4  -4  -2   29.00    6.20
   4  -4  -2   44.20    7.70
  -4  -4   2   32.80    2.50
   4  -4  -2   29.60    3.50
  -4   4   2   37.70    3.70
  -4   4   2   26.40    3.90
   4   4  -2   31.80    4.00
   4   4  -2   35.50    5.30
  -3  -4   2   70.89    3.70
  -3  -4   2   67.49    4.50
  -3  -4   2   66.79    4.00
   3  -4  -2   71.49    6.60
   3  -4  -2   68.69    8.40
   3  -4  -2   65.79    8.80
   3  -4  -2   80.09    7.30
  -3   4   2   65.19    4.10
  -3   4   2   68.69    4.90
   3   4  -2   68.49    5.70
   2  -4  -2    3.10    2.80
  -2  -4   2    6.80    2.50
   2  -4  -2    6.80    2.60
  -2  -4   2    9.20    1.80
   2  -4  -2    6.90    1.90
   2  -4  -2    6.20    2.90
   2  -4  -2   12.10    2.90
  -2   4   2    5.10    1.70
   2   4  -2    7.90    2.50
   1  -4  -2 1559.24   36.80
  -1  -4   2 1523.45   35.90
   1  -4  -2 1534.35   43.20
   1  -4  -2 1515.05   36.80
   1  -4  -2 1507.25   43.70
  -1  -4   2 1567.04   42.00
  -1   4   2 1565.94   36.70
   1   4  -2 1522.45   35.60
   1   4  -2 1483.85   41.60
   0  -4   2 1174.18   29.30
   0  -4   2 1229.28   36.10
   0  -4  -2 1186.08   29.70
   0  -4  -2 1244.18   36.10
   0  -4  -2 1176.38   35.40
   0   4  -2 1194.38   35.70
   0   4  -2 1192.28   30.00
  -1  -4  -2   -0.80    1.70
  -1  -4  -2    4.50    1.50
   1  -4   2    0.90    2.70
  -1  -4  -2    1.70    2.00
   1  -4   2    1.80    1.20
  -1   4  -2    1.30    1.30
  -1   4  -2    1.00    2.60
  -2  -4  -2  796.22   27.10
  -2  -4  -2  831.32   22.50
  -2  -4  -2  817.92   27.10
   2  -4   2  800.82   27.30
   2   4   2  789.92   18.90
  -2   4  -2  822.42   23.90
  -2   4  -2  863.71   31.10
  -2   4  -2  821.32   20.00
   3  -4   2   41.60    5.60
   3  -4   2   39.20    6.60
  -3  -4  -2   44.10    3.10
  -3  -4  -2   48.50    5.00
   3  -4   2   45.70    6.50
  -3   4  -2   35.80    5.00
   3   4   2   37.20    4.30
   4  -4   2  111.29   14.00
  -4  -4  -2  101.69    4.90
   4  -4   2  103.09    6.60
  -4  -4  -2  104.59    6.80
   4  -4   2  100.59    6.30
   4  -4   2   92.69   10.30
   4   4   2   98.09    6.80
  -4   4  -2   92.89    7.60
  -4   4  -2   96.29    5.10
  -4   4  -2   96.49    6.20
  -5  -4  -2   34.40    3.50
   5  -4   2   27.50    7.20
   5  -4   2   35.00    4.60
   5  -4   2   41.50    4.80
   5  -4   2   18.90    3.40
  -5  -4  -2   37.70    4.80
  -5   4  -2   34.00    4.30
   5   4   2   28.80    3.50
  -5   4  -2   33.20    3.60
  -5   4  -2   24.70    5.10
   5   4   2   33.50    4.70
   6  -4   2   12.50    2.60
  -6  -4  -2   12.70    2.30
   6  -4   2   13.60    2.40
   6  -4   2    7.50    2.10
  -6   4  -2   11.30    2.10
   6   4   2   14.10    3.00
   7  -5  -2    7.90    1.90
   7  -5  -2    7.60    2.20
  -7   5   2    7.90    1.70
   7   5  -2    4.80    2.00
   6  -5  -2   12.80    7.90
   6  -5  -2    9.30    2.40
   6  -5  -2   10.40    2.70
   6   5  -2   13.70    2.70
   6   5  -2   11.80    2.50
   6   5  -2   10.90    2.80
  -6   5   2   11.20    2.30
   5  -5  -2   47.40    4.20
   5  -5  -2   60.19   10.90
   5  -5  -2   63.69   10.70
   5  -5  -2   46.80    4.80
  -5  -5   2   54.69    3.60
   5  -5  -2   60.79    5.00
   5   5  -2   61.89    6.30
   5   5  -2   58.09    6.30
  -5   5   2   57.49    6.80
  -5   5   2   50.69    5.50
  -5   5   2   55.99    7.90
   5   5  -2   60.89    5.70
   4  -5  -2  182.98   12.80
   4  -5  -2  163.48   12.50
   4  -5  -2  168.98    7.90
   4  -5  -2  161.08    7.80
   4  -5  -2  158.78    7.70
  -4   5   2  160.08    6.80
   4   5  -2  150.38    8.00
   4   5  -2  167.48    8.10
  -4   5   2  146.99    8.10
  -4   5   2  157.58    9.20
   3  -5  -2  954.10   30.90
  -3  -5   2  991.50   27.50
   3  -5  -2 1019.90   35.30
  -3  -5   2 1003.80   25.10
  -3   5   2  937.11   24.10
  -3   5   2  960.60   27.70
   2  -5  -2  114.29   14.30
   2  -5  -2   93.99    5.80
  -2  -5   2  111.99   13.30
   2  -5  -2   86.79   10.30
   2  -5  -2  101.29    6.70
  -2  -5   2   98.69    5.20
  -2   5   2   96.49    4.60
   2   5  -2   93.29    7.80
  -2   5   2   83.59    5.70
  -1  -5   2  999.20   32.00
  -1  -5   2  963.30   24.90
   1  -5  -2 1006.70   34.10
   1  -5  -2  956.20   25.90
   1  -5  -2  938.11   32.60
   1  -5  -2  952.60   24.00
  -1   5   2  963.10   25.70
   1   5  -2  940.51   31.30
   1   5  -2  932.41   24.40
   0  -5  -2  256.47   16.50
   0  -5   2  243.08    9.40
   0  -5  -2  221.38   13.40
   0  -5   2  264.77   14.80
   0   5  -2  233.08    9.60
   0   5   2  235.78    9.00
   0   5  -2  241.38   14.10
   1  -5   2   69.99    9.20
  -1  -5  -2   57.19    4.40
   1  -5   2   65.79    4.90
  -1  -5  -2   53.59    7.40
  -1  -5  -2   65.49    8.40
  -1  -5  -2   57.29    3.30
  -1   5  -2   64.59    5.10
  -1   5  -2   62.19    3.40
  -1   5  -2   68.49    9.40
  -2  -5  -2   15.80    2.10
   2  -5   2   11.30    3.70
  -2  -5  -2   15.70    2.90
   2  -5   2   12.70    5.30
  -2  -5  -2   12.60    4.10
  -2   5  -2   13.80    5.30
  -2   5  -2   11.20    2.70
  -2   5  -2   17.70    2.40
   3  -5   2   95.79    5.80
   3  -5   2   95.89    6.30
   3  -5   2   89.29    9.90
   3  -5   2   80.59   10.10
   3  -5   2   91.99    5.60
  -3  -5  -2   89.79    4.50
  -3  -5  -2   98.99    6.40
   3   5   2   84.09    5.20
   3   5   2   99.09    6.40
  -3   5  -2   92.49    7.40
  -3   5  -2   91.39    5.90
  -3   5  -2   92.39    4.80
   4  -5   2    6.30    2.50
   4  -5   2    7.00    4.10
  -4  -5  -2   10.80    3.00
  -4  -5  -2    9.50    2.00
   4  -5   2    5.90    4.10
   4  -5   2   11.00    2.90
   4  -5   2    9.80    2.50
  -4   5  -2   12.70    3.00
  -4   5  -2   14.20    3.00
  -4   5  -2    7.00    2.80
   4   5   2    6.50    2.30
  -5  -5  -2    1.10    1.50
   5  -5   2    1.50    3.70
   5  -5   2    2.90    2.00
   5  -5   2    0.10    1.50
   5  -5   2    1.50    1.50
  -5  -5  -2    1.10    1.80
   5  -5   2    0.60    1.70
   5   5   2    1.40    1.70
  -5   5  -2    5.00    2.00
  -5   5  -2    2.70    2.40
  -5   5  -2    2.30    1.40
   6  -5   2   -0.50    1.10
   6  -5   2    0.70    1.30
  -6  -5  -2    0.40    1.60
  -6   5  -2    0.50    1.90
   6   5   2    1.40    1.50
  -6   5  -2    2.00    1.30
   7  -6  -2    1.60    1.30
   7  -6  -2    2.30    1.40
   7   6  -2    3.20    1.50
  -7   6   2    1.90    1.00
   6  -6  -2    6.90    2.10
   6  -6  -2    8.50    2.30
   6   6  -2    8.10    2.10
  -6   6   2    5.30    2.30
   6   6  -2    9.40    2.50
  -6   6   2    6.30    1.90
   5  -6  -2   30.00    7.00
   5  -6  -2   20.20    5.80
   5  -6  -2   40.80    4.70
   5  -6  -2   29.70    4.00
   5  -6  -2   32.70    4.20
  -5  -6   2   28.90    4.70
  -5   6   2   29.30    3.50
   5   6  -2   31.20    4.00
  -5   6   2   33.30    4.50
   5   6  -2   35.50    4.60
  -5   6   2   32.70    5.50
   4  -6  -2  191.08    8.30
   4  -6  -2  165.28   13.50
   4  -6  -2  176.48    8.50
   4  -6  -2  177.48    8.70
  -4  -6   2  177.88    8.40
   4  -6  -2  187.08   13.30
  -4   6   2  165.48   10.10
   4   6  -2  173.98    8.60
   4   6  -2  189.88    9.10
  -4   6   2  180.68    7.60
  -4   6   2  181.68    9.10
   3  -6  -2 1883.51   44.60
   3  -6  -2 1948.01   47.60
  -3  -6   2 1813.52   49.90
  -3  -6   2 1910.41   45.40
   3  -6  -2 1848.62   53.89
  -3  -6   2 1820.22   42.80
   3  -6  -2 1848.42   51.39
  -3   6   2 1931.81   48.40
  -3   6   2 1895.91   43.50
  -3   6   2 1833.52   46.20
   3   6  -2 1834.12   45.50
  -2  -6   2  150.78    7.30
   2  -6  -2  129.99    8.90
  -2  -6   2  142.49    6.00
   2  -6  -2  114.09   14.50
   2  -6  -2  157.48   14.00
   2  -6  -2  145.89    8.20
  -2   6   2  146.49    5.90
  -2   6   2  158.98    8.50
   2   6  -2  138.99   11.00
   1  -6  -2  383.36   20.90
   1  -6  -2  355.76   11.30
   1  -6  -2  374.66   19.80
   1  -6  -2  357.06   13.50
  -1  -6   2  389.96   19.70
  -1  -6   2  360.56   11.10
  -1  -6   2  351.96   12.70
  -1   6   2  348.57   10.40
  -1   6   2  367.86   13.40
   1   6  -2  322.87   18.00
   0  -6   2  336.57   10.70
   0  -6   2  331.17   19.10
   0  -6  -2  339.47   19.20
   0  -6  -2  314.97   18.30
   0  -6   2  331.77   12.60
   0  -6  -2  336.77   10.20
   0  -6  -2  337.37   12.80
   0   6  -2  330.57   18.60
   0   6  -2  335.77   12.90
   0   6   2  346.97   12.10
   1  -6   2  944.41   27.00
  -1  -6  -2  980.40   26.90
   1  -6   2  897.01   36.00
  -1  -6  -2  931.31   23.10
  -1  -6  -2  905.81   34.80
  -1  -6  -2  964.90   35.30
  -1   6  -2  945.91   27.50
  -1   6  -2  974.40   37.30
   2  -6   2   19.70    4.30
  -2  -6  -2   16.90    3.20
   2  -6   2   26.10    5.50
  -2  -6  -2   10.00    7.50
  -2  -6  -2   21.20    2.70
   2  -6   2   20.50    5.00
   2   6   2   17.60    3.00
  -2   6  -2   18.30    3.00
   2   6   2   16.90    3.10
  -2   6  -2   22.20    2.70
  -2   6  -2   17.10    3.60
   3  -6   2    9.30    2.70
   3  -6   2   11.30    4.10
   3  -6   2   14.80    5.40
  -3  -6  -2   11.90    3.00
   3  -6   2   11.50    2.50
   3  -6   2    9.10    2.20
  -3  -6  -2    6.70    1.80
  -3   6  -2    7.00    2.10
  -3   6  -2   15.20    4.00
  -3   6  -2    7.90    1.90
   3   6   2    6.00    2.20
   3   6   2    9.80    2.60
   4  -6   2   46.00    8.40
   4  -6   2   61.79   11.30
   4  -6   2   56.39    5.50
  -4  -6  -2   48.00    6.40
   4  -6   2   56.79    5.60
   4  -6   2   40.20    5.10
  -4  -6  -2   51.59    4.40
   4   6   2   40.80    5.00
  -4   6  -2   40.00    4.60
  -4   6  -2   53.09    7.50
   5  -6   2    4.20    2.00
   5  -6   2    4.00    1.80
   5  -6   2    4.40    2.10
   5  -6   2    7.70    4.80
  -5  -6  -2    7.40    2.10
   5   6   2    5.00    2.30
  -5   6  -2    9.40    2.20
  -5   6  -2    4.10    2.80
  -5   6  -2    8.30    2.30
   6  -6   2    6.80    1.80
   6  -6   2    7.80    1.80
  -6  -6  -2    3.90    2.30
  -6   6  -2   10.50    2.30
  -6   6  -2    9.80    1.80
   6   6   2    9.90    2.40
   7  -7  -2   89.89    4.40
   7  -7  -2   88.89    4.80
   7   7  -2  101.79    5.10
  -7   7   2   96.69    4.30
   6  -7  -2   24.10    3.10
   6  -7  -2   20.60    3.00
  -6   7   2   27.60    3.80
   6   7  -2   16.50    3.00
  -6   7   2   19.20    2.80
   5  -7  -2  563.14   17.90
  -5  -7   2  533.25   17.30
   5  -7  -2  515.05   25.80
   5  -7  -2  555.64   16.80
   5  -7  -2  554.64   17.60
  -5  -7   2  522.15   15.60
   5  -7  -2  511.75   27.20
   5   7  -2  548.85   17.20
  -5   7   2  551.44   18.20
  -5   7   2  549.54   21.70
   5   7  -2  537.65   18.00
  -5   7   2  534.45   16.20
  -4  -7   2    7.50    2.40
   4  -7  -2    0.90    2.40
   4  -7  -2    2.50    1.60
  -4  -7   2    3.60    1.70
   4  -7  -2    6.80    2.40
   4  -7  -2    5.00    2.10
   4  -7  -2    2.90    3.00
  -4   7   2    4.30    2.00
  -4   7   2    3.80    2.40
  -4   7   2    1.40    1.20
   4   7  -2    3.40    1.90
   4   7  -2    8.60    2.50
   3  -7  -2   68.49    9.80
  -3  -7   2   59.09    4.20
   3  -7  -2   62.49    4.70
   3  -7  -2   65.49    6.90
  -3  -7   2   55.49    5.80
   3  -7  -2   59.49    8.20
   3  -7  -2   68.59    5.60
  -3   7   2   55.69    7.20
   3   7  -2   63.39    5.00
  -3   7   2   63.19    5.20
  -3   7   2   67.69    4.30
   3   7  -2   59.29    4.30
   2  -7  -2  778.42   24.60
  -2  -7   2  803.82   23.70
   2  -7  -2  781.62   22.70
  -2  -7   2  766.92   20.70
   2  -7  -2  814.32   24.00
  -2   7   2  745.93   23.70
   2   7  -2  775.72   22.20
  -2   7   2  785.92   24.70
   2   7  -2  770.92   22.30
  -2   7   2  815.52   21.30
  -1  -7   2  237.48   10.70
   1  -7  -2  205.08   16.80
  -1  -7   2  233.08   17.50
   1  -7  -2  212.58   10.80
   1  -7  -2  232.68    8.30
   1  -7  -2  217.58   17.60
   1  -7  -2  214.38   10.80
  -1  -7   2  222.08    8.50
  -1   7   2  237.98    7.80
  -1   7   2  224.68   12.90
  -1   7   2  232.78   10.90
   0  -7  -2   83.59   11.50
   0  -7  -2   97.99    5.00
   0  -7  -2   91.69   13.00
   0  -7   2  100.69    5.30
   0  -7  -2   99.09    6.90
   0  -7   2  110.09   15.10
   0  -7   2   96.79    6.70
   0   7  -2   94.89    6.70
   0   7  -2   90.59    4.30
   0   7  -2   68.49   10.70
   1  -7   2   55.99    4.30
   1  -7   2   48.50    5.20
  -1  -7  -2   32.00   11.20
   1  -7   2   55.89    4.60
  -1  -7  -2   44.20    4.60
   1  -7   2   60.19    6.40
   1  -7   2   65.29    8.20
   1  -7   2   58.69   15.30
   1  -7   2   42.80    5.00
  -1  -7  -2   52.09    5.80
  -1   7  -2   60.49    6.60
  -1   7  -2   40.70    4.20
  -1   7  -2   41.10    9.30
   1   7   2   56.19    6.00
  -1   7  -2   54.59    3.40
   2  -7   2  175.88    8.20
   2  -7   2  178.58   12.70
   2  -7   2  173.18    8.70
   2  -7   2  174.18    9.40
  -2  -7  -2  169.08    7.10
  -2  -7  -2  181.78    9.90
   2  -7   2  177.18    8.20
   2   7   2  174.28    8.50
  -2   7  -2  154.78    9.70
   2   7   2  168.98    8.30
  -2   7  -2  173.38    8.40
  -2   7  -2  205.68   14.90
   3  -7   2   20.40    3.50
   3  -7   2   20.80    5.70
  -3  -7  -2   15.00    3.20
  -3  -7  -2   17.20    2.70
  -3  -7  -2   26.00    4.70
   3  -7   2   16.10    3.50
   3  -7   2   20.50    5.40
   3   7   2   17.70    3.10
  -3   7  -2   17.40    3.10
   3   7   2   16.40    3.20
  -3   7  -2   20.60    4.90
   4  -7   2    7.30    2.40
  -4  -7  -2    4.00    2.40
   4  -7   2    3.30    3.80
   4  -7   2    5.40    2.00
  -4  -7  -2    7.50    2.00
   4  -7   2    5.10    2.40
   4  -7   2   13.80    5.20
   4   7   2    4.90    2.20
  -4   7  -2    6.80    1.90
  -4   7  -2    2.00    1.80
  -4   7  -2    8.40    3.80
   5  -7   2   18.60    3.00
  -5  -7  -2   19.60    2.90
   5  -7   2   17.70    2.90
   5  -7   2   24.20    3.20
   5   7   2   20.60    3.40
  -5   7  -2   21.10    3.30
  -5   7  -2   22.00    3.10
   6  -7   2  148.19    6.10
  -6   7  -2  135.09    5.90
  -6   7  -2  144.69    5.70
   6   7   2  153.38    6.70
   6  -8  -2   35.50    3.80
   6  -8  -2   44.60    3.70
  -6  -8   2   38.80    4.00
  -6   8   2   46.20    4.40
   6   8  -2   35.20    4.00
  -6   8   2   47.50    3.50
  -5  -8   2   88.79    6.40
   5  -8  -2   85.99    6.00
   5  -8  -2   83.79    5.20
   5  -8  -2   80.59   12.50
   5  -8  -2   67.59   10.20
  -5  -8   2   79.99    5.30
   5  -8  -2   81.29    5.80
   5   8  -2   78.99    5.40
  -5   8   2   68.89    8.40
  -5   8   2   86.79    6.20
   5   8  -2   86.39    6.20
  -5   8   2   91.99    5.30
  -4  -8   2   10.00    2.50
   4  -8  -2    5.90    2.20
  -4  -8   2    5.40    2.50
   4  -8  -2    8.70    2.70
   4  -8  -2    9.80    4.70
   4  -8  -2    7.10    2.20
   4  -8  -2   13.10    5.20
   4   8  -2    6.00    2.20
  -4   8   2    9.90    3.50
  -4   8   2    8.60    2.60
   4   8  -2   13.80    3.20
  -4   8   2   14.60    2.80
   3  -8  -2  150.28    7.80
   3  -8  -2  152.18   12.80
  -3  -8   2  125.19    8.00
  -3  -8   2  146.39    7.10
  -3  -8   2  129.19    8.60
   3  -8  -2  143.19   10.70
   3  -8  -2  140.89    7.10
   3   8  -2  143.19    7.00
  -3   8   2  132.29    9.60
  -3   8   2  116.99    9.20
  -3   8   2  145.99    6.60
   3   8  -2  139.29   10.10
  -2  -8   2   45.20    5.90
   2  -8  -2   43.10    4.20
  -2  -8   2   46.70    4.60
  -2  -8   2   53.89    5.90
   2  -8  -2   45.70    5.10
   2  -8  -2   41.90    5.70
   2  -8  -2   50.49    6.50
   2   8  -2   37.00    4.30
  -2   8   2   35.50    5.80
  -2   8   2   43.60    4.90
   2   8  -2   42.70    5.10
  -2   8   2   74.59    9.80
  -2   8   2   42.70    4.00
   1  -8  -2  394.96   29.30
  -1  -8   2  440.06   15.80
  -1  -8   2  443.76   14.00
  -1  -8   2  441.66   16.90
   1  -8  -2  421.06   15.20
   1  -8  -2  432.56   17.50
   1  -8  -2  436.26   13.60
  -1   8   2  438.36   16.70
   1   8  -2  428.76   15.60
   1   8  -2  446.96   14.50
   1   8  -2  433.06   13.80
  -1   8   2  418.26   12.30
  -1   8   2  464.05   15.30
  -1   8   2  463.65   17.60
   0  -8   2  125.29    6.40
   0  -8  -2  119.79    6.10
   0  -8   2  120.39    7.50
   0  -8  -2  123.29    7.20
   0  -8  -2  133.19    8.80
   0  -8   2  130.19    8.70
   0  -8   2  113.69    8.00
   0   8  -2  130.49    7.10
   0   8  -2  126.19    6.50
   0   8   2  122.99    7.90
   0   8  -2  116.99    7.60
   0   8   2  113.59    9.40
  -1  -8  -2  124.69    7.30
   1  -8   2  131.09    7.80
  -1  -8  -2  129.09    6.20
   1  -8   2  116.89    8.00
   1  -8   2  113.69    9.50
   1  -8   2  123.89    6.80
  -1  -8  -2  120.39    8.50
  -1   8  -2  124.19    8.20
   1   8   2  112.59    6.40
  -1   8  -2  122.49    5.50
   1   8   2  119.49    7.60
  -1   8  -2  110.89    8.60
  -1   8  -2  127.29    6.90
  -2  -8  -2   24.50    4.70
   2  -8   2   32.10    6.00
  -2  -8  -2   29.30    3.70
  -2  -8  -2   27.10    4.10
   2  -8   2   20.20    5.00
   2  -8   2   28.60    4.40
   2  -8   2   31.00    4.00
  -2   8  -2   29.90    5.30
   2   8   2   38.40    4.70
   2   8   2   29.80    4.40
  -2   8  -2   32.40    5.20
  -2   8  -2   24.90    3.20
  -3  -8  -2    0.90    1.70
   3  -8   2    3.60    2.00
  -3  -8  -2    5.00    2.80
  -3  -8  -2    3.30    1.60
   3  -8   2    1.10    1.40
   3  -8   2   -0.10    1.70
   3  -8   2   -2.10    3.60
  -3   8  -2    4.30    1.60
  -3   8  -2    2.60    1.90
   3   8   2    3.10    1.80
   3   8   2    5.90    2.30
   4  -8   2  331.37   20.50
   4  -8   2  361.86   13.50
   4  -8   2  339.57   12.10
  -4  -8  -2  364.16   12.00
   4  -8   2  342.67   14.00
   4   8   2  361.06   13.60
  -4   8  -2  315.27   23.00
  -4   8  -2  346.57   13.50
  -4   8  -2  361.36   12.00
   5  -8   2   25.30    3.30
  -5  -8  -2   31.30    3.50
  -5   8  -2   25.10    3.00
  -5   8  -2   25.20    4.20
   5   8   2   27.80    3.80
   6  -8   2  155.68    5.40
   6   8   2  155.68    6.30
  -6   8  -2  157.28    5.60
  -6   8  -2  156.18    6.80
   6  -9  -2   81.69    4.60
  -6   9   2   81.69    4.20
  -6   9   2   75.09    4.50
   6   9  -2   85.99    5.30
  -5  -9   2  300.37   10.70
   5  -9  -2  295.07   11.40
   5  -9  -2  297.37   11.60
  -5   9   2  301.57   10.50
   5   9  -2  293.77   11.60
  -5   9   2  301.87   12.00
   4  -9  -2  362.26   13.00
   4  -9  -2  339.47   14.20
  -4  -9   2  356.86   12.50
  -4  -9   2  370.26   15.80
   4  -9  -2  353.86   22.00
   4   9  -2  354.16   13.00
  -4   9   2  342.57   11.90
   4   9  -2  359.76   13.60
  -4   9   2  312.47   16.90
  -4   9   2  349.27   14.00
   3  -9  -2  103.59   13.00
  -3  -9   2  110.49    8.50
   3  -9  -2   98.59    6.60
  -3  -9   2  109.49    7.50
   3  -9  -2  105.59    7.60
   3  -9  -2  106.59    6.30
  -3  -9   2  110.99    6.50
  -3   9   2  114.09    9.60
   3   9  -2  109.09    6.30
   3   9  -2  120.99    7.20
  -3   9   2  104.49    5.60
  -3   9   2  112.89    8.70
  -3   9   2  105.29    7.20
   2  -9  -2   92.89    8.30
  -2  -9   2   85.29    5.70
   2  -9  -2   97.39    7.80
   2  -9  -2   87.69    5.40
  -2  -9   2   82.19    6.50
  -2  -9   2   97.39    7.70
  -2   9   2  104.49   10.80
  -2   9   2   80.59    6.10
   2   9  -2   93.59    7.10
   2   9  -2   86.09    6.20
  -2   9   2   91.39    4.90
  -2   9   2   84.39    7.40
  -1  -9   2  166.08    7.80
   1  -9  -2  146.59    7.00
  -1  -9   2  158.38    9.90
   1  -9  -2  148.69   10.20
  -1  -9   2  155.58    8.90
   1  -9  -2  143.09    9.00
   1  -9  -2  150.18    8.50
  -1   9   2  127.09    6.80
   1   9  -2  142.59    7.60
  -1   9   2  146.99    8.00
  -1   9   2  150.98    9.60
   1   9  -2  149.59    8.70
   0  -9   2  486.95   19.60
   0  -9  -2  457.95   16.90
   0  -9  -2  466.85   17.80
   0  -9   2  455.35   19.40
   0  -9   2  464.55   18.20
   0  -9  -2  465.55   19.50
   0  -9   2  481.05   17.60
   0  -9   2  486.75   15.20
   0  -9  -2  490.25   15.10
   0   9   2  454.45   15.30
   0   9  -2  468.65   15.40
   0   9  -2  483.85   17.90
   0   9   2  480.05   17.90
   0   9  -2  481.15   15.40
   1  -9   2  303.87   13.10
  -1  -9  -2  316.07   15.30
   1  -9   2  296.67   10.60
  -1  -9  -2  300.27   11.10
   1  -9   2  273.07   15.80
  -1  -9  -2  306.37   16.20
  -1   9  -2  285.47    9.60
  -1   9  -2  325.87   15.40
  -1   9  -2  304.07   12.00
   1   9   2  310.17   13.30
   1   9   2  292.47   11.00
  -2  -9  -2  898.51   30.30
   2  -9   2  903.81   34.70
  -2  -9  -2  917.91   26.90
  -2  -9  -2  909.61   24.60
   2  -9   2  929.61   26.60
   2  -9   2  893.61   27.80
   2   9   2  939.61   26.70
   2   9   2  918.31   25.00
  -2   9  -2  921.41   23.60
  -2   9  -2  874.51   28.50
  -2   9  -2  918.21   26.30
  -2   9  -2  864.11   31.10
   3  -9   2  224.78   16.30
  -3  -9  -2  219.88   10.50
   3  -9   2  211.78   16.70
   3  -9   2  221.98   11.40
   3  -9   2  225.88    9.00
  -3  -9  -2  231.18   12.90
   3  -9   2  224.28   10.20
  -3  -9  -2  223.08    9.30
  -3   9  -2  227.58    8.80
   3   9   2  203.28    9.50
   3   9   2  220.38    8.80
  -3   9  -2  216.68   12.10
  -3   9  -2  216.38   10.40
  -3   9  -2  223.58   14.20
  -4  -9  -2  669.33   18.80
   4  -9   2  669.23   21.20
   4  -9   2  643.94   19.90
   4  -9   2  666.53   18.50
  -4   9  -2  651.83   18.70
   4   9   2  647.44   19.80
  -4   9  -2  664.53   20.70
   5  -9   2    8.50    1.80
   5  -9   2    8.80    1.70
  -5  -9  -2    7.00    1.90
  -5   9  -2    7.20    1.90
  -5   9  -2    6.20    1.60
   5   9   2    6.00    1.70
   6 -10  -2   55.79    3.40
  -6  10   2   52.89    3.50
   6  10  -2   57.49    4.00
  -6  10   2   60.59    3.20
   5 -10  -2   56.09    4.40
  -5 -10   2   55.89    4.10
   5 -10  -2   49.80    5.20
  -5  10   2   52.29    4.40
   5  10  -2   52.59    5.30
  -5  10   2   54.99    3.70
  -4 -10   2  103.39    6.10
   4 -10  -2   90.49    6.70
   4 -10  -2  110.19   14.80
  -4 -10   2   77.89    6.50
  -4 -10   2  107.39    9.10
   4 -10  -2   94.49    5.70
  -4  10   2   92.19    6.60
  -4  10   2  101.59    5.50
   4  10  -2   87.99    6.30
  -3 -10   2   32.00    5.70
  -3 -10   2   26.70    4.30
   3 -10  -2   32.10    4.90
   3 -10  -2   34.50    3.90
  -3 -10   2   26.70    4.10
   3 -10  -2   27.80    4.00
   3 -10  -2   32.60    8.20
  -3  10   2   24.10    6.40
  -3  10   2   33.80    3.70
   3  10  -2   29.60    4.00
  -3  10   2   29.40    4.20
   3  10  -2   28.90    4.60
   3  10  -2   34.60    4.20
  -3  10   2   28.30    4.70
   2 -10  -2  134.69    8.90
  -2 -10   2  142.39   10.70
   2 -10  -2  139.59   15.20
  -2 -10   2  140.09    8.80
  -2 -10   2  137.49    7.60
   2 -10  -2  139.09    8.40
  -2  10   2  138.59    6.00
   2  10  -2  130.49    7.90
  -2  10   2  146.59    8.30
  -2  10   2  135.59    9.30
   2  10  -2  145.59    8.20
  -1 -10   2  581.84   22.90
   1 -10  -2  567.74   16.90
  -1 -10   2  573.54   20.30
  -1 -10   2  554.24   17.90
   1 -10  -2  555.74   20.30
   1 -10  -2  575.84   19.70
   1  10  -2  557.74   19.70
  -1  10   2  576.14   18.50
  -1  10   2  573.04   21.10
   1  10  -2  567.04   17.80
   0 -10  -2   71.29    8.60
   0 -10  -2   73.89    6.30
   0 -10   2   80.79    9.90
   0 -10   2   79.49    8.50
   0 -10  -2   72.49    5.50
   0 -10  -2   81.79    7.30
   0 -10   2   81.69    6.70
   0  10  -2   72.99    6.60
   0  10   2   77.69    5.50
   0  10  -2   78.89    5.60
   0  10   2   78.69    6.80
   0  10  -2   80.09    5.60
  -1 -10  -2  424.76   16.20
   1 -10   2  424.06   17.10
  -1 -10  -2  424.46   14.40
   1 -10   2  430.06   16.70
   1 -10   2  405.06   13.40
   1 -10   2  430.96   21.00
  -1  10  -2  439.56   15.10
   1  10   2  395.76   13.40
  -1  10  -2  419.06   16.90
   1  10   2  409.16   16.40
  -2 -10  -2  363.26   14.50
   2 -10   2  348.57   14.10
  -2 -10  -2  368.26   13.20
   2 -10   2  361.76   15.60
  -2 -10  -2  370.16   18.00
   2 -10   2  344.37   20.20
  -2  10  -2  365.06   15.70
  -2  10  -2  367.16   11.40
   2  10   2  370.66   14.10
  -2  10  -2  347.47   13.70
   2  10   2  356.76   12.60
  -3 -10  -2   11.80    4.20
  -3 -10  -2    7.70    2.40
   3 -10   2   17.40    4.10
  -3 -10  -2    5.60    2.20
  -3  10  -2    7.20    1.80
  -3  10  -2    6.70    2.30
   3  10   2   10.80    2.50
   3  10   2    6.80    1.90
  -3  10  -2    8.50    3.40
  -4 -10  -2   19.70    3.00
   4 -10   2   15.90    3.00
  -4 -10  -2   14.90    2.90
  -4  10  -2   17.90    2.60
   4  10   2   13.00    2.60
  -4  10  -2   16.80    2.90
  -5 -10  -2   20.00    2.50
  -5  10  -2   20.00    2.60
  -5  10  -2   17.20    2.00
   5  10   2   16.00    2.40
  -5 -11   2   13.70    2.30
   5 -11  -2   12.30    2.30
  -5  11   2    6.40    1.70
  -5  11   2    8.00    1.50
   5  11  -2    7.10    2.10
   4 -11  -2   43.80    5.20
  -4 -11   2   46.30    5.20
  -4 -11   2   55.09    5.20
  -4  11   2   51.69    5.10
   4  11  -2   53.39    5.40
  -3 -11   2   41.80    6.70
  -3 -11   2   57.19    5.50
   3 -11  -2   37.40    7.80
   3 -11  -2   48.60    5.90
   3 -11  -2   56.79    4.70
  -3 -11   2   53.19    6.10
   3  11  -2   52.79    5.40
   3  11  -2   55.99    4.20
  -3  11   2   64.59    7.50
  -3  11   2   57.99    5.80
  -2 -11   2  430.16   20.10
   2 -11  -2  449.95   24.80
  -2 -11   2  458.75   15.90
   2 -11  -2  454.85   18.40
  -2 -11   2  450.75   20.10
   2  11  -2  481.55   17.90
  -2  11   2  458.85   17.10
   1 -11  -2  175.08   10.30
  -1 -11   2  151.98    8.20
  -1 -11   2  173.08   12.40
   1 -11  -2  183.98   10.10
  -1 -11   2  161.18    9.80
   1 -11  -2  176.98    7.80
  -1  11   2  170.28   10.30
   1  11  -2  170.88    8.30
  -1  11   2  182.08    8.90
   1  11  -2  184.88    9.90
   0 -11   2 1074.19   37.10
   0 -11  -2 1026.70   31.90
   0 -11  -2 1091.29   37.40
   0 -11  -2 1128.79   29.10
   0 -11   2 1140.69   32.50
   0 -11   2 1052.89   28.60
   0 -11   2 1051.59   32.40
   0 -11  -2 1109.19   31.90
   0  11  -2 1078.19   28.80
   0  11  -2 1104.79   32.20
   0  11   2 1107.99   28.20
   0  11   2 1093.49   32.40
  -1 -11  -2  152.28    9.70
   1 -11   2  162.98    9.60
  -1 -11  -2  161.88   12.30
  -1 -11  -2  178.38    8.50
   1 -11   2  143.09   11.70
  -1  11  -2  151.38    8.30
  -1  11  -2  197.38   14.80
   1  11   2  161.18    9.30
  -2 -11  -2   63.69    6.00
   2 -11   2   61.79    5.30
   2 -11   2   43.70    5.60
   2 -11   2   66.89   11.00
  -2 -11  -2   68.29    6.90
  -2 -11  -2   60.49    8.10
  -2  11  -2   55.89    6.30
  -2  11  -2   57.09    5.00
   2  11   2   58.59    4.40
   2  11   2   61.69    5.20
  -3 -11  -2  202.88    9.50
  -3 -11  -2  216.38    8.90
   3 -11   2  215.18   10.60
   3  11   2  186.78    8.00
  -3  11  -2  210.98   10.60
  -3  11  -2  205.88    9.10
  -3  11  -2  192.28    7.00
  -4 -11  -2   25.40    3.60
   4 -11   2   24.90    3.40
  -4  11  -2   24.40    3.00
   4  11   2   28.40    3.00
  -4  11  -2   25.00    2.40
   4 -12  -2   20.70    3.40
  -4 -12   2   18.40    4.20
  -4 -12   2   28.40    3.50
  -4  12   2   27.20    3.30
   4  12  -2   29.30    3.40
  -3 -12   2    2.90    2.00
  -3 -12   2    4.90    1.90
   3 -12  -2    2.40    1.80
   3 -12  -2    2.10    1.80
   3  12  -2    2.60    1.60
   3  12  -2    2.10    1.60
  -3  12   2    2.60    1.50
  -3  12   2   -1.50    2.60
   2 -12  -2    5.70    2.50
   2 -12  -2    3.10    1.90
  -2 -12   2    1.70    1.80
   2  12  -2    4.30    2.10
  -2  12   2    4.90    2.50
  -2  12   2    6.10    2.00
   2  12  -2    5.30    2.10
   1 -12  -2  101.39    7.60
  -1 -12   2  105.69    7.60
   1 -12  -2  115.19    7.60
  -1 -12   2  108.09    6.40
   1  12  -2   96.49    5.80
  -1  12   2   96.09    5.80
  -1  12   2  104.99    7.80
   1  12  -2  105.79    7.30
   0 -12   2    4.50    2.40
   0 -12  -2   15.10    2.90
   0 -12   2    9.50    3.30
   0 -12  -2   13.20    3.80
   0 -12  -2   12.60    3.20
   0  12   2   15.40    3.70
   0  12  -2   10.90    3.00
   0  12  -2   16.00    2.60
   1 -12   2    2.50    2.20
   1 -12   2    1.50    1.70
  -1 -12  -2    1.50    1.70
   1  12   2   -0.60    1.30
  -1  12  -2    0.60    2.40
   2 -12   2   13.30    2.70
  -2 -12  -2   11.90    2.60
   2 -12   2   19.40    3.70
  -2 -12  -2   17.50    3.50
  -2  12  -2   13.80    3.40
   2  12   2   12.80    2.60
  -3 -12  -2   40.70    4.30
  -3 -12  -2   40.10    4.00
   3 -12   2   38.00    4.70
  -3  12  -2   43.60    3.70
  -3  12  -2   46.80    5.70
   4 -12   2    2.60    1.30
  -4 -12  -2    2.30    1.30
  -4  12  -2    7.00    1.60
   4 -13  -2   21.80    2.80
  -4 -13   2   20.40    2.50
  -4  13   2   22.50    2.50
   4  13  -2   23.20    2.40
   3 -13  -2    3.50    2.00
  -3 -13   2    2.70    1.70
  -3 -13   2    0.70    1.40
   3  13  -2    4.00    1.40
  -3  13   2    1.70    1.30
  -3  13   2    6.10    2.30
  -2 -13   2   10.00    2.60
   2 -13  -2    8.00    2.10
  -2 -13   2    9.50    2.20
   2  13  -2   13.80    2.60
   2  13  -2   10.00    2.10
  -2  13   2    8.70    2.70
  -2  13   2   10.30    3.10
  -1 -13   2   10.10    2.30
  -1 -13   2   12.90    3.00
   1 -13  -2    8.50    2.30
   1  13  -2   14.00    2.90
  -1  13   2   12.90    2.10
  -1  13   2   15.70    3.50
   0 -13   2   11.50    3.60
   0 -13  -2    7.20    3.20
   0 -13  -2    6.60    2.30
   0 -13  -2    8.20    2.20
   0 -13   2    9.40    2.60
   0  13  -2    5.60    2.50
   0  13   2    7.60    2.50
   1 -13   2   20.70    3.30
  -1 -13  -2   19.70    2.90
   1 -13   2   25.20    4.60
  -1 -13  -2   17.30    3.30
   1  13   2   20.20    3.30
  -1  13  -2   24.40    4.30
  -1  13  -2   17.40    2.50
   2 -13   2   30.90    3.30
  -2 -13  -2   42.50    4.10
   2 -13   2   31.60    4.40
  -2 -13  -2   33.90    4.20
  -2  13  -2   35.50    4.40
   2  13   2   33.70    2.70
  -2  13  -2   32.60    3.50
   3 -13   2   25.30    3.30
  -3 -13  -2   22.70    2.60
  -3 -13  -2   26.30    3.00
  -3  13  -2   22.10    2.90
  -3  13  -2   21.80    2.40
   2 -14  -2    6.40    1.60
  -2 -14   2    9.00    2.00
  -2 -14   2    8.90    2.10
   2 -14  -2    7.60    2.20
   2  14  -2   10.90    1.70
  -2  14   2   10.70    1.50
  -2  14   2   11.60    2.50
  -1 -14   2    0.60    1.40
   1 -14  -2    2.40    1.30
   1 -14  -2    3.90    1.80
  -1  14   2    1.40    1.50
   1  14  -2    1.20    1.20
   0 -14   2    0.90    2.20
   0 -14  -2    2.40    1.50
   0 -14   2    2.00    1.50
   0  14  -2    1.20    1.20
   0  14   2    1.80    1.50
  -1 -14  -2    8.20    3.30
  -1 -14  -2    5.80    1.90
   1 -14   2   11.10    2.70
   1 -14   2   10.20    2.10
   1  14   2    7.60    1.80
  -1  14  -2    5.10    1.90
   8   0  -3    3.10    1.30
   8   0  -3    5.90    1.70
   7   0  -3   10.60    2.40
   7   0  -3    4.60    1.60
   6   0  -3    7.10    2.20
   6   0  -3   10.50    4.60
   6   0  -3    8.50    2.60
   6   0  -3   18.40    5.30
   5   0  -3    1.40    2.30
   5   0  -3   -1.20    1.00
   5   0  -3    0.80    1.30
  -5   0   3    0.00    0.80
   5   0  -3    1.20    2.30
  -4   0   3   -0.50    0.70
   4   0  -3    0.20    1.40
   4   0  -3   -0.20    1.60
  -3   0   3   60.39    3.40
  -3   0   3   49.80    3.70
   3   0  -3   66.39    5.00
   3   0  -3   62.79    5.60
   3   0  -3   61.49    5.60
  -2   0   3  246.08    7.60
   2   0  -3  220.88   10.40
   2   0  -3  216.68    9.50
  -2   0   3  226.18   10.50
   2   0  -3  240.48    9.70
   1   0  -3  145.09    5.90
  -1   0   3  141.99    8.50
   1   0  -3  155.28    8.70
  -1   0   3  143.79    5.50
   1   0  -3  137.79    5.70
   0   0  -3   12.20    2.00
   0   0   3   13.50    3.30
   0   0   3   13.50    1.90
   0   0  -3   11.50    3.00
  -1   0  -3   -0.30    0.80
   1   0   3    0.00    0.80
  -1   0  -3   -1.10    1.70
   1   0   3    0.60    2.00
  -2   0  -3   36.40    6.10
  -2   0  -3   31.20    3.70
  -2   0  -3   35.90    3.00
   2   0   3   37.40    5.00
   3   0   3   68.29    7.50
   3   0   3   72.99    4.90
   3   0   3   59.89    7.80
  -3   0  -3   72.49    5.60
  -3   0  -3   68.39    3.90
   4   0   3    3.90    1.80
  -4   0  -3    1.20    1.30
  -4   0  -3    3.20    1.90
   4   0   3    0.80    2.70
   4   0   3    2.40    2.10
  -5   0  -3   15.10    2.40
  -5   0  -3   12.80    3.40
   5   0   3    9.30    2.80
   5   0   3   17.60    3.50
   5   0   3   13.70    5.70
  -6   0  -3   12.00    2.10
   6   0   3   10.90    2.60
   6   0   3    9.70    2.30
   8  -1  -3   44.30    3.20
   8  -1  -3   37.80    3.20
   8   1  -3   42.90    3.20
   8   1  -3   37.60    3.00
   7  -1  -3   24.80    3.60
   7  -1  -3   28.60    4.10
   7   1  -3   30.70    3.90
   7   1  -3   34.10    4.40
   6  -1  -3  752.52   22.70
   6  -1  -3  711.83   30.70
   6  -1  -3  766.92   23.00
   6  -1  -3  769.02   32.00
   6   1  -3  745.33   23.00
  -6   1   3  721.23   20.90
   6   1  -3  768.72   22.60
   6   1  -3  724.73   30.20
   6   1  -3  740.13   29.70
   6   1  -3  724.03   20.80
   5  -1  -3   16.50    5.20
  -5  -1   3   20.40    2.50
   5  -1  -3   19.40    3.60
   5  -1  -3   14.70    2.70
   5  -1  -3   29.20    6.50
  -5   1   3   23.50    3.20
   5   1  -3   18.50    5.00
   5   1  -3   20.80    3.60
   5   1  -3   13.10    3.80
   5   1  -3   11.10    2.50
  -4  -1   3 5704.73  122.69
   4  -1  -3 5537.85  124.09
  -3  -1   3   64.99    4.00
   3  -1  -3   70.89    6.10
  -3  -1   3   65.59    3.30
   3  -1  -3   64.19    5.60
   3  -1  -3   64.19    5.90
   3   1  -3   67.09    5.70
   3   1  -3   70.29    5.90
   3   1  -3   66.49    4.70
  -3   1   3   67.49    3.90
  -2  -1   3  109.29    4.60
   2  -1  -3  113.69    6.50
  -2  -1   3  107.79    7.10
   2  -1  -3  102.89    6.10
   2  -1  -3  113.19    7.50
  -2   1   3  111.99    5.00
  -2   1   3  131.39    8.30
   2   1  -3  107.29    6.90
   2   1  -3  120.99    6.50
   2   1  -3  114.29    6.30
   1  -1  -3 1327.47   31.50
   1  -1  -3 1318.77   36.10
  -1  -1   3 1369.96   36.20
   1  -1  -3 1301.67   31.70
   1   1  -3 1314.97   31.40
   1   1  -3 1334.77   31.30
   1   1  -3 1364.16   35.90
  -1   1   3 1297.47   31.00
   0  -1   3  609.44   16.00
   0  -1  -3  588.44   16.60
   0  -1   3  594.74   20.80
   0  -1  -3  609.84   20.80
   0   1  -3  580.04   16.50
   0   1   3  594.64   15.80
   0   1  -3  606.84   21.10
   0   1   3  635.44   21.60
  -1  -1  -3 1708.93   47.10
   1  -1   3 1571.54   37.00
  -1  -1  -3 1610.04   38.20
   1  -1   3 1515.75   35.00
   1  -1   3 1578.44   44.30
  -1   1  -3 1622.74   38.60
  -1   1  -3 1603.94   44.40
   1   1   3 1559.74   43.90
   2  -1   3   19.10    2.20
  -2  -1  -3   22.20    3.30
  -2  -1  -3   28.00    5.30
   2  -1   3   17.80    3.70
   2   1   3   23.10    5.10
  -2   1  -3   16.50    2.80
  -2   1  -3   19.00    4.80
  -2   1  -3   21.00    2.40
   2   1   3   18.90    3.70
  -3  -1  -3  185.48    6.60
   3  -1   3  213.88   13.10
   3  -1   3  185.88    8.50
  -3  -1  -3  188.28    9.10
   3   1   3  184.98    7.90
  -3   1  -3  179.38    6.80
  -3   1  -3  182.28    9.50
   3   1   3  179.98   11.50
   4  -1   3   63.59    9.80
  -4  -1  -3   66.59    6.90
  -4  -1  -3   69.59    4.20
   4  -1   3   75.19    4.90
   4  -1   3   69.29    4.80
   4  -1   3   69.69    5.40
  -4   1  -3   62.99    7.00
   4   1   3   59.49    6.90
   4   1   3   86.49    6.20
   4   1   3   68.99    9.90
  -4   1  -3   68.29    4.20
  -5  -1  -3  146.39    9.00
   5  -1   3  171.48   14.80
   5  -1   3  153.28    8.60
   5  -1   3  135.09    8.40
  -5  -1  -3  167.58    6.90
   5  -1   3  149.39    8.00
   5   1   3  118.79   19.30
   5   1   3  157.58    8.90
  -5   1  -3  153.78    6.70
   5   1   3  155.08    8.00
  -5   1  -3  133.79    9.10
   6  -1   3   18.30    2.80
   6  -1   3   16.40    3.20
  -6  -1  -3   27.30    3.00
   6   1   3   27.40    4.10
  -6   1  -3   18.80    2.50
   8  -2  -3   51.29    3.60
   8  -2  -3   51.59    3.50
   8   2  -3   50.39    3.60
   7  -2  -3   11.50    3.00
   7  -2  -3   14.10    2.70
   7   2  -3   17.50    2.90
  -7   2   3   17.40    2.60
   7   2  -3   14.70    2.80
   7   2  -3   17.50    3.30
   6  -2  -3  155.18    8.50
   6  -2  -3  150.48   13.70
   6  -2  -3  168.28   13.60
   6  -2  -3  167.18    8.70
   6   2  -3  138.49   11.60
  -6   2   3  146.39    6.70
   6   2  -3  147.59   12.30
   6   2  -3  147.29    8.40
   6   2  -3  156.38    8.20
  -6   2   3  147.29    7.70
   6   2  -3  156.38    7.80
  -5  -2   3   50.89    2.90
   5  -2  -3   63.99    6.10
   5  -2  -3   64.59    9.60
   5  -2  -3   45.30    7.70
   5  -2  -3   47.50    5.10
   5   2  -3   61.29    8.90
   5   2  -3   64.29    6.40
  -5   2   3   57.69    4.60
   5   2  -3   41.80    4.70
   5   2  -3   54.39    5.30
   5   2  -3   32.40    5.60
   4  -2  -3 3402.36   78.59
   4  -2  -3 3319.67   77.39
  -4  -2   3 3433.86   75.79
   4  -2  -3 3494.95   85.29
   4  -2  -3 3586.04   86.49
   4   2  -3 3432.36   79.19
  -4   2   3 3260.07   74.99
   4   2  -3 3535.25   83.59
  -3  -2   3   40.60    4.10
  -3  -2   3   39.50    2.70
  -3  -2   3   39.70    3.20
   3  -2  -3   33.20    4.90
   3  -2  -3   45.70    6.10
   3  -2  -3   42.30    5.70
   3  -2  -3   41.40    6.00
   3   2  -3   43.70    3.80
   3   2  -3   40.90    5.30
   3   2  -3   47.10    5.80
  -3   2   3   40.00    3.30
   2  -2  -3  215.58    9.50
  -2  -2   3  215.98    7.20
   2  -2  -3  202.18    9.50
   2  -2  -3  216.58   11.20
  -2  -2   3  205.98   10.10
   2  -2  -3  189.28   12.20
  -2   2   3  213.98    8.00
   2   2  -3  224.98    9.30
   2   2  -3  212.18   11.30
  -1  -2   3  299.77   13.20
   1  -2  -3  290.17   10.10
  -1  -2   3  314.37    9.40
   1  -2  -3  303.07   16.10
   1  -2  -3  300.47   10.10
  -1   2   3  292.37    9.70
   1   2  -3  307.37    9.90
  -1   2   3  295.87   14.10
   1   2  -3  308.97   10.00
   1   2  -3  300.77   13.30
   0  -2   3  130.89    5.70
   0  -2  -3  139.69    9.40
   0  -2   3  136.89    9.20
   0  -2  -3  130.89    4.50
   0  -2  -3  127.79    6.10
   0   2   3  129.99    5.60
   0   2   3  140.89    9.40
   0   2  -3  133.19    9.10
   0   2  -3  129.59    6.30
  -1  -2  -3 1115.39   27.90
   1  -2   3 1064.79   34.10
   1  -2   3 1085.69   27.00
  -1  -2  -3 1050.29   33.00
   1   2   3 1057.79   28.40
   1   2   3 1080.29   33.40
  -1   2  -3 1111.59   28.30
   1   2   3 1091.79   27.10
   2  -2   3  164.08    7.30
   2  -2   3  162.38   11.80
  -2  -2  -3  173.58    7.90
  -2  -2  -3  153.88    5.60
  -2  -2  -3  154.58   10.80
   2  -2   3  159.48   10.00
   2   2   3  169.98    8.50
  -2   2  -3  161.48    5.90
   2   2   3  155.48   11.00
  -2   2  -3  155.18    8.10
  -3  -2  -3  807.52   20.20
   3  -2   3  792.42   22.00
   3  -2   3  844.52   30.90
  -3  -2  -3  769.92   27.60
   3  -2   3  808.92   22.10
  -3  -2  -3  850.01   24.20
   3   2   3  788.32   22.20
   3   2   3  818.62   26.80
  -3   2  -3  846.42   26.30
   3   2   3  820.42   23.20
   3   2   3  816.72   22.60
  -4  -2  -3  128.59    5.80
   4  -2   3  119.39    6.50
  -4  -2  -3  127.29    7.90
   4  -2   3  119.79    7.90
   4  -2   3  127.19    7.20
   4  -2   3  116.59   13.90
   4   2   3  151.28   11.00
   4   2   3  131.29    8.00
  -4   2  -3  128.99    5.90
  -4   2  -3  135.59    7.60
  -4   2  -3  146.79    9.40
  -5  -2  -3   31.00    4.90
  -5  -2  -3   33.00    3.60
   5  -2   3   15.80    5.90
   5  -2   3   31.80    4.00
  -5   2  -3   36.70    3.90
  -5   2  -3   31.60    5.40
   5   2   3   31.40    5.30
   6  -2   3  106.19    6.00
   6  -2   3  111.99    6.10
   6   2   3  118.29    6.70
  -6   2  -3  115.59    5.20
   6   2   3  110.49    5.50
   8  -3  -3   26.50    2.70
   8  -3  -3   20.50    2.40
   8   3  -3   23.10    2.10
   7  -3  -3    5.30    1.90
   7  -3  -3    5.50    1.80
  -7   3   3   12.60    2.10
   7   3  -3    6.10    2.10
   7   3  -3    6.60    2.10
   7   3  -3    4.70    1.90
   6  -3  -3   -1.00    1.00
   6  -3  -3    0.60    3.10
   6  -3  -3   -0.30    2.70
   6  -3  -3    1.60    1.40
  -6   3   3   -1.50    1.20
   6   3  -3    1.90    3.00
   6   3  -3    4.00    2.00
  -6   3   3   -0.10    1.40
   6   3  -3    2.00    1.60
   6   3  -3    0.40    1.40
   5  -3  -3  129.59    7.30
   5  -3  -3  133.39   14.80
  -5  -3   3  123.39    4.90
   5  -3  -3  124.69    7.10
   5  -3  -3  114.69   10.90
   5  -3  -3  111.79    5.30
   5   3  -3  115.69    6.70
   5   3  -3  109.59    7.20
   5   3  -3  107.09    9.30
  -5   3   3  128.99    7.50
  -5   3   3  125.49    6.10
   5   3  -3  107.09    9.50
   5   3  -3  107.99    6.70
   4  -3  -3   95.09    6.10
   4  -3  -3   90.69    9.80
  -4  -3   3   93.89    4.40
   4  -3  -3   96.99    5.80
   4  -3  -3   91.49    8.50
   4  -3  -3  109.59    9.60
   4   3  -3   97.99    6.20
  -4   3   3   92.09    4.90
  -4   3   3  103.09    6.20
   4   3  -3   82.49    7.30
   4   3  -3   92.19    7.50
   3  -3  -3  754.02   24.00
   3  -3  -3  729.53   24.80
  -3  -3   3  710.23   18.40
  -3  -3   3  692.93   20.00
   3  -3  -3  712.53   26.30
  -3  -3   3  726.03   21.40
  -3   3   3  689.23   18.40
   3   3  -3  736.23   22.90
  -3   3   3  726.23   20.30
   2  -3  -3 1390.16   34.90
  -2  -3   3 1312.37   31.70
   2  -3  -3 1324.67   40.00
   2  -3  -3 1328.37   32.90
   2  -3  -3 1352.86   36.10
   2  -3  -3 1342.37   39.50
  -2  -3   3 1380.46   37.60
  -2   3   3 1356.06   35.00
   2   3  -3 1335.87   36.10
   1  -3  -3  172.98   10.80
   1  -3  -3  151.18    7.00
  -1  -3   3  159.08   10.00
   1  -3  -3  157.48    7.30
  -1  -3   3  157.08    6.40
   1  -3  -3  158.58   10.10
  -1   3   3  153.78    6.70
   1   3  -3  154.18    9.60
   1   3  -3  157.88    6.60
   0  -3   3 3486.15   86.19
   0  -3  -3 3563.24   86.29
   0   3  -3 3533.15   85.99
   0   3   3 3550.94   86.59
  -1  -3  -3  292.07   15.00
   1  -3   3  301.17   10.60
   1  -3   3  287.97   15.60
  -1  -3  -3  300.37   10.80
   1   3   3  283.77    8.60
  -1   3  -3  288.37   16.00
   1   3   3  297.37   15.30
  -1   3  -3  312.37   11.70
  -2  -3  -3  227.48   10.10
   2  -3   3  226.08   12.50
  -2  -3  -3  206.98    7.20
  -2  -3  -3  220.58   13.30
   2  -3   3  221.38    9.90
  -2  -3  -3  264.77   21.20
   2  -3   3  203.48   14.40
   2   3   3  206.58    8.80
  -2   3  -3  203.98   14.80
  -2   3  -3  220.08   10.30
  -2   3  -3  219.08    7.40
   3  -3   3  410.36   13.60
  -3  -3  -3  403.76   11.70
   3  -3   3  430.66   21.00
  -3  -3  -3  389.56   15.00
   3  -3   3  415.56   14.60
   3  -3   3  400.26   13.30
   3   3   3  394.26   14.40
  -3   3  -3  428.36   16.80
  -3   3  -3  408.26   12.10
   4  -3   3   22.00    6.80
   4  -3   3   28.60    4.10
  -4  -3  -3   20.50    3.90
  -4  -3  -3   24.60    3.00
   4  -3   3   17.60    2.80
   4  -3   3   23.70    3.80
  -4   3  -3   21.60    4.60
  -4   3  -3   22.20    3.10
   4   3   3   22.80    3.70
  -4   3  -3   18.50    5.00
   5  -3   3   12.20    2.40
   5  -3   3    4.90    2.20
   5  -3   3   10.90    2.60
  -5  -3  -3    4.60    1.80
   5   3   3    6.30    2.60
  -5   3  -3    1.80    1.70
  -5   3  -3    8.90    2.10
  -5   3  -3    5.10    3.10
   5   3   3    9.80    2.50
  -6  -3  -3   48.40    3.50
   6  -3   3   47.10    3.80
   6  -3   3   53.39    4.10
   6   3   3   44.80    4.90
  -6   3  -3   40.30    3.00
   8  -4  -3    1.60    1.20
   7  -4  -3    2.60    1.70
   7  -4  -3    0.20    1.10
  -7   4   3    3.20    1.30
   7   4  -3    4.00    1.60
   7   4  -3    5.10    1.70
   6  -4  -3   16.10    3.00
   6  -4  -3   22.50    6.90
   6  -4  -3   20.40    6.40
   6  -4  -3   14.70    2.80
  -6   4   3   15.70    3.60
   6   4  -3   21.00    3.60
   6   4  -3   10.00    2.50
  -6   4   3   20.00    3.00
   6   4  -3   24.10    3.80
   5  -4  -3  106.69    6.60
   5  -4  -3  108.39    6.60
   5  -4  -3  118.29   11.10
   5  -4  -3   93.89    5.40
  -5  -4   3  100.29    4.90
  -5   4   3  109.19    7.40
   5   4  -3  108.09    7.30
  -5   4   3  103.29    5.70
   5   4  -3  105.79    6.20
   5   4  -3   98.69    8.90
   4  -4  -3  261.87   10.40
   4  -4  -3  269.57   15.10
  -4  -4   3  266.17    9.20
   4   4  -3  249.88   19.70
   4   4  -3  262.97   11.00
   4   4  -3  271.37   10.90
   3  -4  -3  913.21   29.70
   3  -4  -3  886.61   27.90
   3  -4  -3  835.02   32.20
  -3  -4   3  883.91   22.50
   3   4  -3  868.01   26.20
  -3   4   3  884.81   24.70
  -3   4   3  870.11   22.30
   3   4  -3  885.21   26.80
   2  -4  -3  318.17   16.70
   2  -4  -3  313.87   11.50
   2  -4  -3  314.37   13.70
  -2  -4   3  313.37   15.10
  -2  -4   3  329.67   10.80
   2  -4  -3  326.97   12.40
   2  -4  -3  365.66   18.10
  -2   4   3  323.57   11.80
  -2   4   3  328.47   10.10
  -1  -4   3  152.98    6.80
   1  -4  -3  149.99    7.30
  -1  -4   3  156.68   10.80
   1  -4  -3  162.58   11.60
   1  -4  -3  155.08    7.70
   1  -4  -3  129.29   10.20
   1   4  -3  153.28   10.50
   1   4  -3  149.19    6.80
  -1   4   3  148.79    7.10
   0  -4   3  429.26   13.60
   0  -4  -3  411.86   15.40
   0  -4  -3  444.26   19.60
   0  -4  -3  393.56   27.70
   0  -4   3  419.06   19.40
   0   4  -3  419.56   19.70
   0   4   3  417.26   13.30
   0   4  -3  420.96   14.20
   1  -4   3  808.22   30.70
  -1  -4  -3  776.72   22.70
  -1  -4  -3  805.02   29.70
   1  -4   3  768.42   22.30
  -1  -4  -3  837.22   30.00
  -1   4  -3  814.82   19.80
  -1   4  -3  814.52   23.60
  -1   4  -3  786.02   30.80
   2  -4   3  989.80   31.90
   2  -4   3  952.10   28.10
  -2  -4  -3  928.61   22.70
  -2  -4  -3  970.90   33.60
   2  -4   3  827.62   27.20
  -2   4  -3  941.61   23.10
  -2   4  -3  965.70   28.00
   3  -4   3   52.09    5.00
   3  -4   3   36.50    6.90
   3  -4   3   50.29    5.80
   3  -4   3   45.90    4.60
  -3  -4  -3   48.60    3.40
  -3  -4  -3   43.80    5.40
   3   4   3   51.19    5.60
   3   4   3   47.90    4.90
  -3   4  -3   46.70    5.00
  -3   4  -3   43.00    5.80
  -3   4  -3   45.20    4.10
  -4  -4  -3    5.10    2.30
   4  -4   3   12.10    2.90
   4  -4   3    9.00    2.80
   4  -4   3    5.00    3.90
   4  -4   3   12.10    3.00
  -4   4  -3   10.80    3.50
  -4   4  -3    9.10    2.60
   4   4   3    7.00    2.50
  -4   4  -3   11.40    2.30
   5  -4   3    2.90    2.00
   5  -4   3    0.30    4.00
   5  -4   3    4.90    2.30
   5  -4   3    1.10    1.30
  -5  -4  -3    3.20    2.40
  -5   4  -3    2.80    2.70
  -5   4  -3    3.20    1.80
  -5   4  -3    3.40    1.40
   5   4   3    0.30    1.40
   6  -4   3    2.10    1.40
  -6  -4  -3    2.80    1.70
  -6   4  -3    1.30    1.00
   6   4   3    3.00    1.70
   7  -5  -3   -0.60    1.00
   7  -5  -3    0.70    1.20
   7   5  -3    0.50    1.20
   7   5  -3    2.00    1.60
  -7   5   3    0.70    1.00
   6  -5  -3   29.90    4.10
   6  -5  -3   26.80    7.30
   6  -5  -3   26.10    7.20
   6  -5  -3   37.90    4.50
   6   5  -3   32.60    3.80
   6   5  -3   38.40    4.50
  -6   5   3   30.50    4.00
   6   5  -3   37.40    4.50
  -6   5   3   24.50    4.60
  -6   5   3   31.20    3.70
  -5  -5   3   72.39    4.50
   5  -5  -3   65.49    5.20
   5  -5  -3   61.09    9.20
   5  -5  -3   70.99    5.40
   5  -5  -3   65.29    9.80
   5  -5  -3   77.99    5.00
   5   5  -3   70.29    5.40
   5   5  -3   76.89    6.10
  -5   5   3   60.69    7.00
  -5   5   3   63.99    5.50
  -4  -5   3  160.48    7.30
   4  -5  -3  168.58   12.70
   4  -5  -3  141.79   11.00
   4  -5  -3  150.08    7.60
   4  -5  -3  141.59    7.40
   4  -5  -3  144.39    7.50
  -4   5   3  154.08    6.90
   4   5  -3  151.78    7.60
  -4   5   3  169.48    9.30
  -4   5   3  149.99    8.40
   4   5  -3  157.58    8.30
   4   5  -3  143.79    7.70
  -3  -5   3  453.65   18.60
   3  -5  -3  447.26   15.10
  -3  -5   3  469.95   14.60
  -3  -5   3  412.66   14.80
   3  -5  -3  500.55   18.90
   3  -5  -3  440.86   20.00
   3   5  -3  453.05   18.40
  -3   5   3  469.45   13.60
  -3   5   3  475.15   16.50
   3   5  -3  464.15   14.60
   2  -5  -3    9.00    3.90
  -2  -5   3   10.10    2.20
   2  -5  -3   10.50    3.30
   2  -5  -3    6.60    4.00
   2  -5  -3   10.20    2.60
  -2  -5   3   15.00    4.40
  -2   5   3    8.00    1.70
  -2   5   3    8.80    2.50
   1  -5  -3  650.23   19.80
  -1  -5   3  638.84   17.40
  -1  -5   3  648.04   18.80
  -1  -5   3  650.73   30.20
   1  -5  -3  606.24   26.60
   1  -5  -3  635.04   16.50
   1   5  -3  629.74   18.70
  -1   5   3  661.33   19.40
  -1   5   3  621.34   16.40
   1   5  -3  640.34   25.90
   0  -5   3   24.00    2.90
   0  -5   3   24.10    3.70
   0  -5  -3   24.40    5.80
   0  -5  -3   19.40    2.30
   0  -5  -3   20.40    3.40
   0  -5  -3   19.50    5.30
   0  -5   3   15.70    5.30
   0   5  -3   18.50    2.30
   0   5  -3   18.50    3.20
   0   5  -3   15.80    4.80
   0   5   3   21.80    3.20
   1  -5   3   55.79    5.90
  -1  -5  -3   50.59    8.70
  -1  -5  -3   52.49    8.90
   1  -5   3   48.20    8.80
  -1  -5  -3   55.09    5.80
  -1  -5  -3   47.10    3.10
  -1   5  -3   45.40    5.30
  -1   5  -3   57.09    9.60
  -1   5  -3   50.19    3.20
   2  -5   3   15.10    3.70
  -2  -5  -3   33.50    4.60
   2  -5   3   39.00    4.30
  -2  -5  -3   38.00    3.50
   2  -5   3   33.00    6.50
   2  -5   3   38.30    5.00
   2   5   3   42.20    4.90
  -2   5  -3   33.20    3.90
  -2   5  -3   33.10    4.80
   2   5   3   40.30    4.70
  -2   5  -3   33.60    3.30
  -3  -5  -3   16.30    3.70
   3  -5   3   24.10    3.60
   3  -5   3   20.20    3.50
  -3  -5  -3   18.60    2.60
   3  -5   3    7.30    3.50
   3  -5   3   10.30    4.00
   3  -5   3   22.00    4.10
  -3   5  -3   16.10    3.90
  -3   5  -3   17.30    2.80
   3   5   3   20.70    3.90
  -3   5  -3   17.50    3.30
   3   5   3   13.90    2.90
  -4  -5  -3    4.70    2.30
   4  -5   3    2.30    3.80
  -4  -5  -3    6.40    1.90
   4  -5   3    3.50    1.80
   4  -5   3    9.10    2.50
   4  -5   3    7.70    2.50
  -4   5  -3    8.10    2.30
  -4   5  -3   11.90    3.80
   4   5   3    3.90    2.30
  -4   5  -3    6.80    1.90
   5  -5   3   31.40    3.80
   5  -5   3   29.80    3.90
   5  -5   3   27.40    3.80
  -5  -5  -3   37.60    3.70
  -5   5  -3   40.80    4.50
   5   5   3   34.30    5.10
   6  -5   3   12.70    2.30
  -6   5  -3    7.60    1.60
   6   5   3    7.80    2.00
   7  -6  -3   91.69    4.90
   7  -6  -3   85.19    5.10
  -7   6   3   91.89    4.60
   7   6  -3   89.59    4.60
   7   6  -3   89.49    5.10
   6  -6  -3   57.19    4.90
   6  -6  -3   55.09   13.50
   6  -6  -3   60.69    4.60
  -6   6   3   61.19    4.90
   6   6  -3   65.19    5.00
   6   6  -3   68.09    5.30
  -6   6   3   63.69    4.40
  -6   6   3   58.79    8.60
   5  -6  -3    0.30    1.30
  -5  -6   3    0.20    1.20
   5  -6  -3    1.00    1.60
   5  -6  -3    0.10    1.20
   5  -6  -3    3.30    3.20
  -5  -6   3    1.30    2.30
   5  -6  -3    1.00    2.80
  -5   6   3    2.40    1.90
   5   6  -3   -0.10    1.50
  -5   6   3    1.10    1.80
   5   6  -3   -0.90    1.30
  -5   6   3   -0.90    0.90
   4  -6  -3    2.30    2.30
  -4  -6   3    4.80    2.00
   4  -6  -3    6.60    4.10
   4  -6  -3    2.90    2.00
   4  -6  -3    4.30    1.80
  -4  -6   3    2.80    1.50
   4  -6  -3    6.60    2.40
   4   6  -3    3.30    1.80
  -4   6   3    5.70    1.80
  -4   6   3    5.60    2.30
   4   6  -3    7.50    2.50
  -4   6   3    2.40    1.90
   3  -6  -3  533.05   24.20
  -3  -6   3  513.75   14.90
   3  -6  -3  507.55   19.70
   3  -6  -3  514.45   17.10
   3  -6  -3  526.65   15.80
  -3  -6   3  532.45   20.30
  -3   6   3  506.95   18.60
  -3   6   3  535.55   15.30
   3   6  -3  507.55   16.10
   3   6  -3  501.05   15.30
  -3   6   3  529.65   19.40
  -2  -6   3   74.79    4.60
   2  -6  -3   89.99    6.50
   2  -6  -3   87.69    7.90
  -2  -6   3   79.69   10.40
   2  -6  -3   88.09    6.10
   2  -6  -3   77.89   11.30
   2  -6  -3   90.09   12.40
  -2  -6   3   78.69    5.50
  -2   6   3   92.79    6.50
  -2   6   3   83.89    4.50
  -1  -6   3  119.99   13.30
   1  -6  -3  134.09   15.10
   1  -6  -3  122.69    5.50
  -1  -6   3  131.39    7.30
   1  -6  -3  135.29    8.00
   1  -6  -3  115.09   13.70
  -1  -6   3  117.89    5.90
  -1   6   3  125.09    8.40
   1   6  -3  106.79   12.00
  -1   6   3  132.19    5.40
   0  -6  -3   40.40    3.10
   0  -6  -3   45.10    8.40
   0  -6  -3   46.00    5.50
   0  -6   3   40.90    4.10
   0  -6   3   45.00    5.50
   0  -6  -3   54.09    9.70
   0   6  -3   29.90    6.80
   0   6   3   40.90    4.90
   0   6  -3   46.30    5.50
  -1  -6  -3   21.00    7.30
   1  -6   3   24.30    3.10
   1  -6   3   28.60    4.00
  -1  -6  -3   31.10    5.00
   1  -6   3   33.10    4.80
  -1  -6  -3   31.10    3.40
   1  -6   3   32.30    3.40
   1  -6   3   32.80    8.10
   1  -6   3   31.30    4.70
  -1   6  -3   28.20    4.40
  -1   6  -3   30.50    3.00
   1   6   3   25.90    3.90
  -1   6  -3   23.20    3.00
  -2  -6  -3   10.60    3.10
  -2  -6  -3    6.30    1.70
   2  -6   3   10.80    2.60
   2  -6   3   13.10    4.60
   2  -6   3    6.70    2.40
   2  -6   3   11.40    2.40
   2  -6   3    5.10    2.20
  -2  -6  -3    9.40    2.90
  -2   6  -3   12.60    4.70
  -2   6  -3   12.20    2.70
  -2   6  -3    7.20    1.80
   2   6   3    7.90    2.50
   2   6   3    9.40    2.60
   3  -6   3   18.50    3.20
   3  -6   3   22.80    5.70
  -3  -6  -3   28.20    3.40
  -3  -6  -3   28.30    4.20
  -3  -6  -3   31.10    5.20
   3  -6   3   31.60    4.20
   3  -6   3   21.70    6.50
   3  -6   3   19.90    3.90
  -3   6  -3   23.60    5.10
  -3   6  -3   25.10    3.90
   3   6   3   26.60    4.40
  -3   6  -3   25.20    3.30
  -4  -6  -3   15.90    3.90
  -4  -6  -3   16.30    2.60
   4  -6   3   17.90    3.60
   4  -6   3   19.10    3.40
   4  -6   3   11.70    2.60
   4  -6   3   13.90    5.70
  -4   6  -3   13.30    2.50
   4   6   3   18.80    3.70
  -4   6  -3   19.00    4.60
   5  -6   3   20.20    3.10
   5  -6   3   16.00    2.70
   5  -6   3   24.30    3.30
   5  -6   3   26.80    3.60
  -5  -6  -3   28.20    3.20
   5   6   3   17.90    3.40
  -5   6  -3   22.50    3.30
  -5   6  -3   18.10    2.70
   6  -6   3   16.40    2.40
  -6   6  -3   12.50    1.90
  -6   6  -3   10.40    1.80
   6   6   3   20.90    3.10
   7  -7  -3   22.70    2.70
   7  -7  -3   24.60    2.50
   7   7  -3   28.60    3.30
  -7   7   3   20.80    2.40
   6  -7  -3   24.60    3.10
   6  -7  -3   22.50    3.20
   6   7  -3   24.30    3.30
   6   7  -3   25.00    3.90
  -6   7   3   28.40    4.00
  -6   7   3   27.90    3.50
   5  -7  -3  227.08   16.10
   5  -7  -3  269.77   19.20
   5  -7  -3  266.87   11.00
   5  -7  -3  249.88   10.00
  -5  -7   3  264.37    9.80
   5  -7  -3  262.07   10.90
  -5  -7   3  250.67   11.00
   5   7  -3  267.47   11.40
  -5   7   3  270.67   14.50
  -5   7   3  259.77   11.50
  -5   7   3  260.67   10.00
   5   7  -3  268.37   11.30
  -4  -7   3    3.70    1.80
   4  -7  -3    4.00    2.30
   4  -7  -3   -0.30    1.80
   4  -7  -3    3.70    2.90
   4  -7  -3    2.30    1.70
   4  -7  -3   -1.80    2.10
  -4  -7   3    1.50    1.70
  -4   7   3    3.50    2.00
   4   7  -3    3.00    1.90
  -4   7   3    2.90    2.20
  -4   7   3    0.70    1.80
   4   7  -3    1.10    1.80
  -3  -7   3   11.70    3.70
   3  -7  -3   13.80    4.70
   3  -7  -3   22.20    3.50
   3  -7  -3   16.50    2.80
  -3  -7   3   18.50    3.00
  -3  -7   3   17.60    3.40
   3  -7  -3   21.80    4.60
   3  -7  -3   13.10    2.80
   3   7  -3   14.80    3.00
  -3   7   3   20.40    4.40
   3   7  -3   20.10    3.20
  -3   7   3   10.90    2.20
  -3   7   3   19.60    3.50
  -2  -7   3  244.88    9.40
  -2  -7   3  251.97   11.20
   2  -7  -3  261.67   10.60
  -2  -7   3  255.47   12.70
   2  -7  -3  261.57   10.40
   2  -7  -3  263.27   15.00
  -2   7   3  240.78   10.80
   2   7  -3  254.07   10.20
   2   7  -3  243.68   10.40
  -2   7   3  252.27   12.40
  -2   7   3  255.17    9.00
  -2   7   3  233.38   12.10
  -1  -7   3  395.56   12.40
   1  -7  -3  354.76   14.50
  -1  -7   3  376.26   14.20
   1  -7  -3  372.66   24.40
   1  -7  -3  361.66   24.10
   1  -7  -3  354.76   15.80
   1  -7  -3  366.96   15.50
   1  -7  -3  370.56   11.70
  -1  -7   3  391.66   14.90
  -1  -7   3  387.76   25.10
  -1   7   3  374.36   11.10
   1   7  -3  361.16   18.90
  -1   7   3  355.16   14.60
  -1   7   3  438.86   18.00
  -1   7   3  368.66   13.60
   1   7  -3  379.56   12.90
   0  -7   3  256.97   21.20
   0  -7  -3  263.67    9.20
   0  -7   3  280.87   13.00
   0  -7  -3  290.87   24.10
   0  -7  -3  272.57   13.00
   0  -7   3  268.57   12.40
   0  -7  -3  246.68   13.10
   0   7  -3  255.07   10.30
   0   7  -3  247.38   19.70
   0   7  -3  265.17    8.20
   0   7   3  260.77   10.50
   0   7  -3  278.57   10.40
   1  -7   3    0.60    1.70
   1  -7   3    1.50    1.80
   1  -7   3    0.80    1.90
  -1  -7  -3    0.40    1.50
   1  -7   3    1.80    1.60
  -1  -7  -3    1.90    1.40
  -1  -7  -3   -0.10    1.50
  -1   7  -3    0.90    2.00
  -1   7  -3    2.40    1.40
  -1   7  -3    1.00    1.10
   1   7   3    1.30    1.80
  -1   7  -3   -0.20    1.60
  -2  -7  -3    2.20    1.90
  -2  -7  -3    2.50    1.40
   2  -7   3    3.60    2.10
   2  -7   3    1.50    1.40
  -2  -7  -3    7.00    2.90
   2  -7   3    2.20    1.90
   2  -7   3    4.10    3.00
   2  -7   3    5.20    2.60
   2   7   3    4.90    2.30
   2   7   3    2.80    1.90
  -2   7  -3    0.60    2.60
  -2   7  -3    2.80    2.10
  -2   7  -3    3.40    2.10
  -2   7  -3    4.20    1.60
   3  -7   3   11.10    2.70
   3  -7   3    9.10    2.50
  -3  -7  -3    4.20    2.20
   3  -7   3   12.30    5.10
   3  -7   3   10.60    3.30
  -3  -7  -3   10.40    2.30
  -3   7  -3   15.10    2.70
   3   7   3    7.50    2.50
  -3   7  -3   20.20    6.00
  -3   7  -3   12.90    3.00
   3   7   3   11.20    2.60
  -4  -7  -3  100.09   14.50
   4  -7   3   56.79   14.00
   4  -7   3  100.69    6.10
   4  -7   3  103.39    6.40
  -4  -7  -3   94.79    5.40
   4  -7   3  104.09    7.10
  -4   7  -3  102.89    5.70
   4   7   3  103.29    7.00
  -4   7  -3   97.09   11.40
  -5  -7  -3   50.89    4.30
   5  -7   3   48.20    3.20
   5  -7   3   51.49    4.30
  -5   7  -3   47.60    4.00
  -5   7  -3   46.80    3.50
   5   7   3   45.30    4.80
   7  -8  -3  313.47    9.70
  -7   8   3  308.57    8.90
   7   8  -3  296.67   11.90
   6  -8  -3   63.69    4.10
   6  -8  -3   68.49    4.70
  -6  -8   3   64.49    4.60
   6   8  -3   61.49    4.20
  -6   8   3   69.29    4.20
  -6   8   3   73.59    5.00
   6   8  -3   68.59    5.20
   5  -8  -3  285.17   21.50
  -5  -8   3  379.86   12.80
   5  -8  -3  363.66   12.00
   5  -8  -3  370.96   24.30
  -5  -8   3  347.37   14.20
   5  -8  -3  403.96   14.10
   5  -8  -3  368.36   13.30
  -5   8   3  381.76   14.30
   5   8  -3  392.36   13.90
   5   8  -3  384.36   13.80
  -5   8   3  370.56   18.10
  -5   8   3  382.86   12.70
   4  -8  -3   37.60    4.20
  -4  -8   3   30.10    4.90
   4  -8  -3   25.30    6.80
  -4  -8   3   47.00    4.80
   4  -8  -3   38.60    5.60
   4  -8  -3   35.40    7.50
   4   8  -3   56.49    5.90
  -4   8   3   46.30    4.70
   4   8  -3   46.90    5.20
  -4   8   3   32.70    5.80
  -4   8   3   43.40    5.40
   3  -8  -3   25.90    3.90
  -3  -8   3   31.40    5.00
   3  -8  -3   34.90    5.60
  -3  -8   3   29.80    4.30
   3  -8  -3   18.10    5.10
  -3  -8   3   23.20    3.50
   3  -8  -3   28.70    3.50
  -3   8   3   31.80    6.00
  -3   8   3   29.80    3.50
  -3   8   3   35.40    4.90
  -3   8   3   28.50    5.10
   3   8  -3   36.30    4.70
  -2  -8   3   24.40    3.70
   2  -8  -3   22.00    3.80
   2  -8  -3   15.50    3.30
  -2  -8   3   26.50    4.50
  -2  -8   3   34.60    4.70
   2  -8  -3   32.10    6.70
  -2   8   3   32.90    5.70
  -2   8   3   21.70    3.50
   2   8  -3   26.60    4.30
  -2   8   3   28.40    3.30
  -2   8   3   26.10    4.80
   2   8  -3   30.10    4.50
   1  -8  -3   18.20    2.90
  -1  -8   3   18.60    3.90
   1  -8  -3   18.10    3.30
  -1  -8   3   15.10    2.90
   1  -8  -3   25.00    5.00
  -1  -8   3   16.40    3.30
   1  -8  -3   17.10    4.10
   1   8  -3   16.30    3.40
   1   8  -3   14.50    2.50
  -1   8   3   13.40    2.20
  -1   8   3   19.00    3.40
   1   8  -3   17.90    3.30
  -1   8   3   22.00    4.70
   0  -8  -3  134.49    6.50
   0  -8   3  138.09    6.90
   0  -8   3  122.59    7.90
   0  -8  -3  125.29    7.60
   0  -8  -3  148.99   10.00
   0  -8   3  129.69    8.80
   0  -8   3  138.89    9.10
   0  -8  -3  113.29   10.10
   0   8  -3  139.39    7.30
   0   8  -3  136.09    7.30
   0   8   3  128.59    7.00
   0   8   3  144.99    8.70
   1  -8   3    1.00    2.70
   1  -8   3   -0.50    1.70
   1  -8   3   -0.50    1.80
  -1  -8  -3    1.20    1.60
  -1  -8  -3   -1.60    0.90
  -1  -8  -3   -1.30    1.40
   1  -8   3    0.30    1.50
   1  -8   3    0.30    2.10
   1   8   3    2.00    1.90
  -1   8  -3    1.40    1.50
  -1   8  -3   -0.60    1.80
  -1   8  -3   -1.00    1.10
  -1   8  -3    1.30    2.20
   1   8   3    1.20    1.80
   2  -8   3  416.76   22.60
  -2  -8  -3  376.06   14.80
  -2  -8  -3  398.46   17.90
   2  -8   3  416.66   15.50
   2  -8   3  408.86   14.00
   2  -8   3  416.56   16.70
  -2   8  -3  391.96   18.80
  -2   8  -3  395.86   14.80
   2   8   3  405.86   15.10
  -2   8  -3  441.56   17.50
   2   8   3  409.96   14.30
  -2   8  -3  398.96   16.70
   3  -8   3    9.80    5.50
   3  -8   3    8.10    2.90
  -3  -8  -3    8.30    2.70
   3  -8   3    4.00    1.90
  -3  -8  -3   10.50    3.50
   3  -8   3    1.60    3.40
  -3  -8  -3    6.00    2.00
   3  -8   3    6.10    2.20
   3   8   3    7.10    2.30
  -3   8  -3    2.60    1.40
  -3   8  -3    4.90    2.30
   3   8   3    8.00    2.60
  -3   8  -3    4.50    3.20
   4  -8   3 1012.90   26.60
  -4  -8  -3 1014.90   26.10
   4  -8   3 1024.10   28.90
   4   8   3 1000.10   27.70
  -4   8  -3 1001.00   28.10
   5  -8   3   75.69    4.40
  -5  -8  -3   76.89    4.40
   5   8   3   81.59    5.00
  -5   8  -3   80.69    4.30
  -5   8  -3   81.79    4.90
  -6  -9   3   35.30    3.50
   6  -9  -3   37.90    3.10
   6   9  -3   37.60    4.10
  -6   9   3   42.10    3.50
  -6   9   3   31.90    3.10
  -5  -9   3    2.60    1.70
   5  -9  -3    1.10    1.60
   5  -9  -3    0.20    1.20
   5   9  -3    4.00    2.20
   5   9  -3    2.10    1.70
  -5   9   3    0.50    1.20
  -5   9   3    0.80    1.00
  -4  -9   3   45.20    6.40
  -4  -9   3   34.10    6.40
  -4  -9   3   43.70    4.80
   4  -9  -3   41.50    5.20
   4  -9  -3   39.40    8.90
   4  -9  -3   45.40    5.80
  -4   9   3   46.50    7.40
  -4   9   3   44.60    5.50
  -4   9   3   43.00    4.30
   4   9  -3   48.10    5.60
   4   9  -3   42.10    5.90
   3  -9  -3  254.47   20.00
  -3  -9   3  231.78    9.90
  -3  -9   3  226.68   11.20
  -3  -9   3  239.68   13.30
   3  -9  -3  242.58   10.40
   3  -9  -3  224.58   11.40
   3  -9  -3  218.38    9.10
   3   9  -3  230.28    9.70
  -3   9   3  232.58   14.00
  -3   9   3  224.38   12.50
  -3   9   3  232.78    9.10
  -3   9   3  224.68   11.00
   3   9  -3  224.68   10.60
   2  -9  -3    3.40    1.90
  -2  -9   3    7.00    2.90
   2  -9  -3    3.70    3.00
  -2  -9   3    2.80    1.90
  -2  -9   3    2.80    2.10
   2  -9  -3    5.30    2.40
  -2   9   3    0.60    1.90
  -2   9   3    2.70    1.70
  -2   9   3   -1.80    2.20
   2   9  -3    2.40    1.70
  -2   9   3    2.00    1.30
   2   9  -3    5.00    2.60
  -1  -9   3  366.86   16.70
   1  -9  -3  349.17   14.10
  -1  -9   3  376.36   15.20
  -1  -9   3  372.66   13.10
   1  -9  -3  353.36   12.20
   1  -9  -3  334.57   14.90
   1   9  -3  356.06   14.50
  -1   9   3  367.76   14.40
   1   9  -3  354.66   12.30
   0  -9   3  209.18   12.50
   0  -9   3  234.78    9.60
   0  -9  -3  235.28   11.10
   0  -9   3  227.88   11.80
   0  -9  -3  229.28   12.10
   0  -9  -3  219.78    9.30
   0  -9  -3  225.18   13.50
   0  -9   3  244.38   11.90
   0   9  -3  236.58   10.10
   0   9   3  227.48   11.80
   0   9   3  227.48    9.80
   0   9  -3  312.47   15.00
  -1  -9  -3   44.20    5.40
   1  -9   3   43.10    7.80
   1  -9   3   42.10    5.40
  -1  -9  -3   52.79    7.50
  -1  -9  -3   44.50    4.80
   1  -9   3   46.70    6.70
  -1   9  -3   29.80    4.00
  -1   9  -3   46.60    6.30
  -1   9  -3   42.90    3.80
   1   9   3   43.50    6.10
   2  -9   3  311.17   19.60
   2  -9   3  300.57   11.20
  -2  -9  -3  316.37   13.10
   2  -9   3  310.27   13.20
  -2  -9  -3  327.47   16.40
   2  -9   3  303.47   14.30
  -2  -9  -3  323.17   11.70
  -2   9  -3  334.17   13.10
  -2   9  -3  301.47   10.50
   2   9   3  315.37   11.70
   2   9   3  321.77   13.20
  -2   9  -3  305.07   17.30
  -2   9  -3  298.97   14.30
  -3  -9  -3  188.38    9.40
  -3  -9  -3  204.78   13.30
   3  -9   3  187.68   10.30
   3  -9   3  188.88    8.20
   3  -9   3  184.98   15.60
   3  -9   3  158.48   18.30
  -3  -9  -3  194.78    8.40
  -3   9  -3  187.38   10.90
  -3   9  -3  197.68    7.90
  -3   9  -3  189.48    9.30
   3   9   3  197.48    7.70
  -3   9  -3  182.18   13.70
   3   9   3  184.78    8.60
   4  -9   3  267.37   11.30
   4  -9   3  254.57    9.30
  -4  -9  -3  252.27   10.30
  -4  -9  -3  265.67    9.70
  -4   9  -3  262.47   10.70
   4   9   3  265.27   10.20
  -4   9  -3  269.57    9.20
  -5  -9  -3    0.60    1.10
  -5   9  -3    0.10    0.80
  -5   9  -3    0.00    0.90
   5   9   3    0.30    1.00
   6 -10  -3   14.80    1.80
  -6  10   3   17.80    2.70
   6  10  -3   16.20    2.50
   5 -10  -3    9.00    1.80
  -5 -10   3    8.60    2.10
   5 -10  -3    7.00    2.30
   5  10  -3    1.80    2.00
  -5  10   3    7.60    2.10
  -5  10   3    6.00    1.70
   4 -10  -3   35.50    5.00
  -4 -10   3   31.70    4.50
   4 -10  -3   32.50    3.60
  -4 -10   3   28.80    4.40
   4  10  -3   32.70    4.60
  -4  10   3   31.40    3.50
   4  10  -3   33.50    4.10
  -4  10   3   37.20    4.50
   3 -10  -3  171.28    9.80
  -3 -10   3  159.38    8.30
  -3 -10   3  150.18   10.60
   3 -10  -3  162.58   14.50
   3 -10  -3  155.28    8.20
  -3 -10   3  158.08    9.50
  -3  10   3  156.88    8.90
  -3  10   3  163.18   12.30
  -3  10   3  148.59   12.10
  -3  10   3  158.68    6.90
   3  10  -3  153.78    8.80
   3  10  -3  157.48    7.80
  -2 -10   3  196.58   12.10
   2 -10  -3  199.28   15.20
   2 -10  -3  184.78   10.70
  -2 -10   3  198.28   10.80
   2 -10  -3  191.38   10.10
  -2 -10   3  191.08    9.20
  -2  10   3  202.48   10.10
   2  10  -3  196.38    9.90
  -2  10   3  203.78   11.60
   2  10  -3  194.18    9.50
  -2  10   3  195.48   10.70
   1 -10  -3  550.84   20.30
   1 -10  -3  616.44   31.00
  -1 -10   3  534.75   19.80
   1 -10  -3  581.74   19.70
  -1 -10   3  564.74   17.80
   1 -10  -3  546.75   16.50
  -1 -10   3  526.25   20.70
  -1 -10   3  517.65   27.90
   1  10  -3  555.94   17.90
   1  10  -3  558.14   19.70
  -1  10   3  543.65   20.70
  -1  10   3  545.65   18.10
   1  10  -3  538.95   16.10
   0 -10   3   68.99    9.30
   0 -10  -3   43.00    5.20
   0 -10   3   68.29    8.30
   0 -10   3   63.69    7.20
   0 -10   3   55.49    5.40
   0 -10   3   63.99    9.30
   0 -10  -3   53.49    6.70
   0 -10  -3   63.19    5.90
   0  10   3   60.49    4.70
   0  10  -3   57.29    5.90
   0  10  -3   47.80    5.80
   0  10   3   44.50    5.90
   1 -10   3  808.62   25.50
   1 -10   3  799.02   32.60
  -1 -10  -3  857.81   23.60
   1 -10   3  827.12   27.10
  -1 -10  -3  840.42   30.40
  -1 -10  -3  850.91   25.90
  -1  10  -3  809.12   26.70
   1  10   3  836.02   26.20
  -1  10  -3  829.32   24.00
  -2 -10  -3   49.40    5.70
   2 -10   3   40.20    4.90
   2 -10   3   55.99    7.40
  -2 -10  -3   49.60    7.70
  -2 -10  -3   48.80    5.00
   2  10   3   48.90    4.80
  -2  10  -3   45.90    3.90
  -2  10  -3   46.20    6.00
   2  10   3   53.09    5.90
  -2  10  -3   54.69    5.50
  -3 -10  -3   22.60    3.70
   3 -10   3   16.70    4.30
  -3 -10  -3   21.50    3.30
   3  10   3   21.60    3.10
  -3  10  -3   20.00    2.60
  -3  10  -3   23.50    6.20
  -4 -10  -3   25.00    3.00
  -4 -10  -3   21.90    3.10
   4 -10   3   26.50    3.60
  -4  10  -3   26.30    2.60
   4  10   3   23.60    2.90
  -4  10  -3   24.90    3.30
  -5 -11   3    7.60    1.90
   5 -11  -3    3.80    1.50
   5  11  -3    3.70    1.70
  -5  11   3   10.90    2.20
  -4 -11   3   14.30    2.80
  -4 -11   3   18.00    3.20
   4 -11  -3   19.30    3.50
  -4  11   3   16.90    3.10
   4  11  -3   16.20    3.10
  -4  11   3   14.80    2.20
   3 -11  -3  237.08    9.90
  -3 -11   3  257.27   10.70
  -3 -11   3  262.27   11.90
   3 -11  -3  263.77   11.90
  -3  11   3  258.87   12.70
   3  11  -3  246.28   10.60
   3  11  -3  253.37    9.70
  -3  11   3  250.67   11.10
  -3  11   3  241.98    8.30
   3  11  -3  242.28   10.10
   2 -11  -3   48.30    5.70
   2 -11  -3   54.79    5.70
  -2 -11   3   46.40    5.60
  -2 -11   3   63.49    9.80
   2 -11  -3   59.49   14.50
  -2 -11   3   63.59    6.20
  -2  11   3   59.89    5.00
   2  11  -3   56.39    6.20
  -2  11   3   50.39    6.10
   2  11  -3   45.70    4.80
  -1 -11   3  372.36   16.00
  -1 -11   3  363.06   13.50
   1 -11  -3  366.36   14.90
  -1 -11   3  358.86   18.80
  -1 -11   3  381.86   16.90
   1 -11  -3  365.56   12.30
   1 -11  -3  354.66   20.70
  -1  11   3  357.86   19.40
  -1  11   3  393.86   15.80
   1  11  -3  387.06   16.00
   0 -11  -3  156.28   12.90
   0 -11   3  171.78    7.90
   0 -11   3  150.58   12.50
   0 -11  -3  159.88    9.80
   0 -11   3  160.98   10.30
   0 -11  -3  138.79   11.80
   0 -11  -3  170.38    8.00
   0  11  -3  165.98   11.00
   0  11   3  158.38    7.20
  -1 -11  -3   18.20    5.90
   1 -11   3   20.90    4.70
  -1 -11  -3   21.40    3.80
  -1 -11  -3   17.90    3.30
   1 -11   3   13.90    3.20
   1  11   3   21.70    4.20
  -1  11  -3   15.00    3.70
  -1  11  -3   18.70    3.20
  -2 -11  -3   28.80    3.90
  -2 -11  -3   27.90    4.00
   2 -11   3   27.90    3.70
   2 -11   3   30.10    5.00
  -2  11  -3   33.40    4.10
   2  11   3   28.90    4.00
  -2  11  -3   29.80    5.00
  -3 -11  -3    8.30    2.30
  -3 -11  -3    7.40    2.00
   3 -11   3    3.90    2.10
  -3  11  -3    2.70    1.50
  -3  11  -3    9.10    2.70
   3  11   3    4.90    1.80
   4 -11   3   21.90    2.80
  -4 -11  -3   24.40    2.80
  -4  11  -3   20.30    2.70
   4  11   3   23.90    2.40
  -4 -12   3   22.70    4.20
   4 -12  -3   18.80    3.10
  -4 -12   3   18.60    2.80
   4  12  -3   23.20    2.90
  -4  12   3   24.20    3.10
   3 -12  -3   10.90    2.90
  -3 -12   3   14.40    3.20
   3 -12  -3   12.00    2.30
  -3 -12   3    8.80    2.40
   3  12  -3    9.80    2.30
  -3  12   3   10.10    3.00
  -3  12   3   14.40    2.80
   3  12  -3   13.80    2.70
   2 -12  -3  151.58    8.90
   2 -12  -3  155.58    8.30
  -2 -12   3  159.68    8.00
  -2 -12   3  164.48    9.40
  -2  12   3  159.98    7.80
   2  12  -3  165.58    8.30
   2  12  -3  162.88    7.80
  -2  12   3  145.59    9.20
  -1 -12   3    2.30    2.00
   1 -12  -3    0.90    1.90
   1 -12  -3    0.00    1.40
  -1 -12   3    6.80    2.20
   1  12  -3    5.30    2.00
  -1  12   3    3.20    1.40
   1  12  -3    2.00    2.00
  -1  12   3    1.20    1.80
   0 -12  -3    5.70    2.40
   0 -12   3    4.80    2.30
   0 -12   3    5.70    2.40
   0 -12  -3    4.50    2.00
   0 -12  -3    4.30    3.00
   0 -12   3    6.60    2.80
   0  12  -3    9.40    2.90
   0  12   3    4.00    2.10
   0  12  -3    3.00    1.50
  -1 -12  -3   -0.50    1.10
   1 -12   3    2.90    2.20
  -1 -12  -3    5.20    2.00
   1 -12   3    2.70    1.90
  -1  12  -3    2.60    1.40
   1  12   3    2.70    1.90
  -1  12  -3    4.50    2.20
  -2 -12  -3    2.10    1.50
   2 -12   3    2.70    2.00
  -2 -12  -3    1.30    1.40
   2 -12   3    1.30    1.40
   2  12   3    1.20    1.20
  -2  12  -3    2.40    1.40
  -2  12  -3    1.30    1.80
   3 -12   3   81.59    5.40
  -3 -12  -3   93.99    6.70
  -3 -12  -3   88.99    4.80
  -3  12  -3   88.49    4.90
  -3  12  -3   82.99    5.70
   4 -13  -3   10.30    2.00
  -4 -13   3    7.30    1.80
   4  13  -3    8.30    1.80
  -4  13   3   10.40    1.80
   3 -13  -3    6.60    2.00
  -3 -13   3    2.00    1.60
   3  13  -3    2.90    1.40
  -3  13   3    6.50    1.70
  -3  13   3    6.70    2.20
   2 -13  -3    2.10    1.40
  -2 -13   3    1.90    1.50
   2 -13  -3    4.00    2.10
  -2 -13   3    0.40    1.30
  -2  13   3    1.60    1.80
   2  13  -3    1.90    1.40
  -2  13   3    2.70    1.20
   2  13  -3    0.00    0.90
  -1 -13   3   15.40    3.20
   1 -13  -3   15.10    3.30
   1 -13  -3   15.80    2.90
  -1 -13   3   15.10    2.70
  -1  13   3   13.70    3.20
   1  13  -3   19.10    3.30
  -1  13   3   13.70    2.00
   0 -13   3   27.20    3.80
   0 -13   3   27.50    4.40
   0 -13  -3   26.80    4.00
   0 -13  -3   30.60    4.70
   0 -13  -3   30.20    3.30
   0  13  -3   26.10    3.70
   0  13   3   33.00    4.50
   1 -13   3   89.79    6.40
   1 -13   3  102.49    6.00
  -1 -13  -3   99.29    6.30
  -1 -13  -3  106.19    6.70
  -1  13  -3  107.29    6.70
   1  13   3  106.09    6.00
  -1  13  -3  101.49    4.70
   2 -13   3   54.49    4.50
  -2 -13  -3   56.69    3.70
  -2 -13  -3   48.50    4.10
  -2  13  -3   59.99    4.60
  -2  13  -3   52.89    3.40
  -2 -14   3   14.10    2.40
   2 -14  -3   11.70    2.50
   2 -14  -3   13.70    1.90
  -2 -14   3   12.30    2.10
  -2  14   3   16.30    2.80
  -1 -14   3   25.40    3.30
   1 -14  -3   24.80    3.70
   1 -14  -3   25.50    3.10
  -1  14   3   22.50    3.10
   1  14  -3   26.00    3.20
   0 -14   3   -0.10    1.10
   0 -14  -3    0.80    1.00
   0 -14   3    1.60    2.00
   0  14   3    0.40    1.20
   0  14  -3   -0.30    1.10
  -1 -14  -3    3.40    1.50
   1 -14   3    3.50    1.30
   1 -14   3    2.20    1.70
  -1  14  -3    4.80    1.70
   1  14   3    4.40    2.00
   8   0  -4   19.40    2.60
   8   0  -4   12.00    2.10
   7   0  -4   54.89    5.80
   7   0  -4   69.69    5.30
   6   0  -4  818.92   33.00
   6   0  -4  842.12   32.90
   6   0  -4  799.72   24.70
   6   0  -4  836.82   24.50
  -6   0   4  811.52   22.00
   5   0  -4   29.80    5.70
   5   0  -4   28.70    4.00
  -5   0   4   42.00    3.50
   5   0  -4   37.60    6.70
   5   0  -4   40.00    4.90
   4   0  -4  614.34   19.20
   4   0  -4  587.14   18.70
   4   0  -4  628.04   23.50
  -4   0   4  624.94   17.80
   4   0  -4  619.24   20.10
  -4   0   4  709.13   18.30
   3   0  -4   20.90    4.00
  -3   0   4   14.50    3.90
  -3   0   4   11.30    2.00
   3   0  -4   22.10    4.10
   3   0  -4   14.90    3.60
   2   0  -4  965.10   26.40
  -2   0   4  973.60   24.30
  -2   0   4  918.41   30.30
   1   0  -4 2818.52   72.39
   1   0  -4 2931.81   65.69
  -1   0   4 2948.21   73.49
   0   0   4 5587.04  132.49
   0   0  -4 5774.12  132.39
   1   0   4 1300.17   32.90
   1   0   4 1391.46   43.30
  -1   0  -4 1385.26   35.20
  -1   0  -4 1340.97   42.50
  -2   0  -4 1048.50   29.40
  -2   0  -4 1029.80   25.00
   2   0   4 1032.00   32.00
  -3   0  -4  106.59    6.60
   3   0   4  102.79    6.20
   3   0   4  106.89   14.70
  -3   0  -4  106.89    7.80
   3   0   4  115.09    6.80
  -3   0  -4  110.19    5.30
   4   0   4  444.86   16.10
  -4   0  -4  440.36   20.00
  -4   0  -4  416.46   14.90
   4   0   4  438.16   13.60
  -4   0  -4  420.86   13.10
   4   0   4  409.46   14.50
   4   0   4  401.96   21.70
   5   0   4 1349.27   35.90
   5   0   4 1341.07   34.00
  -6   0  -4  253.67    8.40
   6   0   4  278.07   10.10
   6   0   4  274.17    9.10
   8  -1  -4  158.28    6.60
   8  -1  -4  140.99    6.40
   8   1  -4  148.19    6.20
   8   1  -4  146.89    6.40
   7  -1  -4    7.40    2.10
   7  -1  -4   13.80    2.70
   7   1  -4   10.30    2.60
   7   1  -4   12.40    2.90
   6  -1  -4 1157.78   41.40
  -6  -1   4 1156.68   28.10
   6  -1  -4 1185.68   32.10
   6  -1  -4 1146.79   32.00
   6   1  -4 1169.68   40.50
  -6   1   4 1146.19   28.90
   6   1  -4 1154.78   31.70
  -6   1   4 1166.48   30.50
   6   1  -4 1119.79   39.90
   6   1  -4 1224.58   32.90
  -5  -1   4   25.10    3.10
   5  -1  -4   13.60    4.10
   5  -1  -4   21.30    3.50
   5  -1  -4   29.90    6.60
   5  -1  -4   21.10    3.50
   5   1  -4   39.80    5.30
   5   1  -4   29.10    6.40
   5   1  -4   32.80    6.80
  -5   1   4   25.30    3.60
   5   1  -4   27.00    4.00
   4  -1  -4  816.32   23.40
   4  -1  -4  872.11   29.30
  -4  -1   4  867.71   22.10
   4  -1  -4  806.72   23.40
   4  -1  -4  868.61   29.10
  -4   1   4  764.12   23.20
   4   1  -4  827.82   28.50
   4   1  -4  854.01   23.60
   4   1  -4  863.71   28.50
  -4   1   4  864.71   23.00
   4   1  -4  796.32   23.70
   3  -1  -4   12.40    3.10
  -3  -1   4   10.90    1.90
   3  -1  -4   12.40    3.20
   3  -1  -4   14.90    3.80
   3  -1  -4   15.30    4.40
  -3  -1   4   13.10    3.60
   3   1  -4   12.20    3.30
  -3   1   4   13.30    2.30
   3   1  -4    9.90    2.80
   2  -1  -4   24.10    4.70
   2  -1  -4   25.80    4.00
  -2  -1   4   19.60    4.40
  -2  -1   4   27.20    3.10
   2   1  -4   25.90    3.70
  -2   1   4   29.20    3.30
  -2   1   4   23.80    4.80
   2   1  -4   36.30    6.30
  -1  -1   4  313.77   10.30
   1  -1  -4  305.17   10.00
   1  -1  -4  295.77   15.10
  -1  -1   4  299.67   15.20
   1  -1  -4  313.27   11.00
   1   1  -4  289.17   10.60
  -1   1   4  315.07   15.60
   1   1  -4  307.47    9.90
  -1   1   4  312.87   10.40
   0  -1   4  188.38    7.70
   0  -1  -4  188.38   12.20
   0  -1   4  164.28   11.60
   0  -1  -4  180.08    8.10
   0   1   4  181.88    7.40
   0   1   4  175.08   11.90
   0   1  -4  182.18   12.20
   0   1  -4  187.68    8.30
  -1  -1  -4  843.42   24.10
   1  -1   4  857.51   22.90
   1  -1   4  814.12   31.30
  -1  -1  -4  868.81   31.00
  -1  -1  -4  880.11   21.70
   1   1   4  883.91   31.70
  -1   1  -4  874.21   20.80
  -1   1  -4  838.62   31.20
   1   1   4  803.02   22.90
  -1   1  -4  871.81   24.60
   2  -1   4   89.99    6.90
  -2  -1  -4  103.59    4.80
   2  -1   4  108.69    8.70
   2  -1   4  109.69    6.40
  -2  -1  -4  112.89    7.10
  -2   1  -4  108.99    4.90
  -2   1  -4  113.49    7.40
   2   1   4  103.99    7.90
   3  -1   4  182.98    8.50
  -3  -1  -4  157.18    8.70
   3  -1   4  184.08   13.00
  -3  -1  -4  174.38    9.90
   3  -1   4  173.08    8.80
  -3  -1  -4  191.18    7.20
   3   1   4  187.98   12.40
  -3   1  -4  186.78    7.20
  -3   1  -4  183.58    8.70
   3   1   4  182.98    8.60
   3   1   4  185.88    8.20
  -3   1  -4  184.78   10.50
   4  -1   4    8.80    2.50
  -4  -1  -4   12.50    3.00
   4  -1   4   10.20    2.80
  -4  -1  -4   10.20    3.30
  -4  -1  -4    5.00    1.80
   4   1   4    5.60    2.40
   4   1   4    7.60    2.20
  -4   1  -4    6.50    1.90
   4   1   4   -3.60    3.20
  -4   1  -4    7.00    2.80
  -4   1  -4    6.30    2.20
  -5  -1  -4  140.59    6.50
   5  -1   4  149.29    7.60
   5  -1   4  148.29    8.40
   5   1   4  154.78    8.60
   5   1   4  143.19    7.10
   6  -1   4   13.40    2.30
   6  -1   4   11.20    2.20
  -6  -1  -4    9.60    1.70
  -6   1  -4   12.40    2.00
   6   1   4   13.70    2.10
   6   1   4   11.70    2.30
   8  -2  -4   58.79    3.90
   8  -2  -4   54.09    3.70
   8   2  -4   57.79    3.50
   8   2  -4   51.79    3.50
   7  -2  -4   16.70    2.90
   7  -2  -4   14.70    2.70
   7   2  -4   22.10    3.40
  -7   2   4   21.80    3.00
   7   2  -4   18.80    2.90
   6  -2  -4 1363.16   46.10
   6  -2  -4 1333.57   36.10
   6  -2  -4 1366.46   36.10
   6  -2  -4 1317.37   46.20
   6   2  -4 1313.67   33.60
  -6   2   4 1319.37   35.40
   6   2  -4 1368.56   44.40
   6   2  -4 1370.96   36.70
   6   2  -4 1424.46   35.90
  -6   2   4 1351.16   33.30
   5  -2  -4   20.90    3.20
   5  -2  -4   29.20    6.70
   5  -2  -4   24.70    5.70
  -5  -2   4   20.90    2.90
   5  -2  -4   26.90    4.30
   5   2  -4   23.10    5.60
   5   2  -4   31.50    6.40
   5   2  -4   37.30    5.10
  -5   2   4   24.70    3.80
  -5   2   4   30.60    3.70
   5   2  -4   23.90    3.90
   5   2  -4   25.70    3.50
   4  -2  -4  780.72   22.80
   4  -2  -4  813.92   29.00
   4  -2  -4  829.52   28.30
  -4  -2   4  826.12   21.30
   4  -2  -4  797.92   22.70
   4  -2  -4  759.72   28.10
  -4   2   4  789.52   21.00
   4   2  -4  790.42   27.40
  -4   2   4  832.52   23.30
   4   2  -4  801.32   22.90
   4   2  -4  820.72   23.50
  -3  -2   4  343.57   11.20
   3  -2  -4  362.96   14.70
  -3  -2   4  356.46   15.60
   3  -2  -4  326.77   15.00
   3  -2  -4  327.97   16.60
  -3   2   4  339.97   12.10
   3   2  -4  343.37   14.90
   3   2  -4  355.36   14.50
  -3   2   4  341.17   12.20
  -2  -2   4 1117.19   34.10
   2  -2  -4 1092.19   28.70
   2  -2  -4 1093.39   34.80
  -2  -2   4 1091.69   26.90
   2  -2  -4 1009.70   27.20
   2  -2  -4 1102.79   29.90
  -2   2   4 1032.60   26.10
  -2   2   4 1071.69   27.50
   2   2  -4 1042.30   33.10
  -1  -2   4   72.09    8.30
   1  -2  -4   82.59    9.00
   1  -2  -4   85.49    5.30
   1  -2  -4   79.79    4.80
  -1  -2   4   86.19    4.80
   1   2  -4   77.39    6.10
  -1   2   4   83.19    4.90
  -1   2   4   95.49   10.40
   0  -2  -4 1734.53   50.19
   0  -2  -4 1790.32   43.10
   0  -2   4 1768.12   50.89
   0  -2   4 1780.32   41.80
   0   2   4 1756.72   41.50
   0   2  -4 1720.93   42.90
   0   2   4 1693.33   50.49
   0   2  -4 1718.43   50.79
   1  -2   4  687.23   17.90
  -1  -2  -4  732.23   28.40
  -1  -2  -4  724.13   17.80
   1  -2   4  693.13   20.30
   1  -2   4  703.63   28.80
  -1  -2  -4  738.63   21.70
   1   2   4  712.83   28.30
  -1   2  -4  707.43   21.70
   1   2   4  714.33   20.50
  -1   2  -4  690.03   17.80
  -1   2  -4  704.73   28.60
  -2  -2  -4  681.63   21.40
  -2  -2  -4  669.33   17.20
   2  -2   4  656.03   24.80
   2  -2   4  669.83   18.80
   2  -2   4  645.24   20.20
   2   2   4  643.24   21.50
   2   2   4  632.84   19.80
  -2   2  -4  686.63   22.30
  -2   2  -4  678.73   17.50
   3  -2   4   15.80    3.20
   3  -2   4   13.60    2.30
  -3  -2  -4    7.60    2.50
  -3  -2  -4   15.90    3.20
   3  -2   4   15.40    4.70
  -3  -2  -4   18.70    2.60
   3  -2   4   15.30    2.90
  -3   2  -4   14.30    3.50
  -3   2  -4    8.80    2.40
  -3   2  -4   15.60    2.50
   3   2   4   16.30    3.20
   3   2   4   17.10    3.10
   3   2   4   17.20    2.90
   4  -2   4  196.58    8.90
  -4  -2  -4  199.88   11.20
   4  -2   4  186.98   15.60
  -4  -2  -4  197.18    7.90
   4  -2   4  201.68    8.40
   4   2   4  212.38   10.50
   4   2   4  192.38    8.50
  -4   2  -4  184.88    9.00
  -4   2  -4  195.18    8.00
  -4   2  -4  177.58   11.50
   5  -2   4  572.94   17.50
   5  -2   4  543.15   18.30
  -5  -2  -4  579.14   15.90
   5   2   4  561.04   18.90
  -5   2  -4  533.25   17.30
   5   2   4  545.05   16.40
  -5   2  -4  557.14   16.10
  -6  -2  -4   11.60    1.80
   6  -2   4   10.40    2.10
   6  -2   4   10.90    2.00
   6   2   4   12.60    2.40
  -6   2  -4   12.20    1.90
   8  -3  -4    1.60    1.10
   8  -3  -4    0.10    1.00
   8   3  -4    1.50    1.10
   8   3  -4   -0.20    0.90
   7  -3  -4    1.50    1.40
   7  -3  -4    0.60    1.10
   7   3  -4   -1.60    0.90
   7   3  -4    4.10    2.20
   7   3  -4   -0.40    1.20
  -7   3   4    0.40    1.20
   6  -3  -4  281.67   11.70
   6  -3  -4  261.87   11.50
   6  -3  -4  237.48   16.70
   6  -3  -4  263.37   18.10
  -6   3   4  268.47   12.00
   6   3  -4  277.37   11.40
   6   3  -4  270.77   16.40
   6   3  -4  277.17   12.20
   6   3  -4  267.77   10.60
  -6   3   4  282.67   10.10
  -5  -3   4  143.89    6.50
   5  -3  -4  145.89   12.50
   5  -3  -4  149.99   12.20
   5  -3  -4  150.18   10.00
   5  -3  -4  144.19    6.40
  -5   3   4  128.69    6.60
  -5   3   4  147.49    8.50
   5   3  -4  140.79   11.00
   5   3  -4  152.18    8.30
   5   3  -4  143.79    7.30
   5   3  -4  133.89   10.10
   4  -3  -4   21.30    4.80
   4  -3  -4    8.60    3.20
  -4  -3   4   16.10    2.50
   4  -3  -4   19.00    3.20
   4  -3  -4   18.60    4.90
   4  -3  -4   18.10    5.00
   4   3  -4   15.50    2.70
   4   3  -4   12.00    3.30
   4   3  -4   16.80    3.10
  -4   3   4   17.00    3.30
  -4   3   4   14.50    2.50
   4   3  -4   24.40    3.90
   3  -3  -4    9.80    3.00
  -3  -3   4   13.00    3.90
   3  -3  -4    6.10    2.40
  -3  -3   4   12.20    2.20
   3  -3  -4    5.40    3.60
  -3  -3   4    9.90    2.10
   3  -3  -4    9.40    5.60
   3   3  -4   15.10    3.70
  -3   3   4    8.50    1.80
  -3   3   4    9.20    2.20
   3   3  -4   14.10    3.30
  -2  -3   4  364.66   12.00
   2  -3  -4  350.56   18.20
   2  -3  -4  359.56   14.30
  -2  -3   4  397.96   18.10
   2  -3  -4  374.06   13.10
   2  -3  -4  347.77   18.00
  -2  -3   4  354.46   10.90
   2  -3  -4  367.46   12.70
   2   3  -4  361.16   13.30
  -2   3   4  367.56   12.60
   2   3  -4  341.37   16.50
   1  -3  -4 1041.20   28.20
   1  -3  -4 1063.89   27.70
  -1  -3   4 1040.00   27.10
   1  -3  -4 1023.60   35.60
  -1  -3   4 1111.19   35.80
  -1  -3   4 1059.69   26.20
  -1   3   4 1048.50   25.50
  -1   3   4 1046.50   27.60
   1   3  -4 1080.29   39.40
   0  -3  -4  785.62   22.60
   0  -3  -4  755.62   18.10
   0  -3  -4  740.93   28.80
   0  -3   4  810.52   30.20
   0  -3   4  749.42   19.70
   0  -3   4  791.52   21.80
   0   3   4  728.33   29.50
   0   3  -4  775.12   22.70
   0   3  -4  770.12   18.80
   0   3  -4  774.92   29.50
   0   3   4  776.92   21.20
  -1  -3  -4  410.96   14.90
   1  -3   4  369.16   20.80
   1  -3   4  390.76   13.80
  -1  -3  -4  380.76   21.40
  -1  -3  -4  388.96   11.20
  -1   3  -4  376.76   20.90
   1   3   4  434.46   21.80
  -1   3  -4  417.66   15.30
  -1   3  -4  393.46   11.20
   1   3   4  385.66   11.90
   2  -3   4  325.47   12.50
   2  -3   4  345.67   12.50
   2  -3   4  328.97   17.00
   2  -3   4  321.47   13.70
  -2  -3  -4  346.87   11.00
  -2  -3  -4  380.16   14.80
  -2   3  -4  360.26   12.70
  -2   3  -4  359.06   10.90
  -2   3  -4  340.77   14.80
   2   3   4  361.96   14.40
  -3  -3  -4   29.30    4.10
   3  -3   4   37.40    4.20
   3  -3   4   31.40    4.20
  -3  -3  -4   35.80    5.50
  -3  -3  -4   33.70    3.60
   3  -3   4   35.20    4.90
   3  -3   4   27.10    6.50
   3   3   4   34.20    4.60
  -3   3  -4   35.50    6.00
   3   3   4   34.30    4.40
  -3   3  -4   27.10    3.80
   3   3   4   27.10    3.50
  -3   3  -4   26.50    3.20
  -4  -3  -4  118.09    8.60
   4  -3   4  124.59    7.30
   4  -3   4  115.09    7.00
   4  -3   4  112.09    6.30
  -4  -3  -4  102.99    5.50
   4  -3   4  130.39   15.90
   4   3   4  102.79    6.10
  -4   3  -4  135.19    9.90
   4   3   4  106.79    7.40
  -4   3  -4  111.49    6.90
  -4   3  -4  111.59    5.80
  -5  -3  -4   98.09    5.10
   5  -3   4  103.09    6.50
   5  -3   4   96.29    6.10
  -5   3  -4  100.09    5.30
   5   3   4   98.59    7.30
  -5   3  -4   99.69    6.00
   5   3   4   91.29    5.10
   6  -3   4  112.09    5.40
   6  -3   4  116.19    5.50
   6   3   4  117.29    6.00
  -6   3  -4  120.59    5.00
   8  -4  -4    0.00    0.80
   8  -4  -4    0.60    1.00
   8   4  -4    0.50    0.90
   7  -4  -4   -0.10    1.10
   7  -4  -4    1.50    1.40
   7   4  -4    1.60    1.80
   7   4  -4   -1.80    1.50
   7   4  -4    1.20    1.40
  -7   4   4    0.90    1.20
   6  -4  -4   20.80    6.50
   6  -4  -4   23.30    4.10
   6  -4  -4   16.80    5.20
   6  -4  -4   23.10    3.60
   6   4  -4   18.80    3.40
  -6   4   4   15.30    3.50
  -6   4   4   26.60    3.50
   6   4  -4   22.90    3.90
   6   4  -4   22.60    4.40
   5  -4  -4  278.57   11.50
   5  -4  -4  295.17   11.80
   5  -4  -4  309.97   18.80
  -5  -4   4  295.17   10.70
   5  -4  -4  294.97   17.50
   5   4  -4  258.17   15.10
   5   4  -4  272.87   12.90
   5   4  -4  288.97   12.50
  -5   4   4  282.07   13.20
   5   4  -4  300.67   11.40
  -5   4   4  283.87   12.30
  -5   4   4  296.17   10.70
   4  -4  -4  153.68    7.70
   4  -4  -4  171.48    7.90
   4  -4  -4  171.28   12.70
   4  -4  -4  166.18   12.00
  -4  -4   4  158.38    6.90
  -4  -4   4  162.78    7.40
   4  -4  -4  166.78    8.30
   4   4  -4  167.98   10.70
  -4   4   4  160.88    7.30
   4   4  -4  168.98    8.60
  -4   4   4  158.78    9.10
   4   4  -4  152.88    7.60
   4   4  -4  141.09    9.20
  -4   4   4  152.18    8.40
  -3  -4   4  328.57   11.60
  -3  -4   4  328.27   16.60
   3  -4  -4  344.57   16.20
  -3  -4   4  321.37   10.50
   3  -4  -4  337.57   14.50
   3   4  -4  341.17   14.30
  -3   4   4  332.07   13.20
  -3   4   4  337.67   11.00
   3   4  -4  326.37   16.20
   2  -4  -4 2479.55   69.49
  -2  -4   4 2410.36   55.59
   2  -4  -4 2465.35   70.49
  -2  -4   4 2437.06   67.29
   2  -4  -4 2475.85   59.39
   2  -4  -4 2551.94   58.39
   2  -4  -4 2528.25   61.89
  -2   4   4 2527.35   55.99
   2   4  -4 2526.85   67.49
   1  -4  -4   42.00    4.90
   1  -4  -4   44.30    7.90
   1  -4  -4   44.70    3.10
   1  -4  -4   31.90    6.70
  -1  -4   4   39.90    4.20
   1  -4  -4   48.30    5.30
  -1  -4   4   45.60    3.40
  -1  -4   4   41.70    7.40
   1   4  -4   50.69    5.50
  -1   4   4   42.00    4.30
   1   4  -4   35.10    6.50
   0  -4   4  862.31   22.30
   0  -4  -4  875.71   22.70
   0  -4  -4  871.61   21.50
   0  -4  -4  865.01   25.40
   0  -4  -4  868.01   33.80
   0  -4  -4  884.91   33.80
   0  -4   4  913.21   35.20
   0   4  -4  895.21   34.40
   0   4  -4  904.61   21.90
   0   4  -4  868.91   25.50
   0   4   4  873.81   24.10
  -1  -4  -4  209.48   15.30
  -1  -4  -4  196.68    7.00
   1  -4   4  160.28   14.60
  -1  -4  -4  185.78    9.70
   1  -4   4  176.78    8.90
  -1   4  -4  194.38   17.10
  -1   4  -4  178.18    6.80
  -1   4  -4  200.58   10.30
  -2  -4  -4  249.08   10.20
   2  -4   4  227.18   10.10
  -2  -4  -4  249.28   11.90
   2  -4   4  258.57   15.10
   2  -4   4  222.48   10.70
   2  -4   4  236.88    9.40
  -2  -4  -4  242.48    8.40
   2  -4   4  231.78    9.60
  -2   4  -4  236.48    8.50
   2   4   4  250.27   10.70
  -2   4  -4  228.58    9.90
  -2   4  -4  252.07   18.90
   2   4   4  228.28   10.00
   3  -4   4   10.90    2.60
   3  -4   4   11.30    4.60
  -3  -4  -4    8.90    2.00
   3  -4   4   10.90    2.90
  -3  -4  -4    9.10    2.60
  -3  -4  -4   10.90    3.20
  -3   4  -4   10.80    4.20
  -3   4  -4   13.10    4.00
  -3   4  -4   13.10    2.30
   3   4   4   11.90    2.90
   4  -4   4   11.70    5.40
  -4  -4  -4   13.50    2.50
  -4  -4  -4    4.00    2.70
   4  -4   4   10.10    2.80
   4  -4   4    8.60    2.20
   4  -4   4   10.00    2.70
  -4   4  -4    9.60    3.60
   4   4   4   12.80    2.90
  -4   4  -4   13.50    2.50
  -4   4  -4   12.30    2.70
   5  -4   4   -0.10    1.50
   5  -4   4    0.00    1.40
  -5  -4  -4    0.30    1.10
  -5   4  -4   -0.20    1.90
  -5   4  -4    0.20    1.00
   5   4   4    0.60    1.50
   6  -4   4    4.30    1.50
   6  -4   4    3.60    2.00
   6   4   4    3.40    1.40
  -6   4  -4    7.20    1.50
   7  -5  -4   12.00    2.80
   7  -5  -4    8.30    1.90
   7   5  -4   15.90    2.70
   7   5  -4   11.80    2.30
   7   5  -4   12.30    2.40
  -7   5   4   11.90    2.10
   6  -5  -4    9.50    2.40
   6  -5  -4    7.40    2.20
   6  -5  -4    8.80    6.10
  -6   5   4    8.70    2.20
  -6   5   4   14.00    3.10
   6   5  -4    9.70    2.50
   6   5  -4    8.40    2.50
   6   5  -4   13.70    3.10
   5  -5  -4  651.43   27.50
   5  -5  -4  650.93   19.00
  -5  -5   4  610.44   17.70
   5  -5  -4  596.34   28.80
  -5  -5   4  631.84   19.00
   5  -5  -4  640.24   19.70
   5  -5  -4  622.74   19.50
   5   5  -4  633.24   19.30
  -5   5   4  619.24   22.60
   5   5  -4  659.13   19.90
   5   5  -4  645.54   21.10
  -5   5   4  638.04   18.70
  -5   5   4  641.44   20.70
   4  -5  -4   32.90    4.70
   4  -5  -4   18.60    4.60
  -4  -5   4   27.80    3.50
   4  -5  -4   28.00    3.90
   4  -5  -4   38.90    8.10
  -4  -5   4   23.40    3.60
   4  -5  -4   23.60    3.20
   4   5  -4   30.30    4.40
  -4   5   4   29.60    3.70
  -4   5   4   22.90    4.00
   4   5  -4   25.00    3.80
   4   5  -4   33.90    4.30
  -4   5   4   24.80    4.60
  -3  -5   4   40.10    4.50
   3  -5  -4   39.20    5.30
   3  -5  -4   38.40    6.40
  -3  -5   4   35.80    3.80
   3  -5  -4   37.10    5.50
   3   5  -4   22.20    7.10
  -3   5   4   34.50    4.70
  -3   5   4   38.20    4.70
  -3   5   4   34.70    3.70
   3   5  -4   34.10    3.80
  -2  -5   4   83.59   11.00
  -2  -5   4   79.19    5.60
  -2  -5   4   84.09    4.90
   2  -5  -4  101.89   13.20
   2  -5  -4   97.39   12.70
   2  -5  -4   86.59    6.40
   2  -5  -4   95.49    7.60
  -2   5   4   92.89    4.80
   2   5  -4   86.49   10.80
  -2   5   4  100.19    6.60
   1  -5  -4  329.67   10.10
   1  -5  -4  310.47   20.10
   1  -5  -4  329.77   13.50
  -1  -5   4  314.47   12.50
  -1  -5   4  322.77   10.80
   1  -5  -4  359.06   20.80
   1  -5  -4  326.87   13.40
  -1  -5   4  323.57   19.50
   1   5  -4  334.87   19.50
  -1   5   4  334.77   12.70
  -1   5   4  334.47   10.20
   1   5  -4  312.77   12.60
   0  -5  -4  519.05   26.70
   0  -5  -4  626.04   43.20
   0  -5  -4  552.34   15.00
   0  -5   4  536.45   15.60
   0  -5   4  531.95   27.10
   0  -5  -4  524.95   16.90
   0  -5   4  542.55   18.10
   0   5  -4  543.95   21.00
   0   5  -4  546.45   14.30
   0   5   4  538.25   17.50
   0   5  -4  589.04   28.10
   1  -5   4   47.20    5.00
   1  -5   4   41.80    4.70
   1  -5   4   51.69    6.20
  -1  -5  -4   47.70    5.90
   1  -5   4   49.40    4.10
  -1  -5  -4   46.90    3.40
  -1  -5  -4   37.40    4.10
  -1   5  -4   41.20    8.90
  -1   5  -4   43.60    5.70
  -2  -5  -4   55.59    3.90
  -2  -5  -4   53.49    6.80
   2  -5   4   59.19    5.40
  -2  -5  -4   51.09    5.20
   2  -5   4   59.59    4.60
   2  -5   4   58.69    5.70
   2  -5   4   56.69    4.70
   2  -5   4   62.89    9.60
  -2   5  -4   56.89    7.10
   2   5   4   62.49    5.10
   2   5   4   58.39    5.10
  -2   5  -4   61.19    4.00
  -3  -5  -4   47.60    6.60
   3  -5   4   41.40    5.50
  -3  -5  -4   46.70    5.00
   3  -5   4   32.40    7.40
   3  -5   4   48.70    5.10
   3  -5   4   40.60    4.80
  -3   5  -4   43.00    6.70
  -3   5  -4   42.30    4.90
   3   5   4   43.60    5.10
  -3   5  -4   38.20    4.00
   3   5   4   43.30    4.90
   4  -5   4   28.40    4.10
   4  -5   4   45.80    5.60
  -4  -5  -4   40.80    4.10
  -4  -5  -4   43.10    6.40
   4  -5   4   36.30    8.70
   4  -5   4   46.70    4.80
  -4   5  -4   35.00    6.40
   4   5   4   25.20    4.30
  -4   5  -4   34.20    3.80
  -4   5  -4   40.30    4.80
   5  -5   4    8.60    2.20
  -5  -5  -4    7.80    2.00
   5  -5   4    5.70    1.80
  -5   5  -4    9.60    2.20
  -5   5  -4    8.40    1.90
   5   5   4    5.70    2.10
   7  -6  -4   13.00    2.30
   7  -6  -4   12.40    2.30
   7   6  -4   13.20    2.20
   7   6  -4   10.80    2.40
  -7   6   4    9.00    1.80
   6  -6  -4   16.00    2.80
   6  -6  -4   17.10    2.90
   6   6  -4   16.60    3.20
  -6   6   4   19.00    3.20
  -6   6   4   15.50    2.80
   6   6  -4   15.20    2.80
  -5  -6   4   83.29    5.40
   5  -6  -4   71.39   10.80
  -5  -6   4   93.89    6.10
   5  -6  -4   82.69    5.70
   5  -6  -4   91.59    6.00
   5  -6  -4   84.19    5.70
   5  -6  -4   74.29   10.30
   5   6  -4   76.99    6.30
  -5   6   4   92.69    6.70
  -5   6   4   86.99    5.50
  -5   6   4   98.19   10.10
   5   6  -4   87.49    6.10
   5   6  -4   82.39    5.70
  -4  -6   4   51.99    5.00
   4  -6  -4   58.89    4.50
  -4  -6   4   50.39    5.50
   4  -6  -4   55.29    7.90
   4  -6  -4   50.09    9.20
   4  -6  -4   46.50    5.80
   4  -6  -4   55.59    5.20
  -4   6   4   52.89    5.70
   4   6  -4   49.20    7.40
   4   6  -4   48.30    3.60
   4   6  -4   57.59    6.40
  -4   6   4   49.20    6.80
  -4   6   4   51.99    4.90
   4   6  -4   45.10    5.00
   3  -6  -4  315.57   11.40
   3  -6  -4  323.67   12.90
   3  -6  -4  332.27   12.10
  -3  -6   4  343.47   11.70
   3  -6  -4  338.37   14.40
  -3  -6   4  320.77   13.50
  -3  -6   4  340.17   13.40
   3  -6  -4  362.96   18.40
  -3   6   4  349.17   15.00
   3   6  -4  328.97   11.80
  -3   6   4  331.67   13.50
   3   6  -4  332.57   12.30
  -3   6   4  362.66   11.70
  -2  -6   4  331.17   14.10
  -2  -6   4  367.36   14.20
   2  -6  -4  372.66   17.40
   2  -6  -4  367.66   13.10
  -2  -6   4  365.76   12.50
   2   6  -4  436.06   16.80
  -2   6   4  385.16   15.20
  -2   6   4  364.56   15.40
  -2   6   4  371.46   11.70
   1  -6  -4   41.10    3.80
  -1  -6   4   43.70    9.60
  -1  -6   4   36.10    4.70
   1  -6  -4   41.80    5.80
   1  -6  -4   32.50    8.80
   1  -6  -4   62.29   12.00
   1  -6  -4   32.30    3.80
  -1  -6   4   42.10    4.90
  -1   6   4   44.40    5.50
   1   6  -4   34.30    3.90
  -1   6   4   35.50    3.40
   1   6  -4   49.20    5.60
  -1   6   4   39.50    6.10
  -1   6   4   33.40    3.90
   0  -6   4  102.39   11.20
   0  -6  -4   85.49    6.80
   0  -6  -4   93.09    4.90
   0  -6  -4  102.89    6.90
   0  -6   4   59.39   11.30
   0  -6   4   92.69    6.70
   0  -6   4   96.49    5.50
   0  -6  -4   86.39    6.00
   0  -6  -4   88.49   14.10
   0   6  -4   87.09    5.80
   0   6  -4   91.99    7.20
   0   6   4   84.29    5.70
   0   6  -4   95.39    4.40
   0   6  -4   96.49    7.40
   0   6  -4   92.69    6.70
   0   6  -4   88.19   13.60
  -1  -6  -4   37.60    4.00
   1  -6   4   33.90    4.10
   1  -6   4   33.50    5.30
  -1  -6  -4   21.60    3.30
   1  -6   4   37.60    4.80
   1  -6   4   38.40    4.40
   1   6   4   38.80    5.30
  -1   6  -4   32.60    5.60
  -1   6  -4   39.10    3.60
   1   6   4   32.60    4.10
   2  -6   4   38.30    4.70
   2  -6   4   45.80    4.90
  -2  -6  -4   49.40    4.40
   2  -6   4   50.09    5.30
   2  -6   4   34.10    6.60
  -2  -6  -4   34.20    5.60
  -2  -6  -4   42.60    4.70
   2   6   4   44.70    5.60
  -2   6  -4   46.20    7.20
  -2   6  -4   39.90    5.90
  -2   6  -4   38.30    3.80
   2   6   4   39.80    4.80
  -3  -6  -4  102.49   10.50
  -3  -6  -4   83.19    6.30
  -3  -6  -4   88.99    5.30
   3  -6   4   82.09    5.80
   3  -6   4  104.69   14.80
   3  -6   4   86.59    7.00
   3  -6   4   82.79    5.90
   3   6   4   90.69    6.50
  -3   6  -4   90.39    6.30
   3   6   4   81.29    5.60
  -3   6  -4   76.19    9.70
  -3   6  -4   92.39    5.40
  -4  -6  -4    1.20    2.20
   4  -6   4    1.10    1.60
   4  -6   4   -1.90    1.30
   4  -6   4    3.20    4.30
  -4  -6  -4    0.90    1.20
  -4  -6  -4   -2.30    2.20
  -4   6  -4    0.40    1.20
  -4   6  -4   -1.10    2.90
   4   6   4   -0.10    1.40
  -4   6  -4    0.00    1.20
   5  -6   4   76.39    5.00
  -5  -6  -4   65.09    4.10
   5  -6   4   57.19    4.00
  -5   6  -4   63.09    4.40
  -5   6  -4   68.49    4.00
   5   6   4   68.69    8.30
   7  -7  -4  171.38    6.80
  -7   7   4  173.58    6.30
   7   7  -4  177.88    6.90
   7   7  -4  167.58    5.90
  -6  -7   4    6.90    2.40
   6  -7  -4    5.90    1.80
   6  -7  -4    3.00    1.60
  -6   7   4    6.20    1.70
  -6   7   4    3.40    1.70
   6   7  -4    3.40    2.20
   6   7  -4    5.00    2.10
   5  -7  -4   11.00    2.40
   5  -7  -4   11.00    2.70
  -5  -7   4   10.50    2.60
  -5  -7   4    9.80    2.80
   5  -7  -4    9.40    4.50
   5  -7  -4   12.20    4.80
   5  -7  -4   12.70    4.10
   5   7  -4   10.00    2.90
  -5   7   4   15.00    4.00
   5   7  -4   12.20    3.00
  -5   7   4   12.90    3.30
  -5   7   4   15.30    2.90
   4  -7  -4   10.00    2.50
  -4  -7   4    7.10    2.40
   4  -7  -4    7.00    3.30
   4  -7  -4   13.80    3.50
   4  -7  -4   14.10    2.70
   4  -7  -4   10.90    4.80
  -4   7   4   12.20    3.00
  -4   7   4    9.80    2.30
  -4   7   4   11.40    3.40
   4   7  -4   11.40    2.80
   4   7  -4    8.70    2.10
   4   7  -4   14.40    3.30
  -3  -7   4   66.89    6.80
   3  -7  -4   61.39    5.20
  -3  -7   4   74.79    6.20
   3  -7  -4   58.19    4.60
   3  -7  -4   67.09    6.30
  -3  -7   4   70.79    5.10
   3  -7  -4   47.30    8.00
   3  -7  -4   64.19    5.60
  -3   7   4   57.39    5.80
  -3   7   4   75.39    8.30
   3   7  -4   68.79    4.90
   3   7  -4   71.39    6.60
  -3   7   4   42.80    6.40
  -2  -7   4    7.10    2.20
  -2  -7   4    9.90    2.90
   2  -7  -4    9.80    2.30
  -2  -7   4   10.00    2.90
   2  -7  -4   11.40    3.00
   2   7  -4   10.00    2.80
  -2   7   4   10.10    2.90
   2   7  -4   11.40    2.80
  -2   7   4   14.20    2.50
  -2   7   4   10.60    2.80
  -2   7   4   10.90    3.00
  -1  -7   4   96.49    5.80
   1  -7  -4  100.09    7.30
  -1  -7   4  109.89    7.60
  -1  -7   4  101.59    7.20
   1  -7  -4  105.09    8.50
   1  -7  -4  114.19    5.70
   1  -7  -4  110.49    6.70
   1   7  -4  108.29    6.50
   1   7  -4  112.89    7.20
  -1   7   4  107.29    5.00
   1   7  -4  103.99    6.60
  -1   7   4  104.69    6.70
  -1   7   4  111.59    8.00
   0  -7  -4   80.59    5.90
   0  -7   4   80.19    8.40
   0  -7  -4   67.99    9.50
   0  -7   4   83.79    6.30
   0  -7  -4   82.09    4.80
   0  -7   4   89.39    5.40
   0  -7  -4   66.49    7.00
   0  -7  -4   76.29    6.60
   0  -7   4   86.09    7.10
   0   7  -4   77.39    4.20
   0   7  -4   67.39    5.30
   0   7  -4   77.59    6.40
   0   7   4   82.69    6.70
   0   7  -4   87.89    5.60
   0   7   4   84.49    5.80
   1  -7   4    6.40    2.40
  -1  -7  -4   14.80    2.60
   1  -7   4   12.20    2.90
  -1  -7  -4   10.40    2.60
   1  -7   4   11.10    3.30
  -1   7  -4   11.70    2.00
   1   7   4   11.50    3.10
  -1   7  -4   12.70    4.50
   1   7   4   10.60    2.80
  -2  -7  -4  964.50   26.20
   2  -7   4  982.00   29.70
  -2  -7  -4  953.40   31.80
   2  -7   4  932.41   27.40
   2  -7   4  985.20   33.90
   2  -7   4  983.10   37.80
   2  -7   4 1005.10   26.60
  -2  -7  -4  925.91   27.70
  -2   7  -4 1037.20   28.80
  -2   7  -4  982.10   31.60
  -2   7  -4  975.70   33.20
   2   7   4  963.00   26.90
   2   7   4  961.30   28.00
   3  -7   4   51.69    5.20
   3  -7   4   59.09    7.00
  -3  -7  -4   62.29    6.10
   3  -7   4   73.59   11.60
  -3  -7  -4   61.39    7.90
  -3  -7  -4   63.19    4.60
  -3   7  -4   67.59    5.50
   3   7   4   60.39    4.70
   3   7   4   69.39    5.70
  -3   7  -4   59.19    8.70
  -3   7  -4   58.69    4.30
  -4  -7  -4  448.36   13.70
  -4  -7  -4  420.96   16.10
   4  -7   4  420.86   15.30
   4  -7   4  443.96   14.60
   4   7   4  436.66   15.30
  -4   7  -4  434.56   15.30
  -4   7  -4  441.66   13.50
  -5  -7  -4    8.20    1.80
   5  -7   4    3.90    1.50
  -5   7  -4    5.60    1.60
  -5   7  -4    7.20    2.10
   5   7   4    4.10    1.60
   7  -8  -4    2.50    1.00
   7   8  -4    4.50    1.30
  -7   8   4    1.60    0.90
   6  -8  -4   73.49    5.80
   6  -8  -4   75.19    4.20
  -6  -8   4   73.99    4.70
   6   8  -4   79.29    5.40
   6   8  -4   65.79    4.50
  -6   8   4   71.49    4.40
  -6   8   4   71.09    4.90
  -5  -8   4   11.30    2.80
   5  -8  -4    7.90    2.20
   5  -8  -4   13.10    3.00
   5  -8  -4    9.90    2.30
   5  -8  -4    6.00    4.50
  -5  -8   4   13.30    3.00
  -5   8   4   11.20    2.90
   5   8  -4   13.30    2.90
  -5   8   4   10.10    2.40
   5   8  -4   11.90    3.20
  -5   8   4   15.40    4.70
   4  -8  -4  106.29   13.90
   4  -8  -4  124.79    8.00
  -4  -8   4  123.69    6.80
  -4  -8   4  124.79    7.90
   4  -8  -4  128.09    6.70
  -4  -8   4  132.99    8.90
   4   8  -4  124.69    7.70
  -4   8   4  123.89    6.40
   4   8  -4  116.29    5.10
  -4   8   4  128.49    8.10
  -4   8   4  125.99   10.00
   4   8  -4  133.69    8.10
   3  -8  -4   76.29   11.30
   3  -8  -4   64.89    7.50
  -3  -8   4   52.29    5.80
  -3  -8   4   65.49    7.40
  -3  -8   4   64.59    9.20
   3  -8  -4   65.89    5.40
   3   8  -4   48.20    5.30
  -3   8   4   53.99    7.60
  -3   8   4   51.09    5.60
   3   8  -4   61.19    4.90
  -2  -8   4   16.80    3.80
   2  -8  -4   28.20    6.50
   2  -8  -4   26.30    4.00
  -2  -8   4   25.70    3.90
  -2  -8   4   16.30    3.50
   2  -8  -4    8.80    4.10
  -2   8   4   23.70    3.00
  -2   8   4   22.90    4.90
  -2   8   4   21.30    4.50
  -2   8   4   24.20    5.10
  -1  -8   4    1.40    1.80
   1  -8  -4    2.10    1.60
  -1  -8   4    3.10    3.20
  -1  -8   4    0.60    1.70
  -1  -8   4    0.10    1.30
   1  -8  -4   -1.90    1.80
   1  -8  -4    0.50    2.00
   1  -8  -4    1.20    1.50
  -1   8   4    0.90    1.90
   1   8  -4    2.60    1.50
  -1   8   4   -0.20    1.20
   1   8  -4    0.20    1.50
   1   8  -4    2.90    2.00
   0  -8  -4  883.61   29.70
   0  -8   4  871.21   24.10
   0  -8  -4  872.31   27.60
   0  -8  -4  845.22   29.50
   0  -8  -4  936.91   29.40
   0  -8   4  872.61   29.30
   0  -8  -4  867.41   23.50
   0  -8   4  871.01   27.70
   0   8  -4  884.01   24.70
   0   8  -4  862.71   28.70
   0   8  -4  873.31   25.20
   0   8   4  887.71   24.70
   1  -8   4  258.07   13.00
   1  -8   4  263.07   12.20
   1  -8   4  243.48   16.30
  -1  -8  -4  266.07   12.70
  -1  -8  -4  255.07   11.70
  -1   8  -4  251.67    8.80
   1   8   4  263.47   12.30
  -1   8  -4  278.27   12.80
   2  -8   4 1022.40   36.50
   2  -8   4  983.90   39.50
   2  -8   4  996.30   28.70
   2  -8   4 1036.70   27.30
  -2  -8  -4 1081.39   27.40
  -2  -8  -4 1036.60   34.20
  -2  -8  -4 1009.20   29.40
   2  -8   4 1021.00   31.10
  -2   8  -4 1024.00   26.00
   2   8   4 1035.50   27.80
  -2   8  -4  996.30   35.20
  -2   8  -4 1012.30   31.20
   2   8   4 1026.70   29.40
   3  -8   4   33.90    8.50
  -3  -8  -4   36.10    4.60
  -3  -8  -4   36.40    6.40
   3  -8   4   33.20    5.20
   3  -8   4   34.10    4.10
  -3  -8  -4   36.20    4.10
  -3   8  -4   35.50    3.70
   3   8   4   34.40    4.30
  -3   8  -4   37.40    7.00
  -3   8  -4   32.40    4.20
   3   8   4   37.20    3.90
  -4  -8  -4   41.60    4.50
   4  -8   4   46.00    5.50
   4  -8   4   40.20    4.80
  -4  -8  -4   37.10    3.90
   4   8   4   39.60    4.20
  -4   8  -4   45.40    3.40
  -4   8  -4   36.40    4.10
  -5  -8  -4   22.20    2.50
  -5   8  -4   22.70    2.20
   5   8   4   29.70    3.00
  -5   8  -4   24.30    3.20
  -6  -9   4   13.30    2.50
   6  -9  -4   13.30    1.90
   6   9  -4   11.60    2.00
  -6   9   4   11.00    2.20
  -6   9   4   15.40    2.10
   6   9  -4   13.80    2.60
   5  -9  -4    1.70    1.40
   5  -9  -4    1.60    1.70
  -5  -9   4    4.50    2.00
  -5   9   4   -0.90    0.90
   5   9  -4    0.30    1.30
   5   9  -4    4.40    2.60
  -5   9   4    1.20    1.40
  -4  -9   4    0.70    1.70
  -4  -9   4    1.00    2.10
   4  -9  -4   -2.00    1.20
  -4  -9   4   -0.80    1.70
   4  -9  -4   -0.50    1.20
   4  -9  -4   -0.10    3.50
  -4   9   4    0.60    1.20
  -4   9   4    1.20    1.70
   4   9  -4   -0.30    2.20
  -4   9   4    3.50    4.90
   4   9  -4   -0.40    1.30
  -3  -9   4  156.18    8.10
   3  -9  -4  153.58    8.10
  -3  -9   4  149.09   10.20
   3  -9  -4  138.59   15.30
   3  -9  -4  153.08    9.20
  -3  -9   4  153.48    9.20
  -3   9   4  147.19    6.90
  -3   9   4  132.79   10.60
  -3   9   4  153.28    8.90
   3   9  -4  152.28    8.50
   3   9  -4  152.88    7.90
  -3   9   4  149.69   10.00
  -2  -9   4   73.89    8.90
   2  -9  -4   63.89    9.20
  -2  -9   4   75.19    6.90
  -2  -9   4   81.39    6.90
   2  -9  -4   58.19    7.00
   2  -9  -4   78.19    6.20
  -2   9   4   71.29    5.30
  -2   9   4   66.59    5.80
   2   9  -4   70.89    5.80
   2   9  -4   69.09    6.60
  -2   9   4   79.79    9.10
  -1  -9   4  268.47   12.90
   1  -9  -4  255.97   11.80
   1  -9  -4  240.98   15.00
  -1  -9   4  267.07   11.10
   1  -9  -4  258.77   10.00
   1  -9  -4  250.87   12.50
  -1  -9   4  251.57   14.00
   1   9  -4  255.07   11.10
   1   9  -4  259.07   12.30
   1   9  -4  254.17    9.90
  -1   9   4  262.57   11.30
  -1   9   4  276.57   13.40
   0  -9  -4  120.59    7.80
   0  -9   4  111.59    8.50
   0  -9  -4  116.39    6.60
   0  -9  -4  118.49    8.60
   0  -9  -4  114.49   10.10
   0  -9   4  115.89    8.00
   0   9   4  118.89    8.50
   0   9   4  111.29    6.50
   0   9  -4   98.29    6.50
   0   9  -4  119.09    8.30
   1  -9   4  178.38   10.00
  -1  -9  -4  183.68    9.80
   1  -9   4  201.88   14.90
  -1  -9  -4  182.28    8.40
   1  -9   4  170.48   10.50
  -1   9  -4  172.98    6.90
  -1   9  -4  189.48   10.60
  -1   9  -4  190.38    9.30
   1   9   4  177.88   10.00
  -2  -9  -4  283.07   10.90
  -2  -9  -4  285.07   15.90
   2  -9   4  272.97   20.70
   2  -9   4  294.17   12.50
  -2  -9  -4  314.77   13.10
   2  -9   4  292.87   19.50
  -2   9  -4  290.67    9.80
  -2   9  -4  296.17   13.70
   2   9   4  282.57   10.70
  -3  -9  -4   94.59    5.60
  -3  -9  -4   91.49    6.20
   3  -9   4   95.29    7.80
  -3   9  -4   96.19    5.00
   3   9   4   95.19    4.50
   3   9   4   93.79    5.60
  -3   9  -4   89.49    6.30
   4  -9   4   25.00    3.40
  -4  -9  -4   19.50    2.70
  -4  -9  -4   21.30    3.00
  -4   9  -4   21.40    3.10
   4   9   4   15.60    2.40
  -6  10   4   10.20    1.60
   6  10  -4    9.00    1.70
  -5 -10   4   33.20    3.90
   5 -10  -4   32.00    3.00
   5 -10  -4   32.20    4.10
   5  10  -4   32.00    3.80
  -5  10   4   33.90    3.30
  -5  10   4   38.20    4.30
   5  10  -4   32.10    3.40
  -4 -10   4  111.29    6.60
   4 -10  -4  104.69    7.00
  -4 -10   4  102.09    7.10
   4  10  -4  121.09    7.00
  -4  10   4  116.69    5.60
  -4  10   4  113.59    7.10
   4  10  -4  102.39    7.50
  -3 -10   4  342.27   17.00
  -3 -10   4  365.56   13.60
   3 -10  -4  357.16   13.20
   3 -10  -4  367.56   15.20
   3 -10  -4  381.26   25.70
  -3 -10   4  362.26   15.00
  -3  10   4  363.66   16.00
  -3  10   4  354.06   14.40
   3  10  -4  364.96   13.70
   3  10  -4  365.46   13.10
  -3  10   4  354.46   11.40
   2 -10  -4 1083.49   40.80
   2 -10  -4 1137.09   32.00
  -2 -10   4 1160.58   33.70
   2 -10  -4 1154.38   33.60
  -2 -10   4 1157.08   31.00
  -2 -10   4 1136.99   36.90
   2  10  -4 1200.78   31.60
   2  10  -4 1124.99   32.00
  -2  10   4 1156.28   34.70
  -2  10   4 1123.99   32.10
  -1 -10   4   50.89    5.50
  -1 -10   4   54.99    7.40
   1 -10  -4   45.70    4.60
   1 -10  -4   43.70    6.20
   1 -10  -4   49.90    8.30
  -1 -10   4   54.79    8.00
  -1 -10   4   55.29    6.70
   1 -10  -4   55.19    6.30
  -1  10   4   64.49    8.00
   1  10  -4   41.50    4.10
  -1  10   4   52.79    5.50
   1  10  -4   52.79    5.50
   1  10  -4   48.60    6.30
   0 -10  -4  302.37   11.40
   0 -10   4  310.97   18.30
   0 -10   4  319.77   14.10
   0 -10   4  302.37   11.20
   0 -10  -4  314.07   13.50
   0 -10   4  321.87   14.60
   0 -10  -4  277.87   13.70
   0  10   4  299.37   11.00
   0  10  -4  313.17   11.90
   0  10   4  296.17   14.00
   0  10  -4  300.77   13.90
   1 -10   4  103.69    8.10
   1 -10   4  107.79    7.80
  -1 -10  -4  100.09   11.30
   1 -10   4  111.79   13.80
  -1 -10  -4  101.09    6.30
  -1 -10  -4  114.19    7.70
  -1  10  -4  104.79    7.80
   1  10   4  110.09    8.30
  -1  10  -4  111.79    7.10
  -2 -10  -4   23.90    3.80
   2 -10   4   27.60    5.10
  -2 -10  -4   25.10    4.30
   2 -10   4   27.40    3.70
   2  10   4   23.80    3.90
  -2  10  -4   23.40    2.80
  -2  10  -4   19.80    4.00
   2  10   4   22.80    3.20
  -2  10  -4   21.40    3.50
  -3 -10  -4    0.20    1.40
   3 -10   4    1.10    1.70
  -3 -10  -4    3.70    1.60
   3  10   4   -0.90    1.30
  -3  10  -4   -2.50    2.60
  -3  10  -4    1.40    1.40
  -4 -10  -4   40.10    3.50
   4 -10   4   42.10    3.40
  -4  10  -4   42.20    3.20
   4  10   4   40.30    2.80
   5 -11  -4   22.70    2.90
  -5 -11   4   16.90    2.60
  -5  11   4   19.90    2.70
  -5  11   4   17.90    2.10
   5  11  -4   14.60    2.40
  -4 -11   4  232.58    9.40
   4 -11  -4  207.98    9.90
  -4 -11   4  224.78   10.00
  -4  11   4  220.08    7.40
   4  11  -4  224.08    9.20
   4  11  -4  221.28    8.90
  -4  11   4  203.98    9.50
   3 -11  -4  144.39    7.10
   3 -11  -4  152.38    8.90
  -3 -11   4  150.18    8.50
  -3 -11   4  144.39    7.70
   3  11  -4  143.49    6.70
  -3  11   4  134.39    8.80
  -3  11   4  147.69    8.10
   3  11  -4  144.19    7.70
  -2 -11   4    5.90    2.20
   2 -11  -4    8.30    3.10
  -2 -11   4    3.60    2.10
   2 -11  -4    5.80    2.10
  -2  11   4    5.40    2.00
  -2  11   4    1.10    2.10
   2  11  -4    6.80    2.30
   2  11  -4    3.00    1.90
   1 -11  -4  323.97   13.80
  -1 -11   4  289.87   27.80
  -1 -11   4  320.57   12.00
   1 -11  -4  311.47   14.10
  -1 -11   4  328.57   14.10
  -1 -11   4  304.27   14.30
   1  11  -4  323.07   12.40
  -1  11   4  318.97   11.90
  -1  11   4  312.07   14.40
   1  11  -4  316.87   13.60
   0 -11   4   19.60    4.00
   0 -11   4   27.00    4.60
   0 -11   4   21.10    3.90
   0 -11  -4   23.20    4.10
   0 -11  -4   22.30    3.30
   0 -11  -4   19.40    4.40
   0  11   4   20.60    3.90
   0  11  -4   25.50    3.30
   0  11  -4   19.50    4.00
  -1 -11  -4    5.50    2.10
   1 -11   4    3.30    2.30
  -1 -11  -4    3.30    1.70
   1 -11   4    5.00    2.30
   1  11   4    7.30    2.60
  -1  11  -4    1.40    1.90
  -1  11  -4    2.90    1.60
  -2 -11  -4    3.30    1.60
   2 -11   4    3.40    2.00
   2 -11   4    1.50    1.60
  -2 -11  -4    5.10    1.80
   2  11   4    2.30    1.60
  -2  11  -4    2.40    1.50
  -2  11  -4    3.40    2.20
  -3 -11  -4   65.29    4.60
   3 -11   4   66.09    5.00
  -3  11  -4   71.69    4.50
  -3  11  -4   59.89    5.20
  -4 -12   4   93.09    8.60
   4 -12  -4  108.39    6.10
  -4 -12   4  112.09    6.90
  -4  12   4  104.59    5.70
   4  12  -4  108.69    5.50
  -3 -12   4  146.19    7.10
  -3 -12   4  137.39    7.80
   3 -12  -4  122.29    5.90
   3 -12  -4  138.69    7.80
   3  12  -4  149.19    7.20
  -3  12   4  145.79    8.30
  -3  12   4  137.09    7.10
   3  12  -4  134.99    6.60
   3  12  -4  141.69    5.80
  -2 -12   4   61.59    6.50
   2 -12  -4   43.70    5.10
   2 -12  -4   44.70    4.70
  -2 -12   4   48.10    4.90
  -2  12   4   51.69    4.20
  -2  12   4   54.89    6.40
   2  12  -4   53.69    4.40
   2  12  -4   47.70    4.40
  -1 -12   4    4.70    1.80
   1 -12  -4    9.30    2.60
  -1 -12   4    2.60    2.00
  -1 -12   4    8.10    3.50
   1 -12  -4    5.60    2.00
  -1  12   4    7.60    1.80
  -1  12   4    3.80    2.20
   1  12  -4    3.60    2.00
   0 -12  -4    2.00    1.70
   0 -12   4    1.90    1.70
   0 -12  -4    0.50    1.60
   0 -12  -4    1.30    2.30
   0 -12   4   -0.40    1.90
   0  12  -4   -0.20    1.10
   0  12  -4    2.30    1.80
   0  12   4    1.80    1.80
  -1 -12  -4    6.70    2.40
   1 -12   4    6.60    2.30
   1 -12   4    3.10    2.50
  -1 -12  -4    4.50    1.80
  -1  12  -4    2.30    1.30
  -1  12  -4    5.30    3.20
   1  12   4    5.70    2.00
  -2 -12  -4   82.29    5.30
   2 -12   4   77.99    5.80
  -2  12  -4   70.29    5.00
  -2  12  -4   74.59    4.50
   2  12   4   75.49    3.80
   3 -13  -4   14.00    2.80
  -3 -13   4   10.80    2.10
  -3 -13   4   10.00    2.30
  -3  13   4   11.00    1.90
  -3  13   4   13.20    3.00
   3  13  -4   11.70    1.90
  -2 -13   4    6.50    2.00
  -2 -13   4    5.00    1.70
   2 -13  -4    5.00    1.70
   2 -13  -4    4.30    2.00
  -2  13   4    6.00    1.50
   2  13  -4    4.90    1.60
  -2  13   4    5.30    2.20
  -1 -13   4    1.70    3.70
   1 -13  -4    1.80    1.40
  -1 -13   4   -0.20    1.10
   1 -13  -4    2.30    2.00
  -1  13   4   -0.50    1.30
   1  13  -4    0.80    1.30
   0 -13  -4    0.60    1.20
   0 -13   4    6.10    2.70
   0 -13   4    1.80    1.60
   0  13  -4    1.40    1.50
   0  13   4    4.90    2.00
   1 -13   4   17.50    3.10
  -1 -13  -4   13.40    3.70
  -1 -13  -4   14.00    2.50
   1 -13   4   11.60    2.00
  -1  13  -4   10.00    1.50
  -1  13  -4   17.40    3.10
   1  13   4   15.60    2.50
   1 -14  -4   71.59    7.80
  -1 -14   4   65.69    4.40
   1 -14  -4   58.89    4.50
  -1  14   4   69.89    4.50
   1  14  -4   63.09    4.00
   8   0  -5   -0.10    0.90
   8   0  -5    0.20    1.00
   7   0  -5   -0.90    1.20
   7   0  -5    1.20    1.40
  -7   0   5    0.10    2.00
  -6   0   5    0.30    1.20
   6   0  -5    2.10    2.50
   6   0  -5    3.40    2.20
   6   0  -5   -0.30    1.20
  -6   0   5    4.20    2.10
   5   0  -5    1.50    2.20
  -5   0   5    0.40    1.10
   5   0  -5   -0.10    1.60
   5   0  -5   -0.50    1.80
  -5   0   5    1.30    1.60
  -4   0   5    0.30    0.90
   4   0  -5   -2.00    1.30
   4   0  -5    5.50    3.00
  -4   0   5    4.30    1.70
   4   0  -5   -0.20    1.30
  -3   0   5   48.80    8.10
  -3   0   5   61.29    4.60
  -3   0   5   66.89    4.10
   3   0  -5   67.29    8.80
   3   0  -5   66.29    7.30
   2   0  -5  207.98   13.80
   2   0  -5  202.68    9.00
  -2   0   5  211.28   14.40
  -2   0   5  221.88    8.00
   2   0  -5  209.68    9.60
  -2   0   5  223.28    9.20
   1   0  -5    5.60    1.80
  -1   0   5    2.10    1.30
  -1   0   5    8.40    4.00
  -1   0   5    3.40    1.60
   1   0  -5    4.70    3.10
   1   0  -5    4.60    1.20
   0   0   5   16.60    2.80
   0   0  -5   11.20    4.30
   0   0  -5   12.30    3.10
   0   0   5    7.20    2.50
   0   0  -5   12.30    2.00
   0   0   5   11.60    5.00
  -1   0  -5   -0.40    3.30
  -1   0  -5   -0.30    0.80
  -1   0  -5    0.50    1.40
   1   0   5   -1.00    1.60
  -2   0  -5  184.68    7.20
  -2   0  -5  168.88    8.30
   2   0   5  186.58    9.50
   2   0   5  177.98    8.20
  -2   0  -5  177.98   10.40
   2   0   5  172.38   11.60
   3   0   5  107.39    7.10
   3   0   5  124.09   11.30
   3   0   5  121.79    6.90
  -3   0  -5  121.29    7.30
  -3   0  -5  117.49    6.10
  -3   0  -5  119.59    9.20
  -4   0  -5   10.50    2.50
   4   0   5    5.90    3.20
   4   0   5   17.00    3.60
  -4   0  -5   19.70    3.00
  -4   0  -5    7.30    3.20
  -5   0  -5    3.60    1.50
   5   0   5    1.80    1.60
   5   0   5    2.00    1.50
  -5   0  -5    2.00    1.80
   8  -1  -5  260.87    9.40
   8  -1  -5  267.37    9.30
   8   1  -5  263.67    9.30
   8   1  -5  265.57    9.00
   7  -1  -5   -0.10    1.00
   7  -1  -5    0.00    1.20
  -7   1   5   -1.90    1.50
   7   1  -5    1.10    1.40
   7   1  -5   -0.10    1.10
   6  -1  -5   33.50    6.90
  -6  -1   5   47.90    4.00
   6  -1  -5   45.50    5.20
   6  -1  -5   48.80    8.60
  -6  -1   5   42.80    4.60
   6  -1  -5   45.80    5.30
   6   1  -5   48.40    6.00
   6   1  -5   44.20    8.20
  -6   1   5   40.30    4.40
  -6   1   5   45.90    5.20
   6   1  -5   54.99    6.20
   5  -1  -5   13.30    2.20
   5  -1  -5   12.10    4.20
   5  -1  -5   14.40    4.50
  -5  -1   5   15.80    2.80
   5  -1  -5   14.70    4.30
  -5  -1   5   13.60    2.60
  -5   1   5   14.10    3.00
   5   1  -5   15.20    4.60
  -5   1   5   14.20    2.60
   5   1  -5   13.90    3.10
   4  -1  -5  124.69    9.70
   4  -1  -5  109.69    6.60
  -4  -1   5  113.09    6.70
   4  -1  -5  112.09    6.00
  -4  -1   5  105.09    5.70
   4  -1  -5  118.39    9.10
   4   1  -5  109.09    5.70
   4   1  -5  108.99    6.80
  -4   1   5  106.59    5.70
   4   1  -5   95.69   13.70
   4   1  -5  116.69    9.10
  -3  -1   5  148.79    8.90
  -3  -1   5  141.39    6.30
   3  -1  -5  153.38   12.10
   3  -1  -5  130.79    8.80
  -3  -1   5  149.79   11.70
   3   1  -5  137.69   11.00
  -3   1   5  138.59    6.20
   3   1  -5  144.59    8.90
  -3   1   5  138.89    7.40
  -2  -1   5  129.99    6.70
   2  -1  -5  129.89    7.00
   2  -1  -5  136.49   11.20
   2  -1  -5  132.89    7.40
  -2  -1   5  119.09    5.60
  -2  -1   5  141.79   12.00
  -2   1   5  137.59   12.20
  -2   1   5  130.39    6.80
  -2   1   5  127.59    5.80
   2   1  -5  128.09    7.00
   2   1  -5  134.29   11.10
  -1  -1   5 1624.94   39.60
   1  -1  -5 1624.84   37.30
   1  -1  -5 1582.64   49.80
  -1  -1   5 1663.13   50.59
  -1  -1   5 1602.24   37.60
   1  -1  -5 1612.24   40.70
  -1   1   5 1594.84   37.50
   1   1  -5 1546.35   49.20
  -1   1   5 1601.04   39.70
   1   1  -5 1612.14   40.50
   0  -1  -5   12.20    1.90
   0  -1  -5    6.70    2.10
   0  -1   5   35.30    4.00
   0  -1  -5    2.40    3.30
   0  -1   5   16.60    2.50
   0  -1   5    8.90    4.30
   0   1  -5   12.80    1.90
   0   1   5   11.10    4.70
   0   1   5   22.70    3.40
   0   1  -5    8.30    4.50
   0   1  -5   12.30    2.70
  -1  -1  -5  647.04   16.60
   1  -1   5  595.14   18.60
  -1  -1  -5  642.64   21.20
   1  -1   5  608.44   20.00
  -1   1  -5  658.93   21.50
  -1   1  -5  626.04   16.60
   1   1   5  596.44   19.60
  -1   1  -5  582.24   29.70
  -2  -1  -5  192.08   10.80
   2  -1   5  208.58    8.90
  -2  -1  -5  205.68    9.30
   2  -1   5  204.18   10.10
  -2  -1  -5  203.48    7.70
   2   1   5  210.98   12.30
   2   1   5  200.98    8.60
   2   1   5  197.08    9.80
  -2   1  -5  200.88    7.70
  -2   1  -5  184.38   11.00
  -2   1  -5  184.28    8.90
   3  -1   5 1566.34   39.40
   3  -1   5 1611.74   41.10
  -3  -1  -5 1587.14   40.30
   3  -1   5 1584.14   50.09
  -3  -1  -5 1485.85   39.70
  -3  -1  -5 1581.44   44.50
   3   1   5 1590.84   39.40
  -3   1  -5 1622.44   45.80
  -3   1  -5 1552.34   40.20
   3   1   5 1572.84   40.40
  -4  -1  -5  133.19    7.40
   4  -1   5  117.09   15.80
  -4  -1  -5  126.49    6.30
   4  -1   5  132.79    6.90
  -4  -1  -5  139.99   10.10
   4  -1   5  125.59    9.50
  -4   1  -5  134.59   10.30
  -4   1  -5  136.79    7.60
  -4   1  -5  131.19    6.40
   4   1   5  140.89    8.20
   5  -1   5  126.99    7.10
   5  -1   5  117.79    6.30
  -5  -1  -5  132.09    5.90
  -5   1  -5  132.19    6.60
   5   1   5  133.29    7.20
  -5   1  -5  123.39    5.80
   5   1   5  121.29    7.10
   8  -2  -5  338.27   10.70
   8  -2  -5  339.77   10.80
   8   2  -5  325.37   10.10
   8   2  -5  313.77   10.50
   7  -2  -5   -0.80    1.00
   7  -2  -5   -1.40    1.00
  -7   2   5    1.70    1.50
   7   2  -5    0.10    1.30
   7   2  -5    0.10    1.20
   6  -2  -5  669.23   20.90
   6  -2  -5  632.64   28.10
  -6  -2   5  593.34   19.30
   6  -2  -5  664.23   20.90
   6  -2  -5  661.93   29.40
  -6  -2   5  649.14   18.70
  -6   2   5  663.23   21.40
  -6   2   5  654.53   18.90
   6   2  -5  673.03   21.00
   6   2  -5  695.93   22.00
   5  -2  -5   13.50    4.70
   5  -2  -5   12.80    2.80
   5  -2  -5   13.50    2.70
   5  -2  -5   16.50    5.10
  -5  -2   5   18.70    3.10
   5  -2  -5   19.30    2.80
  -5  -2   5   22.60    3.50
   5   2  -5   19.90    3.20
   5   2  -5   16.30    4.30
   5   2  -5   27.70    4.60
   5   2  -5   13.70    3.00
  -5   2   5   20.80    3.70
  -5   2   5   20.40    3.30
  -4  -2   5   38.20    4.40
   4  -2  -5   55.89    5.80
   4  -2  -5   26.90    3.40
  -4  -2   5   30.00    3.60
   4  -2  -5   36.90    6.90
   4  -2  -5   49.30    5.10
   4   2  -5   33.90    4.10
  -4   2   5   42.20    4.40
   4   2  -5   33.50    6.80
  -4   2   5   45.40    5.30
   4   2  -5   39.60    3.60
   4   2  -5   43.80    7.00
  -3  -2   5  354.76   11.40
  -3  -2   5  373.76   19.40
   3  -2  -5  353.16   15.70
  -3  -2   5  346.97   12.50
  -3   2   5  345.27   11.50
   3   2  -5  369.36   14.90
  -3   2   5  349.27   13.10
   3   2  -5  332.47   17.90
  -2  -2   5   43.30    4.50
   2  -2  -5   54.69    8.30
  -2  -2   5   42.10    7.90
   2  -2  -5   61.29    5.90
  -2  -2   5   39.00    3.80
   2   2  -5   55.59    8.40
  -2   2   5   57.89    3.90
  -2   2   5   57.29    4.60
   2   2  -5   44.70    5.10
  -2   2   5   57.39    9.30
  -1  -2   5  725.13   19.30
   1  -2  -5  734.53   22.40
   1  -2  -5  731.83   18.30
   1  -2  -5  735.33   19.50
   1  -2  -5  787.22   31.20
  -1  -2   5  725.23   21.30
   1   2  -5  738.43   22.10
  -1   2   5  731.23   19.20
  -1   2   5  782.02   31.60
  -1   2   5  719.33   21.30
   1   2  -5  697.73   29.20
   0  -2  -5  110.79    4.70
   0  -2  -5   88.19   11.40
   0  -2   5  105.79    6.40
   0  -2   5  104.79    5.10
   0  -2   5   96.69   12.20
   0  -2  -5   98.79    6.80
   0   2  -5   96.19    6.90
   0   2  -5  104.79   12.80
   0   2   5   91.39    5.90
   0   2  -5  102.69    4.60
   0   2   5   92.29   12.20
  -1  -2  -5  608.14   22.20
   1  -2   5  621.34   18.50
  -1  -2  -5  649.93   21.60
   1  -2   5  639.64   20.70
  -1  -2  -5  674.13   17.70
  -1   2  -5  628.64   19.00
   1   2   5  638.84   20.40
  -1   2  -5  655.93   22.20
   1   2   5  641.14   22.60
  -1   2  -5  653.03   17.90
  -2  -2  -5  223.08   10.00
   2  -2   5  234.78   11.20
  -2  -2  -5  243.68   12.50
  -2  -2  -5  246.38    8.70
   2  -2   5  234.18   14.80
   2  -2   5  235.38    9.80
  -2   2  -5  244.18   12.90
   2   2   5  230.08    9.40
   2   2   5  224.78   10.60
  -2   2  -5  234.58    8.60
  -2   2  -5  241.68   10.30
   3  -2   5  204.98   15.50
  -3  -2  -5  206.38    9.90
   3  -2   5  236.08   10.10
  -3  -2  -5  229.88   12.90
  -3  -2  -5  230.98    9.20
   3  -2   5  242.28   11.20
  -3   2  -5  223.28    8.70
   3   2   5  225.68   10.70
   3   2   5  216.68   10.20
  -3   2  -5  230.78   13.40
   3   2   5  211.68    9.30
  -3   2  -5  224.98   10.20
   4  -2   5   65.19    5.40
  -4  -2  -5   65.29    4.40
  -4  -2  -5   60.59    5.20
   4  -2   5   67.69    5.00
  -4  -2  -5   51.39    7.30
   4   2   5   60.89    4.80
   4   2   5   61.49    6.20
  -4   2  -5   67.39    5.10
  -4   2  -5   50.29    7.20
  -4   2  -5   64.39    4.50
  -5  -2  -5  444.26   13.30
   5  -2   5  467.95   15.40
   5  -2   5  457.75   14.60
   5   2   5  444.26   13.40
  -5   2  -5  464.45   13.60
   5   2   5  466.75   15.70
  -5   2  -5  481.35   14.70
   8  -3  -5  137.29    5.70
   8  -3  -5  133.19    5.80
   8   3  -5  133.49    5.70
   8   3  -5  137.19    5.10
   7  -3  -5   23.00    3.40
   7  -3  -5   25.90    3.90
   7   3  -5   21.30    3.30
  -7   3   5   22.20    2.90
   7   3  -5   20.40    3.20
   6  -3  -5  106.99    6.90
   6  -3  -5  106.39    6.80
  -6  -3   5  100.99    5.60
   6  -3  -5  100.29   13.10
   6  -3  -5   93.49   12.20
  -6   3   5  103.59    5.90
  -6   3   5  101.89    7.30
   6   3  -5   92.59    6.40
   6   3  -5  105.39    7.20
   6   3  -5   67.59    8.80
   6   3  -5  101.79    6.70
  -5  -3   5   37.30    4.50
   5  -3  -5   36.10    4.80
   5  -3  -5   37.20    7.20
   5  -3  -5   31.70    4.00
   5  -3  -5   34.20    4.90
  -5  -3   5   32.70    4.00
   5  -3  -5   25.90    6.40
   5   3  -5   47.70    5.90
  -5   3   5   37.40    5.10
   5   3  -5   37.60    5.00
  -5   3   5   38.90    4.50
   5   3  -5   40.50    5.50
  -5   3   5   38.20    5.30
   5   3  -5   28.90    6.10
   4  -3  -5  185.68    8.30
   4  -3  -5  175.18    8.70
   4  -3  -5  156.18   11.80
  -4  -3   5  189.48    8.60
   4  -3  -5  172.88   12.60
   4  -3  -5  181.48    8.40
   4   3  -5  183.78    9.30
   4   3  -5  172.48    8.00
  -4   3   5  184.48   12.60
  -4   3   5  195.58    8.10
   4   3  -5  183.78   11.60
  -4   3   5  188.78    9.70
  -3  -3   5  103.39    6.10
   3  -3  -5   93.89    8.00
  -3  -3   5  104.99    5.50
   3  -3  -5   98.89    6.10
  -3  -3   5  101.69   11.40
   3   3  -5  100.39    7.50
  -3   3   5  101.29    5.50
   3   3  -5   95.89   11.00
  -3   3   5  104.39    6.70
   2  -3  -5   45.30    5.20
  -2  -3   5   58.89    4.10
  -2  -3   5   58.39    4.70
   2  -3  -5   55.69    9.20
  -2  -3   5   50.89    8.90
   2  -3  -5   52.99    6.20
  -2   3   5   46.50    5.10
   2   3  -5   53.89    8.20
  -2   3   5   62.59    4.00
   1  -3  -5  226.48    9.10
  -1  -3   5  236.08   10.00
   1  -3  -5  246.68   28.90
  -1  -3   5  230.08   16.80
   1  -3  -5  223.88   10.70
  -1  -3   5  237.28    8.60
   1  -3  -5  232.88    7.70
   1   3  -5  225.78   10.50
  -1   3   5  234.18   10.10
  -1   3   5  235.48    8.30
   1   3  -5  239.18   16.40
  -1   3   5  221.38   16.90
   0  -3   5   63.79    5.20
   0  -3  -5   63.19    6.70
   0  -3   5   64.89    4.20
   0  -3   5   70.89   11.00
   0  -3  -5   58.59    3.60
   0  -3  -5   41.60    8.00
   0   3  -5   53.59    9.30
   0   3   5   63.39    5.00
   0   3  -5   65.29    3.60
   0   3  -5   45.80    5.40
  -1  -3  -5   13.30    2.70
  -1  -3  -5   13.90    3.40
   1  -3   5   16.10    3.00
   1  -3   5   16.80    3.20
  -1  -3  -5   12.50    2.10
  -1   3  -5   15.90    3.90
   1   3   5   10.30    3.30
  -1   3  -5   13.70    3.50
  -1   3  -5   12.20    2.00
  -2  -3  -5  171.78   10.40
  -2  -3  -5  176.88    8.70
   2  -3   5  166.88    9.40
   2  -3   5  176.98   13.30
   2  -3   5  164.08    8.50
  -2  -3  -5  175.08    7.20
   2  -3   5  167.48    8.30
   2   3   5  162.58    7.70
  -2   3  -5  191.58   11.50
  -2   3  -5  179.18    7.30
   2   3   5  177.88    8.60
   2   3   5  175.28    9.40
  -2   3  -5  179.78    8.70
   3  -3   5  221.38   10.00
  -3  -3  -5  226.08   10.30
   3  -3   5  229.08   11.00
  -3  -3  -5  225.58    8.70
   3  -3   5  213.78   16.90
  -3  -3  -5  249.78   24.60
   3   3   5  216.38   10.70
  -3   3  -5  222.78   15.20
  -3   3  -5  216.18   10.30
  -3   3  -5  220.58    8.70
   3   3   5  213.88    9.20
   4  -3   5  218.08   10.00
  -4  -3  -5  227.48    8.70
   4  -3   5  205.78   17.40
  -4  -3  -5  220.78    9.90
  -4  -3  -5  198.58   12.10
   4  -3   5  219.98    9.70
   4   3   5  221.98   10.60
  -4   3  -5  219.88   10.00
   4   3   5  216.78    8.70
  -4   3  -5  212.78   13.30
  -4   3  -5  231.68    8.90
   5  -3   5    8.60    2.30
  -5  -3  -5    8.10    1.90
   5  -3   5    8.70    2.10
  -5   3  -5   11.00    2.00
  -5   3  -5    9.00    2.10
   5   3   5    6.50    2.10
   7  -4  -5  152.08    7.40
   7  -4  -5  162.98    7.60
  -7   4   5  144.99    6.40
   7   4  -5  146.69    6.30
   7   4  -5  161.38    7.00
   7   4  -5  163.58    8.00
   6  -4  -5    1.20    2.70
   6  -4  -5    1.20    2.90
   6  -4  -5    0.10    1.20
  -6  -4   5   -0.80    2.20
   6  -4  -5    0.40    1.30
  -6   4   5    0.70    1.60
  -6   4   5   -0.30    1.20
  -6   4   5    2.00    2.40
   6   4  -5   -0.10    1.30
   6   4  -5    2.10    2.20
   6   4  -5    1.40    1.50
   5  -4  -5    7.00    2.20
   5  -4  -5    6.60    2.10
   5  -4  -5    6.70    2.20
  -5  -4   5    9.30    2.50
   5  -4  -5    8.70    3.80
  -5  -4   5    9.40    2.50
   5  -4  -5    6.00    3.60
   5   4  -5    7.10    2.80
   5   4  -5    9.20    2.80
   5   4  -5    5.40    2.20
  -5   4   5    5.50    2.20
  -5   4   5    7.60    2.20
  -5   4   5    8.40    2.70
   5   4  -5    6.20    2.50
  -4  -4   5  487.15   15.10
   4  -4  -5  481.05   15.90
  -4  -4   5  532.85   17.10
   4  -4  -5  486.65   22.90
   4  -4  -5  539.15   21.60
   4  -4  -5  497.65   16.50
   4  -4  -5  499.35   16.60
   4   4  -5  506.35   14.60
   4   4  -5  508.65   20.50
  -4   4   5  499.25   15.60
   4   4  -5  497.65   16.00
  -4   4   5  499.75   17.90
  -4   4   5  525.55   18.70
   4   4  -5  499.55   17.40
  -3  -4   5  258.07   10.70
  -3  -4   5  246.98    9.80
   3  -4  -5  239.08   10.30
   3  -4  -5  238.58   13.70
   3   4  -5  233.78    9.90
  -3   4   5  258.87    9.50
  -3   4   5  242.28   11.50
   3   4  -5  253.27   11.50
  -3   4   5  238.38   10.90
   2  -4  -5 1577.04   42.00
   2  -4  -5 1658.63   43.80
  -2  -4   5 1659.03   53.49
   2  -4  -5 1586.94   54.39
  -2  -4   5 1671.33   41.00
   2  -4  -5 1623.74   55.39
  -2  -4   5 1597.64   38.40
   2   4  -5 1519.75   39.70
  -2   4   5 1603.44   41.50
  -2   4   5 1650.93   38.40
  -2   4   5 1568.54   41.00
   1  -4  -5   16.40    6.20
  -1  -4   5   22.30    3.20
   1  -4  -5   30.20    4.90
  -1  -4   5   20.30    3.60
   1  -4  -5   18.70    2.60
   1  -4  -5   18.80    3.30
   1  -4  -5   17.40    6.70
  -1  -4   5   26.70    7.60
   1   4  -5   16.00    6.00
  -1   4   5   21.00    3.60
  -1   4   5   21.70    2.70
   1   4  -5   14.80    3.30
   0  -4   5  107.69    5.50
   0  -4  -5  109.39    7.80
   0  -4   5  112.29    7.20
   0  -4  -5  103.19    5.10
   0  -4  -5  106.99   13.90
   0  -4   5  112.49   15.10
   0  -4  -5  106.79    6.40
   0  -4   5  100.79    6.70
   0  -4  -5  142.19   16.80
   0  -4   5  107.19    6.20
   0   4  -5  106.29    6.00
   0   4  -5  109.79    7.70
   0   4   5  115.69    7.70
   0   4  -5  106.09    4.80
   0   4  -5  111.09   14.80
  -1  -4  -5   22.90    2.80
   1  -4   5   24.20    4.60
  -1  -4  -5   20.30    3.10
   1  -4   5   29.80    4.30
   1  -4   5   22.70    3.30
   1   4   5   24.90    4.60
  -1   4  -5   31.70    5.20
  -1   4  -5   22.10    2.80
  -1   4  -5   17.20    3.70
   1   4   5   18.60    3.30
  -1   4  -5   19.30    3.00
  -2  -4  -5   99.39    5.20
  -2  -4  -5   94.59    7.90
   2  -4   5   89.19    6.30
   2  -4   5   84.09   11.10
  -2  -4  -5   94.59    6.30
   2   4   5   94.79    6.40
  -2   4  -5   92.99    6.30
  -2   4  -5   87.69    5.00
  -2   4  -5   93.29   10.20
   2   4   5   87.69    6.90
  -3  -4  -5    8.20    2.50
   3  -4   5   15.00    3.40
  -3  -4  -5   12.80    3.70
  -3  -4  -5    9.50    2.10
   3  -4   5    8.40    4.00
   3  -4   5   11.30    3.50
   3   4   5    6.00    2.30
  -3   4  -5    7.40    2.30
  -3   4  -5    7.50    1.90
   3   4   5    5.90    2.50
  -3   4  -5    5.00    2.80
  -4  -4  -5  230.28   10.20
   4  -4   5  237.18   10.10
  -4  -4  -5  219.48    9.20
   4  -4   5  238.78   10.30
  -4   4  -5  224.98    8.90
  -4   4  -5  225.98   10.10
   4   4   5  230.78   10.80
   5  -4   5   32.80    3.40
   5  -4   5   35.50    3.90
  -5   4  -5   28.90    3.30
   5   4   5   30.90    3.90
  -5   4  -5   33.80    3.20
   7  -5  -5   44.80    3.70
   7  -5  -5   35.80    4.40
  -7   5   5   44.60    3.30
   7   5  -5   46.30    3.50
   7   5  -5   46.90    4.70
   7   5  -5   41.00    3.30
  -6  -5   5    0.80    2.10
   6  -5  -5    0.40    1.20
   6  -5  -5    2.10    1.60
   6  -5  -5    1.10    3.80
   6  -5  -5    5.80    4.30
   6   5  -5    2.20    1.80
  -6   5   5    0.90    1.70
  -6   5   5    0.70    1.20
   6   5  -5   -0.40    1.30
   6   5  -5    0.20    2.00
  -6   5   5   -0.40    1.70
  -5  -5   5  164.18    8.70
   5  -5  -5  175.88    8.40
   5  -5  -5  180.28    8.70
  -5  -5   5  173.28    7.90
   5  -5  -5  179.18    8.60
   5  -5  -5  177.98   14.50
   5  -5  -5  167.58   12.90
  -5   5   5  179.98   10.70
   5   5  -5  174.88    9.80
  -5   5   5  173.98    9.60
   5   5  -5  177.38    8.70
   5   5  -5  179.28    8.90
  -5   5   5  179.38    8.30
   4  -5  -5  324.97   12.00
  -4  -5   5  326.87   13.30
   4  -5  -5  341.97   12.80
   4  -5  -5  316.77   16.00
   4  -5  -5  333.77   18.90
  -4  -5   5  341.07   11.80
   4   5  -5  320.77   10.90
  -4   5   5  340.67   15.00
   4   5  -5  337.87   12.70
  -4   5   5  337.17   13.90
  -4   5   5  324.87   11.80
   3  -5  -5   29.80    3.90
  -3  -5   5   20.10    3.70
  -3  -5   5   21.80    3.90
   3  -5  -5   25.70    4.10
   3  -5  -5   22.50    5.80
   3  -5  -5   21.20    3.40
  -3  -5   5   28.20    3.80
  -3   5   5   27.90    4.30
   3   5  -5   21.00    3.40
  -3   5   5   19.90    3.00
  -3   5   5   20.90    4.00
   3   5  -5   29.50    4.10
   2  -5  -5  353.46   15.00
  -2  -5   5  350.46   13.90
  -2  -5   5  344.87   11.80
  -2  -5   5  336.27   13.50
   2  -5  -5  348.67   15.60
   2  -5  -5  335.87   13.10
  -2   5   5  342.37   13.60
  -2   5   5  349.77   11.40
   2   5  -5  331.87   12.70
   2   5  -5  353.16   12.80
  -2   5   5  348.97   14.20
   1  -5  -5  115.79    8.50
   1  -5  -5  106.69   15.60
  -1  -5   5   94.89    7.00
  -1  -5   5   93.29    5.60
  -1  -5   5  112.99    7.40
   1  -5  -5  100.29    7.50
   1  -5  -5  110.59    7.20
   1  -5  -5   97.29    5.00
   1  -5  -5  102.49   14.80
   1   5  -5   97.39    5.70
  -1   5   5   99.59    7.40
  -1   5   5   93.69    6.80
  -1   5   5   95.59    5.00
   0  -5  -5  213.78    8.10
   0  -5   5  248.28   13.90
   0  -5   5  219.78   11.00
   0  -5  -5  224.28    9.80
   0  -5   5  204.58   10.10
   0  -5  -5  187.98   11.00
   0   5  -5  193.58   21.30
   0   5  -5  214.98    9.20
   0   5  -5  209.08    7.40
   0   5  -5  206.88   13.20
   0   5  -5  210.38   11.40
   0   5   5  232.98   12.70
  -1  -5  -5   57.09    4.10
   1  -5   5   71.29    6.50
  -1  -5  -5   65.09    7.90
   1  -5   5   70.29    5.70
  -1  -5  -5   75.49    5.50
   1  -5   5   65.79    5.20
  -1   5  -5   79.49    5.50
   1   5   5   64.29    5.30
  -1   5  -5   71.69    8.10
  -1   5  -5   65.99    4.10
  -1   5  -5   67.59    7.20
   1   5   5   64.59    5.80
   2  -5   5   22.80    3.70
   2  -5   5   21.20    5.30
  -2  -5  -5   23.30    3.10
  -2  -5  -5   19.60    3.40
   2  -5   5   15.00    2.90
   2  -5   5   19.30    4.50
  -2  -5  -5   23.90    4.80
  -2   5  -5   22.60    3.80
  -2   5  -5   26.20    3.20
   2   5   5   28.20    4.20
   2   5   5   26.70    4.70
  -2   5  -5   24.20    5.00
  -2   5  -5   22.40    5.40
  -3  -5  -5   62.19    4.40
   3  -5   5   41.10    8.50
  -3  -5  -5   50.59    7.40
   3  -5   5   68.59    5.50
   3  -5   5   56.79    6.30
  -3  -5  -5   57.29    5.90
   3   5   5   64.29    6.30
  -3   5  -5   66.19    8.80
   3   5   5   61.69    5.00
  -3   5  -5   57.09    4.30
  -3   5  -5   65.09    5.40
  -4  -5  -5  163.78    7.20
   4  -5   5  164.68    8.20
  -4  -5  -5  158.68    8.20
   4  -5   5  171.58    8.40
  -4   5  -5  163.88    7.20
   4   5   5  168.38    8.70
  -4   5  -5  164.88    8.20
  -5  -5  -5    3.30    1.30
   5  -5   5    1.20    1.30
   5  -5   5    2.10    1.20
  -5   5  -5    1.80    1.20
   5   5   5    3.10    1.80
  -5   5  -5    1.60    1.60
   7  -6  -5   37.40    3.10
   7  -6  -5   35.40    2.90
   7   6  -5   38.40    3.40
   7   6  -5   30.00    3.40
   6  -6  -5   19.50    3.00
   6  -6  -5   22.20    3.30
  -6  -6   5   15.60    3.10
   6   6  -5   14.00    2.80
   6   6  -5   13.20    3.10
  -6   6   5   17.60    2.90
   6   6  -5   20.90    3.70
  -6   6   5   15.80    3.20
  -5  -6   5    4.20    2.20
   5  -6  -5    6.70    2.00
  -5  -6   5    8.30    2.30
   5  -6  -5   -1.40    2.90
   5  -6  -5    5.90    2.30
   5  -6  -5    6.60    2.10
   5  -6  -5    1.50    2.90
   5   6  -5    2.20    1.70
   5   6  -5    8.00    2.60
  -5   6   5   10.90    3.00
  -5   6   5    7.20    2.80
   5   6  -5    7.60    2.90
  -5   6   5    9.60    2.30
   4  -6  -5   15.00    5.20
  -4  -6   5   22.20    4.10
  -4  -6   5   17.10    3.60
   4  -6  -5   18.60    2.90
  -4  -6   5   20.10    3.20
   4  -6  -5   18.60    3.50
   4  -6  -5   20.20    3.40
   4  -6  -5   17.80    4.40
  -4   6   5   16.70    3.80
   4   6  -5   20.20    3.90
  -4   6   5   17.20    3.30
   4   6  -5   19.70    2.90
  -3  -6   5   14.60    3.00
   3  -6  -5   21.50    3.40
  -3  -6   5   14.20    3.10
   3  -6  -5   21.80    5.60
  -3  -6   5   20.20    4.00
   3  -6  -5   23.80    4.30
  -3   6   5   17.40    2.90
   3   6  -5   23.80    3.70
  -3   6   5   30.60    6.30
  -3   6   5   18.60    3.90
   3   6  -5   20.30    3.50
  -3   6   5   11.90    2.80
   2  -6  -5   26.00    5.20
  -2  -6   5   20.20    3.70
  -2  -6   5   19.70    3.00
   2  -6  -5   20.60    3.20
  -2  -6   5   25.00    4.30
   2  -6  -5   26.80    4.60
  -2   6   5   24.80    3.10
  -2   6   5   25.20    4.60
  -2   6   5   20.80    4.70
   2   6  -5   21.80    3.80
  -2   6   5   25.30    3.80
   2   6  -5   20.10    3.10
   1  -6  -5    7.20    3.10
  -1  -6   5    7.60    2.70
   1  -6  -5   12.00    2.30
   1  -6  -5   17.20    3.80
  -1  -6   5    4.40    2.60
   1  -6  -5   10.90    3.30
   1  -6  -5   11.80    2.50
  -1  -6   5   10.50    2.50
  -1  -6   5   16.60    3.60
  -1   6   5   10.20    3.30
   1   6  -5    9.30    2.90
  -1   6   5   10.10    2.00
   1   6  -5   10.80    2.30
   1   6  -5    8.70    2.20
  -1   6   5    0.00    1.80
  -1   6   5    6.70    2.20
   0  -6   5   29.20    3.60
   0  -6   5   34.30    5.40
   0  -6   5   23.40    3.90
   0  -6  -5   28.80    5.50
   0  -6  -5   37.50    3.90
   0  -6  -5   26.50    3.80
   0  -6   5   22.30    4.10
   0   6   5   29.70    4.00
   0   6  -5   35.30    5.30
   0   6   5   29.10    5.40
   0   6  -5   29.70    4.10
  -1  -6  -5   37.20    4.20
  -1  -6  -5   27.00    5.30
   1  -6   5   35.40    5.60
  -1  -6  -5   42.30    5.10
   1  -6   5   33.20    4.50
   1  -6   5   37.90    5.00
   1   6   5   36.10    4.50
  -1   6  -5   37.20    3.70
  -1   6  -5   33.60    6.10
  -1   6  -5   31.50    5.00
  -2  -6  -5  215.18   22.00
  -2  -6  -5  172.78    7.80
  -2  -6  -5  176.48    9.10
   2  -6   5  174.28   10.30
   2  -6   5  170.88    8.80
   2  -6   5  170.98    8.60
   2   6   5  176.18    9.50
  -2   6  -5  169.38   12.30
   2   6   5  163.78    8.70
  -2   6  -5  175.38    7.50
  -2   6  -5  162.58   10.10
  -2   6  -5  167.48    9.10
   3  -6   5   33.30    4.50
  -3  -6  -5   30.80    4.30
  -3  -6  -5   30.40    5.60
   3  -6   5   35.50    6.90
   3  -6   5   21.50    6.10
  -3  -6  -5   34.30    4.10
   3   6   5   33.30    4.50
  -3   6  -5   27.70    6.00
  -3   6  -5   30.00    3.60
   3   6   5   34.60    4.20
  -3   6  -5   31.40    4.40
   4  -6   5   83.79    5.50
  -4  -6  -5   77.09    4.80
  -4  -6  -5   81.09    5.60
   4  -6   5   78.79    5.50
  -4   6  -5   83.59    4.80
  -4   6  -5   86.69    5.60
   4   6   5   83.09    5.80
   5  -6   5    2.70    1.20
   5  -6   5    1.90    1.30
  -5  -6  -5    1.20    1.00
   5   6   5    0.40    1.10
  -5   6  -5   -0.30    0.80
  -5   6  -5    0.90    1.00
   7  -7  -5    2.20    1.10
   7  -7  -5    2.70    1.20
   7   7  -5    1.30    1.00
  -7   7   5    2.30    1.60
  -7   7   5    0.10    0.80
   7   7  -5    2.10    1.50
   6  -7  -5    4.10    1.50
  -6  -7   5    5.60    2.00
  -6   7   5    3.70    1.60
  -6   7   5    3.40    1.60
   6   7  -5    1.80    1.80
   6   7  -5    3.40    1.70
  -5  -7   5    4.30    2.10
   5  -7  -5    1.80    1.80
   5  -7  -5    5.70    5.90
  -5  -7   5    5.80    2.90
   5  -7  -5    4.40    1.70
   5  -7  -5    0.90    1.30
  -5   7   5   -0.50    3.70
  -5   7   5    2.70    1.60
  -5   7   5    3.30    2.10
   5   7  -5    2.40    1.80
   5   7  -5    5.00    2.60
  -4  -7   5   49.80    5.30
  -4  -7   5   49.70    6.40
  -4  -7   5   41.20    5.40
   4  -7  -5   48.40    4.50
   4  -7  -5   47.40    4.70
   4  -7  -5   32.20    4.60
   4  -7  -5   34.60    7.30
  -4   7   5   42.60    6.60
  -4   7   5   37.50    4.40
   4   7  -5   42.40    3.70
   4   7  -5   49.60    5.80
  -4   7   5   51.09    6.00
   3  -7  -5   25.70    4.40
   3  -7  -5   23.50    5.40
  -3  -7   5   27.70    3.90
  -3  -7   5   27.30    6.70
  -3  -7   5   28.30    5.00
   3   7  -5   38.90    5.00
  -3   7   5   32.50    4.00
  -3   7   5   28.40    5.10
  -3   7   5   25.00    4.00
   3   7  -5   35.40    4.70
  -3   7   5   31.50    5.90
   2  -7  -5  116.09    9.80
  -2  -7   5  127.89    8.80
  -2  -7   5  130.19    7.00
  -2  -7   5  111.89    7.80
   2  -7  -5  109.49    7.80
   2  -7  -5  121.79    7.20
  -2   7   5  115.89    8.80
  -2   7   5  130.29    6.10
  -2   7   5  125.59    8.90
   2   7  -5  123.69    7.30
  -2   7   5  117.99    7.80
   2   7  -5  122.39    7.50
   1  -7  -5   24.80    3.30
  -1  -7   5   20.70    3.40
   1  -7  -5   20.40    4.60
  -1  -7   5   21.30    4.20
   1  -7  -5   19.60    5.00
  -1  -7   5   29.50    4.80
  -1  -7   5   24.70    5.00
   1  -7  -5   27.80    3.80
   1  -7  -5   29.60    5.10
  -1   7   5   28.80    4.30
   1   7  -5   21.10    4.00
  -1   7   5   20.50    3.90
   1   7  -5   23.20    3.60
   1   7  -5   28.60    3.60
   0  -7  -5  799.62   21.80
   0  -7  -5  772.72   28.10
   0  -7   5  924.31   29.10
   0  -7   5  802.52   28.00
   0  -7   5  799.02   22.10
   0  -7  -5  737.83   25.20
   0  -7  -5  801.42   27.20
   0   7   5  803.92   23.40
   0   7  -5  793.82   26.70
   0   7  -5  775.32   28.60
   1  -7   5   37.20    6.00
   1  -7   5   32.50    4.60
  -1  -7  -5   28.80    6.00
  -1  -7  -5   31.20    3.90
  -1  -7  -5   29.40    4.30
  -1   7  -5   31.80    3.40
   1   7   5   26.80    4.90
  -1   7  -5   29.50    5.10
   1   7   5   34.20    5.30
  -1   7  -5   33.10    4.20
   2  -7   5  486.05   16.90
  -2  -7  -5  504.85   17.70
   2  -7   5  498.65   26.10
  -2  -7  -5  524.95   22.40
   2  -7   5  489.15   16.40
   2  -7   5  485.65   19.10
  -2  -7  -5  520.75   15.90
   2   7   5  503.95   17.90
  -2   7  -5  494.05   19.20
  -2   7  -5  500.35   22.70
  -2   7  -5  513.35   15.10
   2   7   5  520.65   16.70
  -2   7  -5  498.65   17.60
  -3  -7  -5  169.48    8.70
  -3  -7  -5  158.08    7.40
   3  -7   5  168.88   22.40
   3  -7   5  168.18    9.40
   3  -7   5  167.18    8.20
  -3  -7  -5  162.48   13.50
  -3   7  -5  158.78    7.10
  -3   7  -5  151.08    8.30
   3   7   5  160.08    8.20
   3   7   5  160.08    7.20
   4  -7   5   21.80    4.50
  -4  -7  -5   21.70    3.10
   4  -7   5   23.30    3.60
  -4  -7  -5   27.00    3.10
   4   7   5   22.60    3.20
  -4   7  -5   23.10    3.50
  -4   7  -5   23.40    2.80
   6  -8  -5    0.00    1.00
  -6  -8   5    0.20    1.50
  -6   8   5    1.80    1.20
  -6   8   5    2.60    1.50
   6   8  -5   -0.50    1.10
   6   8  -5    3.60    1.70
  -5  -8   5   10.40    2.50
   5  -8  -5   10.40    2.70
   5  -8  -5    9.20    2.20
   5   8  -5   11.00    2.60
  -5   8   5    8.50    2.50
  -5   8   5    4.60    1.90
   5   8  -5    5.10    2.50
   4  -8  -5   76.59   12.10
   4  -8  -5   57.59    6.60
  -4  -8   5   57.09    6.20
  -4  -8   5   66.79    7.90
   4  -8  -5   53.09    4.90
  -4  -8   5   52.89    5.50
  -4   8   5   57.29    6.30
  -4   8   5   52.09    4.90
   4   8  -5   52.39    3.80
   4   8  -5   69.39    6.80
  -4   8   5   57.59    7.80
   3  -8  -5    8.00    2.90
   3  -8  -5    5.10    6.40
  -3  -8   5   15.30    4.10
  -3  -8   5   19.30    3.70
   3  -8  -5   15.90    3.20
  -3  -8   5   17.50    3.50
   3   8  -5   10.00    2.70
  -3   8   5   13.70    4.40
   3   8  -5   13.50    3.10
  -3   8   5   17.10    3.00
  -3   8   5   18.90    3.90
  -3   8   5   12.00    3.70
  -2  -8   5  176.88   11.10
  -2  -8   5  181.98    8.80
   2  -8  -5  186.38    9.60
   2  -8  -5  188.78   10.60
  -2  -8   5  180.58   10.20
   2  -8  -5  192.48   13.30
  -2   8   5  180.78   11.00
   2   8  -5  176.48    9.10
   2   8  -5  186.88    9.60
  -2   8   5  186.78    7.40
  -2   8   5  186.78    9.90
   1  -8  -5  189.28   12.40
   1  -8  -5  201.98    8.40
  -1  -8   5  214.38   11.30
  -1  -8   5  176.78    9.60
   1  -8  -5  240.28   13.10
  -1  -8   5  202.48   12.20
   1  -8  -5  217.68   10.50
   1   8  -5  203.48   10.80
  -1   8   5  215.68   11.80
  -1   8   5  213.48   10.20
   1   8  -5  210.48    9.90
   1   8  -5  200.68    8.80
   0  -8  -5 1348.97   42.10
   0  -8  -5 1378.76   33.80
   0  -8   5 1391.36   38.00
   0  -8   5 1251.57   37.70
   0  -8  -5 1366.16   37.90
   0  -8  -5 1376.06   36.80
   0  -8   5 1314.07   33.60
   0   8   5 1355.96   38.50
   0   8   5 1282.07   34.30
   0   8  -5 1341.67   38.00
   0   8  -5 1376.76   35.20
   1  -8   5   24.40    5.00
   1  -8   5   27.50    7.10
   1  -8   5   18.80    3.80
  -1  -8  -5   31.70    4.70
  -1  -8  -5   20.50    3.30
  -1  -8  -5   24.00    5.30
  -1   8  -5   19.10    4.00
  -1   8  -5   21.30    2.70
   1   8   5   19.00    3.80
  -1   8  -5   20.60    3.40
  -2  -8  -5  683.53   27.90
  -2  -8  -5  767.52   23.50
   2  -8   5  769.02   22.40
   2  -8   5  712.73   33.20
  -2  -8  -5  786.72   21.40
   2  -8   5  743.33   25.00
   2   8   5  746.53   21.30
  -2   8  -5  724.23   19.80
  -2   8  -5  722.13   24.40
   2   8   5  757.72   23.30
  -2   8  -5  759.32   23.20
   3  -8   5   15.70    3.40
  -3  -8  -5   19.50    3.00
  -3  -8  -5   19.20    3.10
  -3   8  -5   17.00    2.50
  -3   8  -5   15.10    2.80
   3   8   5   22.30    3.40
   3   8   5   25.60    2.80
  -4  -8  -5   42.70    3.70
   4  -8   5   43.00    3.20
   4  -8   5   45.90    3.70
   4   8   5   40.00    3.20
  -4   8  -5   46.10    3.60
  -4   8  -5   48.10    3.00
  -6  -9   5   -1.00    1.20
   6  -9  -5    1.10    1.10
   6   9  -5   -1.10    0.90
  -6   9   5    0.80    0.90
   6   9  -5   -0.60    1.40
  -6   9   5    1.90    1.30
   5  -9  -5   47.30    5.00
  -5  -9   5   40.40    4.30
   5  -9  -5   44.00    3.40
  -5   9   5   48.00    4.50
   5   9  -5   39.00    4.40
   5   9  -5   47.50    4.80
  -5   9   5   46.90    5.00
  -4  -9   5  290.87   11.50
   4  -9  -5  258.37   19.90
  -4  -9   5  262.77   12.30
  -4  -9   5  275.47   14.20
   4  -9  -5  285.67   12.60
   4   9  -5  279.67   12.00
  -4   9   5  299.77   10.30
   4   9  -5  303.47   12.00
  -4   9   5  272.77   12.20
   4   9  -5  270.37    8.50
   3  -9  -5    1.40    3.70
  -3  -9   5   -0.40    1.40
   3  -9  -5    1.30    2.10
   3  -9  -5    0.50    1.50
  -3  -9   5    2.30    2.20
  -3  -9   5    1.10    1.70
  -3   9   5   -1.00    2.40
   3   9  -5   -0.30    1.40
  -3   9   5    1.80    1.40
   3   9  -5   -0.30    1.30
  -3   9   5    2.30    1.80
  -3   9   5    2.60    4.00
  -2  -9   5   23.00    5.10
  -2  -9   5   20.80    3.80
   2  -9  -5   18.90    5.60
   2  -9  -5   21.30    4.00
  -2  -9   5   20.60    4.00
   2  -9  -5   32.60    4.70
   2   9  -5   25.40    4.20
  -2   9   5   34.40    7.10
   2   9  -5   30.10    4.80
  -2   9   5   24.40    2.90
  -2   9   5   27.40    4.20
  -1  -9   5  443.76   15.10
  -1  -9   5  435.66   17.30
   1  -9  -5  428.86   16.10
   1  -9  -5  424.26   17.20
  -1  -9   5  397.66   17.40
  -1  -9   5  409.26   19.40
   1  -9  -5  425.76   13.70
   1   9  -5  420.76   16.80
   1   9  -5  441.96   15.60
  -1   9   5  387.26   17.40
  -1   9   5  431.46   15.50
   1   9  -5  445.56   14.00
   0  -9  -5   67.09    8.10
   0  -9   5   53.69    6.30
   0  -9   5   51.69    6.50
   0  -9  -5   55.29    6.00
   0  -9   5   59.39    5.30
   0  -9  -5   55.49    5.40
   0   9  -5   56.29    4.80
   0   9   5   65.19    7.60
   0   9  -5   53.89    7.00
   0   9   5   60.69    4.70
   1  -9   5    8.70    4.00
  -1  -9  -5   10.40    3.60
  -1  -9  -5    7.90    2.30
   1  -9   5   13.20    3.80
   1  -9   5    6.10    4.70
  -1  -9  -5    3.00    3.00
  -1   9  -5   13.20    4.10
  -1   9  -5    9.00    3.10
   2  -9   5   24.00    3.40
  -2  -9  -5   23.30    3.70
  -2  -9  -5   33.80    4.40
   2  -9   5   33.70    5.40
   2   9   5   31.90    4.60
  -2   9  -5   28.20    3.00
   2   9   5   23.60    3.20
  -2   9  -5   22.80    3.40
  -2   9  -5   26.80    4.80
  -3  -9  -5   12.90    2.40
  -3  -9  -5   17.80    2.90
   3  -9   5   13.90    3.00
   3   9   5   12.10    2.20
  -3   9  -5   16.20    2.80
  -3   9  -5   14.10    2.40
  -4  -9  -5   38.20    2.90
   4  -9   5   33.60    3.70
  -4   9  -5   41.20    3.20
   4   9   5   40.60    2.70
  -6  10   5   33.00    2.30
   6  10  -5   29.40    3.00
  -6  10   5   33.40    2.70
   5 -10  -5   75.79    5.00
  -5 -10   5   71.39    4.80
   5  10  -5   78.09    4.80
   5  10  -5   77.29    5.00
  -5  10   5   76.29    4.10
  -5  10   5   70.19    4.90
  -4 -10   5    3.70    1.90
  -4 -10   5    2.70    2.00
   4 -10  -5    1.20    1.80
   4  10  -5    3.90    1.80
  -4  10   5    3.40    1.40
  -4  10   5    5.80    2.00
   4  10  -5    2.40    1.60
  -3 -10   5  243.78   11.70
  -3 -10   5  252.47   18.90
   3 -10  -5  236.68   11.80
   3 -10  -5  246.08   10.10
  -3 -10   5  242.68   10.40
   3  10  -5  242.98   10.10
   3  10  -5  232.18   10.50
  -3  10   5  255.67   11.40
  -3  10   5  233.38    8.60
  -3  10   5  230.28   12.30
   2 -10  -5   22.00    4.80
  -2 -10   5   19.90    3.80
  -2 -10   5   15.50    3.50
   2 -10  -5   15.80    3.50
  -2  10   5   27.60    5.00
  -2  10   5   23.00    3.80
   2  10  -5   17.00    3.50
   2  10  -5   18.40    3.60
   1 -10  -5  144.99    7.00
  -1 -10   5  161.08   10.20
   1 -10  -5  154.28    9.10
   1 -10  -5  156.08    9.80
  -1 -10   5  163.28    8.00
  -1 -10   5  158.18    9.70
   1  10  -5  155.18    6.70
   1  10  -5  144.49    9.10
  -1  10   5  158.48    8.10
  -1  10   5  155.28    9.90
   0 -10   5   33.50    5.30
   0 -10  -5   21.40    6.00
   0 -10   5   25.00    4.20
   0 -10  -5   27.80    3.70
   0 -10   5   32.60    7.20
   0 -10   5   20.50    4.10
   0 -10  -5   37.70    6.10
   0 -10  -5   31.60    4.60
   0  10   5   33.50    3.30
   0  10  -5   25.90    4.50
   0  10   5   32.60    5.50
   0  10  -5   33.30    4.00
  -1 -10  -5  172.18   11.80
   1 -10   5  175.78    9.10
  -1 -10  -5  172.38    9.30
   1 -10   5  168.08   10.10
  -1  10  -5  168.58    8.30
  -1  10  -5  168.18    9.70
   1  10   5  162.78    9.20
  -2 -10  -5   13.10    2.60
  -2 -10  -5   11.30    2.40
   2 -10   5   14.70    3.60
   2 -10   5    8.10    2.20
   2  10   5   14.00    2.80
  -2  10  -5   10.80    2.40
  -2  10  -5   11.20    3.00
   3 -10   5    3.50    1.90
  -3 -10  -5    2.50    1.40
  -3  10  -5    2.20    1.20
   5 -11  -5  287.97    9.30
  -5 -11   5  258.17    9.10
   5  11  -5  247.88    8.60
  -5  11   5  276.97    9.70
   5  11  -5  271.87    9.30
   4 -11  -5   54.09    7.10
  -4 -11   5   50.99    4.40
  -4 -11   5   42.60    4.40
  -4  11   5   42.40    6.10
   4  11  -5   51.59    6.50
  -4  11   5   45.70    5.30
   4  11  -5   43.60    4.20
   3 -11  -5  194.78   10.10
   3 -11  -5  210.88    8.90
  -3 -11   5  196.68   10.00
  -3 -11   5  206.38    9.20
   3  11  -5  207.18    8.40
  -3  11   5  234.48   12.50
   3  11  -5  211.78    9.40
  -3  11   5  203.58    9.50
   2 -11  -5  102.19    7.40
  -2 -11   5  106.39    6.50
  -2 -11   5  109.29    7.60
   2 -11  -5   99.69    6.70
   2  11  -5  104.39    6.70
  -2  11   5   99.09    6.30
   2  11  -5   95.29    6.20
  -2  11   5  104.09    7.80
  -1 -11   5   40.10    5.70
   1 -11  -5   37.60    5.10
   1 -11  -5   55.69    6.00
  -1 -11   5   36.10    5.10
  -1 -11   5   43.70    4.50
   1  11  -5   43.00    6.10
  -1  11   5   42.50    4.20
  -1  11   5   39.90    6.00
   0 -11  -5    2.10    1.70
   0 -11   5   -1.50    1.20
   0 -11  -5    0.50    1.30
   0 -11   5    0.60    2.00
   0 -11  -5    0.10    3.80
   0  11  -5    0.80    1.20
   0  11   5    0.70    1.70
   0  11  -5    0.50    1.60
  -1 -11  -5   11.90    2.80
   1 -11   5    8.80    2.30
   1 -11   5    7.20    2.60
  -1 -11  -5   10.30    2.40
   1  11   5   10.50    2.70
  -1  11  -5   12.50    3.00
  -1  11  -5   11.70    2.20
  -2 -11  -5   -0.10    1.10
  -2 -11  -5    0.90    1.20
   2 -11   5    1.90    1.60
   2  11   5   -0.40    1.00
  -2  11  -5    2.40    1.90
  -2  11  -5    1.90    1.10
   3 -11   5    3.00    1.40
  -4 -12   5   34.80    3.60
   4 -12  -5   29.20    3.50
  -4 -12   5   33.20    3.50
   4  12  -5   30.00    2.80
  -4  12   5   31.70    3.30
   4  12  -5   28.30    3.20
   3 -12  -5  107.29    6.50
  -3 -12   5  116.39    6.70
  -3 -12   5  110.79    5.90
  -3  12   5  104.19    5.70
   3  12  -5  115.19    5.80
   3  12  -5  110.09    4.70
   3  12  -5  112.29    5.90
  -3  12   5   98.49    6.70
  -2 -12   5    6.50    2.40
  -2 -12   5    4.60    1.90
   2 -12  -5    7.00    2.10
   2 -12  -5    6.10    2.50
  -2  12   5    6.40    1.60
  -2  12   5    6.90    2.60
   2  12  -5    5.40    2.10
   1 -12  -5    7.50    2.30
  -1 -12   5    7.70    2.20
  -1 -12   5    6.70    2.40
   1 -12  -5    9.00    2.80
  -1 -12   5    3.50    3.20
   1  12  -5    5.80    2.10
  -1  12   5    7.00    2.40
  -1  12   5    8.20    1.80
   0 -12   5   44.40    5.20
   0 -12  -5   34.90    4.40
   0 -12  -5   48.20    7.50
   0  12   5   40.80    5.80
  -1 -12  -5   28.30    3.60
  -1 -12  -5   28.80    3.20
   1 -12   5   32.00    4.60
   1 -12   5   37.90    3.30
  -1  12  -5   35.00    4.40
  -1  12  -5   29.50    2.50
   1  12   5   32.00    3.70
   2 -12   5   80.99    5.10
  -2 -12  -5   78.59    5.50
  -2  12  -5   69.19    4.00
  -2  12  -5   71.89    4.60
   3 -13  -5   14.40    2.60
  -3 -13   5   15.10    2.40
  -3 -13   5   12.90    3.00
   3  13  -5    9.60    1.80
  -3  13   5   14.50    2.50
  -3  13   5   12.30    1.70
   2 -13  -5   21.80    3.00
  -2 -13   5   28.90    3.50
   2 -13  -5   26.50    3.60
  -2 -13   5   31.10    4.40
   2  13  -5   29.70    2.70
  -2  13   5   22.30    3.30
  -2  13   5   24.90    2.10
  -1 -13   5   30.60    3.50
   1 -13  -5   33.40    4.10
   1 -13  -5   30.40    3.40
   1  13  -5   33.10    3.70
  -1  13   5   33.00    3.90
   0 -13   5   23.80    3.00
   0 -13  -5   33.20    3.70
   0 -13   5   24.80    3.50
   0  13   5   27.50    3.50
   0  13  -5   27.30    3.30
   8   0  -6    0.00    0.80
   8   0  -6    2.90    1.30
   7   0  -6    0.20    1.10
  -7   0   6    0.10    1.60
   7   0  -6    0.40    1.50
  -6   0   6   30.70    4.50
  -6   0   6   35.40    4.40
   6   0  -6   37.00    7.70
   6   0  -6   37.80    5.50
   6   0  -6   44.40    5.40
   5   0  -6   10.90    2.70
  -5   0   6   13.10    2.70
  -5   0   6   10.00    2.70
   5   0  -6    8.80    3.50
   5   0  -6   13.70    3.00
   4   0  -6   95.79    8.50
   4   0  -6   98.39    5.90
  -4   0   6   99.69   11.80
  -4   0   6   97.59    5.80
  -4   0   6  104.39    6.90
   4   0  -6  101.79    6.60
  -3   0   6 1239.98   30.20
  -3   0   6 1234.08   32.80
   3   0  -6 1197.08   34.70
  -3   0   6 1158.28   32.60
   3   0  -6 1148.59   31.00
  -2   0   6    2.70    1.30
   2   0  -6    3.50    1.70
   2   0  -6    2.20    1.80
   2   0  -6    1.20    3.80
  -2   0   6    0.50    1.40
  -2   0   6    2.10    4.20
  -1   0   6 1868.91   62.69
  -1   0   6 1944.71   44.40
   1   0  -6 1880.41   48.60
   1   0  -6 1934.41   49.10
   1   0  -6 1892.71   42.60
  -1   0   6 1907.21   47.20
   1   0  -6 1875.81   60.89
  -1   0   6 1841.32   46.90
   0   0   6  189.28   10.20
   0   0  -6  201.28   20.60
   0   0   6  202.88    9.50
   0   0   6  186.28   20.00
   0   0  -6  208.38   11.00
   0   0   6  199.98    7.50
  -1   0  -6  910.21   25.20
   1   0   6  905.21   24.40
  -1   0  -6  890.91   22.70
   1   0   6  864.01   25.00
  -1   0  -6  816.62   29.30
  -1   0  -6  928.81   29.20
   1   0   6  837.32   26.60
  -2   0  -6   41.20    4.30
   2   0   6   54.49    8.50
  -2   0  -6   38.10    6.00
   2   0   6   39.60    5.80
  -2   0  -6   33.80    4.20
   2   0   6   50.89    5.70
  -3   0  -6  293.37   12.40
  -3   0  -6  308.07   16.40
   3   0   6  304.97   12.00
   3   0   6  312.77   13.00
  -3   0  -6  308.27   11.00
   4   0   6   79.59    5.30
  -4   0  -6   91.59    5.00
  -4   0  -6   76.89    5.50
  -5   0  -6    6.70    3.00
   5   0   6   10.80    2.10
  -5   0  -6    9.50    1.70
   8  -1  -6   60.69    3.80
   8  -1  -6   62.79    3.90
   8   1  -6   59.99    3.80
   8   1  -6   59.19    3.70
   7  -1  -6    4.60    1.80
  -7  -1   6    2.70    1.90
   7  -1  -6    4.90    1.90
   7   1  -6    2.40    1.80
  -7   1   6    4.40    1.80
   7   1  -6    3.20    1.80
  -6  -1   6   41.50    4.70
   6  -1  -6   25.40    3.60
   6  -1  -6   23.10    5.80
  -6  -1   6   32.40    4.40
   6  -1  -6   29.50    4.10
  -6   1   6   33.00    4.20
   6   1  -6   32.60    4.70
   6   1  -6   36.00    4.80
  -6   1   6   33.00    4.80
   6   1  -6   28.90    6.00
   5  -1  -6    0.40    1.40
   5  -1  -6    0.40    2.50
   5  -1  -6    3.00    2.10
   5  -1  -6    2.10    1.60
  -5  -1   6    1.30    1.50
  -5  -1   6   -1.60    1.30
  -5   1   6   -1.50    1.20
   5   1  -6    0.00    1.30
  -5   1   6    3.00    2.60
   5   1  -6    0.90    2.20
   5   1  -6    0.10    1.40
  -5   1   6    1.30    1.50
  -4  -1   6  369.66   12.30
  -4  -1   6  362.26   14.10
   4  -1  -6  351.96   13.30
   4  -1  -6  345.07   17.10
   4  -1  -6  352.56   12.70
   4   1  -6  363.96   17.10
   4   1  -6  357.26   12.40
  -4   1   6  369.46   14.40
  -4   1   6  347.07   12.30
  -4   1   6  329.47   13.90
   4   1  -6  361.86   13.80
   3  -1  -6   32.00    5.50
  -3  -1   6   20.90    3.50
  -3  -1   6   26.20    3.30
   3  -1  -6   28.20    4.10
  -3  -1   6   19.70    3.60
  -3   1   6   28.40    4.20
   3   1  -6   27.00    4.50
  -3   1   6   31.80    4.30
   3   1  -6   28.20    4.20
  -3   1   6   24.80    3.30
   3   1  -6   24.80    3.40
   2  -1  -6 1338.37   34.80
  -2  -1   6 1416.06   50.29
  -2  -1   6 1369.26   35.60
   2  -1  -6 1210.58   33.90
  -2  -1   6 1361.16   32.90
  -2  -1   6 1276.87   45.10
  -2   1   6 1334.77   35.50
  -2   1   6 1439.36   33.10
  -2   1   6 1366.16   50.09
   2   1  -6 1322.27   34.50
  -2   1   6 1250.97   34.80
   2   1  -6 1315.57   34.70
  -1  -1   6  207.48    9.90
   1  -1  -6  199.28   10.60
  -1  -1   6  224.88    8.50
  -1  -1   6  214.68   10.10
   1  -1  -6  213.48    7.40
   1  -1  -6  212.38    9.00
   1  -1  -6  212.78   17.50
  -1  -1   6  209.18   17.70
   1   1  -6  154.58   18.70
  -1   1   6  222.08    8.30
   1   1  -6  216.18   10.90
  -1   1   6  228.18   18.40
   1   1  -6  220.38    7.30
  -1   1   6  217.38   10.20
   1   1  -6  214.98    9.00
  -1   1   6  209.68    9.80
   0  -1   6  412.86   17.60
   0  -1  -6  401.46   25.30
   0  -1  -6  434.56   12.90
   0  -1  -6  451.15   17.20
   0  -1   6  416.46   12.60
   0  -1   6  420.96   16.10
   0  -1  -6  434.16   15.70
   0  -1   6  433.26   16.50
   0   1  -6  456.85   17.50
   0   1   6  407.26   18.60
   0   1   6  396.66   14.90
   0   1  -6  356.56   24.90
   0   1  -6  405.26   14.60
  -1  -1  -6   40.10    6.30
   1  -1   6   38.50    4.50
  -1  -1  -6   33.30    4.40
   1  -1   6   29.20    3.90
   1  -1   6   23.00    4.10
  -1  -1  -6   26.60    3.20
   1   1   6   25.60    3.80
  -1   1  -6   26.20    3.10
  -1   1  -6   18.10    4.20
  -1   1  -6   31.00    3.70
   1   1   6   31.40    5.60
   1   1   6   24.00    3.50
   1   1   6   31.40    5.10
  -1   1  -6   22.00    4.50
  -2  -1  -6  245.48   13.80
   2  -1   6  251.17   15.80
   2  -1   6  262.37   10.70
  -2  -1  -6  231.18   10.70
   2  -1   6  262.97   12.30
  -2  -1  -6  246.88    9.30
  -2   1  -6  235.58    9.10
   2   1   6  256.07   10.40
   2   1   6  235.08   11.60
  -2   1  -6  243.18   13.90
  -2   1  -6  231.38   10.60
   3  -1   6  459.75   24.20
   3  -1   6  465.25   17.20
  -3  -1  -6  455.45   20.60
  -3  -1  -6  484.75   14.80
   3  -1   6  497.55   16.40
  -3  -1  -6  475.75   16.70
  -3   1  -6  469.55   16.70
   3   1   6  466.45   15.70
   3   1   6  503.05   17.30
  -3   1  -6  497.75   15.10
  -3   1  -6  457.85   20.70
   4  -1   6  140.69    7.30
   4  -1   6  139.39    7.90
  -4  -1  -6  137.49    6.40
  -4  -1  -6  138.49    7.50
   4  -1   6  136.19    6.10
  -4   1  -6  134.99    7.30
  -4   1  -6  136.69    6.40
   4   1   6  134.39    8.40
   4   1   6  137.49    6.90
   5  -1   6    1.90    1.30
  -5  -1  -6   -0.30    0.90
  -5   1  -6    0.10    1.40
  -5   1  -6    1.80    1.00
   5   1   6    0.70    1.00
   8  -2  -6  167.08    6.70
   8  -2  -6  181.78    6.90
   8   2  -6  164.38    6.70
   7  -2  -6   12.80    2.70
   7  -2  -6   17.60    3.00
   7   2  -6   14.00    2.60
  -7   2   6   14.50    2.50
   7   2  -6    7.90    2.20
   6  -2  -6   36.10    6.40
  -6  -2   6   43.60    5.00
   6  -2  -6   27.20    6.20
  -6  -2   6   49.60    5.10
  -6   2   6   31.80    4.90
   6   2  -6   31.30    6.40
   6   2  -6   20.70    4.40
  -6   2   6   44.30    4.70
   5  -2  -6   11.40    2.90
   5  -2  -6    8.40    2.30
   5  -2  -6    7.50    3.90
  -5  -2   6    8.10    2.50
  -5  -2   6   12.50    2.60
   5  -2  -6   10.80    2.40
  -5   2   6    8.80    2.70
   5   2  -6    8.50    3.90
  -5   2   6   10.30    3.10
   5   2  -6    9.40    2.80
   5   2  -6    8.40    2.70
   4  -2  -6   16.10    3.20
  -4  -2   6   12.50    3.60
  -4  -2   6   16.00    3.20
   4  -2  -6   20.80    3.30
  -4  -2   6   10.80    2.50
   4  -2  -6   13.10    4.10
   4   2  -6   17.30    3.10
  -4   2   6   17.90    3.10
  -4   2   6   18.00    3.60
  -4   2   6   17.40    3.40
   4   2  -6   12.90    2.60
   4   2  -6   18.50    4.50
   4   2  -6   18.20    3.50
   3  -2  -6  393.86   17.20
  -3  -2   6  398.86   15.50
  -3  -2   6  410.16   13.40
   3  -2  -6  432.16   14.90
  -3   2   6  436.86   13.80
   3   2  -6  426.76   16.90
  -3   2   6  420.76   16.00
   3   2  -6  416.46   14.50
   2  -2  -6   66.89    5.50
  -2  -2   6   65.59   11.50
   2  -2  -6   70.79    5.60
  -2  -2   6   77.79    5.90
   2  -2  -6   65.89    5.10
  -2  -2   6   77.29    5.80
  -2   2   6   80.79    6.10
  -2   2   6   76.69    5.80
   2   2  -6   79.79    5.80
  -2   2   6   82.69   13.40
   1  -2  -6  207.58   11.00
  -1  -2   6  222.18   10.30
   1  -2  -6  212.58    9.10
   1  -2  -6  203.88   17.50
   1  -2  -6  198.48   10.80
  -1  -2   6  219.18    8.60
   1  -2  -6  221.78    7.70
   1   2  -6  213.28   11.10
   1   2  -6  214.58   10.10
   1   2  -6  206.38    8.90
  -1   2   6  219.98   10.40
   1   2  -6  234.58   20.60
  -1   2   6  230.88    8.30
  -1   2   6  215.38   19.00
  -1   2   6  223.38   10.30
   0  -2  -6  189.48   10.80
   0  -2  -6  200.68    7.40
   0  -2   6  195.18   10.00
   0  -2   6  190.88    7.70
   0  -2   6  185.78    9.40
   0  -2  -6  199.88    8.90
   0   2  -6  181.08   19.80
   0   2   6  181.88   10.00
   0   2  -6  193.18   11.00
   0   2  -6  183.58    8.50
   0   2  -6  190.88    9.90
   0   2  -6  192.88    8.70
   1  -2   6  798.92   22.50
  -1  -2  -6  760.52   22.80
   1  -2   6  766.32   24.70
  -1  -2  -6  776.62   20.50
  -1  -2  -6  743.13   26.40
   1  -2   6  808.22   23.50
  -1   2  -6  783.62   23.00
   1   2   6  778.52   22.40
  -1   2  -6  761.82   26.80
  -1   2  -6  717.53   26.90
  -1   2  -6  800.92   20.60
   1   2   6  745.13   24.20
  -2  -2  -6    4.90    3.00
   2  -2   6    4.30    3.40
   2  -2   6    5.00    2.40
  -2  -2  -6   15.10    3.20
   2  -2   6    6.20    2.40
   2   2   6   12.90    3.20
   2   2   6    9.60    2.40
  -2   2  -6    8.10    2.30
  -2   2  -6    5.60    3.20
  -3  -2  -6  249.08   14.30
   3  -2   6  239.68   10.60
  -3  -2  -6  254.97    9.50
   3  -2   6  242.98   11.50
  -3  -2  -6  225.28   10.60
   3  -2   6  254.77   17.70
  -3   2  -6  253.17    9.50
   3   2   6  245.78   10.20
  -3   2  -6  223.68   14.20
   3   2   6  236.48   10.90
  -3   2  -6  248.08   11.00
   3   2   6  233.48   11.00
   4  -2   6  192.68    9.40
  -4  -2  -6  203.38    8.10
   4  -2   6  207.38    8.20
   4  -2   6  201.08    9.10
  -4  -2  -6  217.18    9.50
  -4   2  -6  208.48    9.30
  -4   2  -6  206.98    8.20
   4   2   6  203.48    9.70
   5  -2   6    5.10    1.70
  -5  -2  -6    2.40    1.10
  -5   2  -6    4.00    1.30
   5   2   6    6.40    1.90
  -5   2  -6    3.50    1.40
   8  -3  -6  192.48    7.00
   8  -3  -6  201.38    7.10
   8   3  -6  207.38    7.80
   8   3  -6  187.28    6.20
  -7  -3   6   56.49    4.90
   7  -3  -6   53.69    4.30
   7  -3  -6   57.09    4.60
   7   3  -6   58.59    4.40
   7   3  -6   68.79    5.20
  -7   3   6   57.39    4.00
   6  -3  -6   26.60    3.90
   6  -3  -6   22.50    9.90
  -6  -3   6   29.20    3.90
   6  -3  -6   26.10    4.10
   6   3  -6   25.60    6.90
  -6   3   6   25.90    4.00
  -6   3   6   34.80    7.50
  -6   3   6   27.20    3.90
   6   3  -6   23.20    3.20
   6   3  -6   22.80    4.20
   6   3  -6   32.50    4.50
   5  -3  -6  174.88    8.70
  -5  -3   6  167.38    8.00
   5  -3  -6  187.18   21.80
   5  -3  -6  184.48    9.40
   5  -3  -6  176.38    8.20
   5   3  -6  174.38    9.70
  -5   3   6  175.28    9.80
  -5   3   6  169.98    8.20
   5   3  -6  175.38    9.30
   5   3  -6  169.68    7.90
   5   3  -6  109.69   15.10
   4  -3  -6    8.80    3.40
   4  -3  -6   21.30    3.60
  -4  -3   6    7.20    2.10
   4  -3  -6   15.50    3.10
   4  -3  -6   13.30    2.60
  -4  -3   6   10.00    2.70
  -4  -3   6   11.30    3.30
  -4   3   6   14.00    2.80
  -4   3   6   10.40    2.90
  -4   3   6   14.70    3.20
   4   3  -6   16.60    4.30
   4   3  -6   13.40    3.20
   4   3  -6   14.90    2.80
   4   3  -6   14.40    2.90
   3  -3  -6   87.09    5.60
   3  -3  -6   91.29    6.30
   3  -3  -6  102.39    8.20
  -3  -3   6   97.99    5.70
  -3  -3   6  101.99    6.80
  -3   3   6   76.49    6.40
   3   3  -6   94.79    7.80
  -3   3   6   91.39    5.50
   3   3  -6   94.69    6.00
  -3   3   6   86.29    6.50
  -2  -3   6  195.38    8.30
  -2  -3   6  180.28    9.60
  -2  -3   6  207.08    9.90
   2  -3  -6  198.58    9.90
   2  -3  -6  181.08    8.40
   2  -3  -6  199.78   10.20
  -2   3   6  184.48    9.60
  -2   3   6  205.58   10.30
   2   3  -6  195.58    9.20
  -2   3   6  195.68    8.00
   2   3  -6  196.28    8.60
   1  -3  -6  222.98   20.10
  -1  -3   6  253.57   20.80
   1  -3  -6  264.77   10.60
  -1  -3   6  261.57    9.80
   1  -3  -6  258.47   12.70
  -1  -3   6  245.38   11.30
  -1  -3   6  243.78   11.80
   1  -3  -6  263.57   11.90
   1  -3  -6  262.07    8.80
   1   3  -6  254.07   10.30
  -1   3   6  263.37   11.80
  -1   3   6  270.97    9.40
  -1   3   6  289.17   25.10
  -1   3   6  256.27   12.60
  -1   3   6  259.07   11.30
   0  -3   6  463.55   13.70
   0  -3   6  431.66   17.00
   0  -3   6  476.35   16.60
   0  -3  -6  449.26   13.20
   0  -3  -6  438.56   17.00
   0  -3  -6  430.86   15.10
   0   3  -6  428.26   18.20
   0   3  -6  438.16   16.40
   0   3   6  431.56   15.60
   0   3   6  446.06   17.20
   0   3  -6  440.76   12.80
   0   3  -6  457.05   15.10
  -1  -3  -6   75.99    5.70
  -1  -3  -6   65.79    4.30
   1  -3   6   65.69    5.60
  -1  -3  -6   58.59    7.20
   1  -3   6   67.99    5.20
   1  -3   6   82.19    8.70
  -1   3  -6   63.19    4.10
  -1   3  -6   69.69    8.70
   1   3   6   59.79    5.20
   1   3   6   76.59    6.60
  -1   3  -6   64.59    5.20
  -1   3  -6   67.09    7.40
  -2  -3  -6  378.16   12.60
  -2  -3  -6  397.96   18.40
   2  -3   6  385.26   14.20
   2  -3   6  424.66   22.20
  -2  -3  -6  375.46   14.50
   2  -3   6  382.86   15.90
  -2   3  -6  397.66   14.80
   2   3   6  381.96   14.30
  -2   3  -6  391.76   18.90
  -2   3  -6  386.06   12.60
   2   3   6  399.66   15.80
  -3  -3  -6  965.10   32.30
  -3  -3  -6  964.80   24.90
  -3  -3  -6  944.21   27.30
   3  -3   6  940.01   31.60
   3  -3   6  919.01   37.60
  -3   3  -6  930.01   29.30
  -3   3  -6  924.01   24.70
  -3   3  -6  931.01   32.80
   4  -3   6   39.60    4.40
   4  -3   6   46.90    3.90
  -4  -3  -6   49.70    4.40
  -4  -3  -6   53.19    5.00
  -4   3  -6   49.90    3.70
   4   3   6   30.70    3.90
  -4   3  -6   37.80    4.20
   5  -3   6    1.50    1.10
  -5  -3  -6    0.90    1.00
   5   3   6    0.40    0.90
  -5   3  -6   -0.20    1.10
  -5   3  -6    1.00    0.90
   7  -4  -6   59.79    6.80
  -7  -4   6   71.99    5.60
   7  -4  -6   68.09    8.30
  -7   4   6   80.89    4.70
   7   4  -6   75.69    5.30
   7   4  -6   72.89    4.60
   6  -4  -6   80.39   11.40
   6  -4  -6   95.79    6.00
   6  -4  -6   88.19    6.10
  -6  -4   6   94.59    7.60
  -6   4   6   92.39    6.40
   6   4  -6   73.89    5.70
   6   4  -6   84.39    6.50
   6   4  -6   69.59    5.00
  -6   4   6   86.69    8.80
  -6   4   6   85.19    5.40
   5  -4  -6    1.10    1.40
  -5  -4   6   -0.70    1.40
   5  -4  -6    0.10    2.80
   5  -4  -6    0.80    1.40
  -5  -4   6   -1.10    1.20
   5  -4  -6   -0.60    1.50
   5   4  -6   -0.50    1.60
   5   4  -6   -1.40    1.60
  -5   4   6   -0.80    1.70
  -5   4   6    0.90    1.90
   5   4  -6    1.30    1.50
  -5   4   6    1.60    1.70
  -4  -4   6  247.38   11.60
   4  -4  -6  242.08   10.70
  -4  -4   6  230.78   11.60
   4  -4  -6  237.48    9.80
  -4  -4   6  246.98   10.10
   4  -4  -6  235.08   15.20
   4   4  -6  266.87   11.70
  -4   4   6  210.18   14.60
  -4   4   6  258.47   12.90
   4   4  -6  243.38   10.40
   4   4  -6  245.78   10.00
   3  -4  -6   21.10    4.80
  -3  -4   6   25.10    4.00
  -3  -4   6   31.00    4.10
   3  -4  -6   26.60    3.60
  -3  -4   6   16.40    3.30
   3  -4  -6   33.30    4.90
  -3   4   6   26.50    4.60
   3   4  -6   30.90    4.30
   3   4  -6   28.10    3.90
  -3   4   6   24.50    4.10
  -3   4   6   17.10    2.80
   2  -4  -6   42.60    4.50
  -2  -4   6   48.60    8.70
  -2  -4   6   43.30    5.10
  -2  -4   6   41.80    4.50
   2  -4  -6   55.19    6.60
   2  -4  -6   51.99    6.10
   2   4  -6   49.70    4.10
  -2   4   6   50.69    6.20
  -2   4   6   61.19    5.40
  -2   4   6   61.49    6.30
   2   4  -6   54.79    5.90
   2   4  -6   64.09    6.00
   1  -4  -6   73.39    5.50
  -1  -4   6   84.19    6.40
  -1  -4   6   86.49   10.60
   1  -4  -6   53.39    6.50
  -1  -4   6   79.99    5.00
   1  -4  -6   70.39    6.30
   1  -4  -6   48.60   19.50
  -1  -4   6   73.99    6.30
   1  -4  -6   74.89    4.40
   1   4  -6   80.09    6.00
  -1   4   6  100.79   10.50
  -1   4   6   74.89    6.00
   1   4  -6   70.89    5.00
  -1   4   6   76.59    4.50
  -1   4   6   72.89    7.20
   0  -4   6  156.08    9.40
   0  -4  -6  149.59   10.30
   0  -4   6  156.68    7.00
   0  -4  -6  141.39    7.90
   0  -4   6  156.08    8.90
   0  -4  -6  160.68    6.80
   0   4  -6  160.98   10.40
   0   4   6  138.69    9.10
   0   4  -6  179.58   10.80
   0   4  -6  147.39    7.70
   0   4   6  146.09    8.10
   0   4  -6  151.08    6.20
  -1  -4  -6  143.89    9.90
   1  -4   6  142.69    8.40
  -1  -4  -6  149.59   10.30
   1  -4   6  158.28    9.00
   1  -4   6  141.39   11.80
  -1  -4  -6  141.59    6.60
  -1   4  -6  140.39    7.90
  -1   4  -6  149.69    9.30
  -1   4  -6  139.89    6.40
   1   4   6  142.09    7.50
   1   4   6  145.39    9.80
  -1   4  -6  137.09   10.20
   1   4   6  142.99    7.50
   2  -4   6  150.58    8.00
   2  -4   6  161.98   14.60
   2  -4   6  155.08    8.50
  -2  -4  -6  168.08    8.90
   2  -4   6  162.88    9.90
  -2  -4  -6  143.79   10.90
  -2  -4  -6  153.38    7.30
   2   4   6  150.98    8.40
  -2   4  -6  160.88    8.70
  -2   4  -6  163.18    7.20
  -3  -4  -6   28.80    4.10
  -3  -4  -6   22.10    7.10
   3  -4   6   24.90    3.70
   3  -4   6   26.70    4.50
   3  -4   6   32.90    8.90
  -3  -4  -6   34.60    4.10
  -3   4  -6   31.50    3.50
  -3   4  -6   27.40    4.20
   3   4   6   35.40    4.60
   3   4   6   27.10    3.90
  -3   4  -6   26.30    6.30
   4  -4   6   43.70    4.60
  -4  -4  -6   35.50    3.60
  -4  -4  -6   34.60    3.90
   4   4   6   40.90    4.80
  -4   4  -6   31.60    3.40
  -4   4  -6   42.90    5.10
   5  -4   6    6.10    1.40
  -5  -4  -6    6.10    1.40
   5   4   6    8.30    1.70
  -5   4  -6    7.50    1.40
  -5   4  -6    3.90    1.30
   7  -5  -6   24.40    3.00
   7  -5  -6   22.30    2.70
   7   5  -6   18.30    2.70
   7   5  -6   21.90    3.30
  -7   5   6   18.80    2.50
   6  -5  -6   58.99    5.70
   6  -5  -6   42.30    4.30
  -6  -5   6   48.80    4.90
   6   5  -6   40.00    4.90
   6   5  -6   53.89    5.30
   6   5  -6   44.90    4.70
  -6   5   6   64.99    6.20
  -6   5   6   51.69    5.50
   5  -5  -6   23.30    3.90
   5  -5  -6   16.40    5.20
  -5  -5   6   21.30    3.60
   5  -5  -6   23.30    3.50
  -5  -5   6   23.20    4.10
   5  -5  -6   25.80    3.50
  -5   5   6   22.60    4.20
   5   5  -6   21.50    3.60
  -5   5   6   16.80    4.00
  -5   5   6   20.70    3.50
   5   5  -6   14.70    3.10
   5   5  -6   21.10    3.50
  -4  -5   6  183.88    9.90
   4  -5  -6  179.98    8.40
   4  -5  -6  189.48    8.90
   4  -5  -6  172.58   13.20
  -4  -5   6  196.98   10.50
  -4  -5   6  170.28   10.40
   4  -5  -6  182.58    9.40
  -4   5   6  171.68    8.30
   4   5  -6  184.68    8.20
   4   5  -6  184.68    8.80
  -4   5   6  181.48   10.00
  -4   5   6  186.38   11.10
   3  -5  -6   28.90    6.00
   3  -5  -6   22.10    3.70
  -3  -5   6   29.50    4.70
  -3  -5   6   21.90    3.50
  -3  -5   6   23.40    4.40
   3  -5  -6   19.10    3.70
   3  -5  -6   26.00    3.70
   3   5  -6   20.60    3.30
  -3   5   6   25.60    4.90
   3   5  -6   22.60    3.60
  -3   5   6   27.70    3.70
  -3   5   6   32.80    5.10
  -3   5   6   17.30    4.80
  -2  -5   6   82.99    6.40
   2  -5  -6   78.79    8.60
  -2  -5   6   87.69    5.60
  -2  -5   6   66.39    7.10
   2  -5  -6   77.99    6.30
   2  -5  -6   82.49    5.60
   2   5  -6   63.49    5.20
   2   5  -6   64.29    6.30
  -2   5   6   63.99    7.00
   2   5  -6   66.89    5.60
  -2   5   6   85.19    6.50
  -2   5   6   72.29    7.70
  -2   5   6   86.09    5.00
   1  -5  -6   59.69    5.00
   1  -5  -6   60.19    7.60
   1  -5  -6   50.79    5.80
   1  -5  -6   68.79    4.30
  -1  -5   6   76.99    6.10
  -1  -5   6   72.09    9.00
  -1  -5   6   70.19    8.30
  -1  -5   6   55.09    5.20
  -1   5   6   62.49    4.30
  -1   5   6   73.29    5.90
   1   5  -6   70.59    7.40
  -1   5   6   50.19    6.20
   1   5  -6   62.79    4.80
   0  -5  -6  182.98   10.50
   0  -5   6  213.78   11.30
   0  -5  -6  203.98    8.10
   0  -5  -6  195.68    9.70
   0  -5  -6  188.18   11.90
   0  -5   6  201.48   10.30
   0  -5   6  203.08    8.30
   0   5  -6  200.28    9.20
   0   5   6  193.08    9.40
   0   5  -6  188.98    7.20
   0   5  -6  188.38   10.20
  -1  -5  -6   82.19    6.20
  -1  -5  -6   70.79    8.40
   1  -5   6   76.29    6.90
   1  -5   6   78.19    6.40
   1  -5   6   86.39    6.20
  -1   5  -6   73.09    6.60
  -1   5  -6   82.89    6.10
  -1   5  -6   85.49    4.80
  -1   5  -6   82.79    9.60
   2  -5   6  195.28    8.90
  -2  -5  -6  213.78   13.50
   2  -5   6  213.48    9.90
  -2  -5  -6  232.28    9.10
  -2  -5  -6  201.98   10.20
   2  -5   6  197.48   16.00
   2  -5   6  218.88   11.60
  -2   5  -6  210.38   13.70
   2   5   6  210.18   10.70
  -2   5  -6  208.88    8.40
  -2   5  -6  211.98   10.10
   2   5   6  211.18    9.70
  -2   5  -6  201.08   11.40
  -3  -5  -6    8.10    2.60
  -3  -5  -6    8.40    2.20
   3  -5   6    3.00    1.80
   3  -5   6    5.40    2.30
   3   5   6    9.10    2.60
  -3   5  -6    7.30    2.20
  -3   5  -6    4.10    1.50
   3   5   6    6.30    2.20
   4  -5   6   69.89    7.30
   4  -5   6   83.39    4.80
  -4  -5  -6   77.79    5.00
  -4  -5  -6   76.49    4.50
  -4   5  -6   88.89    5.30
  -4   5  -6   73.49    4.30
   4   5   6   76.19    5.10
   7  -6  -6    1.30    1.10
   7  -6  -6    2.30    1.10
   7   6  -6    0.60    1.00
  -7   6   6   -0.20    0.80
   7   6  -6   -0.80    1.30
  -7   6   6    0.50    2.80
   6  -6  -6   66.19    4.50
   6  -6  -6   59.99    4.20
  -6  -6   6   67.59    4.70
   6   6  -6   61.19    4.50
   6   6  -6   62.29    5.40
  -6   6   6   53.39    4.70
   6   6  -6   59.59    4.50
  -6   6   6   60.79    4.30
   5  -6  -6   18.50    3.50
   5  -6  -6   20.10    3.20
  -5  -6   6   14.50    3.60
  -5  -6   6   15.60    3.10
   5  -6  -6   18.10    6.40
   5  -6  -6   20.60    3.00
   5   6  -6   19.30    3.40
  -5   6   6   20.10    3.20
   5   6  -6   13.20    2.90
  -5   6   6   21.00    4.10
   5   6  -6   17.00    3.20
  -5   6   6   25.10    5.00
  -4  -6   6   64.09    6.10
  -4  -6   6   54.79    6.60
   4  -6  -6   57.39    4.50
   4  -6  -6   60.79   10.00
   4  -6  -6   62.79    5.60
  -4  -6   6   56.79    6.10
   4  -6  -6   58.19    4.80
   4   6  -6   56.19    5.70
  -4   6   6   55.99    7.30
   4   6  -6   59.69    4.50
  -4   6   6   57.99    5.40
  -4   6   6   47.40    5.70
  -3  -6   6   36.30    5.40
  -3  -6   6   44.20    5.00
  -3  -6   6   34.50    4.70
   3  -6  -6   39.40    7.50
   3  -6  -6   43.40    5.70
   3  -6  -6   34.30    4.80
  -3   6   6   51.99    7.10
  -3   6   6   40.40    4.50
   3   6  -6   37.90    4.60
   3   6  -6   40.30    5.20
  -3   6   6   40.70    5.40
  -3   6   6   46.10    7.10
   2  -6  -6   30.20    5.00
  -2  -6   6   23.70    3.90
  -2  -6   6   21.40    4.20
  -2  -6   6   27.30    5.40
   2   6  -6   20.20    3.00
  -2   6   6   28.80    5.50
  -2   6   6   16.70    3.20
   2   6  -6   25.80    4.40
  -2   6   6   30.30    5.70
  -2   6   6   16.90    2.70
   2   6  -6   22.20    4.50
  -1  -6   6    9.90    3.30
   1  -6  -6    9.70    3.10
   1  -6  -6    7.80    2.20
  -1  -6   6    7.80    3.20
   1  -6  -6    5.50    2.40
  -1  -6   6    7.30    2.40
  -1  -6   6    7.90    3.30
   1  -6  -6    1.20    2.40
  -1   6   6    7.70    3.50
  -1   6   6   12.50    3.70
   1   6  -6    7.50    2.10
   0  -6   6  833.22   25.90
   0  -6  -6  833.62   22.40
   0  -6  -6  809.42   29.40
   0  -6  -6  825.32   24.90
   0  -6   6  811.72   26.80
   0  -6  -6  806.92   26.50
   0  -6   6  793.12   22.20
   0   6  -6  849.52   24.10
   0   6   6  854.81   25.70
   0   6  -6  796.52   20.50
   0   6   6  822.02   26.90
   0   6  -6  816.02   26.20
  -1  -6  -6  234.18   24.60
  -1  -6  -6  290.17   12.40
   1  -6   6  285.17   12.60
  -1  -6  -6  292.57   10.60
   1  -6   6  272.47   13.40
  -1   6  -6  286.47    9.80
   1   6   6  282.17   13.30
  -1   6  -6  252.87   12.80
   1   6   6  272.87   11.10
  -1   6  -6  283.07   11.90
  -2  -6  -6   61.99    8.80
   2  -6   6   36.80    7.50
   2  -6   6   65.49    8.00
   2  -6   6   57.49    6.50
  -2  -6  -6   57.79    6.90
  -2  -6  -6   50.19    5.10
  -2   6  -6   51.39    3.90
  -2   6  -6   53.39    8.00
  -2   6  -6   46.40    6.60
  -2   6  -6   41.10    4.70
   2   6   6   49.40    6.00
   3  -6   6   98.69    6.90
  -3  -6  -6  101.19    5.60
   3  -6   6   95.39    6.10
  -3  -6  -6  103.09    6.40
  -3   6  -6   87.19    5.00
  -3   6  -6   95.89    6.30
   3   6   6   91.49    5.90
   3   6   6   94.79    5.20
  -4  -6  -6    8.40    2.00
  -4  -6  -6    9.90    2.20
   4  -6   6   10.40    2.00
  -4   6  -6    8.30    2.00
   4   6   6    8.90    2.20
   7  -7  -6   14.70    1.70
  -7   7   6   11.90    1.80
   7   7  -6   14.60    2.00
   6  -7  -6   26.00    3.00
   6  -7  -6   27.50    3.00
  -6  -7   6   22.60    3.20
  -6   7   6   29.20    3.80
   6   7  -6   29.80    3.90
   6   7  -6   24.40    3.80
  -6   7   6   31.50    3.40
   5  -7  -6   39.80    4.90
  -5  -7   6   48.90    5.40
   5  -7  -6   42.40    4.10
   5  -7  -6   37.10    3.70
   5   7  -6   38.80    5.20
   5   7  -6   40.20    4.50
  -5   7   6   39.10    4.20
  -5   7   6   38.60    5.20
  -4  -7   6   94.29    6.30
  -4  -7   6   77.39    6.60
   4  -7  -6   79.89   10.70
   4  -7  -6   97.89    7.10
  -4  -7   6   87.19    8.90
  -4   7   6   88.99    9.50
   4   7  -6   95.49    5.60
   4   7  -6  100.09    6.50
   4   7  -6   92.59    6.20
  -4   7   6   96.69    7.30
  -4   7   6  103.09    6.10
  -3  -7   6   23.90    4.30
  -3  -7   6   19.90    4.30
  -3  -7   6   21.70    3.70
   3  -7  -6   22.20    5.80
   3  -7  -6   23.90    3.60
   3  -7  -6   19.40    3.90
  -3   7   6   26.20    4.60
   3   7  -6   19.20    3.70
  -3   7   6   21.10    5.30
   3   7  -6   16.90    3.30
  -3   7   6   26.70    6.10
  -3   7   6   24.30    3.60
   2  -7  -6  953.40   27.40
   2  -7  -6  890.01   31.50
  -2  -7   6  936.41   29.30
  -2  -7   6  957.10   26.80
  -2  -7   6  933.71   30.90
   2  -7  -6  917.71   28.80
  -2   7   6  994.30   29.00
   2   7  -6  983.80   28.60
  -2   7   6  984.30   31.00
  -2   7   6  942.21   24.50
   2   7  -6  988.80   27.60
   1  -7  -6   13.80    2.70
   1  -7  -6   -1.30    2.70
   1  -7  -6   14.30    3.50
   1  -7  -6   16.30    3.50
  -1  -7   6   11.70    3.60
  -1  -7   6   14.90    4.40
  -1  -7   6   12.80    3.20
  -1   7   6   14.10    3.90
   1   7  -6   13.80    2.70
  -1   7   6   14.90    3.10
   1   7  -6   20.00    5.00
   0  -7  -6 1388.96   39.30
   0  -7   6 1411.86   38.90
   0  -7  -6 1306.77   43.00
   0  -7   6 1418.96   40.30
   0  -7  -6 1408.36   34.80
   0  -7  -6 1411.76   37.80
   0   7   6 1383.26   39.70
   0   7   6 1396.76   36.20
   0   7  -6 1455.95   36.60
   1  -7   6  133.29   10.60
  -1  -7  -6  108.69    7.30
  -1  -7  -6  103.69    6.10
   1  -7   6  100.09    7.30
  -1  -7  -6   76.79    9.30
   1  -7   6   89.69   11.90
  -1   7  -6  101.89    5.20
  -1   7  -6  102.19    6.80
   1   7   6  107.19    7.80
  -1   7  -6  105.79    7.90
  -2  -7  -6   90.79    5.60
  -2  -7  -6  109.69   12.00
  -2  -7  -6   92.39    6.60
   2  -7   6   80.89   12.10
   2  -7   6   86.29    5.50
   2  -7   6   88.19    7.10
   2   7   6  100.09    6.00
  -2   7  -6   89.59    4.90
  -2   7  -6   89.79    6.40
  -2   7  -6   86.69    7.30
   2   7   6   97.39    6.70
  -3  -7  -6   17.00    2.70
   3  -7   6   14.10    3.20
  -3  -7  -6   11.60    2.80
  -3   7  -6   18.50    3.10
   3   7   6   15.30    4.00
  -3   7  -6   13.00    2.10
  -4  -7  -6   33.60    3.60
  -4  -7  -6   36.60    3.30
   4  -7   6   43.40    4.70
  -4   7  -6   39.10    3.20
   4   7   6   40.30    5.00
  -4   7  -6   36.00    2.50
   6  -8  -6   11.00    1.80
  -6  -8   6   14.00    2.50
   6   8  -6   10.60    2.20
  -6   8   6   11.40    1.90
   6   8  -6   10.30    2.10
  -6   8   6    9.70    2.10
   5  -8  -6   37.20    4.60
  -5  -8   6   27.60    6.00
  -5  -8   6   38.70    4.50
   5   8  -6   34.20    4.20
  -5   8   6   40.40    4.90
   5   8  -6   38.40    4.80
  -5   8   6   38.70    4.10
   4  -8  -6    8.90    5.30
  -4  -8   6   12.30    3.20
  -4  -8   6   11.20    2.90
   4  -8  -6   18.90    4.10
  -4  -8   6   13.30    4.20
  -4   8   6   15.10    2.70
  -4   8   6   11.30    4.90
   4   8  -6   14.40    2.50
  -4   8   6   15.80    3.20
   4   8  -6    7.80    2.40
  -3  -8   6  286.87   14.70
   3  -8  -6  286.77   11.50
   3  -8  -6  266.27   17.00
  -3  -8   6  297.67   11.90
   3  -8  -6  266.17   12.70
  -3  -8   6  284.77   13.30
  -3   8   6  290.27   13.10
   3   8  -6  281.67   11.90
  -3   8   6  272.67   15.70
  -3   8   6  275.97   13.90
   3   8  -6  286.27   11.70
  -3   8   6  278.97   10.10
  -2  -8   6  282.67   15.10
  -2  -8   6  291.17   11.90
   2  -8  -6  282.17   12.20
  -2  -8   6  293.87   13.90
   2  -8  -6  369.96   16.90
  -2   8   6  278.17    9.40
  -2   8   6  281.57   12.90
  -2   8   6  283.07   14.30
   2   8  -6  292.07   12.30
   2   8  -6  292.67   12.90
  -1  -8   6   63.29    8.50
   1  -8  -6   55.39    6.60
  -1  -8   6   55.39    6.70
  -1  -8   6   55.09    5.70
  -1  -8   6   53.89    6.50
   1  -8  -6   54.89    6.20
   1  -8  -6   68.69    4.70
  -1   8   6   64.39    6.30
   1   8  -6   63.69    4.70
   1   8  -6   58.79    6.60
  -1   8   6   44.40    5.80
   0  -8  -6  109.59    7.60
   0  -8   6  113.39    6.20
   0  -8   6  117.69    8.20
   0  -8  -6   70.59    9.20
   0  -8   6  110.69    8.60
   0  -8  -6  112.09    8.10
   0  -8  -6  123.59    6.50
   0   8   6  119.59    6.50
   0   8  -6  110.19    6.70
   0   8  -6  109.89    7.60
   0   8   6  120.29    8.70
  -1  -8  -6   40.80    4.60
  -1  -8  -6   40.30    5.00
   1  -8   6   35.20    4.80
   1  -8   6   46.50   12.40
   1  -8   6   40.90    5.60
  -1   8  -6   38.10    5.70
   1   8   6   31.70    4.80
  -1   8  -6   40.10    5.00
  -2  -8  -6  192.98    9.60
  -2  -8  -6  195.08    8.40
   2  -8   6  196.48   10.50
  -2   8  -6  183.58    7.00
  -2   8  -6  200.98    9.30
  -2   8  -6  198.08   10.50
   2   8   6  201.68    9.40
  -3  -8  -6   23.20    3.00
   3  -8   6   27.40    4.90
  -3  -8  -6   20.80    3.00
  -3   8  -6   18.80    2.30
   3   8   6   24.00    2.80
  -3   8  -6   20.20    2.90
  -6  -9   6   28.50    3.00
  -6   9   6   33.10    3.30
   6   9  -6   29.60    3.10
  -6   9   6   35.50    2.50
  -5  -9   6   21.60    3.90
  -5  -9   6   25.80    3.60
   5  -9  -6   26.50    3.80
  -5   9   6   28.40    3.70
   5   9  -6   28.70    3.80
  -5   9   6   29.30    3.20
   5   9  -6   20.90    3.90
   4  -9  -6   61.49    8.50
  -4  -9   6   49.90    5.50
  -4  -9   6   55.49    5.90
  -4   9   6   50.99    3.70
   4   9  -6   61.99    6.20
   4   9  -6   45.10    3.20
  -4   9   6   46.30    5.10
   4   9  -6   41.90    5.00
  -3  -9   6  182.58    9.20
   3  -9  -6  196.08    8.90
  -3  -9   6  189.38   12.30
   3  -9  -6  194.88   10.60
  -3  -9   6  197.78   10.60
   3   9  -6  197.48    9.10
  -3   9   6  180.28    7.40
   3   9  -6  192.58    9.50
  -3   9   6  193.38   11.10
  -3   9   6  200.38   10.30
  -2  -9   6    2.70    3.40
   2  -9  -6    1.50    1.70
  -2  -9   6    1.90    2.10
  -2  -9   6    4.60    2.10
   2  -9  -6    4.40    2.20
  -2   9   6    4.80    2.60
  -2   9   6    4.50    2.30
   2   9  -6    3.30    2.40
   2   9  -6    3.70    1.90
  -1  -9   6   13.90    4.50
  -1  -9   6    7.90    3.00
   1  -9  -6    9.20    2.90
   1  -9  -6    5.80    2.30
  -1  -9   6    5.40    2.20
   1  -9  -6   12.00    3.60
  -1   9   6    9.60    3.50
  -1   9   6   10.10    2.40
   1   9  -6    8.40    2.10
   1   9  -6    3.90    2.40
   0  -9  -6   15.10    3.40
   0  -9   6   11.00    3.40
   0  -9  -6   10.80    3.30
   0  -9   6    6.30    2.40
   0  -9  -6    5.60    7.00
   0  -9  -6   15.90    3.00
   0  -9   6   11.60    5.70
   0   9  -6   12.30    3.10
   0   9   6   13.10    3.30
   0   9  -6   14.90    2.90
   0   9   6   12.80    2.40
  -1  -9  -6   22.10    3.60
  -1  -9  -6   27.90    3.90
   1  -9   6   34.00    5.50
   1  -9   6   20.90    3.70
   1   9   6   19.50    4.00
  -1   9  -6   22.60    3.30
  -1   9  -6   24.10    4.20
  -2  -9  -6    2.30    1.50
  -2  -9  -6    0.80    1.40
   2  -9   6    1.70    1.90
   2   9   6    3.20    1.70
  -2   9  -6    1.50    1.30
  -2   9  -6    3.50    2.50
  -3  -9  -6   22.40    3.00
  -3  -9  -6   22.20    2.70
   3  -9   6   18.30    2.80
  -3   9  -6   19.60    2.70
   5 -10  -6   81.79    4.90
  -5 -10   6   80.59    4.70
   5  10  -6   80.39    5.00
  -5  10   6   77.29    3.90
   5  10  -6   82.99    4.80
  -5  10   6   85.89    5.20
   4 -10  -6  164.18    8.50
  -4 -10   6  168.08    8.50
  -4 -10   6  170.98    7.90
  -4  10   6  162.18    8.30
  -4  10   6  162.08    9.40
  -4  10   6  162.68    8.50
   4  10  -6  152.68    8.00
   4  10  -6  161.38    7.90
  -3 -10   6    9.10    2.70
  -3 -10   6    5.00    2.10
   3 -10  -6    6.90    2.10
   3 -10  -6   11.70    3.40
  -3  10   6    7.30    2.40
   3  10  -6    8.90    2.40
  -3  10   6    4.20    2.40
   3  10  -6    4.30    2.20
   2 -10  -6    9.00    2.90
  -2 -10   6    9.40    4.00
   2 -10  -6    7.30    2.40
  -2 -10   6    7.90    2.60
  -2  10   6    4.10    2.70
   2  10  -6    9.00    2.60
  -2  10   6    8.20    2.30
   2  10  -6    6.90    2.50
  -1 -10   6    5.60    2.20
  -1 -10   6    6.20    2.60
   1 -10  -6    4.50    2.30
   1 -10  -6    3.90    2.10
  -1 -10   6    6.40    3.50
   1  10  -6    1.40    1.70
  -1  10   6    4.90    2.60
  -1  10   6    6.50    1.90
   0 -10   6    6.80    2.30
   0 -10  -6    5.30    2.10
   0 -10  -6    7.70    2.10
   0 -10   6    6.00    2.30
   0  10   6    7.00    2.90
   0  10  -6   10.30    2.20
   0  10  -6    5.30    2.40
  -1 -10  -6   28.70    4.20
   1 -10   6   18.90    3.90
  -1 -10  -6   26.40    3.30
   1 -10   6   19.00    3.20
  -1  10  -6   24.90    4.30
   1  10   6   24.10    4.00
  -1  10  -6   25.30    3.20
  -2 -10  -6    0.80    1.80
  -2 -10  -6    3.00    1.60
   2 -10   6    0.90    1.60
   2  10   6    1.80    1.30
  -2  10  -6    2.50    1.80
  -2  10  -6    0.10    0.90
   4 -11  -6  112.59    6.30
  -4 -11   6  115.49    6.20
  -4 -11   6  124.79    8.70
   4  11  -6  113.49    5.80
  -4  11   6  108.39    7.00
  -4  11   6  113.99    6.00
   4  11  -6  105.39    5.70
  -3 -11   6   54.49    5.00
   3 -11  -6   69.99    7.80
  -3 -11   6   48.90    5.10
   3 -11  -6   51.99    3.80
   3  11  -6   54.59    4.40
  -3  11   6   62.29    5.40
  -3  11   6   65.39    5.10
   3  11  -6   66.99    4.20
  -2 -11   6   22.50    3.90
  -2 -11   6   26.30    3.50
   2 -11  -6   21.60    3.60
   2 -11  -6   23.50    3.50
  -2  11   6   24.70    3.20
  -2  11   6   23.60    4.00
   2  11  -6   21.10    3.50
   1 -11  -6  122.09    7.70
  -1 -11   6  117.79    8.00
   1 -11  -6  122.09    7.10
  -1 -11   6  128.59    7.90
   1  11  -6  129.69    7.50
  -1  11   6  115.09    5.30
  -1  11   6  113.79    7.80
   0 -11  -6   17.60    2.80
   0 -11  -6   28.20    4.90
   0 -11  -6   23.30    3.50
   0 -11   6   25.80    4.30
   0 -11   6   25.30    3.60
   0  11  -6   31.40    4.70
   0  11   6   29.10    4.20
   0  11  -6   24.60    2.60
   1 -11   6   -0.60    1.30
  -1 -11  -6    0.90    1.50
  -1 -11  -6    0.40    1.10
   1 -11   6    0.80    1.30
  -1  11  -6   -0.70    0.80
   1  11   6   -1.00    1.10
  -1  11  -6   -0.60    1.20
   2 -11   6    2.30    1.60
  -2 -11  -6    0.70    1.20
  -2  11  -6    0.10    1.60
  -2  11  -6    2.10    1.00
  -3 -12   6    9.20    1.90
   3 -12  -6    9.30    2.40
  -3 -12   6    8.00    2.10
   3  12  -6    8.20    1.50
   3  12  -6    7.00    1.70
  -3  12   6    9.00    3.30
  -3  12   6   13.30    2.00
  -2 -12   6    1.60    1.60
  -2 -12   6    0.40    1.30
   2 -12  -6    0.60    1.10
   2 -12  -6    2.90    1.90
  -2  12   6    0.60    1.00
  -2  12   6    1.70    1.40
   2  12  -6    1.70    1.30
  -1 -12   6   17.30    3.90
   1 -12  -6   19.60    2.90
   1 -12  -6   19.70    3.10
  -1 -12   6   22.00    3.30
   1  12  -6   22.20    3.20
  -1  12   6   24.40    3.90
   0 -12  -6    0.10    1.10
   0 -12   6   -0.40    1.00
   0 -12   6    3.40    2.40
   0  12   6    1.00    1.30
   0  12  -6    0.10    1.30
   1 -12   6   65.29    4.60
  -1  12  -6   58.79    4.10
   8   0  -7   -0.30    0.90
   8   0  -7    0.70    0.90
   7   0  -7    4.10    1.80
  -7   0   7    3.20    1.60
   7   0  -7    3.30    1.80
  -6   0   7   14.60    3.50
   6   0  -7    3.20    3.20
   6   0  -7    6.50    2.30
   6   0  -7    5.30    2.50
  -6   0   7   10.70    2.50
   5   0  -7    0.60    2.50
   5   0  -7    1.10    1.70
   5   0  -7   -1.10    1.20
   5   0  -7    0.70    1.50
  -5   0   7   -0.10    1.40
  -5   0   7    1.30    1.60
  -5   0   7    1.30    2.00
   4   0  -7   -1.10    1.30
   4   0  -7   -0.90    1.20
  -4   0   7    1.40    1.50
  -4   0   7    0.40    1.50
  -4   0   7   -1.50    1.40
  -3   0   7    4.40    1.80
   3   0  -7    5.50    2.40
  -3   0   7    4.20    2.20
   3   0  -7    2.10    1.50
   3   0  -7    1.50    1.60
  -3   0   7    2.90    2.00
  -2   0   7   66.49    8.10
  -2   0   7   66.09   10.30
  -2   0   7   66.29    4.80
   2   0  -7   53.49    4.50
  -2   0   7   66.99    5.80
   2   0  -7   63.59    5.50
   2   0  -7   59.49    5.10
  -1   0   7   49.40    6.80
  -1   0   7   42.90    5.10
   1   0  -7   43.10    4.80
   1   0  -7   41.50    3.70
  -1   0   7   43.50    4.40
   1   0  -7   50.39    6.30
  -1   0   7   49.90    6.30
   0   0   7    3.30    2.30
   0   0  -7    4.80    1.60
   0   0  -7    4.80    2.50
   0   0  -7    2.40    1.40
   0   0  -7    2.20    2.60
   0   0   7    2.90    1.90
  -1   0  -7    2.20    1.70
  -1   0  -7    1.20    1.30
   1   0   7    2.30    2.80
   1   0   7    1.30    2.10
  -1   0  -7   -1.20    2.10
  -1   0  -7    1.80    2.60
   1   0   7    3.50    2.50
   2   0   7    3.70    6.30
  -2   0  -7    2.60    2.60
  -2   0  -7    0.10    1.30
   2   0   7    0.50    1.80
  -2   0  -7    1.00    1.30
  -3   0  -7   -0.80    1.00
  -3   0  -7   -0.40    1.00
   3   0   7    0.40    1.60
   4   0   7    0.80    1.20
  -4   0  -7    1.10    1.10
  -4   0  -7    1.60    1.20
   7  -1  -7   -0.90    1.10
  -7  -1   7    1.40    1.60
   7  -1  -7    0.30    1.10
   7   1  -7    0.80    1.30
  -7   1   7    0.80    1.40
   7   1  -7    2.40    1.50
  -6  -1   7   -0.20    1.30
   6  -1  -7    3.50    3.50
   6  -1  -7    3.00    1.80
   6  -1  -7    1.90    1.80
  -6  -1   7    2.80    1.90
   6   1  -7    0.80    2.70
  -6   1   7    3.40    2.10
  -6   1   7    2.80    1.80
   6   1  -7    0.40    1.60
   6   1  -7    6.10    2.20
   5  -1  -7  330.87   11.70
   5  -1  -7  340.07   18.40
   5  -1  -7  340.07   13.40
  -5  -1   7  336.77   14.60
  -5  -1   7  331.37   14.10
   5  -1  -7  358.16   14.30
  -5  -1   7  331.27   12.50
   5   1  -7  345.27   18.10
   5   1  -7  342.17   14.10
  -5   1   7  344.27   12.70
  -5   1   7  340.67   14.30
   5   1  -7  334.47   10.90
  -5   1   7  332.97   14.80
   5   1  -7  340.47   14.00
  -4  -1   7   10.50    2.70
   4  -1  -7   17.60    3.40
   4  -1  -7   16.80    4.10
   4  -1  -7   29.20    5.00
  -4  -1   7   16.50    3.50
  -4  -1   7   17.10    3.70
  -4   1   7   16.70    3.20
   4   1  -7   16.50    3.30
   4   1  -7   14.40    3.20
  -4   1   7   21.80    4.70
  -4   1   7   21.10    4.20
   4   1  -7   11.60    3.70
   3  -1  -7  971.50   27.80
  -3  -1   7  980.30   26.30
   3  -1  -7  938.01   29.50
   3  -1  -7  945.41   26.40
  -3  -1   7 1005.30   29.30
  -3  -1   7  939.71   28.50
   3   1  -7 1002.30   30.30
  -3   1   7  977.40   28.90
  -3   1   7  972.80   26.20
   3   1  -7  943.31   26.80
  -3   1   7  978.40   29.60
   3   1  -7  928.11   27.20
  -2  -1   7  281.27   13.30
   2  -1  -7  292.67   12.50
  -2  -1   7  296.87   13.00
  -2  -1   7  281.57   14.20
   2  -1  -7  292.47   11.30
  -2  -1   7  309.47   11.10
   2   1  -7  295.87   11.10
  -2   1   7  296.67   10.90
   2   1  -7  288.87   12.50
  -2   1   7  290.57   14.90
  -2   1   7  287.27   12.80
   1  -1  -7   91.99    6.70
  -1  -1   7   64.59    6.90
   1  -1  -7   84.79    5.80
  -1  -1   7   89.99    5.50
  -1  -1   7   77.09    7.80
  -1  -1   7   95.39    6.90
   1  -1  -7   85.19    4.70
  -1   1   7   97.49    5.30
  -1   1   7   87.89    6.90
   1   1  -7   90.89    4.60
  -1   1   7   87.99    7.40
  -1   1   7   79.79    6.50
   1   1  -7   96.89    7.10
   1   1  -7   88.49    5.70
   0  -1  -7  140.39    7.90
   0  -1  -7  137.99    6.40
   0  -1  -7  135.49    9.90
   0  -1  -7  145.39    9.00
   0  -1   7  163.08    8.90
   0  -1   7  146.89    9.60
   0   1  -7  151.38    6.40
   0   1   7  152.28    9.50
   0   1  -7  142.29    9.10
   0   1  -7  145.79    7.90
   0   1  -7  147.79   12.40
   0   1   7  138.99    8.30
   1  -1   7  640.84   26.80
  -1  -1  -7  617.64   24.70
  -1  -1  -7  588.24   22.00
   1  -1   7  647.34   22.40
   1  -1   7  647.04   20.20
  -1  -1  -7  631.44   20.40
  -1   1  -7  616.84   22.70
  -1   1  -7  667.93   31.40
  -1   1  -7  650.83   20.40
  -1   1  -7  574.14   24.40
   1   1   7  631.54   22.20
   2  -1   7  429.96   22.80
  -2  -1  -7  428.36   13.80
  -2  -1  -7  433.06   16.00
  -2  -1  -7  428.66   20.40
   2  -1   7  470.85   17.90
  -2   1  -7  405.06   20.00
   2   1   7  432.86   17.10
  -2   1  -7  434.26   13.90
  -2   1  -7  441.66   16.20
  -3  -1  -7   22.40    3.50
   3  -1   7   25.30    4.10
  -3  -1  -7   28.30    3.80
  -3   1  -7   26.00    3.80
   3   1   7   33.80    4.60
  -3   1  -7   31.50    4.00
   3   1   7   29.30    3.90
   4  -1   7   17.30    2.80
  -4  -1  -7   16.90    2.40
  -4  -1  -7   19.00    2.80
   4   1   7   13.30    2.40
  -4   1  -7   19.50    2.80
  -4   1  -7   21.30    2.60
   7  -2  -7   14.80    2.80
  -7  -2   7   18.20    2.80
   7  -2  -7   15.30    3.00
   7   2  -7   11.30    2.60
   7   2  -7   11.10    2.40
  -7   2   7   13.30    2.40
  -6  -2   7    2.10    1.90
   6  -2  -7    3.90    2.10
   6  -2  -7    7.20    4.50
   6  -2  -7    4.20    1.90
  -6  -2   7    5.40    2.30
  -6   2   7    3.30    1.70
   6   2  -7    3.40    3.20
  -6   2   7    3.70    2.30
   6   2  -7    1.50    1.70
   6   2  -7    4.00    1.90
  -6   2   7    5.70    2.60
   5  -2  -7   16.40    5.00
   5  -2  -7   16.10    3.10
  -5  -2   7   12.50    3.20
  -5  -2   7   19.30    3.50
  -5  -2   7   13.00    3.30
   5  -2  -7   16.60    3.60
   5  -2  -7   16.00    3.00
   5   2  -7   11.50    3.10
   5   2  -7    9.80    3.70
  -5   2   7   19.00    3.90
   5   2  -7   14.60    2.30
   5   2  -7   12.30    3.20
  -5   2   7    9.40    3.10
  -5   2   7   13.40    2.90
  -4  -2   7   72.99    9.50
  -4  -2   7   85.59    6.70
   4  -2  -7   88.89   10.70
  -4  -2   7   85.49    5.80
   4  -2  -7   82.89    6.00
  -4   2   7   83.39    5.70
  -4   2   7   90.29    7.40
   4   2  -7   81.49    5.80
  -4   2   7   76.99    6.50
   4   2  -7   91.19    8.10
   4   2  -7   94.29    6.70
   4   2  -7   90.79    6.00
   3  -2  -7   87.29    6.40
   3  -2  -7   62.79    4.90
  -3  -2   7   76.59    5.40
  -3  -2   7   87.99    8.60
   3  -2  -7   61.49    7.10
   3  -2  -7   68.29    7.70
  -3  -2   7   80.39    6.50
  -3   2   7   95.49    9.40
  -3   2   7   77.89    6.50
   3   2  -7   77.99    5.90
  -2  -2   7    0.20    1.80
  -2  -2   7    1.80    1.50
   2  -2  -7   -0.20    1.40
   2  -2  -7    0.90    1.40
  -2  -2   7    2.80    1.90
  -2  -2   7    0.30    3.00
   2   2  -7    1.10    1.30
   2   2  -7    0.40    1.30
  -2   2   7    0.30    3.00
  -2   2   7   -0.80    1.40
  -2   2   7   -0.20    1.20
  -1  -2   7   13.60    3.40
  -1  -2   7   13.70    2.80
   1  -2  -7   19.20    2.60
  -1  -2   7   12.20    2.90
  -1  -2   7   23.20    5.00
   1  -2  -7   16.70    2.90
   1  -2  -7   11.90    3.20
  -1   2   7   21.90    4.60
   1   2  -7   18.30    3.20
  -1   2   7   12.30    2.90
   1   2  -7   26.30    4.90
  -1   2   7   15.50    2.80
   0  -2  -7   82.19    4.70
   0  -2  -7   90.29    6.40
   0  -2   7   87.89    6.70
   0  -2  -7   72.99    8.40
   0  -2  -7   79.39    6.80
   0  -2   7   77.19    7.00
   0   2  -7   84.69    9.30
   0   2   7   88.49    7.40
   0   2  -7   81.59    7.00
   0   2   7   81.99    6.30
   0   2  -7   75.89    5.90
   0   2  -7   78.89    4.50
  -1  -2  -7 1782.32   44.60
  -1  -2  -7 1772.92   50.59
   1  -2   7 1739.93   47.00
  -1  -2  -7 1731.63   41.30
   1  -2   7 1717.63   44.00
  -1   2  -7 1784.42   44.50
  -1   2  -7 1673.63   50.19
  -1   2  -7 1687.73   46.40
   1   2   7 1739.23   46.70
  -1   2  -7 1696.93   41.70
   1   2   7 1718.73   42.60
  -2  -2  -7  107.79    7.10
   2  -2   7  105.39    6.90
  -2  -2  -7  101.89    6.70
   2  -2   7  107.99    7.90
  -2  -2  -7   96.49   10.60
   2  -2   7  111.79   14.30
   2   2   7  106.79    6.90
   2   2   7  117.69    8.20
  -2   2  -7  101.39   11.60
  -2   2  -7  111.69    7.30
  -2   2  -7  111.79    5.90
  -3  -2  -7   73.09    5.50
  -3  -2  -7   80.99    5.60
   3  -2   7   71.89    5.80
   3  -2   7   74.09    5.50
  -3   2  -7   79.39    5.00
   3   2   7   72.49    5.70
  -3   2  -7   75.09    5.60
   4  -2   7    3.10    1.40
  -4  -2  -7    7.60    1.70
  -4  -2  -7    5.70    1.70
  -4   2  -7    4.30    1.40
   4   2   7    6.90    2.00
  -4   2  -7   11.40    1.90
   7  -3  -7   -0.30    0.80
  -7  -3   7   -0.20    1.50
   7  -3  -7    0.90    1.20
  -7   3   7    0.50    1.20
   7   3  -7   -0.10    1.20
   7   3  -7   -0.90    1.10
   6  -3  -7    2.70    1.70
   6  -3  -7    1.00    1.50
  -6  -3   7    3.30    1.70
   6   3  -7    0.00    1.30
  -6   3   7    1.40    2.00
   6   3  -7    1.70    1.80
  -6   3   7    2.30    2.70
   5  -3  -7   -0.70    1.20
   5  -3  -7   -0.30    1.20
  -5  -3   7   -0.20    1.20
  -5  -3   7    0.30    1.50
  -5  -3   7    0.10    2.30
   5  -3  -7    1.50    1.70
   5  -3  -7    0.40    3.10
   5   3  -7   -0.80    1.50
   5   3  -7    2.00    2.10
  -5   3   7   -0.10    1.70
  -5   3   7   -0.50    1.70
   5   3  -7   -0.50    1.40
  -5   3   7    0.40    1.40
   4  -3  -7   68.39    5.70
  -4  -3   7   71.69    7.30
   4  -3  -7   72.79    9.50
  -4  -3   7   73.79    7.70
   4  -3  -7   75.69    5.80
   4  -3  -7   78.49    5.40
  -4  -3   7   76.59    8.40
   4   3  -7   70.09    5.30
  -4   3   7   66.89    7.70
   4   3  -7   66.59    5.10
  -4   3   7   84.39    6.90
   4   3  -7   78.09    6.30
  -3  -3   7    7.70    2.60
  -3  -3   7    8.70    2.70
   3  -3  -7    9.80    2.40
   3  -3  -7    8.30    3.20
  -3  -3   7    7.80    2.20
   3   3  -7   12.10    2.70
  -3   3   7    9.70    2.50
  -3   3   7   10.20    3.20
  -3   3   7    4.00    2.40
   2  -3  -7   98.99    7.20
  -2  -3   7   97.29    6.10
  -2  -3   7  100.89    7.50
  -2  -3   7  116.09    8.00
   2  -3  -7  102.49    6.40
  -2  -3   7  119.39   11.90
   2   3  -7  106.39    7.20
  -2   3   7  100.49    7.80
  -2   3   7  110.09    6.10
   2   3  -7  104.09    6.00
  -2   3   7   97.59    7.20
  -2   3   7   96.39    8.20
  -1  -3   7  377.66   15.60
   1  -3  -7  415.66   14.70
   1  -3  -7  395.46   16.00
  -1  -3   7  410.86   13.50
   1  -3  -7  407.46   12.30
  -1  -3   7  373.66   16.30
  -1  -3   7  361.26   16.30
  -1   3   7  386.56   12.20
  -1   3   7  403.36   15.40
   1   3  -7  399.06   13.90
  -1   3   7  409.06   17.00
   0  -3  -7  631.64   17.80
   0  -3  -7  615.14   21.90
   0  -3  -7  615.14   24.30
   0  -3   7  634.24   21.40
   0  -3   7  663.63   27.70
   0  -3  -7  614.14   20.00
   0   3   7  595.54   21.40
   0   3   7  610.54   22.40
   0   3  -7  624.44   17.00
   0   3  -7  639.04   19.90
   0   3  -7  646.84   23.10
  -1  -3  -7  333.67   13.40
  -1  -3  -7  298.47   16.30
   1  -3   7  319.47   13.00
   1  -3   7  333.57   15.10
  -1  -3  -7  333.47   11.40
  -1   3  -7  323.67   14.80
  -1   3  -7  332.07   17.80
   1   3   7  341.27   15.10
   1   3   7  300.77   11.60
  -1   3  -7  332.87   11.10
  -1   3  -7  328.37   13.00
   1   3   7  333.97   12.50
   2  -3   7  137.79   16.30
  -2  -3  -7  117.19    6.30
   2  -3   7  110.69    8.10
  -2  -3  -7  119.89   12.30
   2  -3   7  125.69    7.70
  -2  -3  -7  107.09    7.60
   2   3   7  119.89    8.30
  -2   3  -7  107.59   11.20
  -2   3  -7  113.89    6.00
   2   3   7  120.09    9.00
  -2   3  -7  104.39    7.00
  -3  -3  -7   23.70    3.60
   3  -3   7   31.40    4.50
  -3  -3  -7   22.20    3.10
  -3   3  -7   22.60    3.40
  -3   3  -7   23.00    3.00
   3   3   7   21.60    3.40
   3   3   7   29.10    4.00
   4  -3   7    6.80    1.90
  -4  -3  -7    8.10    2.20
   4   3   7    8.60    1.80
  -4   3  -7    9.40    1.90
   7  -4  -7   42.50    3.60
   7  -4  -7   44.60    3.40
  -7  -4   7   43.70    3.90
  -7   4   7   46.80    5.20
   7   4  -7   50.39    4.10
   7   4  -7   40.60    3.30
   6  -4  -7   19.20    3.30
   6  -4  -7   28.80    3.50
  -6  -4   7   23.10    3.50
  -6   4   7   24.00    4.00
  -6   4   7   21.20    3.10
   6   4  -7   21.50    3.70
   6   4  -7   22.70    4.00
   5  -4  -7   30.90    4.20
   5  -4  -7   39.40    5.10
   5  -4  -7   26.80    6.30
   5  -4  -7   34.20    4.60
  -5  -4   7   37.60    4.70
  -5  -4   7   31.00    5.10
   5   4  -7   36.50    5.00
  -5   4   7   32.10    4.80
  -5   4   7   31.40    5.40
   5   4  -7   38.10    5.30
  -5   4   7   34.10    4.30
   5   4  -7   31.60    4.90
   4  -4  -7   15.60    5.00
  -4  -4   7   14.40    3.00
  -4  -4   7   15.30    5.10
   4  -4  -7   12.80    3.20
   4  -4  -7   13.80    3.20
   4  -4  -7   11.80    2.50
  -4  -4   7   11.70    3.20
   4   4  -7   15.90    3.20
   4   4  -7   19.20    3.80
  -4   4   7   16.90    3.30
  -4   4   7   21.20    4.20
   4   4  -7   16.30    3.30
  -4   4   7   19.30    6.40
  -3  -4   7    7.60    2.40
  -3  -4   7    2.90    2.10
   3  -4  -7    5.10    3.00
   3  -4  -7    6.50    2.50
  -3  -4   7   12.00    3.40
   3  -4  -7   10.20    2.50
  -3   4   7    9.90    3.30
   3   4  -7    3.10    1.80
  -3   4   7    8.20    2.60
  -3   4   7    5.70    3.30
   3   4  -7    6.60    2.30
  -3   4   7    5.40    2.20
  -2  -4   7   50.19    6.70
  -2  -4   7   42.50    4.60
   2  -4  -7   44.20    5.00
  -2  -4   7   34.00    6.90
   2   4  -7   29.60    5.40
  -2   4   7   51.19    4.80
  -2   4   7   36.90    5.10
   2   4  -7   44.20    4.40
  -2   4   7   40.30    5.80
  -1  -4   7   14.50    3.50
  -1  -4   7   14.20    2.80
   1  -4  -7   22.50    3.90
   1  -4  -7   10.70    3.20
  -1  -4   7   15.10    4.00
  -1  -4   7   11.60    3.30
   1  -4  -7   13.60    2.50
  -1   4   7   16.60    2.70
  -1   4   7   19.80    3.90
   1   4  -7   19.10    4.80
   1   4  -7    8.60    2.80
   0  -4  -7  343.47   13.60
   0  -4   7  353.86   14.50
   0  -4   7  336.67   15.40
   0  -4  -7  328.77   17.00
   0  -4  -7  329.77   11.50
   0   4  -7  338.07   12.90
   0   4   7  323.37   13.20
   0   4  -7  335.17   14.60
   0   4  -7  332.17   10.50
   0   4   7  317.47   15.00
  -1  -4  -7  421.66   13.70
  -1  -4  -7  438.46   16.10
   1  -4   7  422.96   17.50
   1  -4   7  422.86   15.80
  -1  -4  -7  399.36   19.70
  -1   4  -7  420.06   13.10
   1   4   7  411.46   17.20
  -1   4  -7  400.86   23.00
  -1   4  -7  423.26   15.60
  -1   4  -7  418.66   17.40
   1   4   7  438.36   14.80
  -2  -4  -7  707.83   20.20
  -2  -4  -7  651.73   32.10
   2  -4   7  722.23   24.20
  -2  -4  -7  711.93   22.50
  -2   4  -7  704.93   19.70
   2   4   7  724.73   21.50
   2   4   7  747.53   23.40
  -2   4  -7  738.73   22.30
  -3  -4  -7   18.90    2.80
   3  -4   7   18.00    3.40
  -3  -4  -7   25.30    3.70
   3   4   7   20.70    3.50
  -3   4  -7   18.50    3.00
   3   4   7   16.80    2.80
  -3   4  -7   17.80    2.60
   4  -4   7   54.89    3.90
  -4  -4  -7   54.19    3.70
  -4  -4  -7   52.89    3.40
  -4   4  -7   54.29    3.70
  -4   4  -7   50.49    3.10
   4   4   7   52.09    3.70
   7  -5  -7    7.50    1.70
   7  -5  -7    6.10    1.40
  -7  -5   7    1.50    2.10
  -7   5   7    5.20    1.50
   7   5  -7    8.60    2.00
   7   5  -7    3.60    1.40
   6  -5  -7  263.67    9.70
   6  -5  -7  279.57   10.30
  -6  -5   7  278.07   10.20
   6   5  -7  254.87   10.50
  -6   5   7  251.07   11.00
  -6   5   7  266.97   10.10
   6   5  -7  262.57   10.20
   6   5  -7  264.67   11.60
   5  -5  -7   16.30    3.10
  -5  -5   7   23.10    4.10
   5  -5  -7   14.50    3.00
   5  -5  -7   19.20    2.90
   5  -5  -7   15.30    5.80
  -5  -5   7   15.20    3.10
  -5   5   7   16.80    3.00
  -5   5   7   14.60    3.20
   5   5  -7   14.80    3.30
   5   5  -7   18.80    3.10
   5   5  -7   19.20    3.70
  -4  -5   7  213.78    9.80
   4  -5  -7  196.28    9.30
  -4  -5   7  201.88   10.80
  -4  -5   7  192.28   11.30
   4  -5  -7  215.18   10.50
   4  -5  -7  209.78   14.20
  -4   5   7  197.78    9.00
  -4   5   7  206.78   12.50
   4   5  -7  220.88   10.90
   4   5  -7  192.98    9.30
   4   5  -7  205.88    9.20
  -4   5   7  188.88   10.60
   3  -5  -7    7.30    3.60
  -3  -5   7    8.40    2.90
   3  -5  -7    7.90    2.50
  -3  -5   7   12.40    3.10
   3  -5  -7    8.20    2.30
   3  -5  -7   11.50    3.30
  -3  -5   7   12.60    3.00
  -3   5   7    3.60    2.20
  -3   5   7    5.90    3.00
  -3   5   7   13.70    2.70
   3   5  -7   12.30    2.90
  -3   5   7    8.30    3.50
   3   5  -7    9.60    2.90
   2  -5  -7   64.29    7.10
   2  -5  -7   74.49    5.60
  -2  -5   7   58.69    5.90
  -2  -5   7   66.09    8.10
  -2  -5   7   50.09    5.80
  -2   5   7   68.49    8.30
   2   5  -7   64.49    4.60
  -2   5   7   60.79    4.40
   2   5  -7   63.69    5.60
  -2   5   7   56.49    6.00
  -1  -5   7  196.18   11.00
   1  -5  -7  218.18    8.30
   1  -5  -7  196.08    9.90
  -1  -5   7  205.38   12.30
  -1  -5   7  206.98    9.10
  -1  -5   7  205.28   11.80
   1  -5  -7  196.78   10.90
  -1   5   7  212.58   10.60
   1   5  -7  198.68   10.70
  -1   5   7  202.08   11.70
   1   5  -7  219.58    9.60
   0  -5  -7   17.30    4.80
   0  -5   7   14.50    3.80
   0  -5  -7   15.20    3.20
   0  -5  -7   16.40    2.90
   0  -5  -7   20.50    4.20
   0  -5   7   15.30    3.60
   0   5  -7   12.60    2.30
   0   5   7   21.10    3.70
   0   5  -7   12.30    3.20
   0   5  -7   11.50    2.70
   1  -5   7   95.89   12.30
   1  -5   7  109.59    8.40
  -1  -5  -7  101.09    7.20
   1  -5   7  113.69    7.40
  -1  -5  -7  111.89    6.20
  -1  -5  -7  119.19   13.20
  -1   5  -7  121.89    7.40
  -1   5  -7  105.69    5.30
   1   5   7  107.29    8.00
   1   5   7  101.29    6.30
  -1   5  -7  103.99    8.10
  -2  -5  -7   89.09    5.50
  -2  -5  -7   93.39    6.60
  -2  -5  -7   81.59   13.80
   2  -5   7   97.29    7.40
   2  -5   7  105.69   14.90
   2   5   7   92.59    6.90
  -2   5  -7   90.49    5.00
  -2   5  -7   91.09    7.80
   2   5   7  100.49    6.10
  -2   5  -7   90.89    6.40
  -3  -5  -7    1.50    1.40
   3  -5   7    1.40    1.60
  -3  -5  -7    1.80    1.30
   3   5   7    0.80    1.30
  -3   5  -7   -0.90    0.90
   3   5   7    0.30    1.20
  -3   5  -7    0.60    1.00
   4  -5   7   13.10    2.00
  -4  -5  -7   18.40    2.20
  -4  -5  -7   18.00    2.60
  -4   5  -7   15.80    1.80
  -4   5  -7   19.00    2.50
   4   5   7   20.90    2.90
   7  -6  -7   10.60    1.80
   7  -6  -7    8.70    1.50
  -7   6   7    6.50    1.50
   7   6  -7    6.70    1.50
   6  -6  -7   56.29    3.90
   6  -6  -7   54.59    3.70
  -6  -6   7   58.99    4.30
   6   6  -7   53.09    3.80
  -6   6   7   60.79    4.80
   6   6  -7   52.29    3.90
   6   6  -7   55.99    4.80
  -6   6   7   61.49    4.20
  -5  -6   7   -0.50    1.50
   5  -6  -7   -0.10    1.30
   5  -6  -7    1.80    1.50
  -5  -6   7    3.40    2.50
   5  -6  -7   -0.40    1.20
   5   6  -7    0.40    1.30
   5   6  -7   -0.30    1.30
  -5   6   7    0.70    1.50
   5   6  -7   -0.10    1.50
  -5   6   7    2.40    1.50
   4  -6  -7  321.77   13.40
   4  -6  -7  284.57   17.60
  -4  -6   7  314.57   12.40
  -4  -6   7  315.87   14.00
  -4  -6   7  309.07   14.80
   4  -6  -7  324.17   16.60
  -4   6   7  338.77   12.00
  -4   6   7  315.07   16.30
   4   6  -7  325.37   12.60
  -4   6   7  319.77   14.10
   4   6  -7  321.07   11.90
   3  -6  -7    6.40    2.30
  -3  -6   7    8.90    2.80
  -3  -6   7    6.80    2.90
  -3  -6   7    4.40    2.20
   3  -6  -7    9.00    3.10
  -3   6   7    7.60    3.90
  -3   6   7    9.40    3.00
  -3   6   7    6.10    3.00
   3   6  -7    4.90    2.50
   3   6  -7    4.80    2.10
  -3   6   7    7.40    2.20
   2  -6  -7  951.90   27.10
  -2  -6   7  910.31   31.80
  -2  -6   7  935.51   28.80
  -2  -6   7  914.71   26.00
   2   6  -7  892.21   24.20
  -2   6   7  952.90   24.30
  -2   6   7  906.01   30.10
   2   6  -7  935.31   27.90
  -2   6   7  986.30   28.70
  -1  -6   7  224.68    9.60
  -1  -6   7  208.88   12.80
  -1  -6   7  218.48   11.50
   1  -6  -7  215.48   11.70
   1  -6  -7  224.98   10.70
   1  -6  -7  208.88    8.40
  -1  -6   7  202.88   12.00
   1   6  -7  224.88    9.80
  -1   6   7  224.98   10.90
  -1   6   7  213.18   12.20
   1   6  -7  217.08   11.10
   0  -6   7   84.09    8.10
   0  -6  -7   78.19    7.20
   0  -6  -7   65.99    9.00
   0  -6  -7   77.99    5.10
   0  -6   7   95.09    8.00
   0  -6  -7   82.99    6.50
   0   6   7   79.59    5.80
   0   6  -7   91.79    6.30
   0   6   7   83.79    7.40
   0   6  -7   79.79    6.80
   1  -6   7    3.20    2.10
   1  -6   7    1.60    2.50
   1  -6   7   -1.20    2.80
  -1  -6  -7    2.80    1.90
  -1  -6  -7    0.60    1.30
  -1  -6  -7    2.00    3.00
  -1   6  -7    3.50    1.60
  -1   6  -7    2.80    2.30
  -1   6  -7    1.30    1.50
   1   6   7    5.00    2.70
  -2  -6  -7    5.40    1.70
  -2  -6  -7    8.00    2.50
   2   6   7    6.40    2.40
  -2   6  -7    6.90    1.70
  -2   6  -7    6.80    2.10
  -2   6  -7    9.00    3.20
   2   6   7    6.20    2.00
  -3  -6  -7   76.69    4.50
   3  -6   7   79.19    5.60
  -3  -6  -7   79.09    5.10
  -3   6  -7   79.39    5.20
   3   6   7   74.69    4.60
  -6  -7   7    1.60    1.40
   6  -7  -7    0.20    1.40
   6   7  -7    3.30    1.50
  -6   7   7    1.80    1.20
  -6   7   7    1.00    1.30
   6   7  -7    2.40    1.40
  -5  -7   7   24.20    4.10
  -5  -7   7   22.10    3.60
   5  -7  -7   26.50    3.80
   5  -7  -7   31.00    3.30
   5   7  -7   19.90    3.50
  -5   7   7   26.80    4.00
   5   7  -7   20.00    3.30
   5   7  -7   25.30    3.50
  -5   7   7   21.20    3.00
  -4  -7   7  304.27   11.90
   4  -7  -7  305.87   12.90
  -4  -7   7  291.67   13.20
  -4  -7   7  306.67   15.10
   4   7  -7  290.27   13.00
  -4   7   7  303.77   11.00
   4   7  -7  294.67   11.30
   4   7  -7  295.17   11.90
   4   7  -7  290.37   10.80
  -4   7   7  301.47   13.40
  -4   7   7  268.77   15.80
   3  -7  -7   75.39    8.10
   3  -7  -7   65.49    5.20
  -3  -7   7   60.99    7.80
  -3  -7   7   66.39    8.10
  -3  -7   7   70.39    7.20
  -3   7   7   71.89    4.70
   3   7  -7   71.09    5.70
  -3   7   7   57.29    6.10
   3   7  -7   67.89    5.70
  -3   7   7   57.29    7.90
  -3   7   7   68.99    8.10
  -2  -7   7 1184.28   31.40
   2  -7  -7 1173.88   32.40
  -2  -7   7 1187.48   37.50
   2  -7  -7 1186.58   34.50
  -2  -7   7 1178.38   34.50
  -2   7   7 1188.28   35.90
  -2   7   7 1141.59   28.30
  -2   7   7 1204.88   33.70
   2   7  -7 1152.08   33.10
  -1  -7   7  147.39   11.60
  -1  -7   7  160.68    9.60
   1  -7  -7  142.69    6.80
   1  -7  -7  155.58    8.80
  -1  -7   7  145.49   10.00
   1  -7  -7  146.29    9.30
  -1  -7   7  160.38    7.80
  -1   7   7  142.19    9.80
  -1   7   7  148.39    8.50
   1   7  -7  143.39    8.90
   1   7  -7  171.58    8.00
   0  -7   7   31.00    5.60
   0  -7  -7   32.70    3.80
   0  -7  -7   20.50    6.00
   0  -7  -7   31.50    6.10
   0  -7  -7   36.20    5.50
   0   7   7   41.10    7.10
   0   7   7   28.10    5.10
   0   7  -7   34.50    5.40
  -1  -7  -7   85.19    5.30
   1  -7   7  110.29   16.30
   1  -7   7   96.39    6.50
  -1  -7  -7   85.59    6.40
   1  -7   7   95.59    7.70
  -1   7  -7   86.09    6.10
   1   7   7   92.09    7.10
  -1   7  -7   91.29    7.10
  -2  -7  -7   17.30    3.20
  -2  -7  -7   20.50    3.00
   2  -7   7   12.00    3.10
  -2   7  -7   15.00    3.00
   2   7   7   20.40    3.30
  -2   7  -7   17.70    4.10
   2   7   7   24.70    3.10
  -2   7  -7   15.30    2.20
   3  -7   7    3.90    1.70
  -3  -7  -7    3.30    1.50
  -3  -7  -7    7.20    1.70
   3   7   7    5.70    1.60
  -3   7  -7    1.30    1.20
  -3   7  -7    1.80    1.60
  -6  -8   7    3.70    1.50
  -6   8   7    4.70    1.60
   6   8  -7    1.20    1.10
   6   8  -7    1.70    1.20
  -6   8   7    5.60    1.40
  -5  -8   7   65.29    5.40
   5  -8  -7   65.59    4.80
  -5  -8   7   69.09    4.80
   5   8  -7   67.19    5.30
  -5   8   7   60.29    5.10
   5   8  -7   73.09    5.00
  -5   8   7   67.09    4.20
  -4  -8   7   48.20    5.10
  -4  -8   7   48.50    5.50
   4  -8  -7   39.60    5.20
  -4   8   7   59.69    6.30
   4   8  -7   47.70    5.30
  -4   8   7   45.40    4.20
   4   8  -7   50.59    3.80
   4   8  -7   46.10    5.20
  -3  -8   7  111.99    7.00
  -3  -8   7  111.69    9.50
   3  -8  -7  126.89    8.30
  -3  -8   7  114.99    8.00
   3  -8  -7  112.89    6.60
   3   8  -7  117.59    7.20
  -3   8   7  114.99    8.70
  -3   8   7  103.59    7.50
  -3   8   7  119.29    5.80
   3   8  -7  123.49    7.30
   2  -8  -7  244.48   10.80
  -2  -8   7  225.08   16.40
  -2  -8   7  224.68   10.00
  -2  -8   7  237.68   12.10
   2  -8  -7  211.58   11.20
  -2   8   7  242.98   11.40
  -2   8   7  234.38   12.40
   2   8  -7  240.38   11.30
   1  -8  -7   18.10    4.40
  -1  -8   7   15.10    3.00
  -1  -8   7   20.30    4.20
   1  -8  -7   13.60    2.90
   1  -8  -7   15.90    2.90
  -1  -8   7   12.80    3.40
  -1   8   7   13.90    2.80
   1   8  -7   15.60    2.70
   1   8  -7   10.20    2.90
  -1   8   7   32.60    7.30
   0  -8  -7    8.20    3.50
   0  -8   7    8.40    3.10
   0  -8   7    5.90    2.50
   0  -8  -7    5.90    2.10
   0  -8  -7    2.70    1.80
   0   8  -7    6.30    2.60
   0   8  -7    2.50    1.40
   0   8   7    4.50    2.50
  -1  -8  -7  110.79    5.90
  -1  -8  -7  115.19    7.20
   1  -8   7  104.39    7.80
   1  -8   7  103.49    6.50
  -1   8  -7  112.29    7.50
  -1   8  -7  107.29    6.40
   1   8   7   97.79    6.90
  -2  -8  -7    0.70    1.20
  -2  -8  -7    0.00    1.20
  -2   8  -7    3.10    2.30
   2   8   7    2.60    1.60
   3  -8   7    0.80    1.20
  -3  -8  -7    2.10    1.20
  -3  -8  -7    2.40    1.30
  -3   8  -7    3.60    1.30
   5  -9  -7   73.79    4.70
  -5  -9   7   65.59    5.00
  -5  -9   7   71.49    5.00
  -5   9   7   72.49    3.80
   5   9  -7   65.19    4.30
  -5   9   7   70.99    4.90
   5   9  -7   73.89    5.00
   4  -9  -7    3.50    1.70
  -4  -9   7    6.90    3.40
  -4  -9   7    5.10    2.10
  -4   9   7    6.60    2.00
   4   9  -7    5.90    1.40
  -4   9   7    4.80    1.80
   4   9  -7    6.20    2.20
  -4   9   7    7.90    3.50
   4   9  -7    7.00    2.20
   3  -9  -7   46.30    6.10
  -3  -9   7   52.69    6.20
   3  -9  -7   41.00    4.20
  -3  -9   7   37.20    4.50
  -3   9   7   37.30    4.60
   3   9  -7   32.60    4.20
  -3   9   7   35.90    5.50
   3   9  -7   40.30    4.70
   2  -9  -7   28.00    3.90
  -2  -9   7   24.40    3.70
   2  -9  -7   25.00    4.50
  -2  -9   7   26.30    4.30
   2   9  -7   28.30    4.50
  -2   9   7   27.70    4.00
  -2   9   7   29.80    5.10
  -1  -9   7   14.60    3.40
   1  -9  -7   11.30    2.60
  -1  -9   7   21.30    5.20
   1  -9  -7   17.00    3.50
  -1  -9   7   15.50    2.80
   1   9  -7   14.50    2.20
  -1   9   7   10.70    3.00
  -1   9   7   15.70    2.80
   1   9  -7   14.00    3.20
   0  -9  -7  210.18    8.20
   0  -9   7  228.08   11.60
   0  -9  -7  205.58   10.00
   0  -9  -7  225.08   11.30
   0  -9   7  216.28   10.40
   0   9  -7  208.38    8.70
   0   9   7  210.08   10.90
   0   9  -7  216.48   10.70
   1  -9   7    8.00    2.40
  -1  -9  -7    9.40    2.20
   1  -9   7    6.30    1.90
  -1  -9  -7    9.70    2.30
   1   9   7    5.70    2.20
  -1   9  -7    6.40    1.70
  -1   9  -7    7.70    2.20
   2  -9   7   12.60    2.90
  -2  -9  -7    8.20    2.00
  -2  -9  -7   10.20    1.90
   2   9   7    8.80    1.60
  -2   9  -7    9.40    1.80
  -2   9  -7    5.60    2.10
   5 -10  -7   27.40    3.00
  -5 -10   7   30.40    3.20
   5  10  -7   22.40    2.80
   5  10  -7   29.30    3.00
  -5  10   7   24.60    2.70
  -4 -10   7    8.10    2.00
  -4 -10   7    4.90    1.90
   4 -10  -7    7.40    2.40
   4  10  -7    1.80    1.40
   4  10  -7    2.60    1.40
  -4  10   7    1.60    2.60
  -4  10   7    0.90    1.10
   3 -10  -7   50.69    3.70
  -3 -10   7   74.19    4.90
   3 -10  -7   61.99    5.30
  -3 -10   7   66.89    5.80
   3  10  -7   66.49    5.70
  -3  10   7   70.19    5.10
  -3  10   7   58.89    6.60
  -2 -10   7   39.40    5.20
   2 -10  -7   40.80    4.40
  -2 -10   7   38.70    4.10
   2 -10  -7   43.80    5.90
   2  10  -7   35.40    4.70
  -2  10   7   33.60    3.80
  -2  10   7   42.10    5.90
   1 -10  -7   46.90    4.90
  -1 -10   7   45.30    5.50
  -1 -10   7   47.20    5.20
   1 -10  -7   52.59    6.10
  -1  10   7   46.90    3.40
  -1  10   7   51.49    6.20
   1  10  -7   46.50    5.50
   0 -10   7   13.30    3.30
   0 -10  -7   19.10    3.30
   0 -10  -7   12.80    3.70
   0 -10   7   16.50    3.20
   0  10  -7   12.00    1.90
   0  10   7   15.90    3.30
   1 -10   7    2.30    1.50
  -1 -10  -7    0.40    1.10
  -1 -10  -7   -0.90    1.40
   1 -10   7    1.00    1.70
   1  10   7    1.20    1.40
  -1  10  -7    1.10    1.70
  -1  10  -7    0.00    0.80
   4 -11  -7   32.80    3.50
  -4 -11   7   24.30    3.00
  -4 -11   7   27.10    3.00
  -4  11   7   26.40    2.90
   4  11  -7   23.50    2.70
  -3 -11   7    3.90    1.60
   3 -11  -7    0.00    1.40
  -3 -11   7   -0.70    1.20
   3  11  -7    3.10    1.30
  -3  11   7    1.50    1.10
  -3  11   7    2.70    1.80
  -2 -11   7   14.20    2.80
   2 -11  -7   18.00    3.20
  -2 -11   7   17.70    2.70
   2 -11  -7   13.10    2.30
  -2  11   7   17.60    3.40
  -2  11   7   13.50    2.00
   2  11  -7   13.20    2.50
  -1 -11   7   62.29    4.90
  -1 -11   7   64.39    5.60
   1 -11  -7   56.99    4.90
   1 -11  -7   61.39    4.60
  -1  11   7   66.19    5.30
   1  11  -7   63.69    4.80
   0 -11  -7   43.70    3.70
   0 -11   7   41.30    3.50
   0 -11   7   36.20    4.60
   0  11   7   40.20    4.40
   0  11  -7   44.00    3.90
   1 -11   7    2.60    1.60
  -1 -11  -7    3.00    1.30
  -1  11  -7    2.70    1.40
   1  11   7    2.90    1.20
   2 -12  -7    5.60    1.90
  -2 -12   7    2.50    1.40
   2 -12  -7    3.80    1.60
   2  12  -7    5.40    1.50
   1 -12  -7   14.20    2.80
   1 -12  -7   31.40    5.00
  -1 -12   7   22.70    2.80
   1  12  -7   28.40    3.20
  -1  12   7   23.20    3.00
   7   0  -8   74.89    4.80
  -7   0   8   69.29    4.40
   7   0  -8   70.99    4.80
   6   0  -8   74.39    5.90
   6   0  -8   64.19    5.20
  -6   0   8   65.39    4.90
  -6   0   8   62.79    6.40
   5   0  -8  649.54   25.00
  -5   0   8  579.74   22.90
   5   0  -8  541.15   23.70
  -5   0   8  539.65   20.90
  -5   0   8  577.44   18.40
   4   0  -8   33.80    4.40
   4   0  -8   31.10    4.40
  -4   0   8   36.20    5.20
  -4   0   8   34.80    4.50
  -4   0   8   41.90    6.10
   4   0  -8   25.80    6.70
  -3   0   8   81.59    8.00
   3   0  -8   65.69    5.80
  -3   0   8   55.99    6.90
  -3   0   8   53.59    6.00
   3   0  -8   62.79    5.30
  -2   0   8   16.10    3.10
   2   0  -8   24.00    3.60
  -2   0   8   16.20    3.40
  -2   0   8   15.60    3.80
   2   0  -8   16.60    3.50
  -2   0   8   21.80    6.20
  -1   0   8  710.43   23.60
   1   0  -8  709.53   21.70
  -1   0   8  707.03   24.90
  -1   0   8  707.93   19.70
   0   0  -8   55.49    4.00
   0   0  -8   76.19   10.10
   0   0   8   56.19    6.30
   0   0  -8   51.99    5.50
   0   0   8   61.09    8.00
  -1   0  -8  198.18    8.10
   1   0   8  215.08   11.70
  -1   0  -8  191.28   13.90
  -1   0  -8  204.18   11.40
   1   0   8  193.98    8.80
  -1   0  -8  191.08    9.90
  -2   0  -8  110.89    7.00
  -2   0  -8  110.49    6.50
   2   0   8  104.99    7.60
  -3   0  -8   20.00    3.20
  -3   0  -8   24.20    2.80
   3   0   8   22.30    3.30
   7  -1  -8    1.10    1.10
  -7  -1   8   -1.00    1.00
   7  -1  -8    1.50    1.40
   7   1  -8    0.00    1.10
   7   1  -8    1.40    1.30
  -7   1   8   -0.70    1.20
   6  -1  -8   44.50    5.00
  -6  -1   8   52.79    5.20
  -6  -1   8   58.79    6.20
   6  -1  -8   58.09    4.80
   6   1  -8   53.29    5.30
   6   1  -8   55.49    6.10
  -6   1   8   73.39    6.70
  -6   1   8   50.59    5.10
  -5  -1   8    0.60    1.90
  -5  -1   8    0.60    1.50
  -5  -1   8    0.30    1.90
   5  -1  -8    3.90    1.90
   5  -1  -8    8.90    3.90
  -5   1   8    0.80    1.70
  -5   1   8   -1.20    1.10
   5   1  -8    2.40    3.10
  -5   1   8    3.00    2.10
   5   1  -8    2.10    2.80
  -4  -1   8   31.50    5.20
  -4  -1   8   34.10    4.70
   4  -1  -8   32.10    4.00
   4  -1  -8   35.20    8.60
  -4  -1   8   48.00    6.10
   4  -1  -8   35.20    4.80
   4   1  -8   41.90    5.10
  -4   1   8   41.50    5.50
  -4   1   8   26.90    5.00
  -4   1   8   36.80    4.80
   4   1  -8   38.90    5.20
   3  -1  -8    0.70    2.10
   3  -1  -8   -1.00    1.40
  -3  -1   8    0.30    1.70
  -3  -1   8   -1.70    1.20
  -3  -1   8    2.50    2.10
   3   1  -8    0.10    1.40
   3   1  -8    3.80    2.20
  -3   1   8   -0.20    1.30
  -3   1   8   -0.40    1.20
  -3   1   8   -0.60    1.60
  -2  -1   8   46.00    6.20
   2  -1  -8   49.10    6.60
   2  -1  -8   50.59    5.10
  -2  -1   8   45.80    4.90
  -2  -1   8   48.60    5.90
   2   1  -8   46.70    5.80
  -2   1   8   49.70    6.00
   2   1  -8   53.79    5.10
  -2   1   8   48.70    4.90
   2   1  -8   52.09    5.10
  -2   1   8   51.79    6.70
   1  -1  -8  429.66   12.90
  -1  -1   8  429.46   13.90
  -1  -1   8  434.56   18.40
  -1  -1   8  451.25   17.20
   1  -1  -8  452.45   17.60
   1  -1  -8  444.66   15.70
   1   1  -8  428.66   17.00
  -1   1   8  440.36   13.60
   1   1  -8  448.86   15.70
  -1   1   8  453.65   17.20
  -1   1   8  450.65   18.40
   0  -1  -8   24.20    4.30
   0  -1  -8   38.60    5.10
   0  -1  -8   28.40    6.30
   0  -1  -8   33.50    3.70
   0  -1   8   41.80    5.50
   0  -1   8   26.80    4.80
   0   1   8   38.10    5.10
   0   1  -8   38.70    3.70
   0   1  -8   46.40    7.00
   0   1   8   43.20    6.60
   0   1  -8   33.70    4.30
  -1  -1  -8   87.99   10.50
  -1  -1  -8   90.59    6.60
  -1  -1  -8   89.79    5.20
  -1  -1  -8   93.29   11.20
   1  -1   8   87.99    7.50
   1  -1   8   92.89    6.00
   1  -1   8   75.79   10.70
   1   1   8   81.29    7.20
   1   1   8   82.29    5.70
  -1   1  -8   84.29    5.00
  -1   1  -8   84.09    7.20
  -1   1  -8   83.69    6.20
  -1   1  -8  102.79   12.10
  -2  -1  -8    1.80    1.30
   2  -1   8    6.40    2.50
   2   1   8    2.60    1.70
   2   1   8    3.40    2.20
  -2   1  -8    4.10    1.80
  -3  -1  -8   13.00    2.20
   3  -1   8   14.20    2.70
  -3  -1  -8   10.80    2.30
  -3   1  -8    9.80    1.90
   3   1   8   12.20    2.60
   3   1   8    7.60    2.00
  -3   1  -8    8.80    2.10
  -7  -2   8   26.90    3.10
   7  -2  -8   31.40    3.30
   7  -2  -8   32.90    3.50
   7   2  -8   35.60    3.90
  -7   2   8   29.90    3.20
   7   2  -8   35.70    3.90
  -6  -2   8   12.20    2.70
   6  -2  -8   15.90    2.90
   6  -2  -8   13.00    3.10
  -6   2   8   14.40    3.20
  -6   2   8   13.60    2.60
   6   2  -8   16.10    3.00
   6   2  -8   20.20    3.70
   5  -2  -8  142.89    7.40
   5  -2  -8  137.59    7.40
   5  -2  -8  143.39    8.50
  -5  -2   8  149.39    9.10
  -5  -2   8  129.49    9.20
  -5  -2   8  148.19    7.80
  -5   2   8  152.08    7.80
   5   2  -8  146.89    8.60
  -5   2   8  125.39    9.40
   5   2  -8  138.49    6.40
  -5   2   8  152.78    9.00
   5   2  -8  142.79    8.50
   4  -2  -8  166.78    8.10
  -4  -2   8  195.68   11.60
   4  -2  -8  176.28    9.40
   4  -2  -8  185.38   12.00
  -4  -2   8  167.38    8.60
  -4  -2   8  193.08   10.40
   4   2  -8  193.58    9.70
  -4   2   8  173.88   11.20
   4   2  -8  166.98    8.80
  -4   2   8  176.68   10.80
  -4   2   8  166.78    9.90
   3  -2  -8   20.80    4.40
   3  -2  -8   20.60    3.20
  -3  -2   8   20.10    4.10
  -3  -2   8   17.00    3.80
  -3  -2   8   13.60    2.90
  -3   2   8   19.90    4.10
   3   2  -8   14.20    3.00
   3   2  -8   19.00    3.80
  -3   2   8   13.70    2.70
  -3   2   8   17.90    5.80
  -3   2   8   23.60    5.10
  -2  -2   8   83.29    8.30
   2  -2  -8   64.89    5.30
  -2  -2   8   65.49    7.90
  -2  -2   8   75.09    9.60
   2  -2  -8   57.59    6.80
  -2   2   8   60.99    6.50
   2   2  -8   68.39    5.10
  -2   2   8   83.49    9.00
  -2   2   8   69.19    5.00
  -2   2   8   66.69    8.80
   2   2  -8   66.89    6.10
   1  -2  -8  498.25   19.50
   1  -2  -8  526.75   18.20
   1  -2  -8  529.25   15.10
  -1  -2   8  552.34   16.40
  -1  -2   8  553.84   21.00
  -1  -2   8  541.25   19.80
  -1   2   8  512.95   20.70
  -1   2   8  584.14   19.80
  -1   2   8  505.35   16.40
   1   2  -8  565.34   18.00
   1   2  -8  541.75   19.90
   0  -2  -8  678.83   18.80
   0  -2  -8  679.63   21.50
   0  -2   8  688.93   24.20
   0  -2   8  698.93   22.30
   0  -2  -8  669.03   23.50
   0   2   8  662.03   21.50
   0   2   8  664.73   24.10
   0   2  -8  675.33   18.30
   0   2  -8  660.73   23.20
   0   2  -8  676.03   21.30
   1  -2   8    3.30    2.10
  -1  -2  -8    4.10    2.00
   1  -2   8    4.40    4.60
  -1  -2  -8    1.50    3.40
  -1  -2  -8    8.80    5.30
  -1  -2  -8    2.80    1.50
  -1   2  -8    7.40    1.90
  -1   2  -8    3.10    1.80
  -1   2  -8   -0.50    4.30
   1   2   8    4.10    2.30
  -2  -2  -8   33.50    3.70
   2  -2   8   36.60    5.60
  -2  -2  -8   42.40    5.00
   2   2   8   42.00    5.00
   2   2   8   51.59    6.50
  -2   2  -8   44.10    5.20
  -2   2  -8   41.20    3.90
   3  -2   8    1.10    1.20
  -3  -2  -8    0.80    1.20
   3  -2   8    1.20    1.50
  -3  -2  -8    0.20    1.00
   3   2   8    0.50    1.20
   3   2   8    0.40    1.00
  -3   2  -8    1.50    1.10
  -3   2  -8    0.30    1.00
  -7  -3   8   12.70    2.20
   7  -3  -8   16.70    2.20
   7  -3  -8   12.10    2.20
   7   3  -8   12.20    2.20
  -7   3   8   11.90    2.10
   7   3  -8   16.00    2.50
  -6  -3   8    1.10    1.40
   6  -3  -8    0.70    1.10
   6  -3  -8    0.50    1.30
   6   3  -8    2.60    1.70
  -6   3   8    0.30    1.20
   6   3  -8    0.40    1.30
  -6   3   8   -0.10    2.30
   5  -3  -8    2.00    1.60
  -5  -3   8    4.70    2.30
  -5  -3   8   -0.30    1.50
   5  -3  -8    1.90    1.60
   5  -3  -8    3.00    4.40
   5  -3  -8    4.70    1.90
  -5  -3   8    2.80    2.50
  -5   3   8    1.70    2.00
   5   3  -8    4.90    2.30
  -5   3   8    4.30    2.70
   5   3  -8    0.30    1.40
   5   3  -8    1.50    1.40
  -5   3   8    0.40    1.50
  -4  -3   8   13.30    3.10
  -4  -3   8   18.40    3.80
  -4  -3   8   19.10    4.10
   4  -3  -8   19.50    4.00
   4   3  -8   18.60    3.60
  -4   3   8   14.60    3.90
   4   3  -8   14.40    3.30
  -4   3   8   12.90    2.90
  -4   3   8   16.40    3.50
  -3  -3   8    7.10    2.30
   3  -3  -8   10.10    3.10
   3  -3  -8    7.30    2.20
  -3  -3   8    5.30    2.50
  -3   3   8    3.20    2.10
   3   3  -8    7.90    2.80
  -3   3   8    3.20    3.10
  -3   3   8    8.90    2.50
  -3   3   8    5.10    3.20
  -2  -3   8   37.10    4.40
  -2  -3   8   43.00    7.20
   2  -3  -8   49.40    6.70
   2  -3  -8   40.50    4.70
  -2  -3   8   38.10    5.40
  -2  -3   8   43.00    6.40
   2   3  -8   50.59    6.60
   2   3  -8   46.20    4.70
  -2   3   8   42.00    5.60
  -2   3   8   46.30    5.30
  -2   3   8   48.40    7.80
  -1  -3   8 1035.00   27.20
   1  -3  -8 1042.10   26.40
   1  -3  -8  999.20   29.00
  -1  -3   8 1036.00   31.10
   1  -3  -8 1048.50   31.30
  -1  -3   8  978.80   32.00
  -1   3   8 1034.20   32.50
   1   3  -8 1029.40   28.40
  -1   3   8 1033.20   30.40
   1   3  -8 1035.30   31.20
   0  -3   8  112.19    8.80
   0  -3  -8  115.39    6.00
   0  -3  -8  108.89    8.40
   0  -3  -8  103.79   12.20
   0  -3  -8  117.29    7.40
   0  -3   8  119.49    7.90
   0   3  -8  100.09    5.30
   0   3   8  116.49    6.70
   0   3   8  116.39    8.80
   0   3  -8  118.89    8.60
   0   3  -8  115.79    7.30
   0   3   8  112.59    7.30
  -1  -3  -8  123.39   16.10
   1  -3   8  217.08   18.90
  -1  -3  -8  171.08    7.70
  -1  -3  -8  189.18    9.70
   1  -3   8  180.68    8.80
   1  -3   8  179.98   10.70
  -1   3  -8  180.38    7.30
  -1   3  -8  163.98    9.00
  -1   3  -8  183.78   10.50
   1   3   8  198.98   11.10
   1   3   8  184.28    8.60
  -2  -3  -8   13.90    3.00
  -2  -3  -8   12.20    2.40
   2  -3   8   19.50    4.10
   2   3   8   15.00    3.00
  -2   3  -8   19.40    3.40
  -2   3  -8   13.70    2.20
   3  -3   8    1.50    1.40
  -3  -3  -8    3.30    1.30
  -3  -3  -8    1.70    1.30
   3   3   8    1.20    1.20
   3   3   8    1.30    1.10
  -3   3  -8    4.50    1.60
   7  -4  -8    9.50    1.80
  -7  -4   8    9.60    2.20
   7  -4  -8    6.70    1.40
   7   4  -8    9.20    2.60
  -7   4   8   10.30    1.90
   7   4  -8    5.90    1.50
  -6  -4   8    1.90    1.60
   6  -4  -8   10.30    2.30
   6  -4  -8    5.20    1.70
   6   4  -8    2.90    1.60
  -6   4   8    6.80    2.00
  -6   4   8    7.10    2.40
   6   4  -8    5.20    2.00
   5  -4  -8   22.60    3.00
  -5  -4   8   17.90    3.30
  -5  -4   8   21.10    4.90
   5  -4  -8   17.60    3.20
  -5  -4   8   13.20    3.00
   5  -4  -8   18.10    3.30
  -5   4   8   20.50    3.30
   5   4  -8   28.60    4.40
   5   4  -8   22.90    4.20
  -5   4   8   22.40    3.80
  -4  -4   8   73.89    7.40
   4  -4  -8   73.99    5.70
  -4  -4   8   74.79    8.10
   4  -4  -8   73.39    6.00
  -4  -4   8   75.89    5.70
  -4   4   8   71.89    8.40
  -4   4   8   76.79    5.50
  -4   4   8   69.19    7.10
   4   4  -8   74.39    6.30
   4   4  -8   85.29    5.80
  -3  -4   8  234.38   12.00
   3  -4  -8  228.68    9.70
  -3  -4   8  249.58   10.70
   3  -4  -8  226.88   11.50
  -3  -4   8  239.18   13.30
  -3   4   8  245.88    9.80
  -3   4   8  220.68   11.80
   3   4  -8  232.08   11.30
  -3   4   8  234.38   13.20
  -3   4   8  221.18   13.20
  -2  -4   8  398.66   16.50
  -2  -4   8  381.36   17.30
  -2  -4   8  397.06   20.90
   2  -4  -8  413.26   16.50
  -2  -4   8  402.26   14.10
   2  -4  -8  399.16   14.60
  -2   4   8  394.06   16.10
  -2   4   8  399.46   12.90
  -2   4   8  386.96   17.40
   2   4  -8  396.76   13.40
   2   4  -8  385.66   16.00
   1  -4  -8  415.06   15.50
  -1  -4   8  383.16   17.40
   1  -4  -8  405.76   12.60
   1  -4  -8  406.86   16.80
  -1  -4   8  412.96   13.80
  -1  -4   8  418.86   16.90
  -1   4   8  406.86   16.10
  -1   4   8  417.56   17.90
   1   4  -8  424.86   16.80
   1   4  -8  434.16   14.90
   0  -4  -8   58.19    4.30
   0  -4  -8   63.89    7.70
   0  -4  -8   56.09    6.00
   0  -4   8   61.39    8.20
   0  -4  -8   68.49   10.20
   0  -4   8   61.99    6.60
   0   4  -8   88.59   10.10
   0   4  -8   64.29    5.40
   0   4   8   67.19    5.30
   0   4   8   50.79    6.40
  -1  -4  -8  133.79    8.00
  -1  -4  -8   87.99   13.40
   1  -4   8  129.99    9.00
   1  -4   8  116.19   14.30
  -1  -4  -8  120.89    6.30
   1  -4   8  122.19    7.10
   1   4   8  125.29    6.60
  -1   4  -8  123.89    5.70
  -1   4  -8  137.29    7.80
  -1   4  -8  132.69    8.90
  -2  -4  -8    1.20    1.30
   2  -4   8    4.60    2.40
  -2  -4  -8    6.30    2.10
   2   4   8    1.50    1.60
   2   4   8    2.50    1.60
  -2   4  -8    1.90    1.40
  -2   4  -8    5.20    1.50
  -3  -4  -8   19.20    2.70
   3  -4   8   19.40    2.80
  -3  -4  -8   16.20    2.40
   3   4   8   14.60    2.30
  -3   4  -8   19.50    2.60
  -3   4  -8   17.30    2.10
   7  -5  -8    6.10    1.40
  -7   5   8    6.40    1.50
   7   5  -8    6.10    1.60
  -6  -5   8   69.69    4.70
   6  -5  -8   68.89    4.40
   6  -5  -8   68.79    5.30
  -6   5   8   74.49    4.60
   6   5  -8   72.89    4.80
   6   5  -8   82.99    5.60
  -6   5   8   74.49    5.20
   5  -5  -8    1.60    1.60
  -5  -5   8    0.40    1.50
  -5  -5   8    3.60    2.40
   5  -5  -8    4.10    1.80
   5   5  -8    2.00    1.70
  -5   5   8    2.70    2.00
  -5   5   8    3.20    1.80
   5   5  -8    1.60    1.60
  -4  -5   8  137.09    7.70
  -4  -5   8  169.48   17.70
  -4  -5   8  153.38    9.20
   4  -5  -8  150.38    7.70
   4  -5  -8  146.49    8.60
   4   5  -8  137.39    7.50
  -4   5   8  140.09    7.30
  -4   5   8  137.09   13.90
   4   5  -8  137.99    8.50
  -4   5   8  131.59    8.70
  -3  -5   8   94.79    7.50
  -3  -5   8   93.89    9.80
   3  -5  -8   85.89    5.80
   3  -5  -8   88.59    7.20
  -3  -5   8   88.69    6.20
   3  -5  -8   85.99    5.70
  -3   5   8   88.49    8.00
   3   5  -8   93.79    6.80
  -3   5   8   85.99    7.10
  -3   5   8   98.09    5.80
  -3   5   8   86.79    9.60
  -2  -5   8   10.60    4.20
  -2  -5   8    9.20    2.60
   2  -5  -8   13.30    3.30
  -2  -5   8   14.70    4.40
  -2  -5   8   13.10    3.60
   2  -5  -8   13.40    3.10
  -2   5   8   13.60    3.80
   2   5  -8    5.70    2.10
  -2   5   8   13.90    2.60
  -2   5   8   13.00    3.60
   2   5  -8    7.60    2.20
   1  -5  -8   31.80    4.50
  -1  -5   8   29.00    4.80
   1  -5  -8   25.40    4.30
   1  -5  -8   26.70    3.40
  -1  -5   8   29.50    3.80
  -1  -5   8   31.30    6.30
  -1   5   8   26.10    4.20
   1   5  -8   25.90    3.60
   1   5  -8   33.30    5.50
  -1   5   8   37.80    6.60
   0  -5   8  510.35   18.80
   0  -5  -8  523.95   18.70
   0  -5  -8  502.75   15.30
   0  -5  -8  509.35   19.10
   0  -5   8  509.15   20.10
   0   5  -8  554.54   19.60
   0   5  -8  494.35   17.40
   0   5   8  530.05   22.00
   0   5   8  511.75   16.50
   1  -5   8   60.19    4.90
   1  -5   8   79.79    7.00
  -1  -5  -8   68.19    5.60
   1   5   8   74.69    6.40
  -1   5  -8   73.39    8.20
  -1   5  -8   58.09    3.90
  -1   5  -8   77.19    5.70
   1   5   8   74.59    5.10
  -2  -5  -8   32.30    3.90
   2  -5   8   27.60    4.00
  -2  -5  -8   35.30    3.60
   2   5   8   32.60    3.50
   2   5   8   36.40    4.40
  -2   5  -8   32.40    3.80
  -2   5  -8   31.60    3.50
  -3  -5  -8   11.50    1.90
  -3  -5  -8   13.20    2.10
   3  -5   8   14.00    2.40
   3   5   8   13.00    2.00
  -3   5  -8   12.80    2.30
  -6  -6   8    3.70    1.70
   6   6  -8    4.50    1.70
  -6   6   8    1.50    1.20
  -6   6   8    1.40    1.40
  -5  -6   8   14.50    2.80
   5  -6  -8   12.70    2.40
   5  -6  -8   14.80    3.00
  -5  -6   8   13.90    3.10
  -5   6   8   12.80    2.90
   5   6  -8   13.50    3.00
  -5   6   8   16.00    2.70
   5   6  -8   14.10    2.80
   4  -6  -8  483.45   17.40
  -4  -6   8  455.55   16.10
   4  -6  -8  505.75   15.30
  -4  -6   8  496.35   18.20
  -4   6   8  518.45   15.40
   4   6  -8  496.55   15.80
   4   6  -8  508.35   17.80
  -4   6   8  494.15   18.30
  -3  -6   8   98.49    6.40
   3  -6  -8   93.19    5.90
  -3  -6   8   93.19    7.60
   3  -6  -8  105.09    7.50
  -3   6   8   95.09    7.30
  -3   6   8   99.49    5.60
  -3   6   8   89.79    8.00
   3   6  -8   99.69    6.90
  -2  -6   8  247.58   10.30
  -2  -6   8  252.67   14.80
  -2  -6   8  237.08   13.10
  -2  -6   8  243.98   18.10
  -2   6   8  222.38   18.20
  -2   6   8  284.97   20.30
   2   6  -8  207.48   14.20
   1  -6  -8  142.79    9.30
   1  -6  -8  156.58    8.60
  -1  -6   8  158.18    7.40
  -1  -6   8  144.09    9.80
  -1  -6   8  159.18    9.70
  -1   6   8  136.99    9.80
   1   6  -8  147.59    9.40
  -1   6   8  150.78    8.50
   1   6  -8  158.98    7.80
   0  -6   8   21.00    3.80
   0  -6  -8   25.30    3.20
   0  -6  -8   31.70    5.30
   0  -6   8   25.10    4.10
   0  -6  -8   30.70    4.30
   0   6  -8   23.50    4.30
   0   6   8   23.30    4.80
   0   6   8   25.80    3.30
   0   6  -8   20.80    3.20
  -1  -6  -8    9.00    2.30
  -1  -6  -8   14.10    2.50
   1  -6   8    9.30    2.20
   1  -6   8    9.90    3.10
  -1   6  -8    9.90    2.40
  -1   6  -8   11.00    3.20
   1   6   8   11.40    2.80
  -2  -6  -8    7.50    2.20
  -2  -6  -8   10.20    2.00
   2  -6   8    5.00    2.10
  -2   6  -8   10.50    3.10
   2   6   8   11.50    2.40
  -2   6  -8   10.30    2.30
  -3  -6  -8   45.70    4.50
   3  -6   8   49.99    4.10
  -6  -7   8  107.89    5.20
  -6   7   8   99.19    4.60
   6   7  -8  102.89    5.70
  -6   7   8  104.69    5.50
   5  -7  -8  117.69    6.50
  -5  -7   8  101.99    6.00
  -5  -7   8  121.29    6.90
  -5   7   8  121.79    5.70
   5   7  -8  107.29    5.50
  -5   7   8  122.59    7.10
   5   7  -8  119.59    7.10
  -4  -7   8  429.76   14.60
   4  -7  -8  407.06   15.40
  -4  -7   8  413.46   16.00
   4   7  -8  431.66   13.50
  -4   7   8  419.26   16.10
   4   7  -8  431.26   15.70
  -4   7   8  439.16   13.20
   4   7  -8  421.56   14.00
  -3  -7   8   10.00    2.50
   3  -7  -8    8.00    2.50
  -3  -7   8    6.50    2.50
   3  -7  -8    9.10    2.20
  -3   7   8    6.50    2.30
   3   7  -8    5.80    2.30
  -3   7   8    7.70    2.00
  -3   7   8    8.40    3.10
   2  -7  -8   81.39    5.80
   2  -7  -8   92.79    8.00
  -2  -7   8   56.79    6.80
  -2  -7   8   75.29    5.30
  -2  -7   8   64.79    6.90
  -2   7   8   85.39    6.40
  -2   7   8   74.59    8.70
   2   7  -8   78.39    6.40
  -1  -7   8   41.40    5.70
  -1  -7   8   38.70    6.00
   1  -7  -8   34.60    4.40
   1  -7  -8   46.00    6.50
  -1  -7   8   39.50    4.10
  -1   7   8   28.40    4.60
   1   7  -8   40.80    4.10
   1   7  -8   45.10    6.30
  -1   7   8   43.80    4.90
   0  -7  -8   20.10    3.60
   0  -7   8   23.20    3.80
   0  -7   8   15.50    3.20
   0  -7  -8   27.10    5.30
   0  -7  -8   25.80    3.20
   0   7   8   20.00    4.40
   0   7  -8   20.40    4.40
   0   7  -8   24.90    3.50
  -1  -7  -8    0.90    1.30
   1  -7   8    0.70    1.60
   1  -7   8    3.50    1.50
  -1  -7  -8    1.70    1.60
  -1   7  -8    1.30    1.20
   1   7   8    2.60    1.80
  -1   7  -8    1.80    2.00
  -2  -7  -8   14.30    2.50
   2  -7   8   18.30    3.50
  -2  -7  -8   12.90    2.10
   2   7   8   19.30    2.50
  -2   7  -8   14.30    2.40
  -2   7  -8   17.00    3.60
  -5  -8   8   85.79    5.20
   5  -8  -8   92.39    5.20
  -5  -8   8   88.39    7.50
  -5   8   8   94.79    5.70
   5   8  -8   85.59    5.50
  -5   8   8   85.09    4.20
  -4  -8   8    6.40    2.60
  -4  -8   8   10.20    2.40
   4  -8  -8    9.00    2.50
   4   8  -8    7.10    1.70
  -4   8   8    3.70    1.70
   4   8  -8    8.70    2.30
  -4   8   8    3.80    5.50
  -4   8   8    8.30    2.10
  -3  -8   8   25.00    3.80
   3  -8  -8   16.10    3.10
  -3  -8   8   22.70    4.20
  -3   8   8   22.60    4.50
  -3   8   8   21.80    3.70
   3   8  -8   20.40    3.40
   2  -8  -8  142.69    7.70
  -2  -8   8  157.28    9.20
  -2  -8   8  153.98    7.40
   2  -8  -8  158.28    9.00
  -2   8   8  146.09    8.00
   2   8  -8  153.28    8.60
  -2   8   8  142.19    9.20
   1  -8  -8    5.40    2.10
  -1  -8   8    6.90    2.90
  -1  -8   8    4.80    2.30
   1  -8  -8    1.90    2.00
  -1   8   8    5.30    2.50
   1   8  -8   10.10    3.20
  -1   8   8    6.60    1.90
   1   8  -8    1.90    1.90
   0  -8  -8   37.40    4.80
   0  -8   8   43.40    4.80
   0  -8   8   55.79    6.90
   0  -8  -8   56.89    5.70
   0   8   8   58.89    5.30
   0   8  -8   58.09    4.10
   0   8  -8   60.09    6.90
   1  -8   8    1.90    1.70
   1  -8   8    0.30    1.60
  -1  -8  -8   -0.10    1.30
  -1  -8  -8   -0.40    1.10
  -1   8  -8    2.40    1.20
  -1   8  -8    0.30    1.50
   1   8   8    1.10    1.40
   2  -8   8   59.39    4.30
  -2  -8  -8   53.29    3.70
  -2  -8  -8   48.10    3.30
  -2   8  -8   51.39    3.30
  -5  -9   8    3.30    2.10
  -5  -9   8    1.00    1.10
   5  -9  -8    2.40    1.30
  -5   9   8    0.20    1.00
   5   9  -8    1.30    1.20
  -4  -9   8   15.00    2.70
  -4  -9   8    9.10    2.20
   4  -9  -8   13.80    2.90
  -4   9   8   14.90    2.60
  -4   9   8   11.40    3.60
   4   9  -8    7.70    2.10
   3  -9  -8   38.60    4.30
  -3  -9   8   36.90    4.00
  -3  -9   8   30.40    5.20
   3  -9  -8   38.40    5.10
  -3   9   8   36.00    4.80
  -3   9   8   42.80    4.60
  -2  -9   8   21.80    2.90
   2  -9  -8   17.90    4.10
   2  -9  -8   23.80    4.80
  -2  -9   8   19.20    3.30
  -2   9   8   13.80    3.00
   2   9  -8   19.40    3.40
  -2   9   8   30.90    6.70
  -1  -9   8   35.50    4.60
   1  -9  -8   34.60    4.50
  -1  -9   8   37.80    5.80
   1  -9  -8   31.60    3.90
  -1   9   8   26.90    2.70
   1   9  -8   29.70    4.30
  -1   9   8   25.50    4.20
   0  -9  -8   69.99    4.90
   0  -9  -8   64.89    5.80
   0  -9   8   75.49    5.10
   0  -9   8   71.59    5.80
   0   9  -8   76.69    5.70
   0   9  -8   65.89    3.80
   0   9   8   87.99    6.10
   1  -9   8    2.90    1.80
  -1  -9  -8    2.70    1.40
  -1   9  -8    1.90    1.10
   1   9   8    4.50    1.70
  -1   9  -8    0.40    1.80
   4 -10  -8    1.00    1.10
  -4 -10   8    1.10    1.30
  -4 -10   8   -0.40    1.10
   4  10  -8    0.50    0.90
  -4  10   8    0.60    1.00
   3 -10  -8    1.40    1.50
  -3 -10   8    0.90    1.40
  -3 -10   8    1.00    1.40
  -3  10   8   -0.10    0.90
   3  10  -8    1.60    1.20
  -3  10   8    1.70    1.80
   2 -10  -8   28.50    3.10
   2 -10  -8   29.00    4.30
  -2 -10   8   25.40    3.80
  -2  10   8   21.70    3.50
   2  10  -8   26.10    3.60
  -2  10   8   31.10    2.60
  -1 -10   8   13.00    2.60
   1 -10  -8   14.60    3.00
   1 -10  -8   11.80    2.20
  -1 -10   8   15.60    3.50
  -1  10   8   13.90    2.80
   1  10  -8   13.00    2.60
   0 -10   8   16.90    2.60
   0 -10  -8   25.30    2.90
   0  10  -8   22.80    3.20
   0  10   8   19.20    2.80
   2 -11  -8    4.30    1.80
  -2 -11   8    5.10    1.60
   2 -11  -8    4.50    1.60
  -2  11   8   10.40    3.20
   2  11  -8    6.20    1.50
  -7   0   9    1.40    1.20
   7   0  -9    1.80    1.00
   7   0  -9    1.00    1.00
   6   0  -9    1.30    1.30
  -6   0   9    0.30    1.20
  -6   0   9    2.30    2.00
   6   0  -9    1.40    1.60
   5   0  -9   -0.10    1.40
   5   0  -9    1.40    1.40
   5   0  -9   -0.90    1.20
  -5   0   9   -0.50    1.40
   4   0  -9    0.70    1.50
  -4   0   9    0.00    3.00
  -4   0   9    1.40    1.80
  -4   0   9   -0.70    1.20
   4   0  -9    1.10    1.70
  -3   0   9    1.80    1.70
  -3   0   9    3.30    2.40
  -3   0   9    1.20    2.90
  -3   0   9   -1.40    2.90
   3   0  -9    1.40    1.90
  -2   0   9    2.60    3.90
  -2   0   9   11.40    2.60
   2   0  -9   15.10    2.90
  -2   0   9    9.60    3.20
   2   0  -9    9.60    2.70
  -2   0   9   20.70    4.10
  -1   0   9   35.70    5.00
   1   0  -9   27.80    4.90
   1   0  -9   40.90    5.00
  -1   0   9   33.60    5.90
   0   0  -9    0.00    1.50
   0   0  -9   -0.90    1.30
   0   0  -9    0.80    1.30
   0   0   9    0.80    1.90
   0   0   9   -1.10    1.20
  -1   0  -9    3.00    1.50
  -1   0  -9    0.50    1.30
  -1   0  -9    1.60    3.00
   2   0   9    7.60    1.80
  -2   0  -9   13.00    2.10
  -2   0  -9   12.30    2.80
  -3   0  -9   12.40    2.20
  -7  -1   9  152.18    6.20
   7  -1  -9  151.78    5.80
   7  -1  -9  151.98    6.50
   7   1  -9  144.19    6.10
   7   1  -9  143.39    6.30
  -7   1   9  143.79    5.90
  -6  -1   9    0.10    1.10
   6  -1  -9    0.50    1.40
   6  -1  -9    0.40    1.10
  -6  -1   9    0.00    1.80
   6   1  -9    0.00    1.20
  -6   1   9   -0.50    1.20
  -6   1   9    1.00    1.60
   6   1  -9    0.90    1.40
   5  -1  -9   81.09    6.20
   5  -1  -9   86.09    5.40
  -5  -1   9   75.39    6.20
   5  -1  -9   84.49    5.40
  -5   1   9   79.89    6.50
   5   1  -9   76.99    4.80
   5   1  -9   87.19    5.80
   5   1  -9   75.19    6.10
  -4  -1   9   37.00    8.40
   4  -1  -9   27.60    3.50
   4  -1  -9   27.60    4.20
  -4  -1   9   30.70    4.90
  -4  -1   9   33.50    4.50
  -4   1   9   29.60    5.00
  -4   1   9   29.10    4.00
   4   1  -9   26.70    3.80
   4   1  -9   40.00    5.40
   3  -1  -9  277.57   10.50
   3  -1  -9  280.17   13.00
  -3  -1   9  307.37   14.00
  -3  -1   9  288.77   11.50
  -3  -1   9  296.17   15.10
  -3   1   9  292.17   15.50
   3   1  -9  302.87   13.20
   3   1  -9  273.27   11.10
  -3   1   9  309.37   13.90
  -3   1   9  285.87   15.20
  -3   1   9  286.47   11.30
   2  -1  -9  107.59    7.90
   2  -1  -9  110.99    6.80
  -2  -1   9  107.59    7.90
  -2  -1   9  103.79    8.50
  -2  -1   9  119.79   11.30
  -2  -1   9  108.39    6.30
   2   1  -9  100.29    7.50
  -2   1   9   99.89    7.60
   2   1  -9   96.59    6.10
  -2   1   9   97.99    8.40
  -2   1   9  103.99    6.00
   1  -1  -9  145.29    9.30
  -1  -1   9  137.89    8.80
   1  -1  -9  136.29    8.00
  -1  -1   9  147.69   10.10
  -1   1   9  128.49    8.40
   1   1  -9  142.69    7.90
  -1   1   9  139.29    9.90
   1   1  -9  137.29    8.80
   0  -1   9    3.10    2.60
   0  -1  -9    1.90    1.50
   0  -1  -9    4.40    2.50
   0  -1   9    6.30    6.70
   0  -1  -9    3.80    1.70
   0  -1   9    2.60    1.70
   0   1  -9    1.40    1.40
   0   1   9    0.10    1.50
   0   1   9    4.10    2.00
   0   1  -9    0.00    1.60
  -1  -1  -9   11.00    2.60
  -1  -1  -9    4.70    4.90
  -1  -1  -9   12.90    2.30
   1  -1   9   10.70    3.00
  -1   1  -9   10.20    3.60
  -1   1  -9   13.70    2.20
   1   1   9   11.10    3.10
  -1   1  -9    9.40    2.50
   2  -1   9    3.20    2.50
  -2  -1  -9   -0.70    1.10
  -2  -1  -9   -0.40    0.90
   2   1   9    2.20    1.60
  -2   1  -9    0.80    1.10
   2   1   9    1.90    1.40
  -7  -2   9   11.50    1.90
   7  -2  -9    8.90    1.50
   7  -2  -9    9.90    1.90
   7   2  -9   11.10    1.90
  -7   2   9   10.20    1.90
   7   2  -9    7.50    1.60
   6  -2  -9   35.20    3.40
  -6  -2   9   28.90    3.60
   6  -2  -9   25.30    4.00
  -6  -2   9   32.20    4.10
  -6   2   9   20.40    3.00
   6   2  -9   28.80    3.80
   6   2  -9   30.20    4.00
  -6   2   9   31.00    4.00
   5  -2  -9   20.30    3.50
  -5  -2   9   25.50    4.30
   5  -2  -9   18.90    3.20
  -5  -2   9   14.80    3.00
   5  -2  -9   15.10    2.50
  -5   2   9   23.60    4.20
   5   2  -9   16.50    3.60
   5   2  -9   15.90    2.60
  -5   2   9   13.50    2.80
   5   2  -9    9.40    2.60
   4  -2  -9  159.68    8.80
  -4  -2   9  129.19   10.00
  -4  -2   9  173.88    8.60
  -4  -2   9  152.88    9.40
   4   2  -9  160.98    8.60
  -4   2   9  168.88   11.50
  -4   2   9  155.38    9.60
   4   2  -9  160.48    8.40
  -4   2   9  157.38    8.00
  -3  -2   9  308.27   14.30
  -3  -2   9  312.97   16.00
  -3  -2   9  336.27   12.70
   3  -2  -9  313.07   14.00
  -3   2   9  332.87   12.20
   3   2  -9  323.77   13.70
  -3   2   9  334.87   14.70
   3   2  -9  330.07   15.50
  -3   2   9  311.07   16.20
  -2  -2   9   81.29   10.10
   2  -2  -9   85.59    5.90
  -2  -2   9   85.89    7.10
   2  -2  -9   91.39    7.30
  -2  -2   9   93.49    8.30
  -2  -2   9   78.89    5.50
   2   2  -9   88.39    7.00
   2   2  -9   74.59    5.40
  -2   2   9   84.39    6.80
  -2   2   9   58.39    7.50
  -2   2   9   82.99    5.10
   2   2  -9   82.79    5.70
  -1  -2   9  409.36   18.80
   1  -2  -9  428.36   17.30
   1   2  -9  390.76   17.10
  -1   2   9  421.06   18.20
   0  -2  -9   81.49    6.10
   0  -2  -9   71.49    7.80
   0  -2   9   71.89    5.80
   0  -2   9   84.79    7.30
   0   2   9   79.49    5.70
   0   2  -9   79.59    6.60
   0   2   9   69.99    5.00
   0   2   9   55.39    6.50
   0   2  -9   76.59    5.80
  -1  -2  -9    7.00    1.90
   1  -2   9    6.00    2.90
  -1  -2  -9    6.50    2.10
  -1  -2  -9    8.60    3.90
  -1   2  -9    4.00    1.80
  -1   2  -9    7.10    5.00
   1   2   9    7.50    2.50
  -1   2  -9    6.80    1.80
   1   2   9   10.10    2.50
  -2  -2  -9   16.40    3.20
  -2  -2  -9   21.50    3.20
   2  -2   9   17.60    3.30
  -2   2  -9   20.40    2.40
   2   2   9   17.40    2.60
   2   2   9   17.90    3.00
  -2   2  -9   18.30    2.80
   7  -3  -9    4.80    1.70
  -7  -3   9    4.10    1.50
   7   3  -9    5.40    1.40
   7   3  -9    3.30    1.20
  -7   3   9    3.70    1.30
  -6  -3   9    5.00    3.20
   6  -3  -9    4.50    1.70
  -6  -3   9    5.40    1.90
   6  -3  -9    3.20    1.80
  -6   3   9    1.80    1.70
  -6   3   9    3.50    1.50
   6   3  -9    7.80    2.30
   6   3  -9    2.00    1.40
   5  -3  -9   33.40    4.10
  -5  -3   9   28.90    4.00
   5  -3  -9   29.20    4.10
  -5  -3   9   38.20    4.80
   5   3  -9   30.80    4.50
   5   3  -9   29.10    3.90
  -5   3   9   33.70    5.00
  -5   3   9   30.20    3.80
   5   3  -9   33.00    2.80
  -4  -3   9   13.20    4.00
   4  -3  -9   13.60    3.00
  -4  -3   9   13.40    3.30
   4  -3  -9   11.00    2.70
  -4  -3   9   10.80    2.60
  -4   3   9   16.90    2.90
   4   3  -9   15.70    3.20
   4   3  -9   14.60    3.10
  -4   3   9   10.30    3.00
  -3  -3   9  415.96   14.90
  -3  -3   9  432.76   17.50
  -3  -3   9  411.16   21.50
   3  -3  -9  446.46   17.10
   3  -3  -9  406.86   13.50
  -3   3   9  431.56   14.10
   3   3  -9  436.46   16.80
  -3   3   9  424.76   17.20
  -3   3   9  442.16   18.20
   3   3  -9  425.06   15.20
  -2  -3   9  298.57   15.40
  -2  -3   9  250.47   15.60
  -2  -3   9  270.77   10.70
  -2  -3   9  271.47   16.30
  -2   3   9  305.57   16.10
  -2   3   9  264.47    9.60
   2   3  -9  277.37   12.10
   1  -3  -9  169.98    9.00
  -1  -3   9  177.38   11.10
  -1  -3   9  177.78    9.90
   1  -3  -9  177.38   10.30
  -1   3   9  170.58   10.90
   1   3  -9  181.88    8.80
   1   3  -9  168.58    9.90
  -1   3   9  188.78    9.70
   0  -3  -9  257.07    9.30
   0  -3  -9  272.17   12.90
   0  -3   9  268.27   13.60
   0  -3  -9  282.07   12.00
   0  -3   9  277.57   11.90
   0   3  -9  284.67   13.10
   0   3   9  272.97   10.60
   0   3  -9  289.27   11.70
   0   3   9  281.37   13.80
  -1  -3  -9    5.30    2.00
   1  -3   9    2.60    1.90
  -1  -3  -9    7.00    1.80
  -1   3  -9    5.80    2.70
   1   3   9    3.60    1.60
  -1   3  -9    2.50    1.40
  -2  -3  -9    5.90    1.60
  -2  -3  -9    4.90    1.60
   2  -3   9    3.00    1.80
   2   3   9    2.90    1.50
   2   3   9    5.50    2.00
  -2   3  -9    5.50    1.60
  -6  -4   9    3.90    2.20
   6  -4  -9    3.00    1.40
  -6  -4   9    3.80    1.80
  -6   4   9    3.40    1.40
   6   4  -9    3.20    1.60
  -6   4   9    3.50    1.70
   6   4  -9    2.50    1.40
   5  -4  -9    9.00    2.20
  -5  -4   9    6.60    2.60
   5  -4  -9    3.70    1.80
  -5  -4   9    6.80    2.10
   5   4  -9    4.70    2.10
  -5   4   9    7.70    2.20
  -5   4   9    6.00    1.90
   5   4  -9    7.00    2.20
  -4  -4   9   20.40    3.90
   4  -4  -9   16.30    3.40
   4  -4  -9   22.30    3.60
  -4  -4   9   16.60    3.40
   4   4  -9   10.60    2.50
   4   4  -9   15.30    3.10
  -4   4   9   10.70    2.80
  -3  -4   9  100.89    7.70
   3  -4  -9   97.49    5.60
   3  -4  -9  101.39    7.30
  -3  -4   9   82.69    5.80
  -3  -4   9   95.29    9.90
  -3   4   9   91.89    5.50
  -3   4   9  100.69    7.60
   3   4  -9   90.99    6.70
  -3   4   9   93.79    8.10
   3   4  -9   96.19    6.40
   2  -4  -9  815.62   25.90
   2  -4  -9  814.42   23.60
  -2  -4   9  774.12   26.80
  -2  -4   9  819.52   22.70
  -2  -4   9  835.72   26.30
  -2   4   9  785.52   26.90
  -2   4   9  821.12   25.60
   2   4  -9  781.12   21.50
   2   4  -9  808.62   25.60
   1  -4  -9   96.39    6.60
   1  -4  -9   80.49    6.90
  -1  -4   9   94.99    7.10
  -1  -4   9  116.89    8.60
  -1   4   9   90.29    6.40
   1   4  -9   88.19    5.80
   1   4  -9   94.79    7.40
   0  -4  -9   37.00    4.60
   0  -4  -9   31.00    3.30
   0  -4  -9   44.40    6.30
   0  -4   9   37.00    4.60
   0   4  -9   28.90    3.70
   0   4  -9   42.70    6.20
   0   4   9   39.40    3.80
   0   4   9   28.70    4.70
  -1  -4  -9    5.00    1.70
   1  -4   9    2.40    2.00
  -1  -4  -9    2.50    1.60
   1   4   9    2.40    1.80
  -1   4  -9    0.80    1.20
  -1   4  -9    4.30    2.60
  -2  -4  -9  170.08    7.60
   2  -4   9  175.38    8.10
  -2  -4  -9  164.88    6.20
  -2   4  -9  164.68    7.30
   2   4   9  166.98    6.00
   2   4   9  175.08    7.20
   6  -5  -9   96.69    5.10
  -6  -5   9  102.39    5.30
  -6   5   9  103.19    5.00
  -6   5   9  102.49    5.70
   6   5  -9  111.99    5.20
   6   5  -9  120.59    6.00
  -5  -5   9   55.09    5.20
   5  -5  -9   55.39    4.00
   5  -5  -9   65.89    4.70
  -5  -5   9   59.59    5.60
  -5   5   9   55.79    4.10
   5   5  -9   68.19    5.20
  -5   5   9   57.69    6.00
  -4  -5   9  458.05   17.30
   4  -5  -9  477.45   16.70
   4  -5  -9  464.35   14.80
  -4  -5   9  467.95   15.60
  -4   5   9  493.75   14.70
   4   5  -9  474.55   15.40
  -4   5   9  465.45   17.30
   4   5  -9  472.05   16.40
   3  -5  -9  339.57   11.40
   3  -5  -9  342.37   14.30
  -3  -5   9  325.67   14.40
   3  -5  -9  337.37   11.90
  -3  -5   9  325.87   13.80
   3   5  -9  338.17   13.20
  -3   5   9  351.56   14.50
  -3   5   9  331.27   15.10
   3   5  -9  353.66   13.70
  -3   5   9  329.87   10.90
   2  -5  -9   92.59    6.10
  -2  -5   9   88.89    7.80
   2  -5  -9   93.59    7.30
  -2  -5   9   94.49    7.40
   2   5  -9   90.69    7.00
  -2   5   9   88.49    6.70
  -2   5   9   87.49    7.60
  -1  -5   9  181.18    9.90
   1  -5  -9  177.28   10.00
  -1  -5   9  158.18   10.00
   1  -5  -9  183.48    9.10
   1   5  -9  175.48   10.00
   1   5  -9  171.78    7.90
  -1   5   9  176.48    8.70
  -1   5   9  167.28   10.30
   0  -5  -9   62.29    5.10
   0  -5  -9   49.99    4.00
   0  -5   9   57.09    4.90
   0  -5   9   33.90    4.80
   0   5  -9   63.99    5.70
   0   5   9   67.49    7.80
   0   5  -9   60.49    4.70
   1  -5   9   19.20    4.10
  -1  -5  -9   28.10    4.00
   1   5   9   25.80    4.80
  -1   5  -9   29.40    4.30
  -1   5  -9   26.60    3.60
   2  -5   9   74.19    4.90
  -2  -5  -9   70.19    4.40
  -2   5  -9   77.39    4.50
   2   5   9   62.89    3.90
  -6  -6   9  351.16   10.70
  -6   6   9  370.76   13.30
  -6   6   9  345.47    9.90
   6   6  -9  339.97   11.20
   6   6  -9  310.27   11.20
  -5  -6   9    7.50    2.30
   5  -6  -9    6.80    2.00
  -5  -6   9    6.20    1.90
   5   6  -9    4.90    1.70
   5   6  -9    4.90    1.80
  -5   6   9    6.40    1.70
  -5   6   9    4.20    1.80
   4  -6  -9  283.47   11.70
  -4  -6   9  293.17   11.00
  -4  -6   9  290.37   12.50
   4   6  -9  296.27   12.00
   4   6  -9  300.57   10.60
  -4   6   9  287.27    9.60
  -4   6   9  282.07   12.20
  -3  -6   9    5.70    2.50
   3  -6  -9   10.00    3.70
   3  -6  -9    4.30    2.30
  -3  -6   9    2.50    1.60
   3   6  -9    7.20    2.50
  -3   6   9    5.80    3.10
  -3   6   9    2.60    1.70
  -2  -6   9   34.50    8.20
  -2  -6   9   22.50    3.20
   2  -6  -9   26.90    3.70
   2  -6  -9   17.60    3.80
  -2  -6   9   15.40    4.20
  -2   6   9   14.00    3.40
  -2   6   9   21.20    3.60
   2   6  -9   28.90    4.50
   1  -6  -9   13.50    3.30
   1  -6  -9   10.80    2.40
  -1  -6   9    5.80    2.10
  -1  -6   9   10.40    3.20
  -1   6   9    7.40    2.10
  -1   6   9    8.60    2.80
   1   6  -9    7.80    1.90
   1   6  -9    9.40    3.20
   0  -6   9  146.59    8.80
   0  -6  -9  131.69    8.10
   0  -6   9  134.29    7.50
   0  -6  -9  131.59    7.30
   0   6  -9  134.19    8.20
   0   6   9  132.49    8.20
   0   6  -9  142.19    6.80
  -1  -6  -9   11.70    2.10
   1  -6   9   26.60    4.30
  -1  -6  -9   14.20    2.50
  -1   6  -9   15.60    3.30
   1   6   9   15.60    2.90
  -1   6  -9   18.40    2.60
   5  -7  -9    0.30    1.00
  -5  -7   9   -0.60    1.50
  -5  -7   9    0.90    1.10
   5   7  -9    1.40    1.40
   5   7  -9   -0.10    1.10
  -5   7   9    0.00    1.20
  -5   7   9    2.00    1.40
  -4  -7   9   24.60    3.30
  -4  -7   9   19.60    3.30
   4   7  -9   25.80    3.20
  -4   7   9   30.20    5.40
   4   7  -9   25.30    4.00
   4   7  -9   25.90    3.00
  -4   7   9   22.20    2.60
   3  -7  -9   15.10    3.10
  -3  -7   9   15.10    2.60
   3  -7  -9   12.10    2.30
  -3  -7   9   14.20    3.00
  -3   7   9   14.90    3.50
  -3   7   9   11.90    2.70
   3   7  -9   12.60    2.70
  -2  -7   9   14.20    3.20
  -2  -7   9   18.50    2.90
   2  -7  -9   14.20    3.00
  -2  -7   9   13.70    3.50
   2  -7  -9   18.80    2.90
  -2   7   9   16.70    2.80
  -2   7   9   18.20    3.70
   2   7  -9   18.10    3.40
  -1  -7   9    0.10    1.20
   1  -7  -9   -2.20    1.30
   1  -7  -9    0.60    1.30
  -1  -7   9    0.30    2.00
   1   7  -9    1.60    1.70
   1   7  -9    1.50    1.20
  -1   7   9   -0.10    1.20
  -1   7   9    1.40    2.00
   0  -7   9   38.30    3.80
   0  -7   9   33.50    4.60
   0  -7  -9   42.50    4.40
   0   7  -9   39.30    4.80
   0   7   9   29.40    3.90
   0   7  -9   39.10    3.20
   1  -7   9  133.49    7.20
  -1  -7  -9  133.99    6.40
  -1   7  -9  131.39    5.70
   1   7   9  136.09    6.40
  -1   7  -9  120.59    6.40
  -5  -8   9   -0.70    1.30
  -5  -8   9    0.60    1.20
  -5   8   9   -0.30    0.80
   5   8  -9    0.40    0.90
  -4  -8   9   -0.40    1.20
   4  -8  -9    0.70    1.10
  -4  -8   9    0.00    1.20
   4   8  -9   -0.30    1.00
  -4   8   9    0.30    1.00
  -3  -8   9   45.60    5.10
   3  -8  -9   42.40    5.10
   3   8  -9   44.20    3.70
   3   8  -9   36.80    4.00
  -3   8   9   54.79    4.30
  -3   8   9   40.50    5.10
   2  -8  -9    1.10    1.30
  -2  -8   9    1.30    1.70
   2  -8  -9    1.00    1.50
  -2   8   9    0.90    1.60
   2   8  -9    0.00    1.20
  -2   8   9    0.80    1.10
   1  -8  -9   22.10    3.70
  -1  -8   9   15.10    2.80
  -1  -8   9   19.50    3.10
   1  -8  -9   18.80    2.80
   1   8  -9   18.40    2.90
  -1   8   9   21.10    3.80
   0  -8  -9    8.20    2.00
   0  -8   9    2.10    1.40
   0  -8   9    7.20    2.30
   0   8   9    8.40    2.20
   0   8  -9    6.50    2.10
   0   8  -9    4.40    1.20
  -4  -9   9   31.10    3.40
  -4  -9   9   29.70    3.20
   4  -9  -9   33.30    3.60
   4   9  -9   28.00    2.90
  -4   9   9   23.10    2.60
   3  -9  -9    5.00    1.70
  -3  -9   9    4.40    1.50
  -3   9   9    7.50    1.80
   3   9  -9    5.20    1.50
  -3   9   9    3.60    1.80
   3   9  -9    2.60    1.40
   2  -9  -9    3.80    1.70
   2  -9  -9    3.70    2.20
  -2  -9   9    4.30    1.60
  -2   9   9    4.10    1.30
   2   9  -9    6.50    1.80
  -2   9   9    3.60    1.80
  -1  -9   9   13.50    2.70
   1  -9  -9   20.90    2.60
  -1  -9   9   21.10    2.90
   1  -9  -9   23.50    3.20
   1   9  -9   24.10    3.50
  -1   9   9   25.30    3.70
  -6   0  10    0.30    1.20
  -6   0  10    0.20    2.20
   6   0 -10    0.70    1.30
   6   0 -10    0.30    1.00
   5   0 -10   35.40    3.40
   5   0 -10   38.60    4.60
  -5   0  10   41.70    6.30
  -5   0  10   36.20    4.10
   5   0 -10   44.10    4.80
  -4   0  10   10.60    2.40
  -4   0  10    6.20    2.50
   4   0 -10    6.10    2.40
  -3   0  10  163.88    7.50
  -3   0  10  139.19   10.10
   3   0 -10  147.89    9.20
  -3   0  10  158.78    9.30
  -2   0  10   26.00    4.30
  -2   0  10   34.20    5.80
   2   0 -10   26.70    5.10
   2   0 -10   33.70    3.80
  -1   0  10    0.50    1.90
  -1   0  10    1.70    1.80
   1   0 -10    0.00    1.10
   1   0 -10   -0.20    1.50
   0   0  10    2.30    1.70
   0   0 -10    1.60    1.30
   0   0 -10    0.30    1.80
   0   0  10    4.60    2.40
  -1   0 -10   -1.80    2.20
   1   0  10    1.00    1.50
   1   0  10   -0.90    0.90
  -1   0 -10    0.20    0.90
  -6  -1  10    4.30    1.60
   6  -1 -10    1.50    1.30
  -6  -1  10    3.60    1.90
  -6   1  10    1.80    1.50
   6   1 -10    1.10    1.30
   6   1 -10    0.80    1.20
  -6   1  10    0.60    1.20
   5  -1 -10   35.60    4.80
  -5  -1  10   26.00    3.40
   5  -1 -10   21.40    3.60
  -5  -1  10   26.00    4.00
   5   1 -10   26.90    3.10
  -5   1  10   29.30    5.30
   5   1 -10   25.10    3.80
  -5   1  10   22.10    3.20
   5   1 -10   26.60    3.20
   4  -1 -10    2.70    2.00
  -4  -1  10    0.40    1.50
  -4  -1  10    0.90    1.40
  -4   1  10   -0.80    1.50
   4   1 -10    1.60    1.60
   4   1 -10    1.40    1.60
  -4   1  10    0.00    1.30
  -3  -1  10  141.19    7.00
   3  -1 -10  150.28    8.80
  -3  -1  10  154.78    9.20
  -3  -1  10  150.28   11.30
   3   1 -10  146.59    8.70
  -3   1  10  144.89    8.80
  -3   1  10  145.19    6.90
  -2  -1  10   20.30    3.90
   2  -1 -10   19.40    3.00
  -2  -1  10   15.80    3.80
   2  -1 -10   20.70    4.00
  -2   1  10   30.80    6.00
   2   1 -10   15.00    2.40
   2   1 -10   23.00    4.60
  -2   1  10   22.80    4.10
  -1  -1  10   10.50    3.40
   1  -1 -10    4.60    1.70
   1  -1 -10    4.90    2.10
  -1  -1  10    3.20    1.80
   1   1 -10    4.30    1.80
  -1   1  10    3.50    1.90
   1   1 -10    6.30    2.40
  -1   1  10   10.70    3.60
   0  -1  10   34.00    3.50
   0  -1 -10   40.50    4.30
   0  -1 -10   39.20    5.20
   0  -1  10   29.60    4.30
   0   1  10   40.80    3.30
   0   1 -10   44.00    6.00
   0   1 -10   42.80    4.40
   0   1  10   45.40    3.60
   0   1  10   43.60    5.80
   1  -1  10    6.50    2.10
  -1  -1 -10    4.90    1.60
   1   1  10    6.00    2.10
  -1   1 -10    5.20    1.60
  -1   1 -10    8.20    2.80
   1   1  10    6.20    1.60
   6  -2 -10   15.90    2.50
  -6  -2  10   11.10    2.00
  -6  -2  10   14.10    2.40
  -6   2  10   13.00    2.00
  -6   2  10   12.00    2.40
   6   2 -10   11.80    2.20
   6   2 -10   15.90    2.20
   5  -2 -10  128.29    6.20
   5  -2 -10  139.89    8.00
  -5  -2  10  126.59    7.40
  -5  -2  10  128.19    6.50
   5   2 -10  140.39    7.40
   5   2 -10  118.59    6.00
   5   2 -10  128.69    5.20
  -5   2  10  128.59    6.30
  -5   2  10  129.59    7.50
  -4  -2  10  115.59    7.70
   4  -2 -10  107.59    6.70
  -4  -2  10  106.19    6.20
  -4   2  10   96.49    5.60
   4   2 -10   99.99    6.30
   4   2 -10   98.19    7.40
  -4   2  10  118.19    7.60
  -3  -2  10   13.80    3.30
  -3  -2  10   19.50    3.10
   3  -2 -10   21.20    4.20
   3   2 -10   18.40    4.60
   3   2 -10   18.10    5.20
  -3   2  10    9.90    2.20
  -3   2  10    8.90    2.60
  -3   2  10   11.90    4.10
  -2  -2  10  252.57   11.90
  -2  -2  10  236.48   12.80
   2  -2 -10  251.77   11.90
   2  -2 -10  250.87    9.80
  -2  -2  10  216.08    9.50
   2   2 -10  233.58    8.90
  -2   2  10  248.08   12.60
   2   2 -10  244.58   11.70
  -2   2  10  249.28   11.50
   1  -2 -10    4.60    2.50
  -1  -2  10    2.80    2.00
   1  -2 -10    6.80    2.10
  -1  -2  10    0.60    1.50
  -1   2  10    2.40    1.70
  -1   2  10    2.50    2.30
   1   2 -10    4.20    1.70
   1   2 -10    2.00    1.70
   0  -2  10    7.80    1.90
   0  -2 -10    7.30    2.00
   0  -2 -10    7.80    2.60
   0  -2  10   10.70    3.10
   0   2  10   13.00    3.50
   0   2 -10   11.00    3.00
   0   2 -10    7.90    2.00
  -1  -2 -10   47.20    3.90
   1  -2  10   47.00    5.20
  -1   2 -10   43.40    4.60
  -1   2 -10   51.69    3.80
   1   2  10   46.00    4.20
   1   2  10   39.30    3.00
   6  -3 -10   56.39    3.50
  -6  -3  10   52.39    3.60
  -6  -3  10   53.59    4.20
  -6   3  10   51.79    4.20
   6   3 -10   52.69    3.50
   6   3 -10   57.39    4.00
  -6   3  10   54.99    3.50
  -5  -3  10   32.50    4.10
  -5  -3  10   18.30    2.90
   5  -3 -10   24.80    3.20
   5  -3 -10   24.80    3.30
   5   3 -10   36.20    4.40
   5   3 -10   25.90    3.00
  -5   3  10   25.90    3.10
  -5   3  10   23.60    3.50
   4  -3 -10    5.10    2.00
   4  -3 -10    0.40    1.40
  -4  -3  10    0.50    1.40
  -4  -3  10    1.00    1.60
  -4   3  10    0.80    1.20
   4   3 -10    1.70    1.60
  -4   3  10    2.90    1.90
   4   3 -10    2.10    1.60
   3  -3 -10  293.17   12.60
  -3  -3  10  315.17   13.30
  -3  -3  10  295.87   10.80
   3   3 -10  296.07   12.40
  -3   3  10  315.17   13.20
   3   3 -10  305.37   14.00
  -3   3  10  269.67    9.60
  -2  -3  10    6.10    2.80
  -2  -3  10    5.60    3.30
  -2  -3  10    6.10    2.40
   2  -3 -10    7.20    2.00
   2  -3 -10    6.50    2.60
  -2   3  10    4.80    2.20
   2   3 -10    7.70    2.30
   2   3 -10    6.30    2.40
  -2   3  10    9.50    2.80
  -1  -3  10    7.90    2.80
   1  -3 -10    7.20    2.10
   1  -3 -10    5.00    2.20
  -1  -3  10    3.60    1.80
   1   3 -10    8.30    2.70
  -1   3  10    9.00    2.20
   1   3 -10    6.50    1.90
  -1   3  10    9.40    3.50
   0  -3  10   34.80    3.50
   0  -3 -10   35.70    4.10
   0  -3 -10   39.90    5.20
   0   3 -10   34.30    4.50
   0   3  10   33.70    4.80
   0   3 -10   34.20    4.80
   1  -3  10    0.60    1.40
  -1  -3 -10    1.50    1.30
  -1   3 -10    0.10    1.80
   1   3  10   -0.50    1.10
  -1   3 -10    0.20    0.90
  -6  -4  10  121.59    5.30
   6  -4 -10  104.59    4.40
  -6   4  10  115.19    4.90
   6   4 -10  115.69    5.60
   6   4 -10  116.79    5.50
  -6   4  10  112.09    5.50
   5  -4 -10  310.27   10.30
  -5  -4  10  292.27   11.30
  -5  -4  10  299.77   10.40
   5  -4 -10  299.37    9.90
   5   4 -10  309.07   11.00
  -5   4  10  299.37   11.60
   5   4 -10  304.57   10.60
  -5   4  10  282.67    9.80
   4  -4 -10   31.70    3.60
   4  -4 -10   33.10    4.40
  -4  -4  10   28.20    4.10
  -4  -4  10   26.20    3.50
  -4   4  10   32.90    4.30
   4   4 -10   31.20    3.60
   4   4 -10   33.30    4.10
  -4   4  10   32.50    3.30
  -3  -4  10  411.46   15.50
   3  -4 -10  396.66   13.00
   3  -4 -10  396.16   15.20
  -3  -4  10  391.16   12.80
   3   4 -10  388.46   14.40
   3   4 -10  395.76   13.80
  -3   4  10  400.76   15.10
  -3   4  10  401.86   16.30
   2  -4 -10   61.39    5.40
   2  -4 -10   53.49    4.20
  -2  -4  10   43.60    5.10
  -2  -4  10   63.79    7.80
  -2   4  10   48.00    5.10
   2   4 -10   53.99    4.10
  -2   4  10   53.49    6.30
   2   4 -10   47.20    5.40
   1  -4 -10   49.00    8.50
   1  -4 -10   31.10    3.80
  -1  -4  10   32.90    4.20
  -1   4  10   35.10    3.90
  -1   4  10   24.80    3.90
   1   4 -10   37.70    3.20
   1   4 -10   36.10    5.00
   0  -4  10   42.60    3.40
   0  -4 -10   51.19    5.70
   0  -4 -10   33.50    3.80
   0  -4  10   38.10    4.90
   0   4  10   44.00    5.50
   0   4 -10   43.50    3.60
   0   4 -10   43.60    4.90
   1  -4  10   36.90    4.30
  -1  -4 -10   23.40    2.90
  -1   4 -10   36.30    4.30
  -1   4 -10   27.00    2.80
   1   4  10   38.40    3.50
  -5  -5  10    6.60    1.90
   5  -5 -10    6.30    1.90
  -5  -5  10    9.40    1.90
   5  -5 -10    7.90    1.80
   5   5 -10    9.00    1.90
  -5   5  10    8.90    1.70
   5   5 -10    7.00    1.80
  -5   5  10    7.10    2.00
  -4  -5  10   94.89    6.40
  -4  -5  10  102.69    5.60
   4  -5 -10   97.39    5.10
   4  -5 -10  102.39    6.20
   4   5 -10  103.79    5.80
  -4   5  10  101.99    6.40
  -4   5  10   89.49    4.50
   4   5 -10  101.79    5.40
   3  -5 -10   33.70    4.30
  -3  -5  10   35.90    4.70
  -3  -5  10   40.70    4.00
   3   5 -10   32.40    4.30
   3   5 -10   37.10    3.90
  -3   5  10   31.50    5.00
  -3   5  10   35.90    4.50
   2  -5 -10    1.80    1.30
  -2  -5  10   -0.80    2.40
  -2  -5  10    1.20    1.50
   2  -5 -10    1.70    1.70
   2   5 -10   -0.90    1.20
  -2   5  10    0.60    1.80
  -2   5  10   -0.40    1.10
   2   5 -10   -0.60    1.20
  -1  -5  10   14.10    3.50
   1  -5 -10   15.20    3.30
   1  -5 -10   13.30    2.50
  -1  -5  10   12.70    2.60
  -1   5  10   14.60    2.20
  -1   5  10    9.50    2.60
   1   5 -10   14.70    3.00
   1   5 -10   14.40    3.00
   1   5 -10   10.70    1.80
   0  -5  10   32.60    4.00
   0  -5 -10   37.70    4.60
   0  -5 -10   38.10    3.90
   0  -5  10   35.10    3.00
   0   5  10   43.70    5.20
   0   5 -10   39.10    3.10
   0   5 -10   37.90    4.60
  -1  -5 -10   14.70    2.20
   1  -5  10   17.40    2.60
  -1   5 -10   10.80    1.90
   1   5  10   12.50    2.20
  -1   5 -10    8.20    2.30
  -5  -6  10   40.10    3.50
   5  -6 -10   41.60    3.00
  -5  -6  10   40.90    3.50
   5   6 -10   43.20    3.00
  -5   6  10   42.60    3.50
   5   6 -10   48.00    3.40
   4  -6 -10   45.70    4.00
  -4  -6  10   39.40    3.80
  -4  -6  10   42.00    4.40
   4   6 -10   40.40    3.00
   4   6 -10   41.70    3.50
   4   6 -10   45.40    3.60
  -4   6  10   38.30    4.00
  -3  -6  10   28.80    4.00
  -3  -6  10   34.90    3.40
   3  -6 -10   38.20    4.70
  -3   6  10   36.50    4.90
  -3   6  10   48.70    4.10
   3   6 -10   38.50    4.30
   3   6 -10   34.50    3.60
   2  -6 -10   31.70    4.50
  -2  -6  10   35.10    4.00
   2  -6 -10   31.10    3.10
  -2  -6  10   32.80    6.20
  -2   6  10   31.40    3.60
   2   6 -10   32.00    3.30
   2   6 -10   37.70    4.30
  -2   6  10   37.70    4.90
  -1  -6  10   36.00    4.70
  -1  -6  10   49.40    4.10
   1  -6 -10   59.89    4.80
   1  -6 -10   55.89    4.10
  -1   6  10   40.50    4.70
   1   6 -10   48.30    4.30
   1   6 -10   50.69    3.40
   0  -6 -10   30.90    3.30
   0  -6 -10   27.90    4.50
   0  -6  10   27.30    4.00
   0   6 -10   28.70    3.70
   0   6  10   26.20    3.50
   0   6 -10   27.50    2.20
   4  -7 -10   30.90    3.40
  -4  -7  10   31.90    3.10
  -4  -7  10   33.60    3.50
   4   7 -10   32.10    2.50
   4   7 -10   34.10    2.90
  -4   7  10   37.00    3.20
   3  -7 -10   15.90    2.70
  -3  -7  10   19.30    4.30
  -3  -7  10   22.00    3.20
  -3   7  10   23.00    2.90
   3   7 -10   23.60    2.90
  -3   7  10   16.00    3.10
   3   7 -10   19.60    2.60
  -2  -7  10    4.40    3.20
  -2  -7  10    1.80    1.40
   2  -7 -10    1.60    1.40
   2  -7 -10    1.60    1.40
   2   7 -10    2.20    1.40
  -2   7  10   -1.50    1.30
  -2   7  10    0.30    1.00
   2   7 -10    2.00    1.30
   1  -7 -10   14.00    2.10
  -1  -7  10    6.70    1.90
   1  -7 -10   11.20    2.70
  -1  -7  10    8.20    1.80
   1   7 -10   17.00    2.90
   1   7 -10   11.70    1.80
  -1   7  10   11.30    2.80
   3  -8 -10   14.10    2.50
  -3  -8  10   12.90    2.00
   3   8 -10   14.60    2.10
  -3   8  10   10.70    1.60
  -3   8  10   15.10    2.60
  -2  -8  10    1.80    1.20
   2  -8 -10    4.60    1.60
  -2   8  10    0.40    1.30
   2   8 -10    1.80    1.10
   2   8 -10    1.50    1.10
   5   0 -11    3.90    1.20
  -5   0  11    2.10    1.40
  -5   0  11    1.50    1.30
   5   0 -11    4.70    1.60
  -4   0  11    7.70    2.00
   4   0 -11    8.60    2.20
  -4   0  11   11.50    2.40
   3   0 -11    2.10    2.00
  -3   0  11    0.00    1.20
   2   0 -11    3.10    2.10
  -2   0  11    3.40    1.50
   2   0 -11    3.30    1.90
  -2   0  11    3.00    1.70
  -1   0  11   -0.10    1.50
  -1   0  11    3.10    1.40
   1   0 -11    1.10    1.00
   1   0 -11    2.50    1.70
   0   0  11    8.10    2.10
   0   0 -11    9.90    1.70
   0   0 -11   10.40    2.30
  -5  -1  11    6.80    1.70
   5  -1 -11   10.70    2.10
  -5  -1  11    6.40    1.80
   5   1 -11   10.10    2.10
  -5   1  11    9.40    1.90
  -5   1  11    8.70    2.10
   4  -1 -11   58.39    4.40
  -4  -1  11   59.89    3.90
   4  -1 -11   64.59    4.50
  -4  -1  11   62.19    5.00
  -4   1  11   63.69    5.00
   4   1 -11   69.39    4.60
  -4   1  11   57.89    3.70
  -3  -1  11   27.10    3.70
   3  -1 -11   22.80    3.30
  -3   1  11   25.90    4.70
  -3   1  11   24.30    3.60
   3   1 -11   25.70    3.80
   2  -1 -11   15.50    2.60
   2  -1 -11   23.10    4.00
  -2  -1  11   18.60    3.10
  -2  -1  11   20.00    4.10
  -2   1  11   16.20    2.90
   2   1 -11   15.10    2.70
  -1  -1  11   -0.10    1.60
   1  -1 -11    0.40    1.20
  -1  -1  11    1.20    1.20
   1  -1 -11   -0.10    0.90
   1   1 -11    0.60    1.00
  -1   1  11   -0.10    1.10
   1   1 -11    1.30    1.50
   0  -1 -11   87.39    5.30
   0  -1 -11   91.09    4.70
   0  -1  11   91.89    5.90
   0   1 -11   96.19    4.60
   0   1  11   94.09    5.80
   0   1 -11   91.79    5.30
  -5  -2  11  111.39    5.10
   5  -2 -11  116.99    5.40
  -5  -2  11  113.09    6.00
  -5   2  11  114.69    6.00
   5   2 -11  116.69    5.80
   4  -2 -11   10.40    2.40
  -4  -2  11    9.10    2.30
   4  -2 -11    8.70    2.00
  -4  -2  11   13.50    2.30
  -4   2  11    6.40    2.50
   4   2 -11   12.00    2.30
  -4   2  11   12.10    2.60
   3  -2 -11    0.80    1.30
  -3  -2  11    1.20    1.30
   3   2 -11    1.50    1.50
  -3   2  11    3.90    3.90
  -3   2  11    0.80    1.40
  -2  -2  11   23.30    3.70
  -2  -2  11   36.10    4.20
   2  -2 -11   41.20    4.90
   2  -2 -11   37.90    4.10
  -2   2  11   24.00    3.60
   2   2 -11   42.80    4.90
  -2   2  11   40.00    4.10
  -1  -2  11    4.50    2.10
   1  -2 -11    7.40    2.30
  -1  -2  11    8.00    1.80
   1  -2 -11    6.20    1.60
   1   2 -11    4.50    1.80
  -1   2  11    3.90    1.40
  -1   2  11    4.10    2.00
   1   2 -11    5.40    1.40
   0  -2  11    2.80    1.20
   0  -2  11   10.60    2.40
   0  -2 -11    7.20    1.50
   0   2 -11    6.60    1.90
   0   2 -11    6.30    2.00
   0   2  11    6.00    1.90
  -5  -3  11  175.68    7.60
   5  -3 -11  169.58    5.70
   5  -3 -11  169.38    6.10
  -5  -3  11  177.58    6.50
   5   3 -11  183.48    7.20
  -5   3  11  181.58    7.50
   4  -3 -11  362.16   12.10
   4  -3 -11  346.57   11.30
  -4  -3  11  360.36   12.80
  -4  -3  11  342.27   10.60
  -4   3  11  364.86   12.60
   4   3 -11  366.96   11.30
   3  -3 -11   32.70    4.00
   3  -3 -11   34.50    3.40
  -3  -3  11   28.10    3.60
  -3   3  11   43.70    5.80
  -3   3  11   37.00    4.00
   3   3 -11   35.80    4.20
   2  -3 -11   14.90    2.00
  -2  -3  11   23.90    4.80
   2  -3 -11   15.10    2.70
  -2  -3  11   18.90    3.00
  -2   3  11   13.80    3.10
   2   3 -11   15.60    3.20
  -2   3  11   17.50    2.60
  -1  -3  11   24.70    3.30
   1  -3 -11   30.50    4.10
  -1  -3  11   33.80    2.90
   1  -3 -11   28.80    2.90
  -1   3  11   32.70    4.20
   1   3 -11   32.00    4.20
   1   3 -11   28.40    2.20
  -4  -4  11    3.10    2.40
  -4  -4  11    0.10    1.00
   4  -4 -11    0.90    1.30
  -4   4  11    1.00    1.20
   4   4 -11    1.10    1.00
  -3  -4  11    0.50    1.20
   3  -4 -11   -0.10    1.00
  -3   4  11    0.30    2.00
   3   4 -11    0.90    1.30
  -3   4  11    0.00    1.10
   2  -4 -11    1.70    1.40
  -2  -4  11    0.70    1.70
  -2  -4  11    1.00    1.20
   2  -4 -11   -0.60    1.30
   2   4 -11    0.20    1.20
  -2   4  11   -0.70    0.90
  -2   4  11    0.00    1.50
   1  -4 -11    1.10    1.20
  -1  -4  11    1.40    1.10
  -1  -4  11    2.00    1.80
   1  -4 -11    2.10    1.40
  -1   4  11    2.20    1.80
   1   4 -11    1.60    1.30
   4  -5 -11   58.79    3.90
  -4  -5  11   56.69    4.00
   4   5 -11   66.09    4.30
   4   5 -11   60.99    2.80
  -4   5  11   67.49    4.20
  -3  -5  11   23.40    3.10
   3  -5 -11   22.30    3.20
  -3   5  11   19.70    3.10
   3   5 -11   26.20    3.00
  -3   5  11   24.00    2.90
  -2  -5  11   30.80    4.80
  -2  -5  11   43.10    3.40
   2  -5 -11   41.20    3.70
  -2   5  11   36.60    2.60
   2   5 -11   50.89    3.80
  -2   5  11   25.70    4.70
   0   0   0    0.00    0.00

_computing_structure_solution     'SHELXT 2018/2 (Sheldrick, 2018)'
;
_shelx_hkl_checksum              68783
loop_
_space_group_symop_operation_xyz
'x, y, z'
'-x, y+1/2, -z'
loop_
_atom_site_type_symbol
_atom_site_label
_atom_site_fract_x
_atom_site_fract_y
_atom_site_fract_z
_atom_site_U_iso_or_equiv
_atom_site_adp_type
_atom_site_calc_flag
_atom_site_refinement_flags_adp
_atom_site_refinement_flags_occupancy
_atom_site_refinement_flags_posn
_atom_site_occupancy
_atom_site_disorder_assembly
_atom_site_disorder_group
O O1 0.8039(6) 0.0364(3) 0.3993(4) 0.0633(10) Uani d . . . 1 . .
H H1 0.753270 0.083785 0.340190 0.095000 Uiso calc U . R 1 . .
O O2 1.0300(5) 0.4896(2) 0.8956(3) 0.0510(8) Uani d . . . 1 . .
H H2 0.974730 0.525257 0.822918 0.077000 Uiso calc U . R 1 . .
N N1 0.5100(7) 0.3928(4) 0.3892(5) 0.0612(11) Uani d . . . 1 . .
N N2 0.7570(7) 0.6237(4) 0.6595(4) 0.0630(11) Uani d . . . 1 . .
N N3 0.4764(6) 0.9910(3) 0.1016(4) 0.0532(10) Uani d . . . 1 . .
N N4 0.2442(7) 0.7464(5) -0.1737(4) 0.0729(14) Uani d . . . 1 . .
C C1 0.4981(5) 0.5874(3) 0.2958(4) 0.0313(8) Uani d . . . 1 . .
C C2 0.5876(5) 0.6710(3) 0.3917(4) 0.0323(8) Uani d . . . 1 . .
C C3 0.5823(5) 0.7754(3) 0.3407(4) 0.0320(8) Uani d . . . 1 . .
H H3 0.640555 0.831232 0.404075 0.038000 Uiso calc U . R 1 . .
C C4 0.4900(5) 0.7965(3) 0.1949(4) 0.0311(8) Uani d . . . 1 . .
C C5 0.4041(5) 0.7112(3) 0.0997(4) 0.0311(8) Uani d . . . 1 . .
C C6 0.4049(5) 0.6067(3) 0.1501(4) 0.0348(8) Uani d . . . 1 . .
H H6 0.344210 0.550904 0.087377 0.042000 Uiso calc U . R 1 . .
C C7 0.5030(6) 0.4787(3) 0.3489(5) 0.0409(9) Uani d . . . 1 . .
C C8 0.6830(6) 0.6478(3) 0.5426(4) 0.0412(9) Uani d . . . 1 . .
C C9 0.4830(5) 0.9043(3) 0.1429(4) 0.0356(9) Uani d . . . 1 . .
C C10 0.3143(6) 0.7317(4) -0.0517(4) 0.0446(10) Uani d . . . 1 . .
C C11 0.8833(6) 0.0805(4) 0.5307(4) 0.0401(10) Uani d . . . 1 . .
C C12 0.8744(6) 0.1902(3) 0.5532(4) 0.0347(9) Uani d . . . 1 . .
H H12 0.814818 0.236022 0.475833 0.042000 Uiso calc U . R 1 . .
C C13 0.9562(5) 0.2325(3) 0.6943(4) 0.0301(8) Uani d . . . 1 . .
C C14 0.9506(5) 0.3436(3) 0.7224(4) 0.0325(8) Uani d . . . 1 . .
H H14 0.891580 0.391229 0.647097 0.039000 Uiso calc U . R 1 . .
C C15 1.0308(5) 0.3815(3) 0.8589(4) 0.0348(9) Uani d . . . 1 . .
C C16 1.1220(6) 0.3108(3) 0.9759(4) 0.0376(9) Uani d . . . 1 . .
H H16 1.174801 0.337619 1.068988 0.045000 Uiso calc U . R 1 . .
C C17 1.1316(6) 0.2037(4) 0.9511(4) 0.0371(9) Uani d . . . 1 . .
H H17 1.193911 0.157767 1.027780 0.045000 Uiso calc U . R 1 . .
C C18 1.0489(5) 0.1607(3) 0.8110(4) 0.0303(8) Uani d . . . 1 . .
C C19 1.0561(6) 0.0493(3) 0.7814(4) 0.0392(9) Uani d . . . 1 . .
H H19 1.116805 0.002041 0.856846 0.047000 Uiso calc U . R 1 . .
C C20 0.9752(6) 0.0094(4) 0.6434(5) 0.0405(9) Uani d . . . 1 . .
H H20 0.981904 -0.063898 0.625852 0.049000 Uiso calc U . R 1 . .
loop_
_atom_site_aniso_label
_atom_site_aniso_U_11
_atom_site_aniso_U_22
_atom_site_aniso_U_33
_atom_site_aniso_U_12
_atom_site_aniso_U_13
_atom_site_aniso_U_23
O1 0.072(2) 0.059(2) 0.0489(18) 0.0001(16) 0.0070(15) -0.0211(15)
O2 0.0581(17) 0.0430(17) 0.0443(16) 0.0018(13) 0.0071(13) -0.0088(12)
N1 0.069(3) 0.040(2) 0.075(3) 0.0046(19) 0.023(2) 0.0151(19)
N2 0.074(3) 0.068(3) 0.038(2) 0.005(2) 0.0068(18) 0.0122(18)
N3 0.061(2) 0.043(2) 0.055(2) 0.0044(18) 0.0180(18) 0.0145(17)
N4 0.081(3) 0.098(4) 0.0276(19) -0.013(3) 0.0027(18) 0.013(2)
C1 0.0298(16) 0.0329(19) 0.0327(18) 0.0034(15) 0.0127(14) 0.0008(15)
C2 0.0320(18) 0.039(2) 0.0277(18) 0.0036(16) 0.0117(14) 0.0032(15)
C3 0.0315(17) 0.0366(19) 0.0257(16) 0.0009(15) 0.0069(13) -0.0037(15)
C4 0.0287(17) 0.0332(19) 0.0330(19) 0.0031(14) 0.0125(14) 0.0040(14)
C5 0.0277(17) 0.0369(19) 0.0280(17) 0.0011(14) 0.0086(14) 0.0010(15)
C6 0.0336(19) 0.038(2) 0.0341(18) -0.0019(16) 0.0128(15) -0.0028(16)
C7 0.041(2) 0.041(2) 0.041(2) 0.0016(16) 0.0143(16) 0.0079(17)
C8 0.048(2) 0.043(2) 0.0313(19) 0.0036(18) 0.0112(17) 0.0035(17)
C9 0.0331(19) 0.039(2) 0.0328(19) 0.0066(15) 0.0085(15) 0.0031(15)
C10 0.044(2) 0.053(3) 0.033(2) -0.0031(18) 0.0070(17) 0.0020(17)
C11 0.036(2) 0.045(2) 0.039(2) -0.0022(16) 0.0125(17) -0.0064(16)
C12 0.036(2) 0.038(2) 0.0297(17) 0.0010(14) 0.0099(14) 0.0017(15)
C13 0.0283(17) 0.0329(19) 0.0309(18) -0.0016(14) 0.0122(15) 0.0016(14)
C14 0.0304(17) 0.0300(17) 0.0349(18) 0.0034(14) 0.0083(14) 0.0076(15)
C15 0.0328(19) 0.0329(19) 0.039(2) 0.0009(15) 0.0125(16) -0.0019(15)
C16 0.036(2) 0.046(2) 0.0282(17) -0.0035(16) 0.0081(15) -0.0009(15)
C17 0.0334(19) 0.045(2) 0.0319(18) 0.0012(15) 0.0092(15) 0.0083(16)
C18 0.0248(17) 0.0358(19) 0.0310(18) 0.0012(14) 0.0102(13) 0.0077(15)
C19 0.037(2) 0.042(2) 0.039(2) 0.0003(15) 0.0131(17) 0.0066(16)
C20 0.0362(19) 0.038(2) 0.048(2) -0.0027(17) 0.0149(16) -0.0018(17)
loop_
_atom_type_symbol
_atom_type_description
_atom_type_scat_dispersion_real
_atom_type_scat_dispersion_imag
_atom_type_scat_source
C C 0.0181 0.0091 'International Tables Vol C Tables 4.2.6.8 and 6.1.1.4'
H H 0.0000 0.0000 'International Tables Vol C Tables 4.2.6.8 and 6.1.1.4'
N N 0.0311 0.0180 'International Tables Vol C Tables 4.2.6.8 and 6.1.1.4'
O O 0.0492 0.0322 'International Tables Vol C Tables 4.2.6.8 and 6.1.1.4'
loop_
_geom_angle_atom_site_label_1
_geom_angle_atom_site_label_2
_geom_angle_atom_site_label_3
_geom_angle_site_symmetry_1
_geom_angle_site_symmetry_3
_geom_angle
_geom_angle_publ_flag
C11 O1 H1 . . 109.500000 ?
C15 O2 H2 . . 109.500000 ?
C6 C1 C2 . . 121.3(4) ?
C6 C1 C7 . . 119.0(3) ?
C2 C1 C7 . . 119.7(3) ?
C3 C2 C1 . . 119.7(3) ?
C3 C2 C8 . . 120.6(3) ?
C1 C2 C8 . . 119.7(4) ?
C2 C3 C4 . . 120.0(3) ?
C2 C3 H3 . . 120.000000 ?
C4 C3 H3 . . 120.000000 ?
C3 C4 C5 . . 119.6(4) ?
C3 C4 C9 . . 119.8(3) ?
C5 C4 C9 . . 120.6(3) ?
C6 C5 C4 . . 120.9(3) ?
C6 C5 C10 . . 119.2(3) ?
C4 C5 C10 . . 120.0(4) ?
C1 C6 C5 . . 118.6(3) ?
C1 C6 H6 . . 120.700000 ?
C5 C6 H6 . . 120.700000 ?
N1 C7 C1 . . 178.5(5) ?
N2 C8 C2 . . 176.3(5) ?
N3 C9 C4 . . 179.6(4) ?
N4 C10 C5 . . 178.6(5) ?
O1 C11 C12 . . 122.0(4) ?
O1 C11 C20 . . 116.2(4) ?
C12 C11 C20 . . 121.8(4) ?
C11 C12 C13 . . 119.8(3) ?
C11 C12 H12 . . 120.100000 ?
C13 C12 H12 . . 120.100000 ?
C14 C13 C12 . . 121.9(3) ?
C14 C13 C18 . . 119.1(3) ?
C12 C13 C18 . . 119.0(3) ?
C15 C14 C13 . . 120.4(3) ?
C15 C14 H14 . . 119.800000 ?
C13 C14 H14 . . 119.800000 ?
C14 C15 O2 . . 123.9(3) ?
C14 C15 C16 . . 121.0(4) ?
O2 C15 C16 . . 115.1(4) ?
C17 C16 C15 . . 119.6(4) ?
C17 C16 H16 . . 120.200000 ?
C15 C16 H16 . . 120.200000 ?
C16 C17 C18 . . 121.2(4) ?
C16 C17 H17 . . 119.400000 ?
C18 C17 H17 . . 119.400000 ?
C17 C18 C19 . . 122.7(3) ?
C17 C18 C13 . . 118.6(4) ?
C19 C18 C13 . . 118.7(3) ?
C20 C19 C18 . . 121.6(4) ?
C20 C19 H19 . . 119.200000 ?
C18 C19 H19 . . 119.200000 ?
C19 C20 C11 . . 119.0(4) ?
C19 C20 H20 . . 120.500000 ?
C11 C20 H20 . . 120.500000 ?
loop_
_geom_bond_atom_site_label_1
_geom_bond_atom_site_label_2
_geom_bond_site_symmetry_2
_geom_bond_distance
_geom_bond_publ_flag
O1 C11 . 1.344(5) ?
O1 H1 . 0.820000 ?
O2 C15 . 1.391(5) ?
O2 H2 . 0.820000 ?
N1 C7 . 1.133(6) ?
N2 C8 . 1.134(6) ?
N3 C9 . 1.146(6) ?
N4 C10 . 1.152(6) ?
C1 C6 . 1.386(5) ?
C1 C2 . 1.401(5) ?
C1 C7 . 1.444(6) ?
C2 C3 . 1.387(5) ?
C2 C8 . 1.442(5) ?
C3 C4 . 1.391(5) ?
C3 H3 . 0.930000 ?
C4 C5 . 1.408(6) ?
C4 C9 . 1.428(5) ?
C5 C6 . 1.389(5) ?
C5 C10 . 1.436(5) ?
C6 H6 . 0.930000 ?
C11 C12 . 1.385(6) ?
C11 C20 . 1.395(6) ?
C12 C13 . 1.417(5) ?
C12 H12 . 0.930000 ?
C13 C14 . 1.411(5) ?
C13 C18 . 1.427(4) ?
C14 C15 . 1.357(5) ?
C14 H14 . 0.930000 ?
C15 C16 . 1.419(5) ?
C16 C17 . 1.358(6) ?
C16 H16 . 0.930000 ?
C17 C18 . 1.413(5) ?
C17 H17 . 0.930000 ?
C18 C19 . 1.418(5) ?
C19 C20 . 1.380(6) ?
C19 H19 . 0.930000 ?
C20 H20 . 0.930000 ?
loop_
_geom_hbond_atom_site_label_D
_geom_hbond_atom_site_label_H
_geom_hbond_atom_site_label_A
_geom_hbond_site_symmetry_A
_geom_hbond_distance_DH
_geom_hbond_distance_HA
_geom_hbond_distance_DA
_geom_hbond_angle_DHA
_geom_hbond_publ_flag
O1 H1 N4 2_645 0.82 2.61 3.375(7) 155.9 ?
O2 H2 N2 . 0.82 2.17 2.967(5) 162.8 ?
loop_
_geom_torsion_atom_site_label_1
_geom_torsion_atom_site_label_2
_geom_torsion_atom_site_label_3
_geom_torsion_atom_site_label_4
_geom_torsion_site_symmetry_1
_geom_torsion_site_symmetry_2
_geom_torsion_site_symmetry_3
_geom_torsion_site_symmetry_4
_geom_torsion
_geom_torsion_publ_flag
C6 C1 C2 C3 . . . . 0.4(5) ?
C7 C1 C2 C3 . . . . -179.8(3) ?
C6 C1 C2 C8 . . . . 180.0(3) ?
C7 C1 C2 C8 . . . . -0.3(5) ?
C1 C2 C3 C4 . . . . -0.5(5) ?
C8 C2 C3 C4 . . . . 179.9(3) ?
C2 C3 C4 C5 . . . . -0.6(5) ?
C2 C3 C4 C9 . . . . 179.4(3) ?
C3 C4 C5 C6 . . . . 1.9(5) ?
C9 C4 C5 C6 . . . . -178.0(3) ?
C3 C4 C5 C10 . . . . -178.0(3) ?
C9 C4 C5 C10 . . . . 2.1(6) ?
C2 C1 C6 C5 . . . . 0.9(5) ?
C7 C1 C6 C5 . . . . -178.9(3) ?
C4 C5 C6 C1 . . . . -2.0(5) ?
C10 C5 C6 C1 . . . . 177.9(3) ?
O1 C11 C12 C13 . . . . 178.5(3) ?
C20 C11 C12 C13 . . . . -1.4(6) ?
C11 C12 C13 C14 . . . . -180.0(3) ?
C11 C12 C13 C18 . . . . 0.7(5) ?
C12 C13 C14 C15 . . . . -179.8(3) ?
C18 C13 C14 C15 . . . . -0.5(5) ?
C13 C14 C15 O2 . . . . -179.5(3) ?
C13 C14 C15 C16 . . . . 0.1(5) ?
C14 C15 C16 C17 . . . . 0.8(6) ?
O2 C15 C16 C17 . . . . -179.5(3) ?
C15 C16 C17 C18 . . . . -1.3(6) ?
C16 C17 C18 C19 . . . . -179.9(4) ?
C16 C17 C18 C13 . . . . 0.8(5) ?
C14 C13 C18 C17 . . . . 0.1(4) ?
C12 C13 C18 C17 . . . . 179.4(4) ?
C14 C13 C18 C19 . . . . -179.2(4) ?
C12 C13 C18 C19 . . . . 0.1(4) ?
C17 C18 C19 C20 . . . . -179.6(3) ?
C13 C18 C19 C20 . . . . -0.3(5) ?
C18 C19 C20 C11 . . . . -0.4(6) ?
O1 C11 C20 C19 . . . . -178.7(3) ?
C12 C11 C20 C19 . . . . 1.2(6) ?
