#------------------------------------------------------------------------------
#$Date: 2022-01-06 22:39:15 +0200 (Thu, 06 Jan 2022) $
#$Revision: 271825 $
#$URL: file:///home/coder/svn-repositories/cod/cif/1/56/54/1565406.cif $
#------------------------------------------------------------------------------
#
# This file is available in the Crystallography Open Database (COD),
# http://www.crystallography.net/
#
# All data on this site have been placed in the public domain by the
# contributors.
#
data_1565406
loop_
_publ_author_name
'Su, Boya'
'Liao, Shengyun'
'Zhu, Haitao'
'Ge, Shuxian'
'Liu, Yan'
'Wang, Jingyao'
'Chen, Hui'
'Wang, Lidong'
_publ_section_title
;
 Fabrication of a 2D metal-organic framework (MOF) nanosheet colloidal
 system and investigation of its fluorescence response to pesticide
 molecules.
;
_journal_issue                   47
_journal_name_full
'Analytical methods : advancing methods and applications'
_journal_page_first              5700
_journal_page_last               5710
_journal_paper_doi               10.1039/d1ay01837j
_journal_volume                  13
_journal_year                    2021
_chemical_formula_moiety         'C88 H44 N16 O16 Zn4, 4(H2 O)'
_chemical_formula_sum            'C88 H56 N16 O20 Zn4'
_chemical_formula_weight         1918.96
_chemical_name_systematic        Zn-4py-ligand
_space_group_crystal_system      monoclinic
_space_group_IT_number           14
_space_group_name_Hall           '-P 2ybc'
_space_group_name_H-M_alt        'P 1 21/c 1'
_atom_sites_solution_hydrogens   mixed
_atom_sites_solution_primary     dual
_audit_creation_date             2021-03-29
_audit_creation_method
;
Olex2 1.2
(compiled 2018.05.29 svn.r3508 for OlexSys, GUI svn.r5506)
;
_audit_update_record
;
2021-07-26 deposited with the CCDC.	2021-11-05 downloaded from the CCDC.
;
_cell_angle_alpha                90
_cell_angle_beta                 102.171(5)
_cell_angle_gamma                90
_cell_formula_units_Z            1
_cell_length_a                   7.9231(4)
_cell_length_b                   13.8107(6)
_cell_length_c                   17.1406(8)
_cell_measurement_reflns_used    3738
_cell_measurement_temperature    293(2)
_cell_measurement_theta_max      32.6620
_cell_measurement_theta_min      2.9730
_cell_volume                     1833.43(15)
_computing_cell_refinement       'CrysAlisPro 1.171.39.7e (Rigaku OD, 2015)'
_computing_data_collection       'CrysAlisPro 1.171.39.7e (Rigaku OD, 2015)'
_computing_data_reduction        'CrysAlisPro 1.171.39.7e (Rigaku OD, 2015)'
_computing_molecular_graphics    'Olex2 (Dolomanov et al., 2009)'
_computing_publication_material  'Olex2 (Dolomanov et al., 2009)'
_computing_structure_refinement  'ShelXL (Sheldrick, 2015)'
_computing_structure_solution    'ShelXT (Sheldrick, 2015)'
_diffrn_ambient_temperature      293
_diffrn_detector                 'CCD plate'
_diffrn_measured_fraction_theta_full 0.986
_diffrn_measured_fraction_theta_max 0.880
_diffrn_measurement_details
;
List of Runs (angles in degrees, time in seconds):

  # Type    Start    End  Width  t~exp~   \w     \q     \k     \f   Frames
#--------------------------------------------------------------------------
  1  \w      4.00  30.00   1.00    6.42    --   30.00  54.00  60.00   26
  2  \w    -58.00 118.00   1.00    6.42    --   30.00  54.00-180.00  176
  3  \w    -71.00 -46.00   1.00    6.42    --   30.00  54.00  60.00   25
;
_diffrn_measurement_device       'two-circle diffractometer'
_diffrn_measurement_device_type  'XtaLAB Mini (ROW)'
_diffrn_measurement_method       '\w scans'
_diffrn_orient_matrix_type
'CrysAlisPro convention (1999,Acta A55,543-557)'
_diffrn_orient_matrix_UB_11      -0.0773637000
_diffrn_orient_matrix_UB_12      0.0270858000
_diffrn_orient_matrix_UB_13      -0.0111312000
_diffrn_orient_matrix_UB_21      0.0487720000
_diffrn_orient_matrix_UB_22      0.0434689000
_diffrn_orient_matrix_UB_23      0.0038710000
_diffrn_orient_matrix_UB_31      0.0057160000
_diffrn_orient_matrix_UB_32      -0.0033413000
_diffrn_orient_matrix_UB_33      -0.0406618000
_diffrn_radiation_monochromator  graphite
_diffrn_radiation_probe          x-ray
_diffrn_radiation_type           MoK\a
_diffrn_radiation_wavelength     0.71073
_diffrn_reflns_av_R_equivalents  0.0416
_diffrn_reflns_av_unetI/netI     0.0740
_diffrn_reflns_Laue_measured_fraction_full 0.986
_diffrn_reflns_Laue_measured_fraction_max 0.880
_diffrn_reflns_limit_h_max       8
_diffrn_reflns_limit_h_min       -11
_diffrn_reflns_limit_k_max       18
_diffrn_reflns_limit_k_min       -21
_diffrn_reflns_limit_l_max       24
_diffrn_reflns_limit_l_min       -24
_diffrn_reflns_number            10152
_diffrn_reflns_point_group_measured_fraction_full 0.986
_diffrn_reflns_point_group_measured_fraction_max 0.880
_diffrn_reflns_theta_full        25.242
_diffrn_reflns_theta_max         33.092
_diffrn_reflns_theta_min         3.015
_diffrn_source                   'fine-focus sealed X-ray tube'
_diffrn_source_type              'Enhance (Mo) X-ray Source'
_exptl_absorpt_coefficient_mu    1.388
_exptl_absorpt_correction_T_max  1.00000
_exptl_absorpt_correction_T_min  0.37117
_exptl_absorpt_correction_type   multi-scan
_exptl_absorpt_process_details
;
CrysAlisPro 1.171.39.7e (Rigaku Oxford Diffraction, 2015)
Empirical absorption correction using spherical harmonics,
 implemented in SCALE3 ABSPACK scaling algorithm.
;
_exptl_crystal_density_diffrn    1.738
_exptl_crystal_description       block
_exptl_crystal_F_000             976
_exptl_crystal_recrystallization_method 'Re-crystallisation from solvent: H2O'
_exptl_crystal_size_max          0.20
_exptl_crystal_size_mid          0.20
_exptl_crystal_size_min          0.18
_refine_diff_density_max         0.636
_refine_diff_density_min         -0.854
_refine_diff_density_rms         0.106
_refine_ls_extinction_method     none
_refine_ls_goodness_of_fit_ref   0.777
_refine_ls_hydrogen_treatment    constr
_refine_ls_matrix_type           full
_refine_ls_number_parameters     292
_refine_ls_number_reflns         6132
_refine_ls_number_restraints     0
_refine_ls_restrained_S_all      0.777
_refine_ls_R_factor_all          0.0728
_refine_ls_R_factor_gt           0.0403
_refine_ls_shift/su_max          0.001
_refine_ls_shift/su_mean         0.000
_refine_ls_structure_factor_coef Fsqd
_refine_ls_weighting_details
'w=1/[\s^2^(Fo^2^)+(0.0897P)^2^+0.7720P] where P=(Fo^2^+2Fc^2^)/3'
_refine_ls_weighting_scheme      calc
_refine_ls_wR_factor_gt          0.1035
_refine_ls_wR_factor_ref         0.1328
_reflns_Friedel_coverage         0.000
_reflns_number_gt                4281
_reflns_number_total             6132
_reflns_threshold_expression     'I > 2\s(I)'
_cod_data_source_file            d1ay01837j2.cif
_cod_data_source_block           7
_cod_depositor_comments          'Adding full bibliography for 1565406.cif.'
_cod_database_code               1565406
_shelx_shelxl_version_number     2014/7
_shelx_space_group_comment
;
The symmetry employed for this shelxl refinement is uniquely defined
by the following loop, which should always be used as a source of
symmetry information in preference to the above space-group names.
They are only intended as comments.
;
_reflns_odcompleteness_completeness 99.85
_reflns_odcompleteness_iscentric 1
_reflns_odcompleteness_theta     26.32
_olex2_refinement_description
;
1. Fixed Uiso
 At 1.2 times of:
  All C(H) groups
 At 1.5 times of:
  All O(H,H) groups
2.a Free rotating group:
 O5(H5a,H5b)
2.b Aromatic/amide H refined with riding coordinates:
 C15(H15), C13(H13), C10(H10), C16(H16), C8(H8), C4(H4), C5(H5), C19(H19),
 C21(H21), C22(H22), C20(H20)
;
_shelx_res_file
;
    7.res created by SHELXL-2014/7

TITL 7_a.res in P2(1)/c
REM Old TITL 7_a.res in P2(1)/c
REM SHELXT solution in P2(1)/c
REM R1 0.127, Rweak 0.003, Alpha 0.038, Orientation as input
REM Formula found by SHELXT: C23 N4 O4 Zn
CELL 0.71073 7.9231 13.8107 17.1406 90 102.171 90
ZERR 1 0.0004 0.0006 0.0008 0 0.005 0
LATT 1
SYMM -X,0.5+Y,0.5-Z
SFAC C H N O Zn
UNIT 88 56 16 20 4

L.S. 1000 0 0
PLAN  20
BOND $H
list 4
fmap 2 53
acta
OMIT 1 0 0
OMIT 0 2 0
OMIT -1 0 2
OMIT -5 14 5
OMIT 0 1 2
OMIT -1 1 1
OMIT -5 15 6
OMIT 1 1 4
OMIT -5 12 9
OMIT -1 15 1
OMIT 1 5 2
OMIT -3 15 3
OMIT -1 1 7
OMIT -1 1 9
OMIT -2 3 4
OMIT -1 7 2
OMIT -1 8 1
OMIT 0 6 5
OMIT 0 2 1
OMIT -1 1 4
OMIT -2 6 5
OMIT 2 2 4
OMIT -1 6 4
OMIT -4 15 2
OMIT 0 8 1
OMIT -1 0 8
OMIT 0 7 4
OMIT -4 15 5
OMIT 3 2 4
OMIT 1 2 3
OMIT 0 3 6
OMIT 2 0 6
OMIT -3 6 2
OMIT -3 15 1
OMIT 4 15 6
OMIT -1 5 5
OMIT -3 1 5
OMIT 2 8 1
OMIT 2 0 0
OMIT -3 5 3
OMIT 1 2 1
OMIT 3 0 2
OMIT 0 2 5
OMIT -4 1 14
OMIT 2 1 4
OMIT 0 2 3
OMIT 0 0 4
REM <olex2.extras>
REM <HklSrc "%.\\7.hkl">
REM </olex2.extras>

WGHT    0.089700    0.772000
FVAR       0.44969
ZN1   5    0.702656    0.552189    0.125594    11.00000    0.02628    0.01454 =
         0.01979    0.00173    0.00966    0.00082
O2    4    0.575377    0.443554    0.160680    11.00000    0.03217    0.01402 =
         0.03594    0.00488    0.01616    0.00162
O3    4   -0.073795   -0.052230    0.703897    11.00000    0.02665    0.03421 =
         0.02525    0.00883    0.00556   -0.00749
N2    3    0.306471    0.187430    0.428813    11.00000    0.02973    0.01586 =
         0.02060   -0.00037    0.01101   -0.00126
N1    3    0.425756    0.149523    0.303337    11.00000    0.02870    0.01444 =
         0.02446    0.00004    0.01223   -0.00227
N3    3    0.252653    0.022317    0.492025    11.00000    0.02997    0.01562 =
         0.01879   -0.00122    0.00944    0.00027
O4    4    0.167795    0.012957    0.771904    11.00000    0.04528    0.06799 =
         0.02110   -0.00845    0.01055   -0.02480
O1    4    0.762248    0.331909    0.138402    11.00000    0.05858    0.03070 =
         0.05535    0.01671    0.04337    0.01344
AFIX   6
O5    4    1.050684    0.210731    0.188748    11.00000    0.05376    0.04764 =
         0.06733    0.03000    0.02921    0.01040
H5A   2    0.956006    0.239604    0.188789    11.00000   -1.50000
H5B   2    1.050045    0.162156    0.219099    11.00000   -1.50000
AFIX   0

C11   1    0.252552    0.195700    0.497597    11.00000    0.02612    0.01646 =
         0.01868    0.00112    0.00833   -0.00057
C2    1    0.556767    0.286224    0.213446    11.00000    0.02849    0.01497 =
         0.02227    0.00182    0.01021   -0.00129
C12   1    0.223446    0.101003    0.533809    11.00000    0.02402    0.01718 =
         0.01774    0.00053    0.00714   -0.00060
C14   1    0.136542    0.001991    0.633157    11.00000    0.02242    0.01976 =
         0.01753    0.00114    0.00595   -0.00272
C15   1    0.169964   -0.079246    0.590580    11.00000    0.03606    0.01691 =
         0.02281    0.00250    0.00949   -0.00055
AFIX  43
H15   2    0.152547   -0.141329    0.608368    11.00000   -1.20000
AFIX   0
C13   1    0.167106    0.093513    0.604965    11.00000    0.02631    0.01531 =
         0.01879   -0.00153    0.00818   -0.00120
AFIX  43
H13   2    0.150042    0.148751    0.633362    11.00000   -1.20000
AFIX   0
C7    1    0.343902    0.266127    0.390458    11.00000    0.02854    0.01631 =
         0.01886    0.00118    0.00963   -0.00211
C6    1    0.414066    0.244455    0.318572    11.00000    0.02613    0.01566 =
         0.01917    0.00178    0.00873   -0.00039
C10   1    0.230152    0.286103    0.529733    11.00000    0.03321    0.01938 =
         0.02088   -0.00036    0.01188    0.00099
AFIX  43
H10   2    0.193127    0.290891    0.577594    11.00000   -1.20000
AFIX   0
C3    1    0.472883    0.315179    0.273014    11.00000    0.02897    0.01622 =
         0.02330    0.00243    0.01100   -0.00105
C17   1    0.073393   -0.010702    0.709561    11.00000    0.02980    0.01800 =
         0.01982    0.00129    0.01030   -0.00110
C16   1    0.229858   -0.065135    0.521012    11.00000    0.04045    0.01438 =
         0.02283   -0.00153    0.01212    0.00104
AFIX  43
H16   2    0.255302   -0.119232    0.493296    11.00000   -1.20000
AFIX   0
C8    1    0.322949    0.358346    0.419086    11.00000    0.03797    0.01550 =
         0.02388    0.00157    0.01296   -0.00234
AFIX  43
H8    2    0.348334    0.412450    0.391362    11.00000   -1.20000
AFIX   0
N4    3    0.179789    0.656051    0.575332    11.00000    0.05112    0.02520 =
         0.04395   -0.00720    0.01092    0.00151
C4    1    0.573268    0.187886    0.199558    11.00000    0.04330    0.01656 =
         0.03094    0.00050    0.02257   -0.00108
AFIX  43
H4    2    0.630859    0.166600    0.160758    11.00000   -1.20000
AFIX   0
C1    1    0.639493    0.358389    0.166639    11.00000    0.03290    0.01887 =
         0.02180    0.00426    0.01260    0.00007
C18   1    0.235787    0.467934    0.519592    11.00000    0.03264    0.01800 =
         0.02645   -0.00206    0.01026    0.00015
C9    1    0.263638    0.369604    0.489641    11.00000    0.03050    0.01496 =
         0.02343   -0.00113    0.00924    0.00056
C5    1    0.502199    0.122070    0.244672    11.00000    0.03864    0.01492 =
         0.03024   -0.00145    0.01898   -0.00156
AFIX  43
H5    2    0.508086    0.056385    0.233594    11.00000   -1.20000
AFIX   0
C19   1    0.193371    0.482900    0.593695    11.00000    0.05166    0.02537 =
         0.02761   -0.00200    0.01343    0.00123
AFIX  43
H19   2    0.183255    0.430586    0.626565    11.00000   -1.20000
AFIX   0
C21   1    0.242787    0.550532    0.473696    11.00000    0.07524    0.01929 =
         0.03780   -0.00004    0.02610    0.00085
AFIX  43
H21   2    0.265077    0.545137    0.422731    11.00000   -1.20000
AFIX   0
C22   1    0.216236    0.641155    0.504547    11.00000    0.07684    0.01842 =
         0.04789    0.00122    0.02131    0.00079
AFIX  43
H22   2    0.224759    0.695064    0.473092    11.00000   -1.20000
AFIX   0
C20   1    0.166392    0.576629    0.617930    11.00000    0.05513    0.03205 =
         0.03227   -0.00836    0.01382    0.00423
AFIX  43
H20   2    0.136950    0.584544    0.667274    11.00000   -1.20000
AFIX   0
HKLF 4

REM  7_a.res in P2(1)/c
REM R1 =  0.0403 for    4281 Fo > 4sig(Fo)  and  0.0728 for all    6132 data
REM    292 parameters refined using      0 restraints

END

WGHT      0.0387      0.0000

REM Highest difference peak  0.636,  deepest hole -0.854,  1-sigma level  0.106
Q1    1   0.4712  0.3805  0.2828  11.00000  0.05    0.64
Q2    1   0.7103  0.5176  0.1634  11.00000  0.05    0.60
Q3    1   0.3029  0.0391  0.4444  11.00000  0.05    0.58
Q4    1   0.8006  0.5566  0.1160  11.00000  0.05    0.57
Q5    1  -0.1961 -0.0485  0.6813  11.00000  0.05    0.54
Q6    1   0.5810  0.5451  0.1216  11.00000  0.05    0.51
Q7    1   0.1487  0.0482  0.6166  11.00000  0.05    0.48
Q8    1   0.3551  0.2195  0.4182  11.00000  0.05    0.47
Q9    1   0.1086  0.4450  0.3759  11.00000  0.05    0.45
Q10   1  -0.0800  0.0033  0.6681  11.00000  0.05    0.43
Q11   1   0.3496  0.2572  0.3410  11.00000  0.05    0.42
Q12   1   0.7233  0.5758  0.1985  11.00000  0.05    0.41
Q13   1   0.3091  0.2167  0.3975  11.00000  0.05    0.40
Q14   1   0.6780  0.5860  0.0787  11.00000  0.05    0.40
Q15   1   0.4099  0.2855  0.2824  11.00000  0.05    0.39
Q16   1   0.4618  0.2831  0.2968  11.00000  0.05    0.39
Q17   1   0.1521 -0.0449  0.6067  11.00000  0.05    0.39
Q18   1   0.7884  0.4769  0.1328  11.00000  0.05    0.39
Q19   1   0.6828  0.3967  0.1211  11.00000  0.05    0.38
Q20   1   0.6686  0.3217  0.0601  11.00000  0.05    0.38
;
_shelx_res_checksum              50257
_shelx_hkl_file
;
   0   0  -3    0.69    0.35
   0   0  -4  180.46    5.74
   0   0  -5    0.11    0.39
   0   0  -6  594.62   12.71
   0   0  -7    0.72    0.66
   0   0  -8 2332.48   29.27
   0   0  -9    0.55    0.96
   0   0 -10 1396.02   25.83
   0   0 -11   -0.02    0.75
   0   0 -12  507.92   17.47
   0   0  13   -0.38    2.60
   0   0 -13   -0.81    1.50
   0   0  14   83.60   10.70
   0   0 -14   76.92    7.36
   0   0 -15   -1.57    1.86
   0   0  15   -8.78    5.27
   0   0 -16  262.07   15.15
   0   0  16  259.40   20.68
   0   0 -17   -1.24    2.34
   0   0  17   -2.28    4.26
   0   0 -18   16.48    4.16
   0   0  18   18.76    5.68
   0   0  19   -3.45    3.30
   0   0 -19    1.31    2.30
   0   0 -20  285.22   18.55
   0   0  20  251.82   23.68
   0   0  21    3.77    3.51
   0   0  22   13.64    6.96
   0   0  23   -5.94    5.81
   0   0  24   86.54   15.60
   0   1  -2   67.36    3.17
   0  -1   2    0.27    0.48
   0  -1   3 4244.50   34.62
   0   1  -3 4332.88   28.34
   0  -1  -3 4340.17   20.03
   0   1  -4 1035.14   15.50
   0  -1   4 1023.05   19.26
   0  -1  -4 1021.61   11.80
   0  -1  -5  235.44    6.50
   0  -1   5  235.40   10.17
   0   1  -5  228.20    7.94
   0  -1  -6  238.13    7.31
   0   1  -6  230.07    8.66
   0  -1   6  243.76   11.32
   0  -1  -7 1717.92   21.80
   0  -1   7 1711.26   32.73
   0   1  -7 1687.64   25.25
   0   1  -8  724.64   17.41
   0  -1   8  694.42   22.43
   0  -1  -8  708.77   15.12
   0  -1   9  181.37   12.11
   0  -1  -9  153.28    7.63
   0   1  -9  163.28    8.82
   0   1 -10    2.72    1.39
   0  -1 -10    1.99    0.88
   0  -1  10    1.26    1.91
   0   1 -11  322.10   13.77
   0  -1  11  334.50   18.67
   0  -1 -11  325.13   12.40
   0   1 -12    0.75    1.32
   0  -1 -12    0.30    0.80
   0   1 -13  521.04   19.42
   0  -1  13  529.00   25.93
   0  -1 -13  526.17   17.75
   0   1 -14   36.14    5.54
   0  -1 -14   30.32    4.52
   0  -1  14   37.13    7.28
   0   1 -15  586.97   22.44
   0  -1  15  595.43   30.05
   0  -1 -15  608.19   21.10
   0  -1 -16   13.69    3.61
   0   1  16    9.25    2.50
   0  -1  16    7.90    2.39
   0   1 -16   16.52    3.66
   0  -1 -17   18.94    4.47
   0   1  17   19.92    6.07
   0   1 -17   16.25    3.92
   0  -1  17   11.34    4.72
   0  -1 -18  238.41   15.20
   0   1 -18  216.26   15.46
   0  -1  18  211.24   20.33
   0   1  18  224.41   20.30
   0   1 -19    4.67    1.82
   0  -1  19   10.00    3.58
   0  -1 -19    6.28    2.93
   0   1  19    2.82    3.35
   0   1  20   -2.64    4.72
   0   1 -20    0.85    2.18
   0  -1  20    1.73    4.20
   0   1  21   74.37   13.47
   0   1 -21   74.89   10.28
   0  -1  21   86.47   13.93
   0  -1  22   -3.00    4.34
   0   1  22    0.34    4.67
   0  -1  23   86.33   15.49
   0   1  23   82.96   14.74
   0  -1  24   -9.78    8.13
   0   1  24   -7.64    7.90
   0  -2   0   10.90    1.65
   0   2   0   15.10    1.54
   0   2  -1   40.12    2.56
   0  -2  -1  133.97    6.31
   0   2  -2  240.46    6.88
   0   2  -3  177.08    6.58
   0  -2  -4  775.64    9.05
   0  -2   4  740.28   17.68
   0   2  -4  749.88   14.74
   0  -2  -5   20.43    1.75
   0   2  -5   22.24    2.75
   0  -2   5   22.05    3.38
   0   2  -6    2.08    0.98
   0  -2  -6    1.04    0.60
   0  -2   6    0.48    1.18
   0   2  -7    3.25    1.14
   0  -2   7    3.55    1.45
   0  -2  -7    4.94    1.32
   0  -2  -8 2907.48   28.54
   0  -2   8 2948.59   47.21
   0   2  -8 2935.48   37.49
   0   2  -9    4.98    1.75
   0  -2  -9    3.71    1.34
   0  -2   9    1.20    2.05
   0  -2  10   -1.47    2.48
   0  -2 -10    2.34    1.08
   0   2 -10    1.90    1.49
   0  -2 -11  519.16   14.95
   0  -2  11  523.88   23.47
   0   2 -11  509.74   18.14
   0  -2  12  530.57   24.89
   0  -2 -12  532.65   16.16
   0   2 -12  547.67   19.78
   0  -2  13  129.20   13.05
   0  -2 -13  132.05    8.64
   0   2 -13  131.24   10.22
   0  -2  14    3.52    2.89
   0  -2 -14    7.20    2.11
   0   2 -14    8.66    3.05
   0   2 -15  133.38   11.09
   0  -2 -15  130.70    9.37
   0  -2  15  139.43   14.74
   0   2 -16   34.42    6.15
   0  -2  16   35.97    8.03
   0  -2 -16   37.11    5.51
   0   2 -17  363.29   19.84
   0  -2 -17  389.04   17.89
   0  -2  17  362.72   26.11
   0  -2 -18    3.24    1.59
   0  -2  18    0.35    3.16
   0   2 -18    3.67    2.23
   0   2  19    4.23    3.20
   0  -2  19   -3.77    4.89
   0   2 -19    3.29    2.05
   0   2 -20  108.97   11.92
   0  -2  20  101.52   15.59
   0   2  20  101.07   14.86
   0  -2  21   -1.88    5.56
   0   2  21   -2.00    5.06
   0   2 -21    3.21    3.86
   0  -2  22    3.16    4.86
   0   2  22   -4.60    4.63
   0  -2  23   14.36    6.52
   0   2  23    9.65    4.90
   0  -2  24   58.39   13.56
   0   2  24   65.04   13.56
   0   3   0    0.02    0.30
   0  -3   0    1.55    1.34
   0   3   1 1006.49   11.33
   0   3  -1 1001.28   14.55
   0   3  -2 1593.32   20.09
   0   3   2 1619.89   12.87
   0   3  -3  216.30    8.12
   0   3  -4  128.40    6.74
   0   3   4  131.96    4.39
   0   3   5    6.96    1.27
   0   3  -5    7.72    1.85
   0   3  -6  131.84    7.69
   0  -3  -7  171.16    5.92
   0  -3   7  164.76   10.87
   0   3  -7  156.00    8.73
   0  -3  -8  323.55    9.03
   0   3  -8  342.58   13.66
   0  -3   8  328.26   16.42
   0  -3   9  365.42   18.36
   0  -3  -9  360.97   10.33
   0   3  -9  361.64   14.67
   0  -3 -10 1099.41   19.29
   0   3 -10 1096.39   26.83
   0  -3  10 1094.99   33.18
   0  -3  11   35.87    6.74
   0  -3 -11   36.90    3.81
   0   3 -11   31.84    4.76
   0  -3 -12    5.39    1.61
   0  -3  12    1.99    2.07
   0   3 -12    3.27    2.13
   0  -3 -13   67.14    5.95
   0   3 -13   68.96    7.60
   0  -3  13   68.91    9.85
   0   3 -14  632.11   24.15
   0  -3  14  596.72   29.85
   0  -3 -14  627.11   18.91
   0  -3 -15  247.41   12.52
   0  -3  15  251.79   20.08
   0   3 -15  228.94   15.36
   0   3 -16  258.24   16.80
   0  -3 -16  253.58   13.33
   0  -3  16  257.08   21.10
   0   3 -17   25.08    5.41
   0  -3  17   24.87    6.48
   0  -3 -17   27.81    4.70
   0  -3  18  160.94   18.16
   0   3 -18  167.63   14.27
   0  -3  19   26.11    7.30
   0   3 -19   32.61    6.56
   0  -3  20   -1.13    4.11
   0   3 -20   -3.42    2.47
   0   3  20   -4.24    6.05
   0   3  21   21.49    7.22
   0  -3  21   18.12    7.61
   0   3 -21   21.07    5.60
   0  -3  22   78.55   15.25
   0   3  22   86.06   14.90
   0   3 -22   92.21   12.45
   0   3  23   18.94    6.47
   0   3  24    9.82    6.34
   0  -4   0  308.71   11.95
   0   4   0  334.65    8.65
   0   4   1 1071.50   14.07
   0  -4  -1 1108.90   24.02
   0   4  -1 1055.09   16.97
   0   4   2  390.08    7.66
   0   4  -2  390.01   11.02
   0   4  -3 1045.58   19.39
   0   4   3 1047.83   11.57
   0   4   4    0.86    0.45
   0   4  -4    0.11    0.68
   0   4   5  103.58    4.17
   0   4  -5  106.08    6.93
   0   4   6   43.88    3.13
   0   4  -6   43.71    4.71
   0   4   7 1268.91   19.51
   0   4  -7 1273.74   26.55
   0   4   8   87.69    5.75
   0   4  -8   78.95    7.05
   0   4  -9  918.14   24.76
   0   4 -10   73.57    7.46
   0   4 -11  713.83   23.65
   0  -4  12  413.10   22.94
   0   4 -12  407.97   18.53
   0  -4  13  284.09   20.09
   0   4 -13  290.99   16.26
   0  -4  14    4.67    2.64
   0   4 -14    7.15    2.98
   0   4 -15    5.14    2.89
   0  -4  15    4.21    4.05
   0  -4  16    5.48    3.50
   0   4 -16    3.82    2.76
   0  -4  17  170.63   18.65
   0   4 -17  181.87   15.11
   0   4 -18    7.06    3.25
   0   4 -19  106.28   12.18
   0   4 -20   41.34    7.88
   0   4 -21   71.59   10.44
   0   4 -22    6.94    3.73
   0   4  22   -1.01    3.84
   0   4  23    2.87    5.80
   0  -5   0    0.67    1.27
   0   5   0    1.17    0.65
   0   5  -1   75.32    5.01
   0  -5  -1   82.89    7.27
   0   5   1   73.49    4.21
   0   5   2 1839.77   19.22
   0  -5  -2 1867.10   35.12
   0   5  -2 1806.18   26.18
   0   5   3   90.87    3.90
   0   5  -3   93.05    6.29
   0   5   4  689.24   10.06
   0   5  -4  678.09   17.90
   0   5   5   -0.27    0.47
   0   5  -5    0.41    1.16
   0   5   6 2661.11   21.62
   0   5  -6 2649.38   39.30
   0   5  -7  276.78   13.25
   0   5   7  272.43    7.69
   0   5   8    1.37    1.09
   0   5  -8   -0.02    0.88
   0   5   9   12.68    2.17
   0   5  -9   11.28    2.60
   0   5 -10 1347.82   32.69
   0   5  10 1223.56   22.62
   0   5 -11   -1.26    2.07
   0   5  11    0.37    1.05
   0   5 -12   -0.68    2.03
   0   5  12   -0.97    1.34
   0   5 -13  127.34   11.19
   0   5 -14  821.83   29.61
   0   5 -15  456.33   23.04
   0   5 -16   50.73    8.13
   0   5 -17   38.47    7.26
   0   5 -18  223.09   17.58
   0   5 -19   22.01    5.88
   0   5 -20   -0.79    2.80
   0   5 -21   -2.66    4.59
   0   5 -22   81.60   12.32
   0   5  23    7.53    5.38
   0  -6   0  151.89   10.74
   0   6   0  147.38    7.17
   0  -6  -1 1401.67   33.22
   0   6   1 1380.01   20.39
   0   6  -1 1345.48   23.02
   0   6  -2   43.62    4.46
   0   6   2   43.53    3.36
   0  -6  -2   41.76    5.42
   0   6   3 3531.11   27.49
   0   6  -3 3423.29   41.02
   0   6   4  806.75   12.08
   0   6  -4  801.87   20.80
   0   6   5   24.80    2.01
   0   6  -5   25.67    4.00
   0   6   6    2.56    0.59
   0   6  -6    2.00    1.36
   0   6  -7  103.87    8.40
   0   6   7   -1.01    0.70
   0   6  -8  135.94   10.09
   0   6  -9  225.85   13.48
   0   6 -10    1.19    1.32
   0   6 -11 1044.45   31.44
   0   6 -12  196.99   14.21
   0   6 -13   15.53    3.86
   0   6 -14  508.11   24.08
   0   6 -15    0.40    2.28
   0   6 -16    2.46    2.14
   0   6 -17  460.68   25.54
   0   6 -18    0.08    2.68
   0   6 -19   81.69   11.43
   0   6 -20    7.42    3.88
   0   6 -21   28.12    7.14
   0   6 -22    9.62    3.33
   0   7   0   -0.12    0.83
   0  -7   0    0.01    1.39
   0   7  -1  917.28   20.40
   0   7   1  917.00   18.32
   0  -7  -1  899.10   28.45
   0   7   2  298.10    9.75
   0   7  -2  297.94   12.31
   0   7  -3   26.18    3.91
   0   7   3   29.37    2.84
   0   7   4   66.10    3.86
   0   7  -4   63.74    6.23
   0   7   5  393.38    8.59
   0   7  -5  400.37   16.27
   0   7  -6   60.34    6.62
   0   7   6   47.78    2.77
   0   7  -7   10.22    2.78
   0   7  -8  215.61   13.31
   0   7  -9  319.67   16.86
   0   7 -10  596.71   23.98
   0   7 -11    6.49    2.58
   0   7 -12  101.24   10.51
   0   7 -13   95.28   10.40
   0   7 -14  206.81   16.07
   0   7 -15   41.94    7.33
   0   7 -16    0.74    2.38
   0   7 -17   28.13    6.72
   0   7 -18  115.52   13.80
   0   7 -19   17.23    5.74
   0   7 -20   -0.96    2.46
   0   7 -21    2.51    3.78
   0   7 -22   56.21   10.58
   0   8   0 1559.52   27.11
   0  -8   0 1692.18   44.33
   0  -8  -1  170.65   13.56
   0  -8   1  180.69   14.59
   0   8  -1  179.62    9.79
   0   8   1  182.55    8.84
   0   8   2    7.76    1.88
   0  -8  -2    5.89    1.89
   0   8  -2    6.70    1.84
   0   8   3   86.71    5.43
   0   8  -3   85.35    7.29
   0   8  -4 1117.73   27.33
   0   8   4 1112.50   17.68
   0   8  -5   28.07    4.61
   0   8   5   27.41    2.55
   0   8  -6   20.34    4.05
   0   8  -7  185.57   12.58
   0   8  -8  281.32   15.89
   0   8  -9   68.94    8.02
   0   8 -10    5.89    2.85
   0   8 -11  908.20   31.75
   0   8 -12  544.35   25.38
   0   8 -13   75.18    9.98
   0   8 -14   19.92    4.80
   0   8 -15   55.08    8.78
   0   8 -16  109.22   12.96
   0   8 -17    1.86    2.42
   0   8 -18    4.83    3.90
   0   8 -19   21.25    6.83
   0   8 -20  113.49   14.59
   0   8 -21   17.54    5.65
   0   8 -22    9.11    4.71
   0   9   0   -1.69    1.43
   0  -9   0   -1.08    3.02
   0   9  -1  749.78   21.32
   0   9   1  783.38   19.60
   0  -9   1  770.04   32.67
   0  -9  -1  720.66   30.15
   0  -9  -2  160.66   13.59
   0  -9   2  173.26   14.77
   0   9   2  191.19    9.18
   0   9  -2  181.94   10.97
   0   9  -3 1246.42   29.44
   0   9   3 1263.32   22.35
   0   9   4  132.89    6.71
   0   9  -4  135.49   10.07
   0   9  -5  276.00   15.02
   0   9   5  276.97    8.82
   0   9  -6   45.55    6.38
   0   9  -7  508.00   21.67
   0   9  -8   23.11    4.71
   0   9  -9  172.68   13.41
   0   9 -10   39.64    6.95
   0   9 -11  127.35   12.57
   0   9 -12   71.31    9.42
   0   9 -13  127.01   13.25
   0   9 -14  108.17   12.41
   0   9 -15   85.83   11.34
   0   9 -16   10.56    4.01
   0   9 -17   69.71   10.88
   0   9 -18    2.82    3.39
   0   9 -19   58.48   10.52
   0   9 -20   -1.82    2.92
   0   9 -21   20.32    6.29
   0   9 -22   -0.53    3.75
   0  10   0 1198.73   27.46
   0 -10   0 1339.48   47.11
   0 -10   1    6.30    4.36
   0 -10  -1    5.57    2.09
   0  10   1   11.86    2.76
   0  10  -1   13.66    3.15
   0 -10   2    3.04    3.74
   0  10   2   -0.54    0.78
   0  10  -2    0.40    1.08
   0 -10  -2   -0.61    3.62
   0  10  -3   23.02    4.16
   0  10   3   22.95    3.46
   0 -10   3   22.15    6.43
   0  10  -4 1142.69   30.83
   0  10   4 1186.54   21.74
   0  10  -5    1.45    1.19
   0  10  -6  192.88   13.45
   0  10  -7   -1.97    2.71
   0  10  -8  293.30   17.84
   0  10  -9   33.66    6.24
   0  10 -10   -0.84    2.54
   0  10 -11    0.68    2.39
   0  10 -12  118.46   12.54
   0  10 -13    4.45    2.64
   0  10 -14    2.85    3.60
   0  10 -15    3.94    3.40
   0  10 -16  236.17   20.23
   0  10 -17    2.51    3.09
   0  10 -18    8.66    5.67
   0  10 -19    0.19    3.23
   0  10 -20  114.73   15.43
   0  10 -21   -0.21    3.76
   0  10 -22    8.19    4.84
   0 -11   0   -0.10    3.56
   0  11   0    0.48    1.23
   0 -11  -1   15.74    4.76
   0  11   1   19.92    3.59
   0  11  -1   21.03    4.09
   0 -11   1   26.12    7.31
   0  11   2  638.93   19.31
   0 -11   2  656.70   35.01
   0  11  -2  607.32   22.20
   0  11   3 1632.57   29.18
   0  11  -3 1569.28   36.59
   0 -11   3 1549.79   52.38
   0  11   4   43.23    4.85
   0  11  -4   30.80    5.50
   0  11  -5   12.62    3.38
   0  11  -6    4.37    2.23
   0  11  -7   44.36    7.03
   0  11  -8   28.70    5.86
   0  11  -9   38.03    6.88
   0  11 -10   68.07    9.49
   0  11 -11  213.11   17.31
   0  11 -12  155.83   15.10
   0  11 -13  125.61   13.65
   0  11 -14   84.77   12.32
   0  11 -15   46.40    8.94
   0  11 -16    5.66    4.01
   0  11 -17   93.66   13.50
   0  11 -18   25.13    7.06
   0  11 -19    5.15    4.39
   0  11 -20   42.10   10.30
   0  11 -21   38.78    9.76
   0 -12   0  369.76   27.50
   0  12   0  380.08   17.16
   0 -12  -1   73.14   11.03
   0  12  -1   71.36    7.94
   0  12   1   91.58    8.39
   0 -12   1   90.48   14.62
   0 -12   2   20.53    6.56
   0 -12  -2    8.54    4.75
   0  12  -2   14.15    3.54
   0 -12   3    8.10    5.91
   0  12   3    3.70    1.18
   0  12  -3    1.94    1.52
   0 -12   4   32.92    8.87
   0  12  -4   32.85    5.75
   0  12  -5   49.28    7.28
   0  12  -6   81.57    9.67
   0  12  -7   82.63   10.10
   0  12  -8  230.09   17.04
   0  12  -9  270.11   19.18
   0  12 -10   -3.93    4.63
   0  12 -11  291.49   20.80
   0  12 -12   48.26    8.75
   0  12 -13  130.42   14.57
   0  12 -14   -1.88    2.36
   0  12 -15  130.28   15.53
   0  12 -16   59.93   11.05
   0  12 -17   18.84    6.41
   0  12 -18    3.39    4.09
   0  12 -19    0.86    2.92
   0  12 -20   28.45    8.38
   0  12 -21   95.61   14.92
   0 -13   0   -2.31    5.27
   0  13   0   -3.65    2.85
   0 -13  -1   57.02   10.90
   0 -13   1   84.79   14.97
   0  13  -1   66.38    7.81
   0 -13  -2  328.17   25.40
   0  13  -2  367.22   18.91
   0 -13   3   10.88    5.70
   0  13  -3    5.46    1.55
   0  13  -4  120.99   11.54
   0 -13   4  122.71   17.65
   0 -13   5  293.29   24.66
   0  13  -5  318.02   19.33
   0  13  -6  647.29   28.38
   0  13  -7   29.65    6.24
   0  13  -8    0.95    2.37
   0  13  -9   34.57    7.32
   0  13 -10  343.11   22.84
   0  13 -11   -1.32    3.30
   0  13 -12   19.91    5.83
   0  13 -13    1.66    2.94
   0  13 -14  212.74   19.90
   0  13 -15   39.64    9.02
   0  13 -16   36.48    9.04
   0  13 -17   79.50   13.48
   0  13 -18   51.90   11.23
   0  13 -19   -4.27    5.24
   0  13 -20   10.66    6.21
   0 -14   0   61.68   12.09
   0  14   0   -8.08    5.61
   0 -14  -1  312.40   27.32
   0  14  -1   -3.94    5.05
   0  14   1   -9.13    4.77
   0 -14   1  393.96   32.48
   0  14   2   -6.75    4.04
   0  14  -2   -5.85    3.69
   0 -14   2   -2.16    5.79
   0  14  -3  358.87   20.33
   0 -14   3  418.35   35.13
   0 -14   4    5.20    3.34
   0  14  -4   -3.83    4.16
   0 -14   5   84.42   14.48
   0  14  -5   84.27   10.32
   0 -14   6   13.86    6.58
   0  14  -6    7.32    3.17
   0  14  -7  283.77   20.04
   0  14  -8    5.53    3.43
   0  14  -9  244.81   19.56
   0  14 -10   11.60    4.60
   0  14 -11  122.96   14.59
   0  14 -12    6.67    4.18
   0  14 -13  137.24   16.13
   0  14 -14   17.48    5.87
   0  14 -15  167.85   18.72
   0  14 -16    9.88    5.21
   0  14 -17   69.94   12.34
   0  14 -18    3.01    4.04
   0  14 -19   26.31    8.79
   0  15   0   -6.61    4.29
   0 -15   0   -0.08    5.56
   0 -15   1   14.24    6.97
   0 -15  -1    6.85    5.07
   0 -15   2  335.12   32.35
   0  15  -2  -14.68    6.22
   0 -15   3   28.07    9.65
   0  15  -3  -13.16    6.61
   0 -15   4    2.97    4.78
   0  15  -4    1.53    1.91
   0 -15   5    4.04    4.63
   0  15  -5    7.88    3.75
   0 -15   6  222.26   25.49
   0  15  -6  232.06   18.31
   0 -15   7    9.26    7.13
   0  15  -7    6.58    3.34
   0 -15   8    1.28    3.01
   0  15  -8    1.04    2.12
   0  15  -9   -2.21    3.38
   0  15 -10  187.87   18.26
   0  15 -11    6.88    3.97
   0  15 -12    0.99    2.36
   0  15 -13   -1.63    3.01
   0  15 -14  123.86   16.27
   0  15 -15   10.10    5.69
   0  15 -16   11.35    6.71
   0  15 -17   -0.96    3.45
   0  15 -18   77.58   14.18
   0 -16   0  211.21   25.71
   0 -16   1   74.01   15.58
   0  16  -1   -2.00    2.68
   0 -16   2   48.11   11.89
   0  16  -2   -4.80    3.67
   0 -16   3   46.08   12.95
   0  16  -3   -6.17    4.59
   0  16  -4   -7.15    5.47
   0 -16   4   39.66   11.97
   0 -16   5   97.15   18.56
   0  16  -5  -12.89    6.29
   0  16  -6   10.79    5.04
   0 -16   6    7.69    6.61
   0  16  -7   57.64    9.60
   0 -16   7   73.55   15.52
   0 -16   8   75.24   15.40
   0  16  -8   91.78   12.49
   0 -16   9   80.84   15.39
   0  16  -9   82.37   12.29
   0 -16  10   17.21    7.87
   0  16 -10   11.26    4.27
   0  16 -11    9.30    4.09
   0  16 -12    3.92    2.88
   0  16 -13   56.76   11.26
   0  16 -14   17.19    6.35
   0  16 -15   25.90    8.50
   0  16 -16  103.49   15.89
   0 -17   0   -5.83    6.33
   0 -17   1  149.21   22.98
   0 -17   2    0.15    7.53
   0 -17   3   74.62   16.92
   0  17  -3   -0.26    1.60
   0 -17   4   14.48    6.54
   0  17  -4   -1.61    2.79
   0  17  -5   -5.31    4.59
   0 -17   5   77.70   19.67
   0  17  -6   -5.70    5.12
   0 -17   6  278.11   33.11
   0  17  -7   21.79    6.30
   0 -17   7  120.92   20.91
   0 -17   8   11.35    6.59
   0  17  -8   10.19    5.63
   0  17  -9    0.87    2.83
   0 -17   9   10.79    9.58
   0  17 -10    1.98    3.14
   0 -17  10    0.31    5.12
   0 -17  11   52.10   13.37
   0  17 -11   37.17    9.28
   0  17 -12   12.35    5.26
   0 -17  12   12.10    7.51
   0  17 -13   11.90    5.27
   0  17 -14  143.88   18.41
   0 -18   1  -10.67    8.91
   0 -18   2   41.90   12.11
   0 -18   3  -12.46    9.89
   0 -18   4  233.17   30.13
   0 -18   5   54.83   15.48
   0 -18   6   -4.15    7.36
   0 -18   7    5.81    8.42
   0 -18   8  121.78   21.81
   0  18  -8   -4.30    4.59
   0 -18   9   45.21   14.05
   0  18  -9   42.17    9.45
   0 -18  10   96.90   19.91
   0  18 -10   95.94   14.87
   0 -18  11   45.97   14.88
   0 -18  12  358.76   37.45
   0 -18  13   22.87   10.82
   0 -19   1  105.63   20.62
   0 -19   2   12.01    6.51
   0 -19   3  301.53   35.18
   0 -19   4   -7.52   11.17
   0 -19   5   10.15    6.55
   0 -19   6    1.17    5.87
   0 -19   7   75.93   18.70
   0 -19   8    8.65    7.76
   0 -19   9  214.90   31.53
   0 -19  10   20.13   11.19
   0 -19  11  102.47   21.81
   0 -20   2    1.97    6.80
   0 -20   3   -0.88    8.23
   0 -20   4  118.32   22.65
   0 -20   5   -6.47    8.04
   0 -20   6   21.70    9.80
   0 -20   7   13.58    8.35
   0 -20   8   -0.13    8.64
   0 -21   3   48.26   16.41
  -1   0  24    8.00    5.42
  -1   0  23   -3.65    4.64
  -1   0  22  100.90   15.25
   1   0 -21   -1.57    2.42
  -1   0  21   -0.61    3.07
  -1   0  20    1.63    2.85
   1   0 -20    0.13    2.18
  -1   0  19   -7.70    5.70
   1   0 -19   -1.74    2.05
   1   0 -18  666.66   25.91
  -1   0  18  638.41   33.39
  -1   0  17   -0.77    3.70
   1   0 -17    1.25    1.61
   1   0 -16  105.73    9.56
  -1   0  16  104.46   12.07
  -1   0  15   -1.14    3.34
   1   0 -15    0.27    1.19
   1   0 -14  620.82   21.15
  -1   0  14  640.65   27.78
  -1   0  13   -5.64    4.31
   1   0 -13    0.25    1.12
   1   0 -12  172.66    9.99
  -1   0  12  171.03   13.11
   1   0 -11   -0.37    1.41
  -1   0  11   -1.06    2.00
   1   0 -10  172.21    8.98
   1   0  -9    0.95    0.79
   1   0  -8   16.78    2.59
   1   0  -7    0.98    0.74
   1   0  -6  405.79   11.18
   1   0  -5   -0.75    0.82
   1   0  -4 2369.28   22.91
   1   0  -3    0.36    0.44
  -1   0   2   85.16    5.10
  -1   0   0    0.03    0.38
  -1   0  -1   33.33    2.66
  -1   0  -2 5554.89   32.45
  -1   0  -3    0.39    0.56
  -1   0  -4 1678.63   20.12
  -1   0  -5   -0.34    0.58
  -1   0  -6  975.30   17.73
  -1   0  -7    0.66    0.83
  -1   0  -8   40.55    4.17
  -1   0  -9   -0.71    1.17
  -1   0 -10 1011.42   23.07
  -1   0 -11   -0.47    1.01
  -1   0 -12  266.29   13.01
   1   0  13   -8.35    5.92
  -1   0 -13    1.09    1.60
  -1   0 -14  330.88   16.09
   1   0  14  322.84   22.18
   1   0  15   -1.42    3.42
  -1   0 -15    3.24    2.35
  -1   0 -16   26.01    4.89
   1   0  16   22.60    6.51
  -1   0 -17    1.18    1.72
   1   0  17   -1.33    4.42
  -1   0 -18  346.34   19.30
   1   0  18  324.50   26.81
   1   0  19   -4.61    6.88
  -1   0 -19   -1.97    2.47
   1   0  20   90.91   15.13
   1   0  21   -0.60    4.31
   1   0  22   25.60    8.84
   1   0  23   -2.41    6.80
   1   0  24    4.19    3.47
  -1  -1  24    0.83    3.83
  -1  -1  23   33.14   10.05
  -1   1  23   24.00    8.07
  -1   1  22   -1.19    5.82
   1   1 -22    0.59    1.99
  -1  -1  22   -1.64    4.99
   1   1 -21   46.63    8.17
  -1  -1  21   42.44    9.38
  -1   1  21   41.21    9.31
   1   1 -20    0.34    2.17
  -1   1  20   -2.33    3.17
   1  -1 -20   -0.81    2.54
  -1  -1  20    1.26    3.15
  -1  -1  19   58.39   10.49
  -1   1  19   59.02   10.94
   1   1 -19   64.45    8.64
   1  -1 -19   70.09    8.63
   1  -1 -18   58.16    7.63
  -1   1  18   45.36    8.81
   1   1 -18   56.45    7.64
  -1  -1  18   47.15    8.97
  -1   1  17  638.04   31.90
   1   1 -17  637.11   25.41
  -1  -1  17  618.22   31.14
   1  -1 -17  653.12   23.81
   1   1 -16  139.12   11.27
   1  -1 -16  149.57   10.90
  -1   1  16  144.67   14.53
  -1  -1  16  132.52   13.75
   1  -1 -15  256.41   13.57
   1   1 -15  263.21   14.55
  -1  -1  15  267.00   18.87
   1  -1 -14    0.45    0.97
   1   1 -14    0.41    1.46
  -1  -1  14   -0.40    3.17
  -1  -1  13  346.85   19.75
   1  -1 -13  324.54   14.18
   1   1 -13  333.12   15.12
   1  -1 -12  200.69   10.36
  -1  -1  12  210.23   14.50
   1   1 -12  205.07   11.30
   1   1 -11  110.87    7.82
   1  -1 -11  101.97    7.12
  -1  -1  11  105.25    9.54
   1   1 -10  129.25    8.30
  -1  -1  10  139.24   10.62
   1  -1 -10  135.45    7.71
   1   1  -9   40.92    4.55
   1  -1  -9   42.54    4.17
  -1  -1   9   43.87    5.53
   1   1  -8   98.99    6.52
  -1  -1   8  104.30    7.96
   1  -1  -8   99.72    6.03
  -1  -1   7   33.44    4.18
   1  -1  -7   36.70    3.37
   1   1  -7   36.60    3.74
   1  -1  -6   31.76    3.16
  -1  -1   6   37.52    4.09
   1   1  -6   40.67    3.68
   1  -1  -5 3636.26   29.12
   1   1  -5 3681.39   32.53
  -1  -1   4   36.11    3.16
   1   1  -4   36.02    3.01
   1   1  -3  557.45   10.76
  -1   1   3  557.24   13.07
  -1   1   2   20.01    2.41
   1   1  -2   25.61    2.00
  -1  -1   1  369.96    8.55
  -1   1   1    5.56    1.72
   1   1   0 1444.09   16.89
  -1  -1   0 1421.04   16.45
  -1   1   0 1438.52   14.27
   1  -1   1  516.72   10.57
   1   1   1  491.25    8.96
  -1  -1  -1  519.08    9.02
  -1  -1  -2 1370.06   14.20
   1  -1   2 1354.29   20.08
  -1   1  -2 1354.91   18.01
   1  -1   3 1904.57   26.91
  -1  -1  -3 1914.95   17.01
  -1   1  -3 1861.70   22.36
  -1  -1  -4    7.28    1.19
  -1   1  -4    8.32    1.67
   1  -1   4    9.87    2.26
  -1   1  -5 1529.24   23.08
   1  -1   5 1504.23   29.04
  -1  -1  -5 1503.13   18.19
  -1   1  -6   18.95    2.76
  -1  -1  -6   19.91    2.30
   1  -1   6   22.52    3.97
   1  -1   7 1039.37   28.10
  -1  -1  -7 1082.55   18.13
  -1   1  -7 1075.81   21.68
  -1  -1  -8   40.66    3.78
   1  -1   8   39.50    5.95
  -1   1  -8   41.01    4.48
  -1  -1  -9  461.92   13.74
  -1   1  -9  475.28   15.93
   1  -1   9  479.03   21.69
  -1   1 -10  105.79    7.95
   1  -1  10  103.84   10.46
  -1  -1 -10  103.30    6.99
  -1  -1 -11  166.07    9.38
  -1   1 -11  164.30   10.36
   1  -1  11  167.87   13.97
  -1  -1 -12    1.02    1.11
   1  -1  12   -3.74    4.97
  -1   1 -12    0.29    1.07
  -1   1 -13  280.61   14.72
  -1  -1 -13  276.82   13.52
   1  -1  13  275.00   20.10
   1  -1  14   39.37    7.11
  -1  -1 -14   48.20    5.85
  -1   1 -14   46.04    6.30
   1  -1  15  161.95   16.66
  -1   1 -15  161.21   12.18
  -1  -1 -15  166.01   11.52
   1  -1  16   34.61    8.06
   1   1  16   20.78    5.81
  -1  -1 -16   27.31    4.86
  -1   1 -16   34.26    6.08
   1  -1  17   43.18    9.48
  -1   1 -17   49.35    7.61
   1   1  17   36.97    8.67
  -1  -1 -17   39.08    6.02
   1   1  18   24.39    7.01
  -1  -1 -18   31.20    5.84
   1  -1  18   32.13    7.86
  -1   1 -18   32.90    6.35
   1   1  19  180.52   20.32
   1  -1  19  194.45   21.37
  -1   1 -19  193.08   15.34
  -1   1 -20   51.39    8.23
   1   1  20   54.13   11.57
   1  -1  20   53.69   11.92
   1   1  21   -8.44    6.61
   1  -1  21    4.22    5.22
   1  -1  22    2.43    4.28
   1   1  22   -6.25    5.94
   1   1  23   55.74   12.72
   1  -1  23   53.95   13.41
   1  -1  24   -8.28    7.42
   1   1  24   -1.94    6.16
  -1  -2  23   20.54    7.99
  -1   2  23   18.72    7.43
   1   2 -22   82.37   11.36
  -1   2  22   72.90   13.37
  -1  -2  22   69.69   12.98
  -1   2  21   21.30    7.50
  -1  -2  21   23.24    7.20
   1   2 -21   20.38    5.23
  -1  -2  20   21.23    6.79
   1   2 -20   14.01    4.72
  -1   2  20   11.50    3.88
   1   2 -19    4.41    3.01
   1  -2 -19    3.22    2.25
  -1  -2  19    1.19    2.62
  -1   2  19   -1.62    4.38
   1   2 -18  156.34   13.39
  -1  -2  18  150.44   16.54
   1  -2 -18  167.88   12.33
  -1   2  18  149.43   15.84
   1   2 -17    1.88    1.87
   1  -2 -17    3.99    2.21
  -1  -2  17    2.08    2.59
   1  -2 -16   22.82    4.31
  -1  -2  16   17.47    6.13
   1   2 -16   19.68    4.85
  -1  -2  15  769.56   32.70
   1   2 -15  769.13   25.84
   1  -2 -15  777.22   23.02
   1  -2 -14  371.99   15.46
   1   2 -14  375.08   17.34
  -1  -2  14  386.74   22.10
   1  -2 -13  171.78    9.94
   1   2 -13  161.31   11.07
  -1  -2  13  165.69   13.97
   1   2 -12    1.17    1.61
   1  -2 -12    1.46    0.87
  -1  -2  12    4.91    2.67
   1   2 -11  219.22   11.67
   1  -2 -11  216.10   10.17
  -1  -2  11  244.31   15.20
   1   2 -10   73.16    6.54
  -1  -2  10   76.09    8.11
   1  -2 -10   75.32    5.73
   1  -2  -9   86.81    5.84
  -1  -2   9   86.56    8.00
   1   2  -9   81.11    6.55
  -1  -2   8  339.47   14.90
   1  -2  -8  320.44   10.52
   1   2  -8  319.49   12.27
   1   2  -7  369.94   12.61
  -1  -2   7  386.79   14.89
   1   2  -6   27.83    3.26
  -1  -2   6   29.09    3.91
  -1   2   5  307.27   11.26
   1   2  -5  315.30   10.21
  -1   2   4  925.23   18.02
   1   2  -4  945.39   16.39
   1   2  -3  107.22    5.04
  -1   2   3  106.23    5.62
  -1   2   2  626.08   13.40
   1   2  -2  637.97   11.16
  -1   2   1  700.89   13.95
   1   2  -1  682.11   10.24
   1   2   0 1904.54   15.06
  -1   2   0 1852.36   22.00
  -1   2  -1  658.37   13.25
  -1  -2  -1  638.78    7.37
  -1  -2  -1  656.99    9.95
  -1   2  -2  691.77   14.22
  -1   2  -3   10.12    1.81
  -1  -2  -3   11.90    1.07
   1  -2   3    9.55    2.20
   1  -2   4   61.12    5.67
  -1  -2  -4   59.46    2.62
  -1   2  -4   65.68    4.92
  -1  -2  -5  101.10    3.93
  -1   2  -5  100.48    6.50
   1  -2   5  103.74    7.85
   1  -2   6  569.53   19.75
  -1  -2  -6  545.03   10.30
  -1   2  -6  569.35   16.11
  -1   2  -7   50.86    5.11
   1  -2   7   43.29    5.84
  -1  -2  -7   53.08    3.53
   1  -2   8    1.50    1.47
  -1  -2  -8    1.75    0.71
  -1   2  -8    2.01    0.98
  -1  -2  -9  546.93   13.58
   1  -2   9  556.73   23.36
  -1   2  -9  552.20   18.33
   1  -2  10 1596.48   41.80
  -1   2 -10 1577.63   32.33
  -1  -2 -10 1598.89   25.05
  -1   2 -11   40.83    5.36
  -1  -2 -11   39.95    4.30
   1  -2  11   45.14    7.83
  -1  -2 -12  178.09    9.51
   1  -2  12  162.59   14.98
  -1   2 -12  178.43   11.79
  -1  -2 -13  383.29   14.71
   1  -2  13  377.39   23.31
  -1   2 -13  366.97   17.79
  -1   2 -14   66.62    7.68
   1  -2  14   72.78   11.09
  -1  -2 -14   71.20    6.71
  -1  -2 -15   35.06    5.13
   1  -2  15   37.12    8.14
  -1   2 -15   38.64    6.39
  -1   2 -16   66.28    8.36
  -1  -2 -16   62.96    7.15
   1  -2  16   63.75   11.02
  -1   2 -17  321.12   19.33
   1  -2  17  324.83   26.12
  -1  -2 -17  339.26   17.10
  -1   2 -18  153.56   13.89
   1  -2  18  138.06   17.60
   1  -2  19   20.48    7.01
   1   2  19   13.96    5.40
  -1   2 -19   18.87    5.20
   1  -2  20    1.61    3.92
   1   2  20   -1.95    4.82
  -1   2 -20   -3.68    3.23
   1  -2  21    1.43    5.80
   1   2  21    4.05    3.34
   1   2  22   44.84   10.85
   1  -2  22   47.53   10.96
   1  -2  23   -0.04    5.16
   1   2  23   -9.68    7.06
   1  -2  24    9.48    7.57
   1   2  24    2.48    5.04
  -1   3  23    1.62    4.37
   1   3 -22   28.70    6.94
  -1   3  22   26.04    7.80
   1   3 -21    5.99    3.76
  -1   3  21   -2.85    5.48
  -1  -3  20   58.92   11.38
  -1   3  20   55.10   10.26
   1   3 -20   50.46    8.36
   1   3 -19    1.27    2.31
  -1  -3  19    2.59    4.05
  -1  -3  18    6.59    4.35
   1   3 -18    5.07    2.97
  -1  -3  17  112.73   14.04
   1   3 -17  125.53   11.76
   1   3 -16  125.65   11.34
  -1  -3  16  137.09   14.54
   1   3 -15  284.20   16.42
  -1  -3  15  278.11   20.35
   1   3 -14  168.23   12.20
  -1  -3  14  180.24   15.58
  -1  -3  13   46.44    7.85
   1   3 -13   39.74    5.59
   1   3 -12  703.78   22.67
  -1  -3  12  698.45   27.62
   1   3 -11  100.23    8.21
  -1  -3  11   96.12    9.97
  -1  -3  10  196.10   13.32
   1   3 -10  190.27   10.89
   1   3  -9  321.36   13.61
  -1   3   9  350.43   14.70
   1   3  -8 1010.74   23.05
  -1   3   8 1034.46   24.46
   1   3  -7   40.19    4.41
  -1   3   7   42.17    4.62
   1   3  -6   80.28    5.88
  -1   3   6   87.22    6.27
  -1   3   5 1296.37   22.16
   1   3  -5 1287.96   22.15
  -1   3   4 2190.22   27.57
   1   3  -4 2275.41   27.36
  -1   3   3  696.09   14.99
   1   3  -3  685.47   14.07
   1   3  -2   33.96    2.84
   1  -3  -2   36.78    3.64
  -1   3   2   41.99    3.82
  -1   3   1  171.60    7.19
   1   3  -1  171.14    5.66
  -1  -3   1  169.37    7.97
  -1   3   0  214.70    8.02
   1   3   0  215.45    5.51
   1   3   1   36.57    1.97
  -1   3  -1   34.42    3.35
  -1   3  -2  797.47   16.77
  -1   3  -3  113.54    6.60
  -1   3  -4   21.00    3.00
  -1  -3  -5    8.09    0.89
  -1   3  -5    7.82    1.99
  -1  -3  -6  426.46    7.45
  -1   3  -6  454.72   15.31
   1  -3   6  434.70   18.19
   1  -3   7  708.01   24.31
  -1  -3  -7  708.92   11.11
  -1   3  -7  722.77   20.19
   1  -3   8  654.35   24.76
  -1   3  -8  672.95   20.41
  -1  -3  -8  662.69   12.07
  -1   3  -9    1.01    1.66
  -1  -3  -9    1.35    0.80
   1  -3   9   -0.63    1.98
  -1  -3 -10  156.38    7.08
   1  -3  10  156.93   13.39
  -1   3 -10  157.86   10.72
  -1   3 -11  686.81   23.22
   1  -3  11  668.81   28.87
  -1  -3 -11  670.48   15.91
  -1   3 -12  804.93   26.30
   1  -3  12  791.98   32.83
  -1  -3 -12  789.00   18.54
   1  -3  13   13.76    5.63
  -1  -3 -13    9.48    2.25
  -1   3 -13    9.19    2.94
  -1   3 -14    8.15    2.79
  -1  -3 -14    9.87    2.45
   1  -3  14    2.81    2.56
  -1   3 -15   -0.07    2.30
  -1  -3 -15    0.50    1.27
   1  -3  16  304.47   24.16
  -1   3 -16  297.64   18.49
   1  -3  17    0.85    2.61
  -1   3 -17    0.98    2.65
   1  -3  18   -4.67    4.77
  -1   3 -18    2.76    2.82
  -1   3 -19   43.23    7.79
   1  -3  19   40.00   10.32
   1  -3  20   29.41    9.55
   1   3  20   33.38    8.76
  -1   3 -20   45.37    8.25
   1   3  21   -5.53    5.34
  -1   3 -21   -0.62    2.13
   1  -3  21    5.31    4.42
   1   3  22   -8.43    6.24
   1  -3  22    5.30    6.72
   1  -3  23   -3.18    6.54
   1   3  23   -0.08    3.50
   1   3  24   51.48   12.84
   1   4 -23   38.87    8.17
  -1   4  23   40.80    9.82
   1   4 -22   -0.87    2.76
  -1   4  22   -3.61    5.03
   1   4 -21    0.21    2.31
   1   4 -20    2.00    2.10
   1   4 -19  355.73   22.09
   1   4 -18   83.67   10.07
  -1   4  17   96.50   11.41
   1   4 -17  116.05   11.79
   1   4 -16   79.04    9.51
  -1   4  16   65.14    8.57
   1   4 -15  307.23   17.52
  -1   4  15  286.71   17.18
   1   4 -14   76.36    8.59
  -1   4  14   79.34    8.87
  -1   4  13  668.65   24.06
   1   4 -13  689.80   24.25
  -1   4  12   -1.74    2.31
   1   4 -12    1.85    1.46
   1   4 -11 1403.94   32.27
  -1   4  11 1426.66   32.34
  -1   4  10  196.38   11.49
   1   4 -10  192.73   11.51
  -1   4   9   73.04    6.73
   1   4  -9   68.93    6.81
   1   4  -8   39.03    4.83
  -1   4   8   39.60    4.71
  -1   4   7 3269.34   38.85
   1   4  -7 3272.27   41.23
  -1   4   6    8.80    2.09
   1   4  -6   10.60    2.57
  -1   4   5  871.20   18.02
   1   4  -5  854.10   19.18
  -1   4   4  172.78    7.84
   1   4  -4  161.49    7.85
   1   4  -3 2014.14   25.96
  -1   4   3 2035.50   26.54
   1  -4  -2 1186.56   24.26
  -1   4   2 1149.42   19.40
   1   4  -2 1125.75   17.94
   1  -4  -1  433.13   13.69
   1   4  -1  473.39   10.54
  -1  -4   1  452.99   15.07
  -1   4   1  462.88   12.33
   1   4   0  385.55    8.49
  -1   4   0  388.90   11.57
  -1  -4   0  408.16   14.73
  -1   4  -1  849.39   17.84
   1   4   1  863.39   10.79
  -1   4  -2  243.32    9.94
   1   4   2  203.81    4.38
  -1   4  -3 1541.16   26.19
  -1   4  -4  526.64   15.97
  -1   4  -5  822.41   20.93
  -1   4  -6   55.53    5.65
  -1  -4  -7  103.01    3.46
  -1   4  -7  155.13   10.01
  -1   4  -8  166.86   10.76
  -1  -4  -8  158.12    5.12
   1  -4   9 1473.53   40.05
  -1  -4  -9 1518.37   17.92
  -1   4  -9 1541.00   33.84
  -1   4 -10  126.60   10.01
   1  -4  10  116.93   12.08
  -1  -4 -10  115.72    5.53
   1  -4  11  489.02   25.08
  -1   4 -11  522.84   21.12
  -1  -4 -11  524.26   12.77
   1  -4  12    1.18    2.52
  -1  -4 -12    2.57    1.15
  -1   4 -12   -0.15    1.84
  -1   4 -13  861.83   29.26
  -1  -4 -13  863.85   19.21
   1  -4  13  805.90   35.61
  -1   4 -14    1.29    1.70
   1  -4  14    2.14    4.13
   1  -4  15    6.61    4.93
  -1   4 -15    2.51    2.10
  -1   4 -16   81.04   10.01
   1  -4  16   79.94   12.54
  -1   4 -17   56.86    8.74
   1  -4  17   53.26   11.24
  -1   4 -18    1.36    1.99
   1  -4  18   -3.43    3.97
   1  -4  19    1.34    4.09
  -1   4 -19    4.03    1.87
  -1   4 -20   11.42    4.39
  -1   4 -21  202.79   18.25
   1   4  22    7.09    4.53
   1   4  23   42.57   11.65
  -1   5  23  -12.17    7.22
   1   5 -23   -4.73    4.49
   1   5 -22   16.96    5.77
   1   5 -21   13.58    4.85
   1   5 -20   78.16   10.96
   1   5 -19    8.70    3.74
   1   5 -18   37.89    7.45
   1   5 -17   16.99    4.54
   1   5 -16  715.03   28.77
  -1   5  15   13.83    3.54
   1   5 -15   20.66    4.82
   1   5 -14   54.43    7.38
  -1   5  14   40.09    5.90
   1   5 -13  231.45   14.83
  -1   5  13  221.67   13.41
   1   5 -12  847.80   27.32
  -1   5  12  825.51   24.42
  -1   5  11  127.41    9.20
   1   5 -11  127.77   10.15
  -1   5  10   10.91    2.72
   1   5 -10   10.01    2.87
   1   5  -9   12.95    3.06
  -1   5   9   13.40    3.04
  -1   5   8  934.96   21.13
   1   5  -8  944.71   24.52
   1   5  -7    3.49    1.62
  -1   5   7    3.26    1.38
   1   5  -6  920.55   22.06
  -1   5   6  911.63   19.14
   1   5  -5  525.88   15.89
  -1   5   5  550.21   14.48
  -1   5   4 3096.58   33.70
   1   5  -4 3185.28   36.73
  -1   5   3 1745.58   24.96
   1   5  -3 1738.35   25.48
   1  -5  -3 1670.07   31.85
  -1   5   2   78.28    5.28
   1   5  -2   77.78    5.11
   1  -5  -2   75.95    6.89
  -1   5   1   52.92    4.53
   1   5  -1   54.21    3.95
  -1  -5   1   51.84    5.87
   1  -5  -1   46.82    5.77
  -1   5   0 3347.47   36.45
   1   5   0 3393.42   28.19
  -1  -5   0 3361.95   47.34
   1   5   1   42.53    2.78
  -1   5  -1   39.79    4.15
  -1  -5  -1   42.80    5.27
  -1   5  -2    6.97    1.98
   1   5   2    6.78    0.97
  -1   5  -3  708.27   18.95
  -1   5  -4  768.98   20.72
  -1   5  -5  459.46   16.70
  -1   5  -6  215.91   11.85
  -1   5  -7  447.07   17.61
  -1   5  -8 1772.65   36.79
  -1   5  -9    0.15    1.57
  -1   5 -10   16.14    3.60
  -1   5 -11    6.99    2.31
  -1   5 -12  322.45   18.02
  -1   5 -13  133.06   12.02
  -1   5 -14   27.65    5.48
  -1   5 -15  134.89   13.01
  -1   5 -16  159.59   14.60
  -1   5 -17    5.99    3.45
  -1   5 -18  130.23   13.79
  -1   5 -19    1.43    3.06
  -1   5 -20  118.81   14.09
  -1   5 -21   -1.82    2.70
   1   5  23   -6.14    6.36
   1   6 -23   97.69   13.97
   1   6 -22    2.56    4.31
   1   6 -21   -3.56    3.60
   1   6 -20   18.76    5.60
   1   6 -19  135.69   14.14
   1   6 -18   39.91    7.81
   1   6 -17   99.12   11.44
   1   6 -16    0.65    1.63
   1   6 -15  845.94   31.37
   1   6 -14  133.63   12.04
  -1   6  13    2.97    2.39
   1   6 -13    0.66    2.21
  -1   6  12    5.55    2.72
   1   6 -12    1.80    1.46
   1   6 -11   64.90    7.51
  -1   6  11   58.15    5.88
  -1   6  10   17.84    3.16
   1   6 -10   17.01    3.87
  -1   6   9   53.67    5.18
   1   6  -9   56.10    6.64
  -1   6   8   71.38    5.58
   1   6  -8   67.91    6.94
   1   6  -7 1303.96   28.89
  -1   6   7 1368.79   23.98
  -1   6   6  206.56    9.07
   1   6  -6  196.11   10.62
   1   6  -5   79.31    6.55
  -1   6   5   82.72    5.70
  -1   6   4  224.55    9.30
   1   6  -4  217.07   10.41
  -1   6   3 1545.15   24.41
   1   6  -3 1535.22   25.92
  -1   6   2    1.30    0.82
   1   6  -2    4.69    1.76
  -1  -6   2    4.18    2.16
   1  -6  -2    1.52    1.36
   1   6  -1 2306.49   27.93
  -1   6   1 2297.90   31.31
   1  -6  -1 2291.05   42.28
  -1  -6   1 2294.73   42.57
  -1   6   0   12.25    2.25
   1   6   0   12.63    2.01
  -1  -6   0   12.80    3.28
  -1  -6  -1    7.42    2.00
  -1   6  -1    4.99    1.60
   1   6   1    7.75    1.39
   1   6   2    2.99    0.76
  -1   6  -2   -0.72    1.53
  -1   6  -3   17.78    3.12
   1   6   3   15.30    1.32
  -1   6  -4    9.20    2.37
  -1   6  -5  740.42   22.24
  -1   6  -6  470.64   18.51
  -1   6  -7  213.50   12.96
  -1   6  -8   64.48    7.36
  -1   6  -9  598.77   22.90
  -1   6 -10   87.27    9.22
  -1   6 -11   91.04    9.55
  -1   6 -12   -0.88    2.43
  -1   6 -13   59.05    8.25
  -1   6 -14  171.67   14.56
  -1   6 -15  316.49   20.47
  -1   6 -16    1.12    2.18
  -1   6 -17  357.32   22.97
  -1   6 -18    7.03    3.37
  -1   6 -19    0.11    3.03
  -1   6 -20    4.85    2.36
  -1   6 -21   90.59   13.18
   1   7 -23   -2.05    3.87
   1   7 -22   18.83    5.86
   1   7 -21  196.47   18.88
   1   7 -20   21.28    6.21
   1   7 -19   17.59    5.43
   1   7 -18   20.15    5.79
   1   7 -17  149.90   14.41
   1   7 -16  305.92   20.19
   1   7 -15   15.60    4.50
   1   7 -14   84.48    9.82
   1   7 -13  493.70   23.42
   1   7 -12    3.91    2.28
   1   7 -11    0.27    1.99
  -1   7  10   -4.07    2.88
   1   7 -10    0.17    1.25
   1   7  -9  253.93   14.43
  -1   7   9  199.28    9.60
  -1   7   8  470.32   14.25
   1   7  -8  489.64   19.31
   1   7  -7   17.30    3.74
  -1   7   7   19.51    2.98
  -1   7   6   88.45    6.02
   1   7  -6   80.60    7.43
   1   7  -5  379.19   15.29
  -1   7   5  414.02   13.08
  -1   7   4  516.02   14.75
   1   7  -4  487.74   16.50
  -1   7   3   87.35    6.17
   1  -7  -3   75.26    8.02
   1   7  -3   84.36    6.62
   1  -7  -2   47.95    6.92
   1   7  -2   56.83    5.14
  -1  -7   2   53.76    7.14
  -1   7   2   51.90    4.94
   1  -7  -1  948.94   30.06
  -1   7   1  864.37   20.46
  -1  -7   1  885.38   29.30
   1   7  -1  890.21   18.80
  -1   7   0  512.13   16.13
   1   7   0  519.79   13.23
   1   7   1  237.55    8.07
  -1  -7  -1  206.36   13.72
  -1   7  -1  231.51   11.22
  -1   7  -2    0.73    0.97
   1   7   2    1.13    0.64
   1   7   3  235.58    6.11
  -1   7  -3  258.97   12.89
  -1   7  -4    1.06    1.22
  -1   7  -5  171.59   11.41
  -1   7  -6  214.76   13.14
  -1   7  -7  546.14   21.63
  -1   7  -8  507.97   21.61
  -1   7  -9  208.61   14.15
  -1   7 -10  140.78   11.98
  -1   7 -11  294.36   18.00
  -1   7 -12  161.72   13.72
  -1   7 -13  342.46   20.64
  -1   7 -14   75.92   10.14
  -1   7 -15  142.55   14.17
  -1   7 -16  187.73   16.78
  -1   7 -17   55.73    9.72
  -1   7 -18   62.16   10.35
  -1   7 -19   92.06   12.96
  -1   7 -20   85.99   12.94
  -1   7 -21   20.31    6.88
  -1   7 -22    0.69    3.57
   1   8 -23    2.38    3.83
   1   8 -22   77.54   12.62
   1   8 -21    5.11    2.73
   1   8 -20   63.54   10.36
   1   8 -19   17.40    6.05
   1   8 -18  104.58   12.79
   1   8 -17   -1.50    2.54
   1   8 -16   16.04    4.95
   1   8 -15  184.16   15.60
   1   8 -14  148.67   13.86
   1   8 -13    3.06    1.80
   1   8 -12  338.82   19.36
   1   8 -11   93.35    9.86
   1   8 -10  274.63   16.48
  -1   8   9   -0.25    0.75
   1   8  -9  140.37   11.44
  -1   8   8   -0.30    0.64
   1   8  -8  108.07    9.65
   1   8  -7   42.25    5.77
  -1   8   7   -0.47    1.00
  -1   8   6   -1.65    1.51
   1   8  -6  686.38   22.38
   1   8  -5   11.95    2.94
  -1   8   5    1.29    1.42
  -1   8   4   85.43    6.24
   1   8  -4   84.03    7.29
   1   8  -3    4.14    1.97
  -1   8   3    0.91    0.85
   1  -8  -3    1.15    1.53
   1   8  -2  946.79   22.18
  -1  -8   2  921.70   32.13
  -1   8   2  963.19   22.05
   1  -8  -2  944.66   32.14
   1   8  -1    5.78    1.86
  -1   8   1    3.72    1.27
  -1  -8   1    1.34    1.74
   1  -8  -1    3.22    1.75
   1   8   0  103.16    6.49
  -1  -8   0   99.67   10.13
  -1   8   0  105.93    7.76
   1  -8   0  121.70   11.58
   1   8   1  444.17   12.22
  -1   8  -1  422.37   16.16
   1   8   2 1141.54   17.82
  -1   8  -2 1130.89   27.56
  -1   8  -3    8.78    2.34
   1   8   3    9.83    1.48
  -1   8  -4   28.03    4.75
  -1   8  -5   14.70    3.42
  -1   8  -6  603.24   22.85
  -1   8  -7    6.62    2.32
  -1   8  -8   55.15    7.64
  -1   8  -9   89.24    9.73
  -1   8 -10  438.28   22.24
  -1   8 -11   -0.81    2.35
  -1   8 -12    0.22    2.09
  -1   8 -13  147.46   14.18
  -1   8 -14  863.78   35.09
  -1   8 -15   79.27   11.19
  -1   8 -16   35.06    7.33
  -1   8 -17   52.14    9.39
  -1   8 -18   16.23    5.60
  -1   8 -19   13.35    4.80
  -1   8 -20    5.85    4.35
  -1   8 -21   24.39    7.95
   1   9 -22   -3.59    5.07
   1   9 -21   90.03   13.14
   1   9 -20    0.77    3.05
   1   9 -19   46.24    8.47
   1   9 -18    9.09    4.22
   1   9 -17  209.51   18.17
   1   9 -16    8.46    4.12
   1   9 -15  101.51   12.31
   1   9 -14   24.46    5.45
   1   9 -13  624.59   28.16
   1   9 -12  168.74   14.48
   1   9 -11   30.70    6.13
   1   9 -10  102.20   10.60
   1   9  -9  335.39   18.42
   1   9  -8  120.73   10.59
  -1   9   7    0.17    0.74
   1   9  -7   72.97    7.88
  -1   9   6    0.06    0.56
   1   9  -6    3.64    2.21
  -1   9   5   -0.41    0.71
   1   9  -5 2037.95   39.11
  -1   9   4   24.51    3.81
   1   9  -4   20.18    4.03
   1   9  -3  287.72   13.60
  -1   9   3  312.00   12.86
  -1  -9   3  329.19   20.51
   1  -9  -3  264.67   17.28
  -1  -9   2   57.02    8.75
   1  -9  -2   50.34    7.77
  -1   9   2   49.08    5.37
   1   9  -2   54.73    5.81
   1   9  -1 2253.47   34.30
  -1   9   1 2201.21   36.43
   1   9   0  253.49   10.86
  -1  -9   0  218.46   15.98
   1  -9   0  269.92   19.34
  -1   9   0  231.12   12.32
   1  -9   1  507.77   23.85
   1   9   1  618.78   15.71
  -1   9  -1  610.88   20.55
  -1  -9  -1  530.66   24.80
   1   9   2   13.92    2.33
  -1   9  -2   12.98    2.81
   1   9   3  893.54   15.37
  -1   9  -3  941.00   27.16
  -1   9  -4   38.45    5.66
  -1   9  -5  156.94   11.82
  -1   9  -6   16.67    3.95
  -1   9  -7 1369.60   37.12
  -1   9  -8   77.44    9.30
  -1   9  -9  268.96   17.28
  -1   9 -10   51.60    7.80
  -1   9 -11  256.44   17.84
  -1   9 -12    5.11    3.46
  -1   9 -13  317.37   21.28
  -1   9 -14   35.21    7.24
  -1   9 -15  176.04   17.16
  -1   9 -16   29.37    6.96
  -1   9 -17   15.83    4.99
  -1   9 -18    7.04    3.44
  -1   9 -19   95.29   13.78
  -1   9 -20    9.88    4.82
  -1   9 -21   12.53    5.92
   1  10 -22   69.13   12.53
   1  10 -21   47.20   10.24
   1  10 -20   68.39   11.78
   1  10 -19    1.07    2.61
   1  10 -18   35.18    8.20
   1  10 -17   -1.04    3.16
   1  10 -16    6.25    3.80
   1  10 -15    1.50    2.62
   1  10 -14  512.15   27.39
   1  10 -13   -0.75    3.12
   1  10 -12   15.64    4.60
   1  10 -11  100.24   11.14
   1  10 -10  443.43   22.68
   1  10  -9  128.70   11.85
   1  10  -8   86.95    9.17
   1  10  -7  105.18   10.08
  -1  10   7    0.23    0.62
  -1  10   6    0.20    0.62
   1  10  -6  312.56   16.48
   1  10  -5    0.01    1.48
  -1  10   5    0.39    0.62
   1  10  -4  599.68   21.46
  -1 -10   4  527.36   27.46
  -1  10   3   95.26    7.41
  -1 -10   3  100.78   13.15
   1  10  -3   98.91    8.46
   1 -10  -3   89.04   10.87
   1  10  -2 1657.34   33.26
  -1  10   2 1697.64   32.94
   1 -10  -2 1700.21   49.57
  -1 -10   1   58.56    9.05
   1 -10  -1   76.92   12.06
  -1  10   1   55.69    6.15
   1  10  -1   62.47    6.26
  -1 -10   0  360.61   21.88
  -1  10   0  385.84   16.87
   1  10   0  411.90   14.81
   1 -10   1  201.69   17.94
  -1  10  -1  176.44   11.64
   1  10   1  177.17    9.13
   1  10   2 2100.15   28.81
  -1  10  -2 2120.30   41.64
  -1  10  -3    2.16    1.42
   1  10   3    5.34    1.45
  -1  10  -4  169.44   12.31
  -1  10  -5   50.49    6.99
  -1  10  -6 1205.33   35.44
  -1  10  -7   15.79    4.00
  -1  10  -8    2.20    1.66
  -1  10  -9    3.45    2.89
  -1  10 -10  427.12   23.35
  -1  10 -11   39.36    7.47
  -1  10 -12   62.78    9.47
  -1  10 -13   70.98   10.01
  -1  10 -14   84.03   11.64
  -1  10 -15   -0.73    3.32
  -1  10 -16   30.28    7.66
  -1  10 -17   -2.89    3.19
  -1  10 -18   20.39    6.69
  -1  10 -19   -4.65    5.76
  -1  10 -20    2.58    3.03
  -1  10 -21   10.91    5.87
   1  11 -22   -0.09    4.51
   1  11 -21   76.32   13.37
   1  11 -20   -1.03    3.50
   1  11 -19   -2.94    5.33
   1  11 -18    1.83    2.79
   1  11 -17   16.73    5.73
   1  11 -16   63.54   10.82
   1  11 -15   39.61    8.39
   1  11 -14   18.69    5.92
   1  11 -13  218.58   17.86
   1  11 -12  218.19   17.56
   1  11 -11  134.15   13.35
   1  11 -10   64.53    9.10
   1  11  -9  294.53   18.71
   1  11  -8   23.66    4.63
   1  11  -7   18.87    4.60
   1  11  -6   60.87    7.71
  -1  11   6   -1.46    1.36
  -1 -11   5  121.22   13.33
   1  11  -5  139.26   11.40
   1  11  -4  133.78   10.61
  -1 -11   4  144.52   15.94
   1  11  -3   79.29    7.95
   1 -11  -3   65.91    9.28
  -1 -11   3   72.49   12.03
   1  11  -2  449.22   17.99
   1 -11  -2  444.08   27.01
  -1  11   1 1220.02   30.47
   1  11  -1 1229.23   28.53
  -1 -11   1 1180.57   44.69
   1  11   0  285.69   13.25
  -1 -11   0  246.35   19.22
  -1  11   0  274.34   14.96
   1  11   1  224.61   10.96
  -1 -11  -1  175.77   15.85
  -1  11  -1  212.13   13.40
   1 -11   1  234.24   21.25
   1  11   2  420.47   13.99
   1 -11   2  402.70   25.97
  -1  11  -2  426.54   19.56
  -1  11  -3  509.79   21.91
  -1  11  -4  558.97   23.65
  -1  11  -5  465.64   22.29
  -1  11  -6    9.21    3.57
  -1  11  -7  111.77   11.34
  -1  11  -8   27.03    5.64
  -1  11  -9   61.88    8.91
  -1  11 -10   15.25    4.96
  -1  11 -11  312.84   21.36
  -1  11 -12  201.87   17.58
  -1  11 -13   40.61    7.94
  -1  11 -14   34.21    7.80
  -1  11 -15   96.83   12.96
  -1  11 -16   60.69   10.80
  -1  11 -17    3.98    4.16
  -1  11 -18    0.20    2.89
  -1  11 -19    7.85    5.40
  -1  11 -20    8.72    3.97
   1  12 -21    1.38    4.01
   1  12 -20   -3.24    4.36
   1  12 -19   93.62   13.98
   1  12 -18   47.31   10.26
   1  12 -17    1.46    3.70
   1  12 -16    9.56    4.33
   1  12 -15  140.12   15.73
   1  12 -14   27.24    7.20
   1  12 -13   26.86    6.38
   1  12 -12    2.02    2.03
   1  12 -11  285.72   20.47
   1  12 -10   81.97   10.88
   1  12  -9   56.49    8.56
   1  12  -8   21.26    5.14
   1  12  -7  134.09   12.35
  -1 -12   6  394.97   25.54
   1  12  -6  488.80   22.78
  -1 -12   5  118.64   15.84
   1  12  -5  103.44   10.34
  -1  12   4   -0.10    1.01
   1  12  -4   -1.40    1.80
  -1 -12   4   -2.45    4.82
   1 -12  -3  242.09   20.44
   1  12  -3  266.98   15.30
  -1 -12   3  276.20   24.78
   1 -12  -2  448.93   29.11
   1  12  -2  431.22   18.94
   1  12  -1    0.16    1.04
  -1  12   1   -3.96    2.79
   1 -12  -1    5.04    2.60
  -1 -12   1   -3.40    4.89
  -1  12   0  158.01   11.99
   1  12   0  163.59   10.59
  -1 -12   0  144.13   15.87
  -1 -12  -1    0.36    2.64
  -1  12  -1    2.86    2.50
   1 -12   1    6.03    5.41
   1  12   1    3.38    1.69
   1 -12   2  607.83   35.69
  -1  12  -2  558.52   23.57
   1  12   2  538.37   17.13
  -1  12  -3  302.41   17.81
   1 -12   3  235.77   19.84
  -1  12  -4  121.90   11.44
  -1  12  -5  117.84   11.65
  -1  12  -6   74.66    9.45
  -1  12  -7    1.05    3.24
  -1  12  -8  212.16   16.79
  -1  12  -9  173.48   15.57
  -1  12 -10  208.50   17.43
  -1  12 -11   69.54   10.32
  -1  12 -12    7.75    4.11
  -1  12 -13  146.60   15.97
  -1  12 -14   89.91   12.82
  -1  12 -15   32.41    8.14
  -1  12 -16    3.60    3.73
  -1  12 -17   42.79    9.52
  -1  12 -18   36.23    9.45
  -1  12 -19   27.45    8.44
  -1  12 -20   14.07    6.89
   1  13 -20   10.03    6.26
   1  13 -19   15.57    5.57
   1  13 -18   57.67   11.24
   1  13 -17   34.77    8.89
   1  13 -16   95.67   13.92
   1  13 -15    1.54    2.99
   1  13 -14  193.79   18.48
   1  13 -13    6.83    4.36
   1  13 -12  348.22   23.79
   1  13 -11   34.72    7.25
   1  13 -10   36.26    7.62
   1  13  -9   22.54    5.50
   1  13  -8  201.67   16.29
   1  13  -7   10.35    3.35
  -1 -13   7    6.61    4.05
  -1 -13   6    2.08    3.62
   1  13  -6   -1.57    2.54
  -1 -13   5  208.28   22.31
   1  13  -5  212.94   15.46
   1  13  -4  697.08   26.92
  -1 -13   4  758.10   43.60
   1 -13  -3  172.53   18.75
   1  13  -3  200.68   13.94
   1  13  -2   27.61    5.06
   1 -13  -2   23.36    7.28
  -1 -13   2   23.44    7.12
  -1 -13   1   93.73   14.13
   1 -13  -1   94.55   14.53
   1  13  -1   97.99    9.17
   1  13   0   87.98    8.33
   1 -13   0   97.29   15.54
  -1 -13   0   84.08   12.92
  -1  13  -1   26.25    6.09
   1 -13   1   16.20    6.52
   1  13   1   16.04    3.69
   1 -13   2   44.11   10.51
  -1  13  -2   43.05    7.35
   1 -13   3   88.19   14.22
  -1  13  -3   91.87   10.42
   1 -13   4  239.83   21.22
  -1  13  -4  326.34   19.65
  -1  13  -5   57.56    8.67
  -1  13  -6   52.07    8.67
  -1  13  -7  304.48   20.50
  -1  13  -8  110.61   12.80
  -1  13  -9   17.66    5.14
  -1  13 -10    1.33    2.54
  -1  13 -11   39.48    8.16
  -1  13 -12  218.81   19.93
  -1  13 -13    2.38    2.41
  -1  13 -14   -2.21    3.54
  -1  13 -15    0.88    3.54
  -1  13 -16  232.41   22.18
  -1  13 -17    9.46    5.08
  -1  13 -18    0.03    2.85
  -1  13 -19   26.11    8.05
   1  14 -19   28.89    9.05
   1  14 -18   11.08    6.46
   1  14 -17   -0.12    2.80
   1  14 -16   37.43    9.37
   1  14 -15  160.40   17.95
   1  14 -14   26.65    7.51
   1  14 -13   24.91    7.08
   1  14 -12   -3.16    4.08
   1  14 -11  255.01   20.63
   1  14 -10   43.08    8.53
   1  14  -9   74.44   10.85
   1  14  -8    1.66    2.97
  -1 -14   8    9.68    5.80
   1  14  -7  340.47   21.60
  -1 -14   7  349.33   29.52
   1  14  -6   33.77    7.04
  -1 -14   6   34.83    9.88
   1  14  -5  243.61   17.11
  -1 -14   5  273.87   27.58
  -1 -14   4    2.57    6.54
   1  14  -4    2.02    2.18
   1  14  -3  398.95   20.60
  -1 -14   3  410.68   33.88
  -1 -14   2   46.34   11.53
   1 -14  -2   45.70   11.31
   1  14  -2   46.28    7.27
   1  14  -1  205.82   14.02
   1 -14  -1  192.30   22.20
  -1 -14   1  176.20   20.54
  -1 -14   0   24.38    7.71
   1  14   0   46.52    6.59
   1 -14   0   39.92   10.01
   1 -14   1  317.90   32.17
  -1  14  -1   -0.02    1.62
  -1  14  -2   54.29    8.49
   1 -14   2   81.94   14.98
   1 -14   3  146.72   19.49
  -1  14  -3  154.41   14.23
   1 -14   4   11.01    7.36
  -1  14  -4    7.02    2.89
   1 -14   5  147.78   17.77
  -1  14  -5  188.86   16.27
  -1  14  -6    7.21    3.29
  -1  14  -7   -1.54    3.49
  -1  14  -8    1.78    2.55
  -1  14  -9  261.09   20.53
  -1  14 -10    9.07    4.54
  -1  14 -11   59.69   10.56
  -1  14 -12    0.73    3.66
  -1  14 -13   92.11   13.18
  -1  14 -14    9.85    5.25
  -1  14 -15   35.09    8.50
  -1  14 -16   -0.33    2.92
  -1  14 -17   33.73    8.97
  -1  14 -18   19.78    7.11
   1  15 -18   -0.70    4.01
   1  15 -17   20.82    7.83
   1  15 -16  220.16   22.06
   1  15 -15  125.76   16.52
   1  15 -14   19.03    7.11
   1  15 -13   11.60    5.83
   1  15 -12   37.12    8.55
   1  15 -11    1.09    2.87
  -1 -15  10   42.54   11.00
   1  15 -10   41.72    8.64
   1  15  -9    3.02    3.28
  -1 -15   9    4.52    4.34
  -1 -15   8  202.09   24.20
   1  15  -8  200.59   17.51
  -1 -15   7    0.80    5.33
   1  15  -7   -1.98    3.21
   1  15  -6    5.76    3.10
  -1 -15   6    8.81    5.52
   1  15  -5   61.86    9.41
  -1 -15   5   55.28   13.23
   1  15  -4  481.03   24.59
  -1 -15   4  588.12   43.71
  -1 -15   3   -4.52    5.94
   1  15  -3   11.31    5.35
   1  15  -2   66.54    8.72
   1 -15  -2   49.80   10.96
  -1 -15   2   46.22   11.63
   1  15  -1    1.29    2.48
  -1 -15   1    3.64    3.63
   1 -15  -1    2.85    4.38
  -1  15   1    0.58    1.23
   1 -15   0  279.55   28.69
  -1 -15   0  235.72   24.40
  -1  15  -1    0.03    1.37
   1 -15   1    1.95    5.68
   1 -15   2    8.13    5.88
  -1  15  -2    0.30    1.95
  -1  15  -3    0.26    1.70
   1 -15   3   22.03    9.79
   1 -15   4  287.05   29.04
  -1  15  -4  273.37   19.83
   1 -15   5   11.05    5.05
  -1  15  -5    2.83    2.87
   1 -15   6   35.53    9.95
  -1  15  -6   27.17    6.27
  -1  15  -7   43.88    8.54
  -1  15  -8   75.90   11.37
  -1  15  -9   -1.64    3.17
  -1  15 -10   31.05    8.17
  -1  15 -11   -0.54    4.06
  -1  15 -12  150.91   17.58
  -1  15 -13   -2.84    4.08
  -1  15 -14   17.57    6.80
  -1  15 -15   19.02    7.04
  -1  15 -16   70.88   12.87
  -1  15 -17   39.36   10.05
   1  16 -16    6.09    3.75
   1  16 -15   -2.41    3.60
   1  16 -14   31.16    8.72
   1  16 -13   50.02   10.75
   1  16 -12   58.40   11.20
  -1 -16  12   43.02   11.20
   1  16 -11   42.09    9.32
  -1 -16  11   37.07   10.91
   1  16 -10    6.13    3.90
  -1 -16  10    1.67    3.77
   1  16  -9    5.94    3.39
  -1 -16   9    5.72    4.83
   1  16  -8    7.51    4.46
  -1 -16   8    4.96    6.11
  -1 -16   7    4.46    7.29
   1  16  -7   13.97    6.33
   1  16  -6   39.60    9.01
  -1 -16   6   15.98    7.25
   1  16  -5   63.53    9.77
  -1 -16   5   76.53   17.69
   1  16  -4   -4.30    3.24
  -1 -16   4   20.81    8.85
  -1 -16   3  164.29   22.72
   1  16  -3   -1.76    2.27
  -1 -16   2  156.72   21.76
  -1 -16   1   51.61   12.57
   1 -16  -1   59.67   13.30
   1 -16   0   94.74   17.27
  -1  16   0   -2.02    2.47
  -1  16  -1   -4.13    4.19
   1 -16   1  283.03   31.00
   1 -16   2  276.83   31.33
  -1  16  -2  -10.75    5.64
   1 -16   3   35.18   11.46
  -1  16  -3   -9.98    6.71
  -1  16  -4  -12.34    7.72
   1 -16   4   54.13   14.37
  -1  16  -5   32.55    5.61
   1 -16   5  116.23   19.40
  -1  16  -6   -0.77    3.19
   1 -16   6   -1.01    4.77
  -1  16  -7   -1.32    2.87
   1 -16   7   12.11    8.05
   1 -16   8    5.29    5.96
  -1  16  -8   -2.62    3.92
  -1  16  -9    9.36    3.96
  -1  16 -10   44.29    9.57
  -1  16 -11   37.63    9.22
  -1  16 -12   -9.73    6.20
  -1  16 -13   29.41    8.09
  -1  16 -14   -3.01    4.66
  -1  16 -15   -5.54    4.88
  -1  16 -16    6.59    4.22
   1  17 -14    9.53    5.44
  -1 -17  14   21.54    8.47
  -1 -17  13   46.82   12.26
   1  17 -13   72.22   12.72
  -1 -17  12  291.96   31.96
   1  17 -12  313.29   25.70
  -1 -17  11    3.97    6.31
   1  17 -11    7.67    5.35
  -1 -17  10   21.15    9.16
   1  17 -10   18.15    6.70
   1  17  -9   16.91    7.46
  -1 -17   9   -0.20    5.18
   1  17  -8   80.89   12.95
  -1 -17   8   47.31   14.23
   1  17  -7    6.43    4.78
  -1 -17   7   42.51   13.74
  -1 -17   6    4.60    6.70
   1  17  -6   -0.83    2.07
  -1 -17   5  329.75   34.85
   1  17  -5    0.47    2.07
  -1 -17   4   96.71   18.07
  -1 -17   3   73.03   15.92
  -1 -17   2   34.24   10.09
  -1 -17   1   29.57    9.17
   1 -17  -1   21.18    8.20
   1 -17   0   38.48   11.78
   1 -17   1   20.56    9.42
   1 -17   2   -4.13    6.12
  -1  17  -2    0.06    1.62
  -1  17  -3   -2.60    3.30
   1 -17   3   33.42   11.18
  -1  17  -4   -6.16    4.72
   1 -17   4  106.79   21.03
  -1  17  -5  -10.07    6.44
   1 -17   5   13.02    8.75
  -1  17  -6  -14.77    8.32
   1 -17   6   17.87    7.65
   1 -17   7  275.94   31.53
  -1  17  -7  264.16   22.36
  -1  17  -8   52.31   10.67
   1 -17   8   65.35   15.41
   1 -17   9   18.08    8.08
  -1  17  -9    8.50    4.33
  -1  17 -10    3.57    3.21
   1 -17  10    9.52    7.94
  -1  17 -11    4.49    3.10
  -1  17 -12  101.10   15.20
  -1  17 -13   74.07   13.73
  -1  17 -14  111.15   16.43
  -1 -18  13    9.83    7.72
  -1 -18  12   11.70    9.17
  -1 -18  11   22.24   11.13
  -1 -18  10  103.95   21.37
  -1 -18   9   76.35   18.68
  -1 -18   8   28.61   14.19
  -1 -18   7   29.17   12.97
  -1 -18   6  297.21   34.78
  -1 -18   5    5.56    5.67
  -1 -18   4   26.17    9.80
  -1 -18   3   21.84    9.02
  -1 -18   2  171.10   24.88
   1 -18   0  -10.46    8.56
   1 -18   1   87.07   18.31
   1 -18   2   72.85   16.42
   1 -18   3    8.77    7.06
   1 -18   4   13.59    8.56
   1 -18   5   42.92   14.77
   1 -18   6  210.68   29.38
  -1  18  -6   -2.61    3.54
   1 -18   7   -6.87    8.34
  -1  18  -7  -12.01    6.73
   1 -18   8   53.02   14.39
  -1  18  -8    1.64    5.15
  -1  18  -9   51.04   10.48
   1 -18   9   56.46   15.42
   1 -18  10  163.26   25.18
  -1  18 -10  158.48   19.10
   1 -18  11   18.25   10.10
   1 -18  12    3.52    6.18
  -1 -19  11    5.09    6.03
  -1 -19  10    1.48    5.18
  -1 -19   9   47.29   17.04
  -1 -19   8   -1.55    7.68
  -1 -19   7  112.06   21.46
  -1 -19   6    7.40    7.18
  -1 -19   5   65.38   17.22
  -1 -19   4  -11.35   11.00
  -1 -19   3   -2.93    8.23
   1 -19   0   13.52    7.91
   1 -19   1   31.27   10.92
   1 -19   2   10.69    6.08
   1 -19   3  126.70   23.06
   1 -19   4    7.59    5.88
   1 -19   5   90.36   20.23
   1 -19   6    5.38    8.14
   1 -19   7   53.77   15.83
   1 -19   8   -3.62    5.90
   1 -19   9   -0.48    6.01
   1 -19  10   -3.23    5.93
  -1 -20   8   13.82   10.13
  -1 -20   7   29.88   13.24
  -1 -20   6   11.05    7.62
  -1 -20   5   18.00    6.66
  -1 -20   4   35.72   13.99
   1 -20   1    3.83    6.40
   1 -20   2  119.93   22.89
   1 -20   3   -2.35    7.53
   1 -20   4    5.47    6.48
   1 -20   5    9.30    7.83
   1 -20   6   84.87   21.03
   1 -20   7    9.09   10.77
  -2   0  23   -3.32    4.01
   2   0 -22  144.48   14.59
  -2   0  22  137.28   16.89
   2   0 -21   -0.60    2.22
  -2   0  21   -3.19    4.44
   2   0 -20  441.57   23.11
  -2   0  20  431.41   27.71
  -2   0  19    0.33    3.03
   2   0 -19    2.14    2.67
   2   0 -18  146.31   12.39
  -2   0  18  142.91   14.93
   2   0 -17   -0.71    1.60
  -2   0  17   -3.40    3.53
  -2   0  16  120.04   12.36
   2   0 -16  119.59    9.90
   2   0 -15   -0.24    1.81
  -2   0  15   -2.79    3.14
   2   0 -14  277.67   14.27
  -2   0  14  279.67   17.26
  -2   0  13   -1.57    2.30
   2   0 -13   -0.39    1.37
   2   0 -12  532.98   18.17
  -2   0  12  533.73   21.23
  -2   0  11   -2.24    1.83
   2   0 -11    0.26    0.97
  -2   0  10   -1.53    1.92
   2   0 -10    1.03    0.95
   2   0  -9    0.18    0.68
  -2   0   9    3.66    1.61
   2   0  -8 6620.96   53.71
  -2   0   8 6627.94   55.63
   2   0  -7    0.32    0.76
  -2   0   7    0.56    1.26
  -2   0   6 1528.43   21.03
  -2   0   5    0.05    0.61
  -2   0   4  895.80   10.43
  -2   0   4  894.46   22.00
  -2   0   3    1.14    1.07
  -2   0   2  163.28    8.65
  -2   0   1    2.03    1.24
  -2   0   0 9999.00   63.22
  -2   0  -1    5.34    1.85
  -2   0  -3    0.40    0.80
  -2   0  -4  667.23   16.17
  -2   0  -5    0.95    1.23
  -2   0  -6  136.76    7.62
  -2   0  -7   -0.03    0.80
  -2   0  -8 2810.98   38.02
  -2   0  -9    0.40    0.77
  -2   0 -10  157.23    9.81
  -2   0 -11    0.93    0.98
  -2   0 -12   22.11    4.05
  -2   0 -13    0.74    1.30
   2   0  13   -4.97    4.51
   2   0  14   54.44    9.94
  -2   0 -14   46.04    6.29
  -2   0 -15   -0.65    1.54
   2   0  15   -4.69    4.75
  -2   0 -16  224.45   14.90
   2   0  16  221.11   21.43
  -2   0 -17    0.49    1.52
   2   0  17   -0.93    4.73
   2   0  18   30.14    8.21
  -2   0 -18   32.57    5.83
   2   0  19   -2.84    3.33
   2   0  20  151.63   20.35
   2   0  21   -6.99    6.59
   2   0  22   17.67    7.26
   2   0  23    0.72    4.79
   2   0  24   14.62    7.65
  -2  -1  23   85.17   14.00
  -2   1  23   87.79   14.26
  -2   1  22   -0.70    4.19
  -2  -1  22   -1.66    3.50
   2   1 -22    3.52    2.74
  -2  -1  21   20.06    6.68
  -2   1  21   13.91    5.06
   2   1 -21   16.66    4.56
  -2  -1  20    1.22    3.64
  -2   1  20   -1.52    4.22
   2   1 -20    1.63    1.81
  -2   1  19  368.69   24.60
   2   1 -19  369.55   20.77
  -2  -1  19  346.29   24.06
  -2  -1  18   47.94    8.77
   2  -1 -18   45.78    6.80
   2   1 -18   44.65    7.15
  -2   1  18   40.57    7.80
   2   1 -17  147.44   12.16
  -2  -1  17  154.25   14.57
   2  -1 -17  157.44   12.00
  -2   1  17  160.56   15.01
   2  -1 -16  212.38   13.29
  -2   1  16  216.01   16.59
   2   1 -16  204.24   13.86
  -2  -1  16  234.91   17.39
   2   1 -15  373.85   17.52
  -2   1  15  378.45   21.00
   2  -1 -15  355.88   16.47
  -2  -1  15  366.08   20.80
   2   1 -14   10.57    3.19
  -2   1  14    9.63    2.61
   2  -1 -14   10.10    2.94
  -2  -1  14    9.95    3.87
   2   1 -13   12.28    3.00
  -2  -1  13   10.23    3.04
   2  -1 -13   10.94    2.83
   2  -1 -12    1.77    1.05
  -2  -1  12    0.70    2.04
   2   1 -12    2.54    1.74
  -2  -1  11  774.45   24.42
   2  -1 -11  717.15   20.29
   2   1 -11  714.76   21.02
  -2  -1  10   -0.03    1.05
   2   1 -10   -0.35    0.94
   2  -1 -10    0.22    0.84
  -2  -1   9   39.13    4.85
   2   1  -9   40.41    4.59
  -2  -1   8   70.84    5.94
   2   1  -8   69.13    5.78
  -2  -1   7 2114.48   29.56
   2   1  -7 2170.95   30.25
  -2   1   6  638.35   20.01
   2   1  -6  624.71   15.39
  -2  -1   6  626.99   14.26
  -2   1   5   69.73    6.46
   2   1  -5   82.38    5.20
  -2   1   4  202.87   10.50
  -2   1   3  755.80   19.07
  -2  -1   3  729.78   19.48
  -2  -1   2 1582.66   27.13
  -2   1   2 1590.53   27.32
  -2  -1   1  378.73   12.75
  -2   1   1  379.44   13.00
   2  -1   0  504.13   10.85
  -2   1   0  505.04   14.85
  -2  -1   0  492.21   13.82
   2  -1   1 2952.63   30.69
  -2  -1  -1 2951.10   32.39
  -2   1  -1 2998.62   36.00
  -2   1  -2    1.94    0.93
   2  -1   2    6.92    2.02
  -2  -1  -2    6.42    1.93
  -2  -1  -3   13.93    2.01
  -2   1  -3   13.76    2.50
   2  -1   3   10.94    2.52
  -2  -1  -4  493.80   12.91
  -2   1  -4  511.84   14.88
   2  -1   4  493.44   16.96
  -2   1  -5 2272.21   32.44
  -2  -1  -5 2328.27   28.24
   2  -1   5 2305.80   39.50
  -2  -1  -6   50.85    4.29
   2  -1   6   49.25    6.15
  -2   1  -6   50.53    5.02
  -2  -1  -7  335.29   11.59
   2  -1   7  345.90   17.47
  -2   1  -7  329.27   13.35
  -2  -1  -8  303.56   11.54
  -2   1  -8  307.08   13.36
   2  -1   8  302.46   17.63
   2  -1   9 1102.70   35.48
  -2  -1  -9 1104.80   23.21
  -2   1  -9 1077.49   25.92
   2  -1  10   43.53    6.90
  -2  -1 -10   39.24    4.61
  -2   1 -10   35.09    5.17
  -2  -1 -11   95.94    7.48
   2  -1  11   85.53   10.68
  -2   1 -11   96.44    8.41
  -2  -1 -12    1.26    1.03
   2  -1  12    0.45    4.60
  -2   1 -12    0.91    1.33
  -2   1 -13  343.09   17.17
  -2  -1 -13  356.60   15.90
   2  -1  13  355.50   24.43
  -2  -1 -14   26.53    4.70
  -2   1 -14   22.91    4.64
   2  -1  14   27.03    6.70
  -2   1 -15   32.56    5.65
  -2  -1 -15   30.73    5.07
  -2  -1 -16    7.22    2.73
   2   1  16   -0.03    5.28
   2  -1  16    1.99    4.29
  -2   1 -16    5.56    2.55
   2  -1  17  196.36   21.16
   2   1  17  183.13   20.08
  -2  -1 -17  193.43   13.80
  -2   1 -17  197.17   14.90
   2  -1  18   68.84   12.73
   2   1  18   76.48   13.29
  -2   1 -18   69.02    9.16
  -2   1 -19    8.37    3.05
   2  -1  19    6.76    4.22
   2   1  19    4.11    3.76
   2  -1  20   60.60   12.83
   2   1  20   84.68   14.79
   2   1  21   53.61   12.41
   2  -1  21   58.43   12.70
   2   1  22    2.31    3.37
   2  -1  22    7.94    6.61
   2   1  23    7.94    4.55
   2  -1  23   15.16    7.77
   2   1  24   -2.60    6.28
   2  -1  24    1.00    5.25
   2   2 -23   -0.41    2.20
  -2   2  22  110.33   15.19
   2   2 -22  115.28   13.05
  -2  -2  21   40.49    9.25
  -2   2  21   31.05    7.73
   2   2 -21   38.38    7.53
   2   2 -20  163.61   14.32
  -2  -2  20  144.12   16.41
  -2   2  20  129.71   15.34
  -2  -2  19    4.31    3.39
   2   2 -19    6.86    3.26
  -2   2  19    1.42    3.63
   2   2 -18   33.45    6.30
  -2  -2  18   37.19    7.74
  -2   2  18   27.34    5.93
  -2  -2  17    9.75    3.74
   2   2 -17    8.76    2.97
  -2   2  17   11.33    4.07
  -2  -2  16   82.22   10.49
   2   2 -16   69.91    8.36
   2   2 -15  127.85   10.63
  -2  -2  15  130.64   12.69
  -2  -2  14   12.71    4.32
   2   2 -14    6.97    2.30
  -2  -2  13  333.86   18.29
   2   2 -13  312.10   15.43
  -2  -2  12  321.79   17.12
   2   2 -12  323.41   14.86
  -2  -2  11   -0.33    1.65
   2   2 -11    0.39    1.10
   2   2 -10   28.94    4.23
  -2  -2  10   30.23    4.73
  -2   2  10   29.89    4.91
  -2   2   9  569.80   21.42
   2   2  -9  542.73   17.15
  -2  -2   9  560.19   18.78
  -2   2   8  112.97    9.19
   2   2  -8  115.94    7.73
   2   2  -7   66.16    5.57
  -2   2   7   69.69    6.96
   2   2  -6 3139.22   35.93
  -2   2   6 3033.95   43.75
  -2   2   5   84.57    7.09
   2   2  -5   84.16    5.67
  -2   2   4  633.90   18.29
   2   2  -4  633.90   14.55
  -2   2   3  207.72   10.36
   2   2  -3  217.04    8.04
  -2   2   2  345.86   12.93
   2  -2  -2  257.75    6.40
  -2  -2   1  257.95   10.90
  -2   2   1  286.23   11.86
  -2  -2   0 3041.26   34.85
  -2   2   0 3143.96   38.26
  -2   2  -1    6.50    1.36
  -2  -2  -1    5.69    1.91
  -2   2  -2  109.04    7.03
   2  -2   2  110.16    7.16
  -2  -2  -2  111.07    5.90
  -2   2  -3  477.76   15.06
   2  -2   3  463.70   15.76
  -2  -2  -3  496.00   12.37
   2  -2   4   62.09    6.13
  -2   2  -4   61.81    5.62
  -2  -2  -4   64.71    4.24
  -2   2  -5   39.63    4.72
  -2  -2  -5   41.62    3.47
   2  -2   5   39.82    5.27
  -2   2  -6 1438.92   28.30
   2  -2   6 1463.69   34.32
  -2  -2  -6 1456.42   20.72
  -2  -2  -7  130.71    6.59
   2  -2   7  129.07   10.86
  -2   2  -7  117.34    8.44
  -2  -2  -8 1475.37   23.29
  -2   2  -8 1433.09   30.47
   2  -2   8 1491.93   38.71
  -2  -2  -9   63.44    5.18
  -2   2  -9   63.48    6.74
   2  -2   9   58.73    8.11
  -2   2 -10  499.41   19.39
  -2  -2 -10  517.41   15.32
   2  -2  10  515.23   25.37
  -2  -2 -11  169.86    9.37
  -2   2 -11  171.39   11.76
   2  -2  11  166.72   15.45
  -2  -2 -12  286.90   12.75
  -2   2 -12  278.81   15.58
   2  -2  12  291.57   21.04
   2  -2  13   -0.70    3.33
  -2   2 -13   -0.17    1.97
  -2  -2 -13    1.91    1.50
  -2   2 -14  107.20   10.24
  -2  -2 -14  113.41    8.83
   2  -2  14  104.28   14.13
  -2   2 -15   96.54   10.11
   2  -2  15   90.77   13.61
  -2  -2 -15   92.07    8.33
   2  -2  16  119.96   16.10
  -2   2 -16  113.04   11.31
   2  -2  17   -3.44    4.55
  -2   2 -17   -0.18    2.01
   2  -2  18    2.76    3.33
  -2   2 -18   -2.00    2.95
   2   2  18    2.10    3.92
  -2   2 -19  203.02   16.58
   2  -2  19  215.10   24.02
   2   2  19  176.67   20.84
   2  -2  20  111.24   18.06
   2   2  20  109.80   16.08
   2   2  21   30.11   10.11
   2  -2  21   54.07   12.99
   2   2  22   -5.39    6.68
   2  -2  22    4.85    5.68
   2  -2  23    2.83    5.26
   2   2  23    4.94    3.66
   2  -2  24    9.32    8.63
   2   2  24   16.62    8.26
   2   3 -23   25.89    7.27
   2   3 -22   25.05    6.64
  -2   3  22   21.47    7.09
   2   3 -21    5.26    3.09
  -2   3  21    4.50    3.69
  -2   3  20   85.93   12.66
   2   3 -20   88.83   11.18
  -2   3  19   67.66   10.81
   2   3 -19   67.67    9.23
  -2   3  19   61.80   10.34
  -2   3  18  149.32   15.29
   2   3 -18  157.24   13.56
   2   3 -17    1.09    1.63
  -2   3  17    0.82    2.10
  -2   3  16   77.85    9.82
   2   3 -16   91.96    9.53
   2   3 -15  133.98   11.18
  -2   3  15  134.05   12.62
  -2   3  14   -1.21    2.41
   2   3 -14    1.32    1.46
  -2   3  13    0.04    1.56
   2   3 -13    2.24    1.55
  -2   3  12  425.56   20.55
   2   3 -12  439.58   18.03
   2   3 -11    9.28    2.58
  -2   3  11    9.19    3.02
  -2   3  10  689.29   24.42
   2   3 -10  694.83   21.03
   2   3  -9   28.18    4.24
  -2   3   9   25.69    4.35
  -2   3   8  706.11   22.95
   2   3  -8  739.16   20.05
  -2   3   7 1392.77   30.61
   2   3  -7 1365.02   26.18
   2   3  -6 2162.69   31.35
  -2   3   6 2163.05   36.56
  -2   3   5  134.90    8.98
   2   3  -5  145.16    7.66
   2   3  -4   11.55    1.97
  -2   3   4   11.24    2.82
   2  -3  -3  126.94    6.43
   2   3  -3  129.07    6.44
  -2   3   3  128.02    8.27
   2   3  -2 1231.32   18.99
  -2   3   2 1243.55   25.37
  -2   3   1  386.19   13.91
  -2  -3   0  103.71    6.60
  -2   3   0   99.18    6.92
  -2  -3  -1 1001.98   18.61
  -2   3  -1 1015.02   22.21
  -2   3  -2  255.80   11.23
  -2  -3  -2  243.36    8.38
  -2  -3  -3  518.10   11.63
  -2   3  -3  501.75   16.02
   2  -3   4  289.57   14.05
  -2  -3  -4  293.08    8.12
  -2   3  -4  283.35   12.52
   2  -3   5  436.15   18.37
  -2  -3  -5  420.16    9.41
  -2   3  -5  416.06   15.57
   2  -3   6  778.54   25.77
  -2  -3  -6  772.55   13.10
  -2   3  -6  753.19   21.48
   2  -3   7   31.68    5.50
  -2   3  -7   31.71    4.67
  -2  -3  -7   37.93    3.14
  -2  -3  -8   58.44    4.12
   2  -3   8   45.01    6.78
  -2   3  -8   53.19    6.33
   2  -3   9  412.03   21.87
  -2   3  -9  391.68   17.42
  -2  -3  -9  422.38   11.90
  -2   3 -10  195.69   12.73
  -2  -3 -10  210.15    9.01
   2  -3  10  199.84   16.32
  -2  -3 -11   21.09    3.11
  -2   3 -11   22.27    4.51
   2  -3  11   19.14    5.21
  -2   3 -12   88.05    9.15
   2  -3  12   79.36   11.03
  -2  -3 -12   86.76    6.55
   2  -3  13  253.32   20.86
  -2  -3 -13  272.97   12.35
  -2   3 -13  265.14   16.32
  -2   3 -14  140.44   12.36
  -2  -3 -14  146.78    9.48
   2  -3  14  138.46   16.29
  -2   3 -15   75.49    9.40
   2  -3  15   77.96   12.88
  -2   3 -16   61.01    8.76
   2  -3  16   58.67   11.44
   2  -3  17   88.99   15.07
  -2   3 -17   88.41   10.75
   2  -3  18  405.84   32.27
  -2   3 -18  382.79   23.05
   2  -3  19    1.08    4.49
  -2   3 -19    1.63    2.58
  -2   3 -20   14.92    4.64
   2   3  20   12.39    4.55
   2  -3  20   13.72    7.53
   2   3  21   62.51   13.09
   2  -3  21   85.98   16.39
   2  -3  22   34.01   11.89
   2   3  22   33.80    9.93
   2  -3  23   14.60    8.20
   2   3  23    1.89    5.89
   2   4 -23   47.08    8.72
   2   4 -22    1.88    2.34
  -2   4  22    0.64    3.26
   2   4 -21   82.14   10.98
  -2   4  21   84.66   12.93
   2   4 -20    1.05    2.06
   2   4 -19    0.23    1.56
  -2   4  18    3.64    2.77
   2   4 -18    5.20    3.20
   2   4 -17  668.20   27.61
  -2   4  17  639.01   29.14
  -2   4  16   14.53    4.56
   2   4 -16   14.20    3.62
   2   4 -15   24.43    4.91
  -2   4  15   22.16    5.11
  -2   4  14   35.02    6.15
   2   4 -14   32.61    5.33
   2   4 -13   13.77    3.54
  -2   4  13    9.40    2.87
  -2   4  12   39.86    6.41
   2   4 -12   43.96    6.17
  -2   4  11   11.99    3.45
   2   4 -11    9.15    2.60
  -2   4  10  188.61   12.49
   2   4 -10  175.07   10.99
   2   4  -9 1830.68   34.04
  -2   4   9 1849.83   37.78
  -2   4   8  199.44   12.14
   2   4  -8  198.39   10.85
   2   4  -7   52.48    5.28
  -2   4   7   50.94    5.78
  -2   4   6   16.37    3.18
   2   4  -6   16.75    2.93
  -2   4   5 4575.41   51.99
   2   4  -5 4784.60   46.29
   2   4  -4  148.81    7.75
  -2   4   4  149.38    9.22
   2   4  -3 2137.94   27.60
   2  -4  -3 2073.47   30.71
  -2   4   3 2174.94   34.46
  -2  -4   2   36.19    4.44
   2   4  -2   29.90    3.09
  -2   4   2   33.44    4.40
   2  -4  -2   33.08    4.04
   2   4  -1 1575.65   21.08
  -2   4   1 1521.12   28.38
  -2   4   0    0.37    1.03
  -2  -4  -1  509.20   13.94
  -2   4  -1  469.55   15.68
  -2   4  -2    0.76    0.77
  -2  -4  -2    1.50    1.17
  -2   4  -3  915.70   22.74
  -2  -4  -3  907.97   14.32
  -2   4  -4   10.36    2.69
  -2  -4  -4   12.37    1.48
  -2   4  -5  109.74    8.21
  -2  -4  -5   99.97    3.69
  -2   4  -6  320.23   14.78
  -2  -4  -6  308.32    6.68
  -2  -4  -7  293.00    7.03
   2  -4   7  283.85   17.20
  -2   4  -7  302.28   14.81
  -2   4  -8  436.92   18.36
   2  -4   8  406.43   21.34
  -2  -4  -8  417.38    9.20
  -2  -4  -9   14.68    1.87
   2  -4   9   13.96    4.09
  -2   4  -9   16.80    3.67
   2  -4  10   17.59    5.10
  -2   4 -10   12.74    3.43
  -2  -4 -10   13.71    2.02
  -2   4 -11  582.68   23.93
   2  -4  11  565.85   28.81
  -2   4 -12    1.52    2.53
   2  -4  12    0.34    2.55
   2  -4  13   23.52    6.31
  -2   4 -13   16.15    4.39
   2  -4  14  162.09   17.80
  -2   4 -14  162.73   13.67
  -2   4 -15   62.75    9.09
   2  -4  15   75.71   12.61
  -2   4 -16   29.24    5.97
   2  -4  16   28.12    8.06
   2  -4  17   60.27   12.09
  -2   4 -17   73.76   10.13
  -2   4 -18    2.72    3.64
   2  -4  18    3.14    4.41
  -2   4 -19  135.50   14.58
   2  -4  19  121.60   18.74
  -2   4 -20   -0.04    2.42
   2  -4  20    6.40    6.09
   2   4  22   -4.71    6.76
   2   4  23   48.79   12.55
   2   5 -23    5.40    3.60
   2   5 -22   43.13    8.57
   2   5 -21   49.59    9.07
   2   5 -20   91.42   11.56
   2   5 -19    3.59    3.25
   2   5 -18  218.15   16.97
  -2   5  17   35.75    7.11
   2   5 -17   44.51    7.53
   2   5 -16   76.56    9.33
  -2   5  16   66.07    8.65
   2   5 -15  136.68   12.07
  -2   5  15  144.27   12.63
  -2   5  14  975.17   31.57
   2   5 -14  978.14   31.03
  -2   5  13  442.82   20.63
   2   5 -13  431.20   19.90
  -2   5  12  491.21   20.94
   2   5 -12  497.89   20.53
   2   5 -11  172.48   11.63
  -2   5  11  185.76   12.61
   2   5 -10  619.80   21.31
  -2   5  10  633.07   22.35
  -2   5   9   41.93    5.71
   2   5  -9   39.09    5.38
   2   5  -8  968.81   24.94
  -2   5   8 1002.40   26.35
   2   5  -7  235.52   11.78
  -2   5   7  261.03   13.00
   2   5  -6 1465.12   28.10
  -2   5   6 1414.05   29.35
  -2   5   5   34.51    4.38
   2   5  -5   36.62    4.29
  -2   5   4 2717.41   39.67
   2   5  -4 2773.73   35.19
  -2  -5   3   56.84    5.77
   2   5  -3   57.91    4.85
  -2   5   3   51.80    5.49
   2  -5  -3   50.83    5.56
   2  -5  -2 1550.44   30.93
  -2   5   2 1607.43   29.94
   2   5  -2 1571.60   23.58
  -2   5   1    1.06    1.35
   2   5  -1    0.30    0.58
  -2   5   0    4.44    1.78
   2   5   0    6.89    1.35
  -2   5  -1    5.18    1.74
  -2   5  -2  946.35   23.83
  -2  -5  -2  989.27   18.19
  -2   5  -3  180.40   10.58
  -2  -5  -3  155.31    5.60
  -2   5  -4  120.16    8.92
  -2   5  -5  111.69    8.84
  -2   5  -6 1859.56   37.16
  -2   5  -7   47.68    6.15
  -2   5  -8  377.38   18.11
  -2   5  -9   14.91    3.87
  -2   5 -10  660.98   25.41
  -2   5 -11   33.59    6.55
  -2   5 -12   53.58    7.62
  -2   5 -13    4.61    2.42
  -2   5 -14   54.48    8.47
  -2   5 -15  206.06   16.54
  -2   5 -16  162.62   15.31
  -2   5 -17  149.09   14.82
  -2   5 -18   27.74    7.18
  -2   5 -19   35.00    7.70
  -2   5 -20   48.79    9.07
   2   5  23   -9.56    9.15
   2   6 -23   -4.53    3.99
   2   6 -22   10.05    4.63
   2   6 -21   85.43   12.14
   2   6 -20   29.56    6.66
   2   6 -19    2.86    2.55
   2   6 -18   22.06    5.71
   2   6 -17  430.50   23.33
   2   6 -16  114.76   11.62
   2   6 -15   73.88    8.87
  -2   6  15   64.87    7.95
  -2   6  14  123.41   10.65
   2   6 -14  136.03   11.85
   2   6 -13    3.45    2.03
  -2   6  13    5.19    2.79
   2   6 -12  722.10   25.81
  -2   6  12  681.61   23.92
   2   6 -11  190.96   12.77
  -2   6  11  196.56   12.54
  -2   6  10  111.20    9.12
   2   6 -10  108.30    9.31
  -2   6   9 1887.72   36.37
   2   6  -9 1867.33   37.31
  -2   6   8   20.17    3.86
   2   6  -8   19.82    3.95
   2   6  -7    2.16    1.44
  -2   6   7   -2.45    2.65
   2   6  -6  160.61    9.78
  -2   6   6  173.41   10.40
  -2   6   5   74.26    6.74
   2   6  -5   70.22    6.17
  -2   6   4  123.23    8.53
   2   6  -4  115.41    7.50
   2  -6  -4   97.52    8.10
   2  -6  -3 1187.81   29.82
  -2  -6   3 1161.10   29.59
  -2   6   3 1253.41   27.00
   2   6  -3 1220.64   23.08
   2  -6  -2  217.15   13.17
  -2  -6   2  200.96   12.80
  -2   6   2  209.71   11.04
   2   6  -2  192.89    8.70
   2   6  -1 3402.10   34.30
  -2   6   1 3389.76   44.71
  -2  -6   1 3491.05   52.05
   2   6   0    2.43    1.00
  -2   6   0    2.90    1.73
   2   6   1   32.36    3.09
  -2   6  -1   29.47    4.27
  -2  -6  -2    6.63    1.49
  -2   6  -2    6.45    2.23
  -2   6  -3 1439.65   31.40
  -2  -6  -3 1345.41   17.43
  -2   6  -4   31.22    4.71
  -2   6  -5  351.17   16.30
  -2   6  -6  405.65   18.19
  -2   6  -7  200.91   13.19
  -2   6  -8   60.04    7.57
  -2   6  -9  503.65   22.31
  -2   6 -10  122.92   11.20
  -2   6 -11  304.23   18.49
  -2   6 -12  148.88   13.38
  -2   6 -13   20.14    4.86
  -2   6 -14   55.47    8.34
  -2   6 -15    5.35    3.21
  -2   6 -16  115.65   13.32
  -2   6 -17   34.31    7.38
  -2   6 -18   -4.06    2.38
  -2   6 -19  304.48   23.11
  -2   6 -20    9.64    4.27
  -2   6 -21    2.44    3.96
   2   7 -23   31.47    7.83
   2   7 -22   78.97   12.02
   2   7 -21   11.89    4.49
   2   7 -20   32.27    7.63
   2   7 -19   82.26   11.37
   2   7 -18   97.50   12.17
   2   7 -17    6.18    3.04
   2   7 -16   31.67    6.42
   2   7 -15   89.90   10.42
   2   7 -14  111.79   10.98
   2   7 -13   18.94    4.30
  -2   7  13   20.23    4.17
  -2   7  12   92.50    8.43
   2   7 -12   86.41    9.32
  -2   7  11   74.97    7.34
   2   7 -11   72.71    8.19
   2   7 -10    1.79    1.46
  -2   7  10   -0.41    1.81
   2   7  -9  150.69   11.14
  -2   7   9  154.39   10.15
   2   7  -8  327.37   15.78
  -2   7   8  330.82   14.90
  -2   7   7  188.31   10.93
   2   7  -7  171.44   11.11
   2   7  -6  574.85   19.44
  -2   7   6  600.93   19.28
   2   7  -5   79.08    6.81
  -2   7   5   75.08    6.85
  -2   7   4   64.67    6.19
  -2  -7   4   56.39    6.94
   2  -7  -4   62.24    6.84
   2   7  -4   63.23    5.86
   2  -7  -3  929.20   28.56
   2   7  -3  943.80   21.42
  -2   7   3  916.55   23.72
  -2  -7   3  925.80   29.02
   2  -7  -2 1146.58   33.54
  -2   7   2 1062.73   25.53
  -2  -7   2 1170.63   33.63
   2   7  -2 1058.59   21.34
   2  -7  -1  857.28   27.18
  -2  -7   1  896.79   28.23
   2   7  -1  927.24   18.54
  -2   7   1  921.59   24.05
   2   7   0    8.12    1.74
  -2   7   0    9.21    2.33
   2   7   1  405.85   10.85
  -2   7  -1  378.63   16.04
  -2   7  -2   61.97    6.53
  -2   7  -3  357.76   16.18
  -2  -7  -3  278.17    9.12
  -2   7  -4  200.95   12.60
  -2   7  -5   40.86    5.98
  -2   7  -6   65.13    7.64
  -2   7  -7   51.39    7.01
  -2   7  -8   46.96    6.83
  -2   7  -9  353.80   19.12
  -2   7 -10   72.11    9.06
  -2   7 -11    7.64    3.89
  -2   7 -12   83.89   10.61
  -2   7 -13    0.33    3.11
  -2   7 -14  215.18   17.51
  -2   7 -15  148.33   15.08
  -2   7 -16   47.83    8.78
  -2   7 -17   53.20    9.59
  -2   7 -18   82.08   12.10
  -2   7 -19   11.04    4.25
  -2   7 -20   22.39    7.18
  -2   7 -21   17.71    6.24
   2   8 -23    5.41    4.64
   2   8 -22    2.11    3.74
   2   8 -21    8.61    4.12
   2   8 -20  135.90   15.30
   2   8 -19   68.16   10.96
   2   8 -18  205.38   17.98
   2   8 -17   59.45    9.51
   2   8 -16  314.91   20.61
   2   8 -15   80.47   10.18
   2   8 -14   12.92    3.69
   2   8 -13   47.78    7.36
   2   8 -12  124.54   11.54
  -2   8  12   65.97    6.19
   2   8 -11   -1.00    1.50
  -2   8  11    8.14    3.61
  -2   8  10  292.72   14.08
   2   8 -10  328.84   17.60
   2   8  -9  979.20   29.38
  -2   8   9  917.38   24.77
   2   8  -8  453.01   19.57
  -2   8   8  490.57   18.02
   2   8  -7    0.84    1.24
  -2   8   7    1.58    1.66
   2   8  -6   99.42    8.55
  -2   8   6  102.67    8.07
  -2   8   5  285.81   13.50
   2   8  -5  273.88   13.43
  -2  -8   4  770.30   29.03
   2   8  -4  806.62   22.03
  -2   8   4  804.40   22.78
   2  -8  -3   12.70    3.34
  -2   8   3   12.85    3.04
  -2  -8   3   12.22    3.93
   2   8  -3   14.75    3.03
  -2  -8   2   23.14    5.04
  -2   8   2   24.61    4.01
   2  -8  -2   27.75    5.99
   2   8  -2   23.58    3.47
  -2  -8   1   77.33    8.75
   2  -8  -1   86.38   10.33
   2   8  -1   83.13    5.92
  -2   8   1   81.83    7.57
  -2   8   0  454.26   18.02
  -2  -8   0  439.32   21.36
   2   8   0  438.40   12.87
  -2   8  -1    9.10    2.55
   2   8   1    6.53    1.53
   2   8   2  438.15   11.33
  -2   8  -2  397.39   17.33
  -2  -8  -3  435.69   12.36
  -2   8  -3  486.75   19.71
  -2   8  -4  360.32   17.40
  -2   8  -5    1.74    1.46
  -2   8  -6  211.66   14.24
  -2   8  -7  108.75   10.48
  -2   8  -8  343.79   19.34
  -2   8  -9   12.30    3.28
  -2   8 -10   30.94    6.51
  -2   8 -11  299.23   19.91
  -2   8 -12  394.26   22.98
  -2   8 -13  160.87   15.05
  -2   8 -14   31.04    7.41
  -2   8 -15   92.05   12.22
  -2   8 -16  144.09   15.33
  -2   8 -17   -0.98    3.35
  -2   8 -18    0.89    3.29
  -2   8 -19    6.44    2.95
  -2   8 -20   44.75   10.35
  -2   8 -21   -3.64    5.14
   2   9 -23   98.88   14.71
   2   9 -22    1.88    3.16
   2   9 -21   34.55    8.28
   2   9 -20    6.54    4.26
   2   9 -19  148.73   15.97
   2   9 -18    5.32    2.48
   2   9 -17    3.12    2.57
   2   9 -16   -0.43    2.32
   2   9 -15  348.94   21.96
   2   9 -14    0.84    1.77
   2   9 -13   75.51    9.61
   2   9 -12  102.52   10.75
   2   9 -11  472.49   22.88
  -2   9  10    0.24    0.80
   2   9 -10  413.69   20.54
  -2   9   9   -0.95    1.10
   2   9  -9   91.93    9.44
  -2   9   8   -1.50    1.63
   2   9  -8    8.42    3.01
   2   9  -7  529.54   21.04
  -2   9   7   -6.61    3.43
  -2   9   6   -0.14    0.65
   2   9  -6   13.36    3.19
  -2  -9   5   15.44    4.95
  -2   9   5   12.19    3.18
   2   9  -5   13.56    3.05
  -2   9   4   32.14    4.83
   2  -9  -4   26.66    5.16
   2   9  -4   34.44    4.76
  -2  -9   4   34.51    6.74
  -2   9   3 1315.71   30.55
   2  -9  -3 1262.42   39.67
   2   9  -3 1287.84   27.76
  -2  -9   2   17.04    3.96
   2  -9  -2   18.98    4.97
   2   9  -2   22.01    3.57
  -2   9   2   18.97    3.77
  -2   9   1  126.19    9.77
   2  -9  -1  137.98   14.26
   2   9  -1  125.59    7.77
  -2  -9   1  109.07   10.95
   2  -9   0   73.95    9.50
  -2   9   0   88.24    8.30
  -2  -9   0   83.27    9.59
   2   9   0   85.18    6.11
  -2   9  -1  470.12   19.43
   2   9   1  460.62   12.81
   2   9   2   -0.14    0.61
  -2   9  -2    0.05    1.96
  -2   9  -3    3.98    1.88
  -2   9  -4   64.88    7.73
  -2   9  -5  939.47   30.46
  -2   9  -6  122.10   11.17
  -2   9  -7   46.53    7.23
  -2   9  -8    6.78    2.54
  -2   9  -9  701.27   28.84
  -2   9 -10    0.97    2.20
  -2   9 -11  140.02   14.11
  -2   9 -12    3.78    2.91
  -2   9 -13   21.30    5.18
  -2   9 -14    4.12    2.76
  -2   9 -15   -3.47    4.36
  -2   9 -16   46.75    9.28
  -2   9 -17   87.26   13.22
  -2   9 -18   21.40    6.28
  -2   9 -19    1.66    3.45
  -2   9 -20    1.91    2.88
   2  10 -22   13.18    6.18
   2  10 -21    3.32    3.17
   2  10 -20  155.95   17.39
   2  10 -19    4.08    2.87
   2  10 -18  166.76   17.09
   2  10 -17    0.13    3.32
   2  10 -16  221.79   18.77
   2  10 -15    0.64    1.85
   2  10 -14   49.17    8.20
   2  10 -13    4.58    2.00
   2  10 -12  208.42   15.95
   2  10 -11   10.79    4.02
   2  10 -10   13.87    4.57
   2  10  -9    1.50    2.35
  -2  10   9   -0.26    0.85
   2  10  -8  242.91   15.42
  -2  10   8    0.32    0.78
   2  10  -7    4.94    2.84
  -2  10   7   -0.05    0.86
  -2 -10   6  217.96   16.72
   2  10  -6  259.57   15.01
   2  10  -5    0.96    1.62
  -2  10   5    0.14    0.94
  -2 -10   5    1.56    3.29
  -2 -10   4  323.05   22.43
   2 -10  -4  289.33   19.80
   2  10  -4  308.00   15.10
   2  10  -3    7.78    2.29
  -2 -10   3    8.13    3.94
  -2  10   3    6.81    2.20
   2 -10  -3    3.69    1.94
  -2  10   2  296.45   15.42
  -2 -10   2  265.49   19.14
   2  10  -2  285.16   13.01
   2 -10  -1   97.78   12.98
  -2  10   1   94.52    8.98
  -2 -10   1   78.37   10.08
   2  10  -1   91.52    7.02
  -2  10   0  486.53   20.18
  -2 -10   0  436.71   23.51
   2  10   0  459.42   14.69
   2  10   1    8.54    2.04
  -2  10  -1    7.40    2.32
  -2  10  -2  218.06   14.15
   2  10   2  206.14    8.41
  -2  10  -3   26.45    5.16
  -2  10  -4  385.18   19.73
  -2  10  -5   45.67    7.06
  -2  10  -6  202.61   15.00
  -2  10  -7   24.71    5.37
  -2  10  -8  625.02   27.79
  -2  10  -9   -2.17    2.97
  -2  10 -10    2.15    1.75
  -2  10 -11   29.42    6.87
  -2  10 -12  151.16   15.25
  -2  10 -13   -2.73    4.35
  -2  10 -14   -1.67    3.60
  -2  10 -15    4.96    2.46
  -2  10 -16   37.22    8.79
  -2  10 -17    2.72    2.89
  -2  10 -18   53.07   11.22
  -2  10 -19    4.05    4.59
  -2  10 -20   67.73   13.12
   2  11 -22   20.60    7.21
   2  11 -21   -2.05    2.80
   2  11 -20   30.99    8.07
   2  11 -19   92.85   13.73
   2  11 -18    8.70    3.46
   2  11 -17   43.17    8.86
   2  11 -16   15.26    5.60
   2  11 -15  211.60   18.50
   2  11 -14   12.04    4.56
   2  11 -13   38.46    7.30
   2  11 -12   12.95    4.64
   2  11 -11  231.54   17.14
   2  11 -10  289.14   18.76
   2  11  -9   14.49    4.18
   2  11  -8   39.44    6.72
  -2  11   8   -0.01    1.09
  -2 -11   7   84.37   11.24
   2  11  -7  101.26   10.18
  -2 -11   6  218.42   19.61
   2  11  -6  217.43   14.32
  -2 -11   5   16.22    5.35
   2  11  -5   15.56    4.13
  -2 -11   4   30.37    7.48
   2  11  -4   25.15    4.52
   2 -11  -4   19.31    5.11
  -2 -11   3  299.54   22.70
   2 -11  -3  305.27   22.53
   2  11  -3  299.88   14.88
   2  11  -2  145.62    9.82
  -2  11   2  115.40    9.91
  -2 -11   2  147.14   14.86
   2 -11  -2  168.95   17.29
  -2  11   1  239.76   14.70
  -2 -11   1  226.80   18.23
   2  11  -1  261.47   12.49
  -2  11   0  417.90   19.68
   2  11   0  397.07   14.47
  -2  11  -1    1.72    2.46
   2  11   1    2.94    1.22
  -2  11  -2   84.31    9.33
  -2  11  -3  336.17   18.73
  -2  11  -4  360.23   19.95
  -2  11  -5 1113.02   35.87
  -2  11  -6   23.72    5.35
  -2  11  -7  100.26   11.16
  -2  11  -8   -0.38    2.42
  -2  11  -9  154.14   14.64
  -2  11 -10   10.81    3.85
  -2  11 -11   84.87   11.58
  -2  11 -12   31.38    7.05
  -2  11 -13  136.18   15.29
  -2  11 -14    2.54    2.30
  -2  11 -15   -4.43    4.34
  -2  11 -16    9.83    4.90
  -2  11 -17   87.98   13.81
  -2  11 -18    8.46    4.56
  -2  11 -19    0.82    3.21
  -2  11 -20    7.58    6.64
   2  12 -21    9.81    4.10
   2  12 -20   91.99   14.04
   2  12 -19   49.92   10.57
   2  12 -18   12.30    5.83
   2  12 -17    9.88    4.68
   2  12 -16   64.05   10.62
   2  12 -15   26.39    6.85
   2  12 -14    5.71    3.28
   2  12 -13  320.17   22.08
   2  12 -12   26.78    6.29
   2  12 -11    3.30    2.84
   2  12 -10    3.47    2.83
   2  12  -9  480.05   24.39
   2  12  -8   45.83    7.52
  -2 -12   8   41.31    8.93
   2  12  -7   22.29    4.75
  -2 -12   7   28.29    7.67
   2  12  -6  217.56   15.01
  -2 -12   6  233.53   22.30
  -2 -12   5  360.83   27.94
   2  12  -5  324.68   17.84
   2  12  -4    3.45    2.39
   2 -12  -4    4.85    4.82
  -2 -12   4   -3.60    4.12
  -2  12   4   -0.17    1.17
   2 -12  -3   51.30    9.52
  -2 -12   3   41.95    9.06
   2  12  -3   42.89    5.91
   2 -12  -2  175.30   19.03
   2  12  -2  147.93   10.66
  -2 -12   2  137.69   15.42
   2  12  -1   25.99    4.07
  -2 -12   1   16.62    4.99
   2 -12   0  100.86   15.22
  -2  12   0  101.34   10.10
   2  12   0   86.95    7.16
   2  12   1   67.97    5.91
  -2  12  -1   63.74    8.17
   2 -12   1   75.37   12.77
   2 -12   2  153.47   15.99
  -2  12  -2  182.47   14.13
  -2  12  -3   62.12    8.49
  -2  12  -4   20.50    5.04
  -2  12  -5   33.88    6.53
  -2  12  -6   26.37    5.49
  -2  12  -7  139.14   13.60
  -2  12  -8  248.93   18.94
  -2  12  -9   88.61   11.29
  -2  12 -10   63.75   10.12
  -2  12 -11  203.48   18.31
  -2  12 -12   76.34   11.48
  -2  12 -13    3.33    2.37
  -2  12 -14    3.69    3.15
  -2  12 -15   77.20   12.25
  -2  12 -16   36.80    9.75
  -2  12 -17    2.79    2.96
  -2  12 -18    6.98    4.38
  -2  12 -19   19.77    6.86
   2  13 -20   11.00    5.58
   2  13 -19   39.66    9.33
   2  13 -18   17.91    6.50
   2  13 -17   38.86    9.13
   2  13 -16   55.88   10.61
   2  13 -15  143.27   16.06
   2  13 -14   52.06    9.47
   2  13 -13   -0.55    2.81
   2  13 -12   53.18    9.13
   2  13 -11    6.20    3.82
   2  13 -10  276.71   19.93
   2  13  -9   14.41    4.82
  -2 -13   9   11.94    4.98
  -2 -13   8  255.84   24.05
   2  13  -8  262.91   18.15
   2  13  -7   42.59    7.40
  -2 -13   7   38.77   10.29
  -2 -13   6  527.96   35.74
   2  13  -6  514.07   23.83
   2  13  -5    2.05    2.58
  -2  13   5    0.34    1.15
  -2 -13   5    6.53    3.66
  -2 -13   4  157.24   19.01
   2  13  -4  169.40   12.86
   2 -13  -3  442.25   30.64
   2  13  -3  428.46   19.86
  -2 -13   3  417.43   29.71
   2  13  -2 1088.32   29.75
  -2 -13   2 1001.18   44.47
  -2 -13   1  134.17   15.50
   2  13  -1  153.30   10.67
   2  13   0   30.44    4.26
   2 -13   0   28.01    7.59
  -2  13  -1   54.26    8.16
   2 -13   1   66.47   12.41
   2 -13   2  190.89   20.95
  -2  13  -2  211.46   16.08
   2 -13   3   16.34    6.30
  -2  13  -3   14.99    4.60
  -2  13  -4   39.82    7.53
  -2  13  -5    2.50    2.75
  -2  13  -6   46.46    8.04
  -2  13  -7   93.88   11.88
  -2  13  -8  210.42   18.07
  -2  13  -9  115.11   13.81
  -2  13 -10  130.04   15.08
  -2  13 -11    6.40    2.55
  -2  13 -12   34.08    7.72
  -2  13 -13    0.36    3.53
  -2  13 -14   18.20    6.31
  -2  13 -15    2.78    3.52
  -2  13 -16   17.08    6.68
  -2  13 -17   44.46    9.78
  -2  13 -18   56.54   12.07
   2  14 -19    8.71    3.90
   2  14 -18    8.02    5.09
   2  14 -17  102.48   14.60
   2  14 -16   44.12    9.75
   2  14 -15   -1.56    4.11
   2  14 -14    4.96    3.61
   2  14 -13  427.82   27.34
   2  14 -12   59.04    9.92
  -2 -14  11    7.57    5.27
   2  14 -11    6.47    3.65
   2  14 -10   -1.33    2.18
  -2 -14  10    2.93    4.12
  -2 -14   9  375.75   31.07
   2  14  -9  355.24   22.56
   2  14  -8    9.17    4.15
  -2 -14   8    7.56    6.67
  -2 -14   7   -6.00    5.13
   2  14  -7    1.95    1.69
   2  14  -6    1.10    2.49
  -2 -14   6   -5.85    6.67
  -2 -14   5  964.05   52.46
   2  14  -5  809.41   30.49
   2  14  -4   35.72    6.57
  -2 -14   4   30.80    8.81
   2 -14  -3  139.07   18.24
   2  14  -3  152.84   12.49
  -2 -14   3  155.39   18.89
   2  14  -2   19.48    4.04
  -2  14   2   -0.16    1.18
  -2 -14   2   13.79    5.02
   2 -14  -2   15.91    7.12
  -2 -14   1  509.74   32.91
   2  14  -1  533.96   21.00
   2 -14   0   -3.36    7.27
  -2  14   0    0.17    1.33
  -2  14  -1   -4.38    4.35
   2 -14   1   36.51    9.38
  -2  14  -2   60.08    8.91
   2 -14   2   51.84   11.33
   2 -14   3  319.86   28.47
  -2  14  -3  312.08   20.62
  -2  14  -4    6.23    3.87
   2 -14   4    4.23    4.22
  -2  14  -5   10.80    4.32
  -2  14  -6    0.70    2.33
  -2  14  -7  203.21   17.87
  -2  14  -8    0.96    3.07
  -2  14  -9   10.03    5.02
  -2  14 -10   -3.91    4.45
  -2  14 -11  160.27   17.40
  -2  14 -12   22.37    7.32
  -2  14 -13    3.34    2.52
  -2  14 -14   -5.10    5.36
  -2  14 -15   84.79   13.46
  -2  14 -16    2.02    3.02
  -2  14 -17   10.95    5.96
   2  15 -18   70.91   12.93
   2  15 -17   15.16    6.08
   2  15 -16   38.05    9.67
   2  15 -15    3.98    3.91
   2  15 -14  183.15   18.96
   2  15 -13    1.92    2.72
   2  15 -12   32.96    6.80
  -2 -15  12   30.04    9.32
   2  15 -11    1.49    3.17
  -2 -15  11    4.02    6.16
  -2 -15  10   19.57    7.81
   2  15 -10   11.12    4.79
   2  15  -9   10.93    4.06
  -2 -15   9   13.24    6.64
  -2 -15   8  213.39   25.32
   2  15  -8  205.74   17.53
  -2 -15   7    4.01    4.68
   2  15  -7   10.44    4.61
  -2 -15   6  264.23   29.17
   2  15  -6  215.85   16.96
   2  15  -5    5.60    3.92
  -2 -15   5    2.67    3.48
   2  15  -4   69.61    9.01
  -2 -15   4   75.11   14.42
  -2  15   3   -0.76    1.60
   2 -15  -3   14.23    6.38
  -2 -15   3   13.85    4.50
   2  15  -3   14.79    4.07
   2 -15  -2  225.91   25.32
  -2 -15   2  214.24   23.49
   2  15  -2  210.89   14.51
  -2  15   1    0.65    1.56
   2 -15  -1   16.99    6.24
  -2  15   0    0.04    1.46
   2 -15   0   51.77   12.53
  -2  15  -1   -0.64    1.74
   2 -15   1   32.07   10.43
   2 -15   2  174.71   23.37
  -2  15  -2   -0.19    1.97
  -2  15  -3    3.24    3.14
   2 -15   3    0.54    4.64
   2 -15   4   61.14   13.40
  -2  15  -4   60.34    9.72
  -2  15  -5   34.47    7.75
   2 -15   5   35.14   10.05
  -2  15  -6  171.74   17.24
  -2  15  -7   -2.62    4.22
  -2  15  -8   35.91    8.29
  -2  15  -9    6.67    2.71
  -2  15 -10  118.70   15.08
  -2  15 -11   -7.17    5.36
  -2  15 -12   24.99    6.99
  -2  15 -13    6.38    3.42
  -2  15 -14   37.46    9.12
  -2  15 -15    1.39    4.72
  -2  15 -16   14.88    6.16
   2  16 -16   39.55   10.09
   2  16 -15   -0.09    4.36
  -2 -16  15   -0.22    3.66
   2  16 -14   91.07   13.92
  -2 -16  14   71.63   14.45
   2  16 -13   53.80   10.19
  -2 -16  13   45.96   12.45
   2  16 -12   -1.78    4.10
  -2 -16  12    6.55    6.84
   2  16 -11   -2.56    3.99
  -2 -16  11    6.93    7.26
   2  16 -10  -10.15    4.99
  -2 -16  10    0.32    4.71
  -2 -16   9   38.61   12.63
   2  16  -9   27.80    6.22
   2  16  -8    0.97    2.75
  -2 -16   8   -3.01    5.14
  -2 -16   7   24.07   10.27
   2  16  -7   15.54    4.75
   2  16  -6   60.20    9.18
  -2 -16   6   65.51   14.61
  -2 -16   5  217.77   26.47
   2  16  -5  228.90   17.77
   2  16  -4    7.19    2.73
  -2 -16   4    6.62    6.26
  -2 -16   3   -1.26    3.77
  -2 -16   2    6.47    5.84
   2 -16  -2    9.40    5.55
  -2  16   1   -0.04    1.44
   2 -16  -1  140.48   21.00
   2 -16   0   -1.08    6.44
  -2  16   0    1.06    2.22
  -2  16  -1    0.19    1.37
   2 -16   1   18.52    7.93
  -2  16  -2   -0.85    1.97
   2 -16   2   83.27   17.13
  -2  16  -3   -0.18    1.91
   2 -16   3   84.56   17.49
   2 -16   4  116.05   19.07
  -2  16  -4    0.29    1.62
  -2  16  -5   11.03    4.73
   2 -16   5    9.85    6.11
   2 -16   6   16.74    8.09
  -2  16  -6    6.37    3.31
   2 -16   7  127.77   18.53
  -2  16  -7  161.52   17.27
  -2  16  -8   70.83   12.01
  -2  16  -9   10.67    5.05
  -2  16 -10   20.11    6.60
  -2  16 -11   51.16   10.27
  -2  16 -12   60.30   11.86
  -2  16 -13   14.12    6.31
  -2  16 -14   -5.51    5.44
  -2  16 -15   66.13   13.19
  -2 -17  14   78.45   17.43
   2  17 -13   -2.53    4.59
  -2 -17  13    1.15    6.87
   2  17 -12   69.21   11.57
  -2 -17  12   68.76   15.57
   2  17 -11   54.13   10.41
  -2 -17  11   53.34   14.57
   2  17 -10   -1.24    2.83
  -2 -17  10   -1.80    6.79
   2  17  -9   -6.62    4.99
  -2 -17   9   -0.05    4.95
   2  17  -8    3.09    2.38
  -2 -17   8   13.80    7.43
   2  17  -7   11.03    2.75
  -2 -17   7   26.47   10.72
  -2 -17   6  107.54   19.71
  -2 -17   5    1.47    4.18
  -2 -17   4  187.51   25.35
  -2 -17   3  121.23   19.71
   2 -17  -2    2.05    3.98
   2 -17  -1   23.56    8.31
   2 -17   0   -0.18    5.49
  -2  17  -1    0.52    1.62
   2 -17   1  132.74   21.72
   2 -17   2   25.90    8.35
  -2  17  -2    0.37    1.79
   2 -17   3    2.56    5.55
  -2  17  -3    0.02    2.84
  -2  17  -4    1.21    2.56
   2 -17   4    0.54    4.98
  -2  17  -5   -7.41    7.54
   2 -17   5   85.89   17.70
  -2  17  -6   58.03    8.60
   2 -17   6  110.88   20.10
  -2  17  -7   -5.43    5.10
   2 -17   7    3.30    7.36
  -2  17  -8  125.82   15.99
   2 -17   8  130.59   20.58
  -2  17  -9  133.78   16.90
   2 -17   9  110.39   18.09
  -2  17 -10   11.23    5.10
  -2  17 -11   70.65   12.48
  -2  17 -12    0.41    4.23
  -2  17 -13   28.56    8.72
  -2 -18  12  137.89   24.35
  -2 -18  11    7.05    7.66
  -2 -18  10  343.34   40.28
  -2 -18   9   41.83   14.74
  -2 -18   8   -6.55    9.00
  -2 -18   7   19.29    8.58
  -2 -18   6   74.22   15.97
  -2 -18   5   32.54   11.51
  -2 -18   4  145.98   22.74
   2 -18  -1   -3.69    7.10
   2 -18   0   11.37    6.80
   2 -18   1   13.35    6.43
   2 -18   2    2.66    4.80
   2 -18   3   -2.11    7.18
   2 -18   4  189.65   28.72
   2 -18   5    7.11    7.80
  -2  18  -5   -3.11    4.73
   2 -18   6   63.79   15.44
  -2  18  -6  -14.21    7.68
  -2  18  -7  -29.93   11.34
   2 -18   7   62.69   16.60
   2 -18   8   69.67   16.94
  -2  18  -8   49.66   10.26
   2 -18   9    9.04    7.08
  -2  18  -9   -2.89    5.46
   2 -18  10   13.19    8.03
   2 -18  11   37.19   12.23
  -2 -19  10    4.22    6.75
  -2 -19   9   -1.73    5.55
  -2 -19   8   29.44   11.29
  -2 -19   7  345.24   37.53
  -2 -19   6    2.18    5.80
  -2 -19   5   -1.67    7.40
  -2 -19   4    0.57    6.15
   2 -19   0   -0.16    7.13
   2 -19   1  158.33   24.57
   2 -19   2   -0.32    7.17
   2 -19   3   -2.49    7.91
   2 -19   4   -6.36    7.48
   2 -19   5  275.73   37.47
   2 -19   6    2.08    7.85
   2 -19   7   26.90   11.45
   2 -19   8   -5.81    9.08
   2 -19   9  115.94   22.45
  -2 -20   7    7.48    5.67
  -2 -20   6   -0.35    4.78
  -2 -20   5   37.66   13.59
   2 -20   0   47.32   13.93
   2 -20   1   -9.54    7.98
   2 -20   2   62.58   15.12
   2 -20   3   11.66    7.61
   2 -20   4   47.43   15.28
   2 -20   5   -7.00    6.83
  -3   0  21   -1.00    2.86
  -3   0  20  112.68   13.43
  -3   0  19    0.87    3.19
  -3   0  18  418.95   23.45
  -3   0  17   -1.33    2.70
  -3   0  16  741.02   28.40
  -3   0  15    0.13    1.97
  -3   0  14  206.76   13.41
  -3   0  13    0.56    1.71
  -3   0  12  854.04   24.54
  -3   0  11    1.46    1.52
  -3   0  10  485.88   15.75
  -3   0   9    0.72    1.06
  -3   0   8   12.84    3.48
  -3   0   8   13.23    2.16
  -3   0   7    0.56    1.47
  -3   0   7    1.95    0.77
  -3   0   6 1253.78   31.58
  -3   0   5    0.37    1.55
  -3   0   4  394.89   16.90
  -3   0   3    1.57    1.82
  -3   0   2  181.53   10.94
  -3   0   1    0.79    1.77
  -3   0   0  178.81   10.35
  -3   0  -1    1.99    1.92
  -3   0  -2    7.79    2.23
  -3   0  -3    0.12    1.06
  -3   0  -4 2942.11   41.27
  -3   0  -5   -0.06    0.90
  -3   0  -6 3381.73   45.35
  -3   0  -7    0.46    1.33
  -3   0  -8   10.82    2.74
  -3   0  -9    0.50    1.22
  -3   0 -10  266.89   13.85
  -3   0 -11    1.44    1.49
   3   0  12    4.67    3.07
  -3   0 -12   10.43    3.11
  -3   0 -13   -0.45    1.40
   3   0  13   -5.28    4.02
  -3   0 -14  207.83   13.81
   3   0  14  211.63   20.61
  -3   0 -15    0.27    1.48
   3   0  15   -5.46    5.54
   3   0  16  182.77   20.43
  -3   0 -16  165.28   13.23
  -3   0 -17    0.85    1.78
   3   0  17   -4.93    5.57
   3   0  18  118.64   17.51
   3   0  19   -2.33    5.64
   3   0  20   64.34   13.31
   3   0  21   -3.68    4.84
   3   0  22   -6.12    6.91
   3   0  23   -1.96    4.05
  -3   1  22   -1.72    5.39
  -3   1  21  199.33   20.50
  -3  -1  21  209.59   18.98
  -3   1  21  218.69   19.46
  -3   1  20    5.02    3.77
  -3  -1  20    9.51    5.19
  -3   1  20    3.42    2.24
   3   1 -20   10.57    4.29
   3   1 -19    1.54    2.32
  -3  -1  19    0.29    2.22
  -3   1  19   -3.06    3.62
  -3   1  19   -0.41    2.35
  -3  -1  18    1.67    2.67
   3   1 -18    0.52    1.80
  -3   1  18   -2.24    2.52
  -3  -1  17  750.67   30.16
   3   1 -17  759.60   27.36
  -3   1  17  776.19   30.50
  -3  -1  16   22.99    5.29
  -3   1  16   22.45    5.18
   3   1 -16   19.83    4.79
   3   1 -15    6.27    2.10
  -3  -1  15    5.57    2.94
  -3   1  15    2.72    1.77
  -3   1  14  141.54   11.18
   3   1 -14  131.93   10.41
  -3  -1  14  133.36   11.11
  -3   1  13  481.02   19.42
  -3  -1  13  498.95   20.05
  -3   1  13  462.36   23.45
   3   1 -13  458.29   18.83
  -3   1  12    4.27    2.53
  -3   1  12    4.29    1.14
  -3  -1  12    4.87    2.12
   3   1 -12    2.40    1.53
   3   1 -11   92.11    7.82
  -3   1  11   94.76    7.45
  -3  -1  11   95.85    7.81
  -3   1  11   85.32    9.73
  -3  -1  10  192.87   10.27
   3   1 -10  195.83   11.11
  -3   1  10  197.99    9.98
  -3   1  10  191.77   13.97
  -3   1   9 1658.12   40.47
  -3   1   8  215.74   14.03
  -3   1   7  817.51   26.22
  -3   1   6  170.41   11.85
  -3  -1   6  168.73   11.75
  -3   1   5  424.17   17.91
  -3  -1   5  427.30   18.44
  -3   1   4  119.92    9.43
  -3  -1   4  125.73    9.55
  -3  -1   3    2.26    1.71
  -3   1   3    1.25    1.92
  -3   1   2   43.78    5.48
  -3  -1   2   39.47    5.30
   3  -1  -1  783.78   13.72
  -3  -1   1  756.67   22.14
  -3   1   1  785.38   22.32
  -3  -1   0   59.78    5.96
   3  -1   0   61.58    4.55
  -3   1   0   54.77    5.92
   3  -1   1  126.12    7.34
  -3   1  -1  133.21    9.13
  -3  -1  -1  132.36    8.52
  -3   1  -2 1348.49   28.81
   3  -1   2 1307.78   25.93
  -3  -1  -2 1314.35   26.87
   3  -1   3 1763.76   33.01
  -3   1  -3 1847.41   33.75
  -3  -1  -3 1804.95   31.52
   3  -1   4  309.47   14.70
  -3   1  -4  304.48   13.78
  -3  -1  -4  311.35   12.94
  -3   1  -5   41.14    5.19
  -3  -1  -5   37.63    4.58
   3  -1   5   42.05    5.84
   3  -1   6  103.23    9.89
  -3   1  -6  104.47    8.29
  -3  -1  -6  110.26    7.79
  -3  -1  -7 1060.88   24.10
   3  -1   7 1119.67   34.19
  -3   1  -7 1069.90   26.94
   3  -1   8   77.97    9.50
  -3  -1  -8   69.46    6.34
  -3   1  -8   70.92    7.21
  -3  -1  -9   11.69    2.64
  -3   1  -9    9.67    2.64
   3  -1   9    8.82    2.52
   3  -1  10   55.35    9.20
  -3  -1 -10   51.39    5.68
  -3   1 -10   54.80    6.68
  -3  -1 -11  584.38   19.75
  -3   1 -11  562.80   21.68
  -3   1 -12   -1.85    1.98
  -3  -1 -12    0.91    1.57
   3  -1  12   -2.73    5.65
  -3   1 -13   47.71    6.76
  -3  -1 -13   47.21    5.94
   3  -1  13   55.09   10.44
   3  -1  14   -1.40    4.15
  -3  -1 -14    0.59    1.10
  -3   1 -14    0.89    2.11
  -3   1 -15  148.36   12.42
   3   1  15  139.07   16.66
   3  -1  15  155.78   18.51
  -3  -1 -15  151.43   11.55
  -3   1 -16   -1.95    2.39
  -3  -1 -16    1.87    1.83
   3   1  16   -3.18    4.98
   3  -1  16   -3.94    4.55
   3   1  17   -0.22    3.97
  -3   1 -17    6.12    3.03
   3  -1  17    1.71    5.67
  -3   1 -18   11.64    3.88
   3  -1  18    5.87    5.17
   3   1  18    5.44    3.26
   3  -1  19  128.45   19.24
   3   1  19  118.27   17.20
   3   1  20   -7.47    5.37
   3  -1  20    4.84    4.20
   3   1  21   -2.74    4.66
   3  -1  21   -0.17    5.67
   3   1  22    2.89    4.42
   3  -1  22    0.26    5.27
   3   1  23    3.94    5.72
   3  -1  23    5.03    4.43
   3   2 -22   87.69   11.63
  -3   2  21    0.33    3.52
  -3   2  21    0.23    2.93
   3   2 -21    1.20    2.98
  -3   2  20   65.58   10.26
   3   2 -20   60.85    9.05
  -3   2  20   47.18    9.24
  -3   2  19  119.18   13.17
  -3   2  19  132.62   15.00
   3   2 -19  109.68   11.75
  -3   2  18   42.02    7.69
   3   2 -18   59.11    8.14
  -3   2  18   48.54    7.88
   3   2 -17   39.74    6.53
  -3   2  17   39.83    6.74
  -3   2  17   35.64    7.34
  -3   2  16  167.45   13.52
   3   2 -16  160.75   12.69
  -3   2  16  142.43   14.34
  -3   2  15   24.14    5.03
  -3   2  15   23.02    4.69
   3   2 -15   28.33    5.37
   3   2 -14   82.38    8.33
  -3   2  14   88.03   10.29
   3   2 -13  500.07   19.68
  -3   2  13  482.70   24.23
  -3   2  12  330.34   19.51
   3   2 -12  332.46   15.81
   3   2 -11  422.39   17.39
  -3   2  11  439.99   21.89
   3   2 -10  300.69   13.87
  -3   2  10  296.30   17.33
  -3   2   9   53.80    7.15
   3   2  -9   53.93    5.72
   3   2  -8   50.79    5.37
  -3   2   8   47.94    6.63
  -3   2   7  535.57   21.37
   3   2  -7  522.39   16.60
  -3   2   6   12.99    3.66
  -3   2   5    1.75    1.26
  -3   2   4  168.38   11.32
  -3  -2   4  153.71   11.17
   3  -2  -3  385.45    8.70
  -3   2   3  395.79   16.70
  -3  -2   3  357.24   16.11
  -3  -2   2  240.92   12.72
  -3   2   2  233.17   12.65
  -3  -2   1   40.95    5.21
  -3   2   1   37.62    4.98
  -3  -2   0   88.33    7.30
  -3   2   0   98.06    8.20
  -3  -2  -1  948.84   22.53
   3  -2   1  960.37   21.33
  -3   2  -1 1007.75   25.52
   3  -2   2  341.85   13.98
  -3   2  -2  348.76   15.02
  -3  -2  -2  335.33   13.16
  -3  -2  -3  212.50   10.28
   3  -2   3  204.62   11.62
  -3   2  -3  206.83   11.77
  -3  -2  -4    8.62    1.95
   3  -2   4    6.30    2.15
  -3   2  -4    8.93    2.52
   3  -2   5  526.25   20.93
  -3   2  -5  519.60   19.00
  -3  -2  -5  543.29   16.16
   3  -2   6  255.04   15.49
  -3   2  -6  262.27   13.78
  -3  -2  -6  274.91   11.46
   3  -2   7   -1.33    2.29
  -3  -2  -7    1.57    1.32
  -3   2  -7    0.41    1.18
   3  -2   8  236.50   16.66
  -3   2  -8  222.66   13.13
  -3  -2  -8  211.57   10.12
  -3  -2  -9  110.66    7.54
  -3   2  -9  110.58    9.57
   3  -2   9  123.34   12.51
  -3  -2 -10  393.74   14.66
  -3   2 -10  393.22   18.65
   3  -2  10  401.54   24.07
  -3  -2 -11    8.32    2.54
  -3   2 -11    6.18    3.03
   3  -2  11    7.67    4.08
   3  -2  12  235.47   20.67
  -3   2 -12  234.16   15.16
  -3  -2 -12  239.62   12.36
  -3  -2 -13  144.53    9.93
  -3   2 -13  145.55   12.26
   3  -2  13  137.36   15.93
  -3   2 -14  224.73   15.87
   3  -2  14  249.35   22.26
  -3  -2 -14  231.32   13.09
  -3   2 -15   38.11    6.65
   3  -2  15   38.91    9.99
  -3   2 -16   75.95    9.84
   3  -2  16   73.88   14.06
  -3   2 -17   97.43   11.24
   3  -2  17  106.98   17.15
  -3   2 -18   49.00    8.06
   3  -2  18   54.61   12.37
   3   2  18   49.66   10.89
   3  -2  19   28.31    9.50
   3   2  19    9.43    3.65
   3   2  20   11.49    6.11
   3  -2  20   11.10    6.40
   3  -2  21   37.18   12.25
   3   2  21   36.07   10.30
   3   2  22   19.66    8.84
   3  -2  22   23.84   10.33
   3   2  23    1.45    3.95
   3  -2  23    5.22    4.32
   3   3 -23    8.80    3.81
   3   3 -22   97.25   12.59
  -3   3  21   11.19    4.33
   3   3 -21    8.88    3.94
  -3   3  20   21.35    7.34
  -3   3  20   18.42    5.34
   3   3 -20   19.17    5.19
   3   3 -19    4.05    2.45
  -3   3  19    8.66    3.63
  -3   3  19    5.11    2.47
  -3   3  18   37.71    7.55
  -3   3  18   37.82    7.18
   3   3 -18   39.02    6.78
  -3   3  17   56.19    9.09
   3   3 -17   56.43    8.03
  -3   3  16  118.20   12.69
   3   3 -16  135.34   11.70
  -3   3  15    7.17    1.85
   3   3 -15    7.87    2.71
  -3   3  14   74.72    9.70
   3   3 -14   76.70    8.28
   3   3 -13  196.85   12.70
  -3   3  13  196.92   15.40
  -3   3  12    5.15    2.23
   3   3 -12    7.35    2.34
  -3   3  11   50.17    7.22
   3   3 -11   52.57    6.27
  -3   3  10  883.25   30.26
   3   3 -10  882.32   24.63
  -3   3   9  420.66   20.27
   3   3  -9  427.22   16.60
  -3   3   8  152.55   11.94
   3   3  -8  148.50    9.46
  -3   3   7   11.44    3.23
   3   3  -7   12.48    2.60
  -3   3   6  829.44   26.10
   3   3  -6  860.61   20.89
  -3   3   5  239.68   13.85
   3   3  -5  239.45   10.75
  -3  -3   4 1079.05   22.31
  -3   3   4  858.57   25.70
   3  -3  -3  304.76    9.93
  -3  -3   3  287.05   14.91
  -3  -3   3  337.44   12.48
  -3   3   3  306.56   14.88
  -3  -3   2  510.81   18.58
  -3   3   2  519.35   19.43
  -3  -3   1  364.57   15.63
  -3   3   1  363.30   15.97
  -3  -3   0  504.45   17.37
  -3   3   0  500.48   18.65
  -3   3  -1    0.02    1.28
  -3  -3  -1    1.16    1.24
  -3   3  -2  218.53   12.18
  -3  -3  -2  210.05   10.15
  -3  -3  -3  342.87   12.62
  -3   3  -3  343.63   15.30
   3  -3   3  347.84   15.82
  -3   3  -4 1193.30   29.31
   3  -3   4 1218.95   31.37
  -3  -3  -4 1225.01   23.64
   3  -3   5    0.60    1.74
  -3   3  -5    1.80    1.60
  -3  -3  -5    0.51    0.69
  -3   3  -6   66.63    7.29
  -3  -3  -6   67.72    5.19
   3  -3   6   62.81    7.59
  -3  -3  -7   73.03    5.35
  -3   3  -7   75.99    7.80
   3  -3   7   73.98    8.81
  -3  -3  -8  258.47   10.19
  -3   3  -8  265.10   15.02
   3  -3   8  272.20   18.11
   3  -3   9  163.98   14.73
  -3  -3  -9  168.65    8.54
  -3   3  -9  166.61   12.19
  -3  -3 -10   85.40    6.35
  -3   3 -10   86.55    9.15
   3  -3  10   93.22   11.51
  -3  -3 -11  271.37   11.73
  -3   3 -11  287.03   17.06
   3  -3  11  268.03   20.50
  -3  -3 -12   19.45    3.32
  -3   3 -12   25.34    5.28
   3  -3  12   23.15    6.98
   3  -3  13   41.49    8.65
  -3   3 -13   41.58    7.21
  -3   3 -14  223.12   16.70
   3  -3  14  241.35   22.59
  -3   3 -15   13.04    4.53
   3  -3  15   14.56    6.42
  -3   3 -16   71.02    9.96
   3  -3  16   78.14   14.05
  -3   3 -17   11.27    4.24
   3  -3  17   10.71    6.53
  -3   3 -18   62.98    9.68
   3  -3  18   71.90   14.89
  -3   3 -19   12.57    4.50
   3   3  19   14.52    6.43
   3  -3  19   11.81    5.10
   3   3  20   58.20   12.78
   3  -3  20   67.59   15.23
   3  -3  21   -4.87    5.42
   3   3  21   -2.40    4.34
   3  -3  22   -1.72    5.24
   3   3  22   -2.87    5.74
   3   3  23    3.68    4.93
   3  -3  23   11.74    8.76
   3   4 -23  124.54   14.70
   3   4 -22   52.44    9.29
   3   4 -21   -0.67    2.45
  -3   4  20    7.55    3.03
   3   4 -20   14.35    4.60
  -3   4  19  231.39   19.67
   3   4 -19  253.41   18.23
  -3   4  18    3.37    3.05
   3   4 -18    0.95    1.67
  -3   4  17   10.70    3.66
   3   4 -17    9.23    3.43
   3   4 -16  104.86   10.39
  -3   4  16   99.69   11.81
  -3   4  15  552.05   26.78
   3   4 -15  530.01   23.11
   3   4 -14  230.39   14.42
  -3   4  14  247.30   17.44
  -3   4  13    7.40    3.69
   3   4 -13    2.81    1.82
  -3   4  12   62.90    8.72
   3   4 -12   60.95    7.42
  -3   4  11 1766.06   43.40
   3   4 -11 1694.25   36.30
   3   4 -10  123.62    9.51
  -3   4  10  137.39   11.80
  -3   4   9  440.59   20.65
   3   4  -9  437.82   17.32
  -3   4   8   63.32    7.79
   3   4  -8   55.21    6.03
   3   4  -7 2294.91   36.74
  -3   4   7 2307.90   44.90
   3   4  -6   11.83    2.47
  -3   4   6   11.36    3.57
  -3   4   5  119.34    9.63
  -3  -4   5   92.49    6.41
   3   4  -5  107.14    7.26
  -3  -4   4  194.75   10.39
   3   4  -4  181.68    9.27
   3  -4  -4  173.44    8.55
  -3   4   4  187.19   11.98
  -3   4   3 2090.82   39.50
   3  -4  -3 2068.18   31.20
  -3   4   2   86.18    8.15
  -3  -4   2   72.95    7.26
  -3   4   1    7.04    2.73
  -3  -4   1    5.85    2.29
  -3  -4   0  132.28    9.50
  -3   4   0  142.15    9.99
  -3  -4  -1 1065.79   24.51
  -3   4  -1 1023.30   26.91
  -3  -4  -2    2.69    1.59
  -3   4  -2    4.57    2.39
  -3   4  -3   35.45    5.14
  -3  -4  -3   35.42    3.77
  -3  -4  -4   21.16    2.91
  -3   4  -4   18.71    4.05
  -3   4  -5 1909.93   38.69
  -3  -4  -5 1942.19   26.43
   3  -4   6   12.54    4.50
  -3   4  -6   12.53    3.48
  -3  -4  -6   12.10    2.03
  -3  -4  -7   31.23    3.08
   3  -4   7   31.93    6.40
  -3   4  -7   28.41    5.00
  -3  -4  -8   78.05    4.98
  -3   4  -8   74.13    8.19
   3  -4   8   81.09   10.48
  -3   4  -9  405.20   19.72
  -3  -4  -9  392.44   11.67
   3  -4   9  383.56   22.67
   3  -4  10    0.83    3.28
  -3   4 -10   -0.66    1.95
  -3   4 -11   11.38    3.82
   3  -4  11   10.59    4.98
  -3   4 -12    9.26    3.47
   3  -4  12    7.92    4.85
  -3   4 -13  444.58   23.40
   3  -4  13  446.32   29.47
   3  -4  14    1.65    4.27
  -3   4 -14    2.02    2.83
  -3   4 -15   92.33   11.08
   3  -4  15   91.74   14.78
  -3   4 -16   12.15    4.24
   3  -4  16   14.53    6.92
  -3   4 -17   37.46    7.90
   3  -4  17   51.64   13.09
  -3   4 -18    0.83    1.98
   3  -4  18   -0.34    5.69
  -3   4 -19    2.29    3.93
   3  -4  19   -1.33    4.98
   3  -4  20    0.94    4.91
   3   4  21   24.13    8.75
   3   4  22   -1.95    3.87
   3   5 -24   41.68    9.22
   3   5 -23   11.99    5.50
   3   5 -22  107.25   13.73
   3   5 -21    2.85    2.51
   3   5 -20   78.96   10.81
   3   5 -19   -0.13    2.65
  -3   5  18   58.32    9.57
   3   5 -18   66.02    9.33
  -3   5  17   -0.63    2.63
   3   5 -17   -1.57    1.99
   3   5 -16  146.51   12.84
  -3   5  16  159.68   14.67
  -3   5  15    0.66    1.94
   3   5 -15    1.09    2.37
   3   5 -14  582.38   23.82
  -3   5  14  587.56   26.62
  -3   5  13  138.93   13.15
   3   5 -13  141.79   11.60
  -3   5  12  293.10   18.07
   3   5 -12  270.05   15.49
  -3   5  11  146.25   12.62
   3   5 -11  143.24   11.02
  -3   5  10  812.31   28.75
   3   5 -10  796.22   24.87
  -3   5   9  233.21   15.01
   3   5  -9  218.97   12.59
  -3   5   8  689.21   25.13
   3   5  -8  676.10   21.40
  -3   5   7   88.88    8.83
   3   5  -7   89.26    7.47
   3   5  -6  948.10   23.42
  -3   5   6  929.78   27.76
  -3  -5   5   25.91    4.11
  -3   5   5   25.30    4.19
   3   5  -5   27.07    3.83
  -3  -5   4  531.62   19.05
   3   5  -4  503.77   15.82
  -3   5   4  524.42   20.35
   3  -5  -4  479.62   16.32
  -3   5   3  788.63   24.40
   3  -5  -3  833.09   22.91
   3   5  -3  791.60   19.12
  -3  -5   3  782.61   22.51
  -3   5   2 1127.84   29.02
  -3  -5   1  657.30   21.14
  -3   5   1  641.97   21.80
  -3   5   0  716.39   23.23
  -3  -5   0  765.43   22.25
  -3  -5  -1    2.36    1.18
  -3   5  -1    1.23    1.13
  -3   5  -2 1045.30   28.20
  -3  -5  -2 1022.84   22.09
  -3  -5  -3    0.58    0.73
  -3   5  -3    0.01    1.43
  -3   5  -4  788.99   25.22
  -3  -5  -4  790.16   16.67
  -3   5  -5  109.17    9.61
  -3  -5  -5  109.60    5.67
  -3   5  -6  312.99   16.64
  -3  -5  -6  284.91    8.09
  -3   5  -7  480.80   21.03
  -3   5  -8  501.79   22.11
  -3   5  -9   20.45    4.51
  -3   5 -10  166.07   13.48
  -3   5 -11   12.48    3.87
  -3   5 -12   80.77    9.86
  -3   5 -13    5.37    3.45
  -3   5 -14   73.90   10.15
  -3   5 -15  150.96   15.01
  -3   5 -16   18.51    5.53
  -3   5 -17   37.32    8.15
  -3   5 -18   45.82    8.69
  -3   5 -19   -2.36    3.97
   3   5  22   21.89    8.38
   3   6 -23  184.28   18.85
   3   6 -22   19.18    6.01
   3   6 -21   28.29    6.95
   3   6 -20   37.54    7.59
   3   6 -19  105.77   12.11
   3   6 -18    2.33    2.19
  -3   6  17    2.59    2.20
   3   6 -17    0.10    1.82
  -3   6  16   22.49    5.18
   3   6 -16   22.56    5.10
  -3   6  15  488.52   24.12
   3   6 -15  510.39   23.78
  -3   6  14    0.66    2.06
   3   6 -14    1.74    2.33
  -3   6  13  272.93   17.58
   3   6 -13  280.79   16.50
  -3   6  12  125.15   11.62
   3   6 -12  127.36   11.04
  -3   6  11   75.30    9.18
   3   6 -11   69.47    7.96
  -3   6  10    4.06    2.69
   3   6 -10    1.44    2.30
   3   6  -9    6.88    2.01
  -3   6   9    3.79    2.20
  -3   6   8   16.40    3.69
   3   6  -8   15.34    3.55
   3   6  -7 1008.64   26.28
  -3   6   7 1008.37   29.54
  -3   6   6   44.74    6.49
   3   6  -6   39.15    4.93
   3   6  -5   70.84    6.40
  -3  -6   5   70.52    7.31
  -3   6   5   80.61    8.15
  -3   6   4    8.25    2.95
  -3  -6   4    7.80    2.52
   3  -6  -4    5.07    1.71
   3   6  -4    7.82    2.23
  -3   6   3  400.80   17.73
   3   6  -3  406.92   14.10
  -3  -6   3  382.68   16.89
   3   6  -2  338.23   12.52
  -3  -6   2  335.53   16.46
  -3   6   2  327.56   16.06
  -3   6   1  161.63   11.02
  -3   6   0  124.23    9.86
  -3  -6   0  123.80    9.19
  -3   6  -1 2415.79   43.79
  -3  -6  -1 2743.06   41.31
  -3  -6  -2   18.57    3.17
  -3   6  -2   19.32    4.23
  -3  -6  -3  162.50    7.74
  -3   6  -3  186.43   12.42
  -3   6  -4   29.31    4.97
  -3  -6  -4   29.49    3.11
  -3   6  -5  261.45   15.40
  -3   6  -6   32.28    5.62
  -3   6  -7   -0.55    2.11
  -3   6  -8  322.58   18.43
  -3   6  -9  453.96   22.48
  -3   6 -10    6.34    3.22
  -3   6 -11    2.79    1.81
  -3   6 -12   70.25    9.60
  -3   6 -13   93.67   11.41
  -3   6 -14   82.06   11.46
  -3   6 -15   18.65    5.99
  -3   6 -16   48.76    9.18
  -3   6 -17  305.20   23.26
  -3   6 -18   -4.62    4.35
  -3   6 -19   43.34    9.48
  -3   6 -20    6.00    4.18
   3   7 -23    0.37    2.38
   3   7 -22   64.27   10.92
   3   7 -21   86.77   12.18
   3   7 -20   10.91    4.32
   3   7 -19   62.68    9.84
   3   7 -18    5.87    2.54
   3   7 -17   98.86   11.57
   3   7 -16   21.50    5.28
   3   7 -15   30.93    6.30
  -3   7  15   31.52    6.21
  -3   7  14  252.35   16.46
   3   7 -14  249.74   16.85
  -3   7  13  238.96   15.67
   3   7 -13  237.05   15.96
  -3   7  12   -0.15    1.93
   3   7 -12    1.61    1.71
   3   7 -11  169.14   12.72
  -3   7  11  172.49   12.95
  -3   7  10    0.66    2.39
   3   7 -10    1.36    1.43
  -3   7   9  130.54   10.73
   3   7  -9  126.20   10.45
  -3   7   8   49.94    6.84
   3   7  -8   41.23    5.67
  -3   7   7   32.78    5.72
   3   7  -7   25.16    4.30
  -3   7   6  633.34   22.89
   3   7  -6  642.58   20.75
  -3   7   5  411.70   18.48
  -3  -7   5  384.66   18.83
   3   7  -5  401.85   15.73
  -3  -7   4  240.41   15.77
   3   7  -4  213.79   10.92
  -3   7   4  213.24   13.06
   3  -7  -4  212.11   13.37
  -3   7   3    0.27    1.97
   3  -7  -3    2.01    1.42
   3   7  -3    0.74    0.80
  -3  -7   3   -1.27    1.78
   3  -7  -2  204.98   13.97
  -3  -7   2  171.58   12.29
  -3   7   2  190.45   12.28
   3   7  -2  184.33    9.43
  -3   7   1    5.93    2.30
   3   7  -1    4.42    1.61
  -3   7   0  378.44   17.56
  -3   7  -1   97.86    8.85
  -3  -7  -1   98.17    7.95
  -3   7  -2  358.16   17.69
  -3  -7  -2  390.92   14.72
  -3  -7  -3  261.97   10.01
  -3   7  -3  301.61   16.18
  -3   7  -4   92.45    9.37
  -3   7  -5   58.50    7.63
  -3   7  -6   83.27    9.26
  -3   7  -7  598.35   25.13
  -3   7  -8  153.91   13.15
  -3   7  -9    2.43    2.17
  -3   7 -10  127.82   12.55
  -3   7 -11  190.90   15.92
  -3   7 -12    2.24    2.11
  -3   7 -13   21.07    5.88
  -3   7 -14   85.82   11.92
  -3   7 -15  398.13   25.74
  -3   7 -16  231.18   20.14
  -3   7 -17    0.95    2.66
  -3   7 -18   71.05   11.73
  -3   7 -19  110.02   15.27
  -3   7 -20    8.53    5.14
   3   8 -23    9.85    4.89
   3   8 -22   23.11    6.67
   3   8 -21    0.10    3.25
   3   8 -20  176.10   17.22
   3   8 -19   49.50    8.78
   3   8 -18   49.45    8.82
   3   8 -17    0.21    2.14
   3   8 -16  103.67   11.78
   3   8 -15    1.80    2.30
   3   8 -14   89.58   10.49
  -3   8  14   74.69    8.56
   3   8 -13   75.95    9.37
  -3   8  13   79.22    8.69
   3   8 -12  163.01   13.34
  -3   8  12  150.12   11.86
   3   8 -11   18.56    4.44
  -3   8  11   22.56    5.64
   3   8 -10    2.11    1.47
  -3   8  10   13.50    4.81
   3   8  -9   66.18    7.86
  -3   8   9   68.71    8.07
  -3   8   8  461.45   19.90
   3   8  -8  468.55   19.95
  -3   8   7  541.39   21.43
   3   8  -7  543.37   20.72
  -3  -8   6  653.20   26.90
   3   8  -6  669.33   22.22
  -3   8   6  684.27   23.99
  -3   8   5   19.72    4.06
  -3  -8   5   18.98    4.74
   3   8  -5   22.61    4.11
  -3   8   4   35.98    5.35
  -3  -8   4   40.52    6.87
   3   8  -4   35.87    4.63
   3  -8  -4   35.66    5.84
  -3  -8   3   10.10    3.11
   3  -8  -3   11.94    4.38
   3   8  -3   12.62    2.78
  -3   8   3    7.26    2.18
   3  -8  -2  128.28   12.51
  -3   8   2  111.99    9.85
  -3  -8   2  106.95   10.52
   3   8  -2  115.53    7.82
   3   8  -1    2.72    1.21
  -3   8   1    1.99    1.93
  -3   8   0  372.17   18.08
  -3   8  -1   96.54    9.40
  -3  -8  -1   90.92    7.72
  -3   8  -2  224.48   14.44
  -3  -8  -2  232.58   11.59
  -3   8  -3   90.65    9.27
  -3   8  -4  426.56   20.28
  -3   8  -5  126.08   11.53
  -3   8  -6  295.93   18.10
  -3   8  -7   -0.74    2.21
  -3   8  -8  127.46   12.31
  -3   8  -9   79.91   10.09
  -3   8 -10   52.28    8.13
  -3   8 -11   -0.75    2.94
  -3   8 -12  119.66   13.47
  -3   8 -13   30.90    7.14
  -3   8 -14  145.41   15.53
  -3   8 -15    7.23    4.79
  -3   8 -16  280.25   22.85
  -3   8 -17   98.72   14.13
  -3   8 -18  112.58   15.46
  -3   8 -19   -0.41    3.41
  -3   8 -20   -0.55    2.89
   3   9 -23   25.66    8.07
   3   9 -22   -3.39    3.31
   3   9 -21  261.38   22.36
   3   9 -20   -0.49    2.96
   3   9 -19   -0.92    2.74
   3   9 -18   -0.17    2.02
   3   9 -17  278.90   20.85
   3   9 -16    2.23    2.20
   3   9 -15   11.59    4.05
   3   9 -14   -1.19    2.58
   3   9 -13  729.79   29.71
  -3   9  12    6.09    3.43
   3   9 -12    0.44    2.04
  -3   9  11   67.92    8.19
   3   9 -11   61.16    8.36
   3   9 -10   58.98    7.96
  -3   9  10   75.05    8.83
  -3   9   9  619.04   23.38
   3   9  -9  588.69   24.04
  -3   9   8  247.38   14.69
   3   9  -8  252.56   15.03
   3   9  -7   12.79    3.15
  -3   9   7   15.42    3.31
  -3  -9   7   16.71    5.57
  -3  -9   6   73.99    9.98
  -3   9   6   66.70    7.58
   3   9  -6   68.34    7.42
  -3  -9   5  956.55   35.61
  -3   9   5  880.58   27.69
   3   9  -5  904.75   25.63
   3  -9  -4   20.15    4.62
  -3  -9   4   22.96    5.26
  -3   9   4   24.84    4.90
   3   9  -4   22.52    3.87
   3   9  -3   47.75    5.26
   3  -9  -3   56.78    9.11
  -3   9   3   48.04    6.52
  -3  -9   3   40.20    6.62
   3  -9  -2    0.62    1.73
  -3  -9   2   -0.95    2.75
   3   9  -2    1.81    1.39
  -3   9   2   -2.26    2.81
   3   9  -1  834.95   20.63
   3  -9  -1  852.97   32.82
  -3   9   1  819.73   27.47
   3   9   0    1.85    1.22
  -3   9   0    1.42    1.37
  -3   9  -1  146.25   11.76
  -3  -9  -2  137.80    9.19
  -3   9  -2  137.01   11.68
  -3   9  -3  720.37   27.01
  -3   9  -4    0.14    1.45
  -3   9  -5   39.77    6.51
  -3   9  -6   54.72    8.02
  -3   9  -7  603.14   26.88
  -3   9  -8   20.39    5.38
  -3   9  -9   10.72    4.08
  -3   9 -10   15.70    4.80
  -3   9 -11  188.18   16.63
  -3   9 -12   27.52    6.98
  -3   9 -13    2.65    2.71
  -3   9 -14    1.51    3.26
  -3   9 -15  286.92   23.10
  -3   9 -16    0.37    2.60
  -3   9 -17    1.25    3.91
  -3   9 -18   10.08    5.49
  -3   9 -19   71.35   12.61
   3  10 -22   30.68    7.91
   3  10 -21    4.30    4.86
   3  10 -20  183.52   18.58
   3  10 -19   69.37   11.17
   3  10 -18   22.31    6.29
   3  10 -17   -3.28    3.26
   3  10 -16   17.18    5.04
   3  10 -15    0.20    2.25
   3  10 -14  136.61   13.82
   3  10 -13   -2.65    3.21
   3  10 -12  400.17   22.31
   3  10 -11    1.62    1.65
  -3  10  11   -0.11    1.15
  -3  10  10   -2.41    2.49
   3  10 -10  497.70   23.33
   3  10  -9   73.69    8.87
  -3  10   9   -3.94    3.13
  -3 -10   8  523.78   27.75
   3  10  -8  565.53   23.53
  -3 -10   7  115.56   14.06
   3  10  -7   93.80    9.30
  -3 -10   6  549.96   29.31
  -3  10   6  531.17   22.03
   3  10  -6  505.21   20.85
  -3  10   5   56.74    7.83
  -3 -10   5   33.66    7.56
   3  10  -5   43.14    6.03
  -3 -10   4   72.67    9.99
  -3  10   4   71.93    8.19
   3  10  -4   69.19    7.10
   3 -10  -4   69.24    9.60
   3 -10  -3   12.11    4.56
  -3  10   3   12.85    3.50
  -3 -10   3    6.15    1.97
   3  10  -3   13.17    2.91
  -3 -10   2    0.80    2.31
   3  10  -2    2.96    1.11
  -3  10   2    1.18    1.54
   3 -10  -2    4.34    2.61
   3  10  -1   53.88    5.32
  -3  10   1   56.25    7.43
   3 -10  -1   58.96    9.91
  -3  10   0  814.33   28.62
   3  10   0  840.62   20.52
  -3  10  -1  111.27   10.72
  -3  10  -2   91.24    9.87
  -3  10  -3  145.10   12.75
  -3  10  -4 1037.10   34.10
  -3  10  -5   36.17    6.61
  -3  10  -6  127.31   12.63
  -3  10  -7    7.26    2.82
  -3  10  -8  302.85   20.38
  -3  10  -9    0.32    2.74
  -3  10 -10  196.72   17.08
  -3  10 -11    2.71    2.46
  -3  10 -12  111.74   13.92
  -3  10 -13    3.52    3.36
  -3  10 -14    9.07    4.77
  -3  10 -15   33.58    8.54
  -3  10 -16   36.31    8.79
  -3  10 -17    5.05    4.02
  -3  10 -18    6.71    4.94
  -3  10 -19    1.95    3.32
   3  11 -22   11.80    6.49
   3  11 -21   89.87   13.88
   3  11 -20    8.23    4.40
   3  11 -19    6.56    3.48
   3  11 -18   -2.73    3.58
   3  11 -17   37.86    8.08
   3  11 -16   33.39    7.31
   3  11 -15   28.68    6.58
   3  11 -14   26.81    6.39
   3  11 -13  141.90   14.17
   3  11 -12    3.40    2.77
   3  11 -11   26.97    5.86
   3  11 -10  354.18   20.51
  -3  11  10   -1.00    1.61
  -3 -11   9  469.26   28.09
   3  11  -9  504.13   23.69
   3  11  -8   -1.42    2.41
  -3 -11   8    3.26    4.24
  -3  11   8    0.18    1.09
   3  11  -7   41.37    6.38
  -3 -11   7   48.08    9.73
   3  11  -6    1.48    1.28
  -3  11   6    0.29    1.22
  -3 -11   5  287.09   21.83
   3  11  -5  253.34   14.72
   3 -11  -4  142.26   15.20
   3  11  -4  137.79   10.45
  -3 -11   4  123.95   13.67
   3 -11  -3   12.20    4.51
  -3  11   3   20.68    4.64
  -3 -11   3    6.35    3.13
   3  11  -3   11.62    2.86
  -3 -11   2  108.33   12.24
  -3  11   2  129.44   11.77
   3  11  -2  127.92    8.97
   3 -11  -1   13.26    5.31
  -3  11   1   16.50    4.40
   3  11  -1   18.22    3.26
   3 -11   0  272.87   21.60
   3  11   0  269.60   11.87
  -3  11   0  260.25   16.82
  -3  11  -1  341.12   19.26
  -3  11  -2   44.36    6.91
  -3  11  -3  487.96   23.78
  -3  11  -4  655.39   28.29
  -3  11  -5   26.01    5.35
  -3  11  -6  238.71   17.73
  -3  11  -7  757.03   32.33
  -3  11  -8   21.56    5.58
  -3  11  -9   48.88    8.30
  -3  11 -10   12.40    4.75
  -3  11 -11   73.72   11.06
  -3  11 -12   24.34    6.97
  -3  11 -13   52.99   10.11
  -3  11 -14   55.53   10.51
  -3  11 -15  102.38   14.83
  -3  11 -16    1.22    2.63
  -3  11 -17    0.49    3.42
  -3  11 -18   27.80    8.88
  -3  11 -19   37.86   10.70
   3  12 -21    2.83    3.47
   3  12 -20   80.57   13.13
   3  12 -19    2.33    3.89
   3  12 -18  109.67   14.74
   3  12 -17   31.26    7.55
   3  12 -16   16.86    5.89
   3  12 -15   51.63    9.59
   3  12 -14    9.55    4.09
   3  12 -13   26.24    6.44
   3  12 -12    3.68    2.07
   3  12 -11  190.86   16.06
   3  12 -10   24.73    5.92
  -3 -12  10   24.13    7.74
   3  12  -9   42.77    7.37
  -3 -12   9   48.95   10.24
  -3 -12   8  138.84   17.21
   3  12  -8  109.55   11.13
  -3 -12   7  311.63   26.00
   3  12  -7  257.70   16.72
  -3 -12   6  102.78   15.73
   3  12  -6   94.57    9.74
  -3 -12   5    3.64    2.88
  -3  12   5    0.17    1.18
   3  12  -5    4.63    2.55
   3  12  -4  300.91   16.10
   3 -12  -4  307.13   23.86
  -3 -12   4  272.10   21.69
   3  12  -3  332.89   16.04
  -3 -12   3  295.21   22.05
   3 -12  -3  370.06   26.95
   3  12  -2   84.82    7.75
   3 -12  -2   99.48   14.22
  -3  12   2   71.98    8.57
  -3 -12   2   84.40   11.51
  -3  12   1    1.14    2.14
   3  12  -1    0.14    1.12
   3 -12  -1   -1.09    3.60
   3 -12   0  375.16   27.87
  -3  12   0  343.31   20.02
   3  12   0  331.98   13.65
  -3  12  -1   11.82    3.60
   3 -12   1   12.64    5.27
  -3  12  -2    5.52    3.11
  -3  12  -3   62.88    9.18
  -3  12  -4  489.82   25.43
  -3  12  -5  563.55   27.82
  -3  12  -6   30.27    6.41
  -3  12  -7    1.25    2.83
  -3  12  -8   48.29    8.46
  -3  12  -9   43.72    8.36
  -3  12 -10    1.25    2.38
  -3  12 -11    1.09    2.62
  -3  12 -12  120.73   15.02
  -3  12 -13   95.97   13.94
  -3  12 -14   22.48    6.73
  -3  12 -15   12.83    5.65
  -3  12 -16   36.61    9.38
  -3  12 -17   58.44   11.75
  -3  12 -18   42.03   10.45
   3  13 -20   32.91    9.34
   3  13 -19   -1.89    4.32
   3  13 -18   25.89    7.05
   3  13 -17   66.71   11.62
   3  13 -16    5.59    4.27
   3  13 -15   -3.80    4.29
   3  13 -14   74.24   11.23
   3  13 -13    4.41    3.28
   3  13 -12    5.65    2.77
  -3 -13  12    7.54    5.38
   3  13 -11    1.90    3.51
  -3 -13  11    5.90    4.83
  -3 -13  10  555.02   37.10
   3  13 -10  504.52   26.50
   3  13  -9   59.13    9.09
  -3 -13   9   58.31   12.22
  -3 -13   8  227.74   24.33
   3  13  -8  197.83   15.77
   3  13  -7    0.38    1.95
  -3  13   7   -0.21    1.47
  -3 -13   7    1.53    4.26
  -3 -13   6  109.43   16.15
   3  13  -6  105.60   10.73
  -3 -13   5   75.66   12.38
   3  13  -5   83.40    9.27
   3 -13  -4  337.87   26.33
   3  13  -4  344.34   17.96
  -3 -13   4  321.57   24.73
  -3 -13   3   35.73    8.32
   3 -13  -3   38.69    8.75
   3  13  -3   37.49    5.69
   3  13  -2  221.45   13.00
   3 -13  -2  263.50   24.70
   3 -13  -1  348.06   30.75
   3  13  -1  243.72   12.91
   3 -13   0   93.10   14.91
  -3  13   0   82.32   10.14
  -3  13  -1    6.32    3.39
   3 -13   1    7.35    4.25
   3 -13   2   12.50    5.99
  -3  13  -2   15.68    4.72
  -3  13  -3   40.39    7.62
  -3  13  -4  367.21   22.66
  -3  13  -5   32.30    7.26
  -3  13  -6   55.12    9.28
  -3  13  -7    2.73    2.67
  -3  13  -8   50.21    9.11
  -3  13  -9   47.22    9.29
  -3  13 -10   16.01    5.61
  -3  13 -11   47.16    9.21
  -3  13 -12   80.48   12.77
  -3  13 -13    5.72    3.67
  -3  13 -14   24.82    6.96
  -3  13 -15    7.63    4.25
  -3  13 -16   33.52    8.95
  -3  13 -17    4.12    4.42
   3  14 -19  142.06   18.01
   3  14 -18    2.17    3.33
   3  14 -17    5.80    3.68
   3  14 -16   18.62    6.73
   3  14 -15   50.07    9.82
  -3 -14  14   16.53    7.09
   3  14 -14   10.82    4.91
  -3 -14  13   36.77   10.07
   3  14 -13   34.66    7.81
   3  14 -12   20.12    5.94
  -3 -14  12   20.93    9.45
  -3 -14  11  217.59   24.84
   3  14 -11  196.91   17.78
   3  14 -10   21.20    5.97
  -3 -14  10   14.35    6.26
   3  14  -9   12.01    4.12
  -3 -14   9   17.56    7.94
  -3 -14   8   42.95   10.85
   3  14  -8   32.72    6.69
  -3 -14   7  525.55   38.89
   3  14  -7  464.42   24.24
  -3 -14   6   10.06    5.10
  -3  14   6    0.28    1.49
   3  14  -6    9.20    3.84
  -3 -14   5   -0.48    4.01
  -3  14   5    0.55    1.50
   3  14  -5    0.95    1.62
  -3 -14   4    4.98    3.62
  -3  14   4   -0.72    1.62
   3  14  -4    2.72    2.24
  -3 -14   3  523.20   33.39
   3  14  -3  569.23   22.79
   3 -14  -3  611.58   38.43
   3  14  -2   26.29    4.79
   3 -14  -2   30.87    7.87
  -3  14   1   -1.30    1.79
   3 -14  -1   -6.21    5.57
   3 -14   0   18.40    6.21
  -3  14   0   -7.19    4.84
   3 -14   1  305.84   27.91
  -3  14  -1  271.67   19.34
  -3  14  -2    4.24    3.32
   3 -14   2    6.23    5.46
   3 -14   3   -0.57    3.19
  -3  14  -3    0.36    1.88
  -3  14  -4   38.18    7.82
  -3  14  -5  388.61   24.73
  -3  14  -6    0.35    3.40
  -3  14  -7    7.35    4.23
  -3  14  -8    1.97    3.27
  -3  14  -9   15.48    4.86
  -3  14 -10    1.99    3.48
  -3  14 -11    7.45    3.85
  -3  14 -12    5.68    3.94
  -3  14 -13   59.20   11.33
  -3  14 -14    1.72    2.83
  -3  14 -15    1.58    3.31
  -3  14 -16    1.35    3.05
   3  15 -18  109.66   16.18
   3  15 -17    6.59    4.70
   3  15 -16  117.06   15.67
  -3 -15  15   51.82   12.95
   3  15 -15   45.98    9.89
  -3 -15  14  124.59   19.59
   3  15 -14  140.38   16.64
  -3 -15  13  105.40   18.52
   3  15 -13  106.89   14.29
  -3 -15  12   13.28    5.92
   3  15 -12   14.69    5.42
   3  15 -11    2.06    2.30
  -3 -15  11   -3.76    6.17
  -3 -15  10   62.82   14.92
   3  15 -10   59.87    9.95
  -3 -15   9    8.68    6.61
   3  15  -9    1.37    2.06
  -3 -15   8   36.99   11.03
   3  15  -8   19.08    4.90
  -3 -15   7    3.78    4.24
   3  15  -7   -4.78    3.81
   3  15  -6  168.61   14.90
  -3 -15   6  167.62   21.52
  -3 -15   5    1.91    5.29
   3  15  -5    3.92    2.26
   3  15  -4  215.73   15.25
  -3 -15   4  194.24   21.95
  -3  15   3   -0.68    1.60
   3 -15  -3    7.13    3.98
  -3  15   2    0.54    1.52
   3 -15  -2  257.55   26.46
   3 -15  -1   -2.66    4.87
  -3  15   1   -2.14    2.48
   3 -15   0   29.91   10.53
  -3  15   0    0.68    1.83
  -3  15  -1    0.89    2.12
   3 -15   1   11.44    6.25
   3 -15   2  181.63   22.42
  -3  15  -2   41.40    7.62
   3 -15   3   12.89    5.75
  -3  15  -3   11.70    4.52
  -3  15  -4  148.46   15.73
   3 -15   4  135.16   18.17
  -3  15  -5    2.61    3.06
  -3  15  -6   86.34   12.57
  -3  15  -7   15.41    5.33
  -3  15  -8   36.26    8.85
  -3  15  -9   15.55    5.32
  -3  15 -10   12.57    5.25
  -3  15 -11    0.96    3.07
  -3  15 -12    8.96    4.26
  -3  15 -13    0.95    2.74
  -3  15 -14   32.81    9.16
  -3  15 -15   -2.32    3.20
   3  16 -15    5.82    4.18
  -3 -16  14   12.07    7.61
   3  16 -14    2.29    3.74
  -3 -16  13   21.84    8.26
   3  16 -13   19.54    6.43
  -3 -16  12   21.29    9.61
   3  16 -12   18.84    5.92
  -3 -16  11   95.23   18.43
   3  16 -11   74.78   11.74
  -3 -16  10  232.43   29.75
   3  16 -10  180.72   17.54
  -3 -16   9   -3.95    7.13
   3  16  -9    1.12    2.54
  -3 -16   8   -2.53    7.21
   3  16  -8    2.85    2.07
   3  16  -7   57.33    9.17
  -3 -16   7   54.87   13.83
  -3 -16   6    3.54    4.70
   3  16  -6    8.12    3.30
  -3 -16   5   15.89    7.28
  -3 -16   4    4.93    4.47
   3 -16  -3  181.05   22.48
  -3  16   2   -0.84    1.97
   3 -16  -2  123.03   18.94
  -3  16   1   -0.64    2.10
   3 -16  -1    1.29    3.45
   3 -16   0   66.89   13.92
  -3  16   0   -0.42    1.92
   3 -16   1  177.67   24.79
  -3  16  -1    1.08    2.28
  -3  16  -2    1.22    2.50
   3 -16   2   -3.70    5.37
   3 -16   3   41.60   11.70
  -3  16  -3   -6.12    4.99
  -3  16  -4  190.14   18.49
   3 -16   4  188.05   23.82
  -3  16  -5  183.36   18.20
   3 -16   5  178.05   22.92
  -3  16  -6   -1.90    2.77
   3 -16   6    1.32    5.24
  -3  16  -7   -2.17    3.43
  -3  16  -8    3.78    3.42
  -3  16  -9   11.11    5.24
  -3  16 -10   28.66    8.42
  -3  16 -11   11.17    5.07
  -3  16 -12    4.18    3.45
  -3  16 -13   49.91   11.15
  -3  16 -14    3.97    3.90
  -3 -17  12   72.80   17.80
  -3 -17  11    4.53    9.28
  -3 -17  10  368.37   37.91
  -3 -17   9   18.09    8.16
  -3 -17   8    2.43    5.96
  -3 -17   7  161.29   23.88
  -3 -17   6   27.58    8.95
  -3 -17   5  156.18   22.18
   3 -17  -2   64.04   14.26
   3 -17  -1  107.74   18.17
  -3  17   0   -0.12    2.09
   3 -17   0   -0.64    5.67
  -3  17  -1    0.19    1.83
   3 -17   1    6.44    4.18
  -3  17  -2    0.27    2.32
   3 -17   2   60.24   15.37
  -3  17  -3    1.20    2.10
   3 -17   3   60.70   14.77
   3 -17   4   67.44   15.85
  -3  17  -4   -6.41    5.64
   3 -17   5    0.18    6.34
  -3  17  -5  -15.02    7.68
   3 -17   6   53.15   14.81
  -3  17  -6   43.50    9.66
   3 -17   7   40.79   11.66
  -3  17  -7   33.08    8.86
  -3  17  -8   24.24    7.59
   3 -17   8   16.05    7.92
  -3  17  -9   29.05    8.32
  -3  17 -10   16.70    6.22
  -3  17 -11   20.59    6.65
  -3  17 -12    2.53    3.65
  -3 -18  10  128.64   22.21
  -3 -18   9   -2.19    6.56
  -3 -18   8   93.46   18.35
  -3 -18   7   81.07   17.34
  -3 -18   6   75.19   16.57
   3 -18  -2   47.08   12.78
   3 -18  -1   -9.26    7.88
   3 -18   0   35.44   10.57
   3 -18   1   68.01   15.42
   3 -18   2   64.99   15.54
   3 -18   3   27.11   11.71
   3 -18   4   11.31    8.04
   3 -18   5    4.06    4.80
  -3  18  -5   -7.45    6.46
  -3  18  -6  -18.13    9.87
   3 -18   6   39.38   13.34
  -3  18  -7   -1.80    4.98
   3 -18   7   10.28    9.88
   3 -18   8   76.94   17.23
   3 -18   9    5.12    5.90
   3 -18  10    1.83    4.67
  -3 -19   8   17.39    7.73
  -3 -19   7   -1.14    7.32
  -3 -19   6    0.10    6.18
   3 -19  -1   13.92    6.93
   3 -19   0   -6.68    7.49
   3 -19   1   24.51    9.88
   3 -19   2    9.78    8.02
   3 -19   3   72.75   17.99
   3 -19   4    8.26    7.63
   3 -19   5   -3.51    7.44
   3 -19   6    0.89    4.70
  -4   0  23    0.19    4.50
  -4   0  22  175.40   19.73
  -4   0  21    0.08    3.10
  -4   0  20   30.57    7.46
  -4   0  19   -3.87    4.42
  -4   0  18  509.01   23.54
  -4   0  18  515.12   29.88
  -4   0  17    1.48    1.54
  -4   0  17    2.25    3.08
  -4   0  16   14.23    3.77
  -4   0  16    8.74    2.92
  -4   0  15    3.02    2.14
  -4   0  15   -1.06    3.05
  -4   0  14  375.34   23.31
  -4   0  14  368.53   16.24
  -4   0  13   -2.15    4.27
  -4   0  13    0.61    1.20
  -4   0  12  157.06    9.25
  -4   0  12  151.01   14.11
  -4   0  11   -3.86    4.13
  -4   0  10  555.43   26.33
  -4   0   9    0.26    2.25
  -4   0   8 1463.74   40.20
  -4   0   7   -0.01    2.47
  -4   0   6 5350.07   72.03
  -4   0   5    3.49    2.87
  -4   0   4  560.65   22.63
  -4   0   3   -1.76    2.25
  -4   0   2  117.09   10.05
   4   0  -2  116.97    5.27
  -4   0   1    2.85    1.71
  -4   0   0 1078.44   29.54
  -4   0  -1    3.72    3.02
  -4   0  -2 5633.08   65.33
  -4   0  -3   -0.55    1.93
  -4   0  -4 5598.48   65.78
  -4   0  -5   -0.06    1.27
  -4   0  -6  679.78   23.40
  -4   0  -7    1.62    1.73
  -4   0  -8  509.13   20.63
  -4   0  -9    1.58    1.37
  -4   0 -10  300.19   16.16
  -4   0 -11    1.22    1.75
   4   0  11   -1.15    4.05
  -4   0 -12   21.66    4.45
   4   0  12   23.04    6.41
   4   0  13   -3.61    5.19
  -4   0 -13   -1.26    2.06
   4   0  14   29.88    7.92
  -4   0 -14   35.05    5.92
   4   0  15   -4.83    5.81
  -4   0 -15    1.19    1.45
   4   0  16   58.06   11.80
   4   0  17   -2.90    5.48
   4   0  18   54.98   11.52
   4   0  19   -5.19    5.08
   4   0  20    9.68    5.48
   4   0  21   -6.55    7.26
   4   0  22   42.06   12.49
  -4  -1  23   43.02   10.22
  -4   1  22    0.70    4.46
  -4  -1  22    2.62    5.01
  -4   1  21   68.08   12.60
  -4  -1  21   72.98   12.43
  -4   1  20   10.56    4.76
  -4  -1  20    7.95    3.85
  -4   1  19  132.25   15.57
  -4   1  18    3.22    1.60
  -4   1  18    1.07    2.64
  -4   1  17   21.61    6.29
  -4   1  17   16.25    4.06
  -4   1  16   58.49    9.59
  -4   1  16   58.32    7.21
  -4   1  15  520.10   20.29
  -4   1  15  515.29   27.87
  -4   1  14  175.58   11.02
  -4   1  14  180.58   16.03
  -4   1  13  156.96    9.81
  -4   1  13  169.25   15.42
  -4   1  12   66.73    5.98
  -4   1  12   63.35    9.14
  -4  -1  12   58.93    8.91
  -4   1  11  867.13   19.25
  -4   1  11  879.82   33.11
  -4  -1  11  915.02   34.92
  -4   1  10   48.94    7.54
  -4   1  10   45.31    4.04
  -4  -1  10   47.44    7.63
  -4   1   9  154.24    6.40
  -4   1   9  155.64   13.26
  -4  -1   9  161.55   14.20
  -4   1   8    6.31    2.44
  -4  -1   8    6.13    3.11
  -4   1   7 1019.65   32.04
  -4  -1   7  992.53   32.37
  -4   1   6  115.04   10.81
  -4  -1   6  117.34   10.82
  -4   1   5    0.13    2.44
  -4  -1   5    1.76    2.29
  -4   1   4  361.86   18.64
  -4  -1   4  371.16   18.33
  -4   1   3  124.77   10.57
  -4  -1   3  117.94   10.56
  -4   1   2   18.10    4.11
  -4  -1   2   18.74    3.85
  -4  -1   1  410.83   18.51
   4  -1  -1  395.78   11.72
  -4   1   1  393.20   18.45
  -4  -1   0 1222.31   30.74
  -4   1   0 1206.34   31.47
   4  -1   0 1219.56   23.52
   4  -1   1  798.61   20.91
  -4   1  -1  763.91   24.73
  -4  -1  -1  759.02   23.97
  -4  -1  -2  103.82    8.78
  -4   1  -2   98.76    9.02
   4  -1   2   95.87    7.75
   4  -1   3  172.69   11.30
  -4   1  -3  163.90   11.38
  -4  -1  -3  165.83   10.94
   4  -1   4  123.20   10.18
  -4   1  -4  117.00    9.87
  -4  -1  -4  123.98    9.47
   4  -1   5  331.84   17.90
  -4   1  -5  329.12   16.65
  -4  -1  -5  344.51   15.88
  -4   1  -6    8.02    3.02
   4  -1   6    5.51    2.57
  -4  -1  -6    8.24    2.65
  -4   1  -7  115.97   10.00
  -4  -1  -7  111.90    9.24
   4  -1   7   98.97   10.80
  -4   1  -8   15.72    4.08
   4  -1   8   19.04    4.71
  -4  -1  -8   13.21    3.32
  -4  -1  -9  485.20   19.02
  -4   1  -9  479.76   21.15
   4  -1   9  516.17   27.57
  -4  -1 -10   12.77    3.06
  -4   1 -10   15.71    3.81
   4  -1  10   14.62    4.58
  -4  -1 -11   81.44    8.08
  -4   1 -11   93.39    9.69
   4  -1  11   88.87   12.70
  -4   1 -12    0.15    1.69
  -4  -1 -12    1.72    1.26
   4  -1  12    2.01    3.10
  -4  -1 -13  175.37   12.21
  -4   1 -13  185.86   14.06
   4  -1  13  205.47   20.48
  -4  -1 -14   38.41    5.77
  -4   1 -14   44.53    7.05
   4  -1  14   49.03   10.60
   4   1  14   41.82    9.26
  -4   1 -15   21.86    5.33
   4  -1  15   19.65    6.52
   4   1  15   20.64    6.72
  -4   1 -16   16.91    4.84
   4  -1  16   12.99    5.85
   4   1  16    2.75    3.39
   4   1  17   99.81   15.48
   4  -1  17  113.90   17.77
   4  -1  18    0.12    6.10
   4   1  18    4.57    4.46
   4  -1  19    1.49    5.19
   4   1  19    6.03    4.73
   4   1  20   15.59    7.55
   4  -1  20   17.16    7.49
   4  -1  21   58.40   14.43
   4   1  21   53.80   13.60
   4   1  22    3.03    3.71
   4  -1  22   -2.12    5.79
  -4   2  21   29.73    8.39
  -4   2  20    6.27    3.72
  -4   2  19   -3.37    3.35
  -4   2  18  117.88   11.37
  -4   2  18  125.44   14.24
  -4   2  17   49.95    9.18
  -4   2  17   50.27    7.11
  -4   2  16   -1.98    3.98
  -4   2  16   -3.36    2.95
  -4   2  15    0.10    2.37
  -4   2  15   -2.95    2.68
  -4   2  14  299.60   20.56
  -4   2  14  295.35   14.50
  -4   2  13   48.15    8.14
  -4   2  13   44.98    5.22
  -4   2  12  213.25   10.73
  -4   2  12  233.01   17.52
  -4   2  11  421.02   13.76
  -4   2  11  432.62   23.23
  -4   2  10  340.28   20.25
  -4   2   9  253.28   16.81
  -4  -2   9  243.49   17.31
  -4   2   8  147.66   12.75
  -4  -2   8  142.22   13.56
  -4   2   7   78.62    9.13
  -4  -2   7   87.89    9.57
  -4   2   6  508.95   22.64
  -4  -2   6  521.90   23.55
  -4  -2   6  553.47   12.05
  -4   2   5  229.22   15.20
  -4  -2   5  225.12   14.68
  -4   2   4  171.06   12.91
  -4  -2   4  164.56   12.43
  -4   2   3   50.01    6.83
  -4  -2   3   51.85    7.01
  -4  -2   2  374.43   18.22
  -4   2   2  361.64   18.29
  -4  -2   1  273.29   15.36
  -4   2   1  273.72   15.53
  -4   2   0   17.59    4.38
  -4  -2   0   14.42    3.24
  -4   2  -1   19.27    4.34
  -4  -2  -1   15.80    3.33
   4  -2   1   19.41    3.21
  -4   2  -2 2130.62   42.03
   4  -2   2 2066.01   37.76
  -4   2  -3  449.29   19.49
   4  -2   3  444.51   18.52
  -4  -2  -3  436.51   17.12
  -4   2  -4  201.14   13.16
  -4  -2  -4  200.79   11.60
   4  -2   4  194.33   12.99
   4  -2   5   47.65    6.66
  -4   2  -5   48.31    6.84
  -4  -2  -5   49.66    5.70
  -4   2  -6  106.31    9.83
  -4  -2  -6  109.17    8.69
   4  -2   6  106.31   10.85
  -4   2  -7  255.48   15.30
  -4  -2  -7  259.66   13.20
   4  -2   7  258.93   17.32
  -4   2  -8    0.89    1.32
   4  -2   8    0.77    2.60
  -4  -2  -8    1.99    1.57
  -4  -2  -9    0.52    1.50
  -4   2  -9   -0.25    1.76
   4  -2   9   -2.59    3.06
   4  -2  10  393.83   25.48
  -4  -2 -10  362.94   15.66
  -4   2 -10  398.11   20.26
  -4  -2 -11  164.20   10.62
  -4   2 -11  164.78   13.28
   4  -2  11  180.36   18.01
  -4  -2 -12   37.92    5.18
  -4   2 -12   45.38    7.35
   4  -2  12   43.56    9.70
   4  -2  13   10.06    6.69
  -4  -2 -13   10.07    3.04
  -4   2 -13   11.37    3.84
  -4   2 -14  373.28   21.52
   4  -2  14  401.65   30.38
   4  -2  15   55.87   11.97
  -4   2 -15   56.38    8.48
  -4   2 -16   39.26    7.55
   4  -2  16   50.87   12.53
   4  -2  17    0.38    3.21
  -4   2 -17   -2.34    2.86
   4   2  17   -6.07    4.87
   4  -2  18   34.09   10.79
   4   2  18   30.08    9.45
   4  -2  19   40.31   11.45
   4   2  19   37.13   10.51
   4  -2  20   12.99    6.92
   4   2  20   12.12    5.57
   4  -2  21    4.00    5.41
   4   2  21    1.45    3.99
   4  -2  22   31.37   10.84
   4   2  22   20.94    9.32
  -4   3  21   32.97    8.92
  -4   3  20   70.06   11.70
   4   3 -19   26.28    5.98
  -4   3  19   23.76    6.88
  -4   3  18   16.04    6.37
   4   3 -18    8.36    3.05
   4   3 -17    0.05    2.11
  -4   3  17   -2.61    3.42
  -4   3  17   -2.86    3.16
  -4   3  16  175.36   12.80
  -4   3  16  179.25   16.74
   4   3 -16  187.82   13.96
  -4   3  15    0.46    1.98
   4   3 -15    0.31    2.01
   4   3 -14   14.74    3.53
  -4   3  14    8.44    3.87
  -4   3  13  154.30   14.68
   4   3 -13  151.06   11.61
  -4   3  12   33.63    7.13
   4   3 -12   23.98    4.45
  -4   3  11  108.87   11.64
  -4   3  10    2.81    2.93
  -4   3   9   38.05    7.03
  -4   3   8  990.48   33.01
  -4  -3   7  207.78   15.31
  -4   3   7  220.19   15.36
  -4  -3   7  203.27    8.80
  -4  -3   6   36.54    6.31
  -4   3   6   42.72    6.81
  -4  -3   6   40.13    3.82
  -4   3   5  305.65   17.62
  -4  -3   5  286.71   17.35
  -4   3   4 1119.61   33.02
  -4  -3   4 1091.25   31.99
   4  -3  -4 1062.09   17.33
  -4  -3   3   82.95    8.86
  -4   3   3   95.29    9.57
  -4  -3   2  304.82   16.54
  -4   3   2  311.61   16.89
  -4  -3   1  150.28   11.74
  -4   3   1  159.41   12.19
  -4  -3   0 1016.41   28.87
  -4   3   0 1007.50   29.77
  -4  -3  -1  195.39   12.15
  -4   3  -1  210.48   13.57
  -4   3  -2  126.41   10.42
  -4  -3  -2  119.77    9.08
  -4   3  -3   95.43    9.31
   4  -3   3  110.55    9.60
  -4  -3  -3  101.99    8.01
  -4   3  -4  448.13   19.99
   4  -3   4  444.95   20.48
  -4  -3  -4  417.98   16.29
   4  -3   5    0.01    1.92
  -4   3  -5    2.74    2.57
  -4  -3  -5   -1.58    1.91
   4  -3   6  325.38   19.18
  -4   3  -6  337.16   17.95
  -4  -3  -6  333.85   14.42
  -4   3  -7  102.42    9.97
  -4  -3  -7   98.40    7.67
   4  -3   7   96.31   10.86
  -4   3  -8  163.02   12.93
  -4  -3  -8  159.33    9.54
   4  -3   8  174.18   15.22
  -4  -3  -9  179.60   10.07
  -4   3  -9  194.00   14.54
   4  -3   9  189.37   16.79
  -4  -3 -10   39.46    4.78
  -4   3 -10   43.87    7.19
   4  -3  10   39.50    8.04
  -4  -3 -11   64.91    6.26
  -4   3 -11   75.82    9.38
   4  -3  11   72.95   11.47
   4  -3  12  145.72   16.90
  -4   3 -12  130.81   12.94
   4  -3  13   48.41   10.05
  -4   3 -13   52.25    8.18
   4  -3  14   29.73    8.94
  -4   3 -14   33.81    6.69
   4  -3  15   30.01    8.66
  -4   3 -15   25.85    6.05
  -4   3 -16  102.18   12.64
   4  -3  16   98.40   17.04
  -4   3 -17  129.99   14.21
   4  -3  17  133.01   20.25
   4   3  18   38.81    9.57
   4  -3  18   49.54   12.58
   4  -3  19    2.42    4.81
   4   3  19    5.57    4.41
   4  -3  20  117.00   21.10
   4   3  20   85.82   15.51
   4  -3  21   25.58   10.87
   4   3  21   12.41    6.35
   4   3  22    0.30    3.82
   4  -3  22   10.75    8.86
   4   4 -21   13.66    5.07
  -4   4  20    3.68    3.81
   4   4 -20   -0.15    1.93
  -4   4  19    5.94    4.01
   4   4 -19    4.46    2.72
  -4   4  18    0.93    2.12
   4   4 -18    0.47    1.87
  -4   4  17  176.61   17.03
   4   4 -17  178.84   14.42
  -4   4  16   10.39    4.12
   4   4 -16    6.79    3.10
  -4   4  15  234.67   18.55
   4   4 -15  235.07   15.80
  -4   4  14   90.39   11.42
   4   4 -14   78.59    8.98
  -4   4  13  436.62   24.40
   4   4 -13  425.58   20.08
   4   4 -12   -1.21    2.24
  -4   4  12    0.20    2.71
  -4   4  11   65.63    9.08
   4   4 -11   62.24    7.33
   4   4 -10    7.10    2.56
  -4   4  10   10.16    4.14
  -4   4   9 1162.76   37.15
   4   4  -9 1112.49   29.15
  -4   4   8  164.31   13.80
  -4   4   7   60.42    8.24
  -4  -4   7   63.44    5.96
  -4  -4   6  549.45   17.32
  -4   4   6  541.80   23.98
  -4  -4   5  226.86   10.77
  -4  -4   5  205.98   15.76
  -4   4   5  234.36   15.27
  -4   4   4   44.85    6.44
  -4  -4   4   45.68    6.76
   4  -4  -4   46.67    4.46
  -4  -4   3  823.62   27.45
  -4   4   3  860.30   28.46
  -4  -4   2  156.64   11.97
  -4   4   2  153.40   11.94
  -4   4   1 2183.97   44.78
  -4  -4   1 2262.77   44.94
  -4  -4   0    9.40    3.47
  -4   4   0    9.08    2.37
  -4  -4  -1  104.85    9.03
  -4   4  -1  109.36    9.80
  -4   4  -2   45.50    6.12
  -4  -4  -2   40.90    5.22
  -4   4  -3 1349.08   35.26
  -4  -4  -3 1246.31   27.18
  -4  -4  -4    2.50    1.23
  -4   4  -4    4.50    2.55
  -4   4  -5   -1.03    2.24
  -4  -4  -5   -0.99    2.05
  -4   4  -6  141.13   12.01
  -4  -4  -6  140.31    8.82
   4  -4   6  133.58   12.98
  -4   4  -7  410.99   20.67
  -4  -4  -7  391.71   14.03
   4  -4   7  398.23   22.96
  -4  -4  -8    1.18    1.02
  -4   4  -8   -0.03    1.55
   4  -4   8    1.24    3.46
  -4  -4  -9    4.23    1.54
  -4   4  -9    3.34    1.95
   4  -4   9   -0.02    3.24
   4  -4  10   87.31   12.20
  -4   4 -10   88.90   10.23
  -4   4 -11  118.58   12.28
   4  -4  11  119.57   15.00
   4  -4  12    7.98    4.48
  -4   4 -12   11.10    3.90
  -4   4 -13   38.68    7.55
   4  -4  13   38.64    9.70
  -4   4 -14   45.96    8.40
   4  -4  14   40.79   10.47
  -4   4 -15  126.23   13.80
   4  -4  15  109.55   16.85
  -4   4 -16    0.15    2.31
   4  -4  16   -6.53    6.13
  -4   4 -17    2.48    2.37
   4  -4  17    8.94    7.35
  -4   4 -18    2.62    2.61
   4  -4  18    6.16    7.18
   4  -4  19  115.74   20.42
   4   4  20   -3.20    4.52
   4   4  21   -4.59    6.93
   4   4  22    4.60    5.65
   4   5 -23   -1.57    4.04
   4   5 -22   39.70    8.38
   4   5 -21   32.00    7.28
   4   5 -20  138.11   14.20
  -4   5  19    8.39    5.06
   4   5 -19   15.53    4.84
  -4   5  18   47.27    9.11
   4   5 -18   40.17    7.24
  -4   5  17    2.14    3.19
   4   5 -17    2.13    2.43
  -4   5  16  306.77   21.82
   4   5 -16  292.44   18.39
  -4   5  15   50.12    9.01
   4   5 -15   54.06    8.10
  -4   5  14  200.81   17.00
   4   5 -14  184.72   14.01
  -4   5  13  225.92   17.64
   4   5 -13  201.68   14.26
  -4   5  12 1616.78   46.93
   4   5 -12 1588.47   38.75
  -4   5  11  405.56   22.88
   4   5 -11  359.29   17.86
  -4   5  10   70.37    9.42
   4   5 -10   69.17    7.54
  -4   5   9   82.16   10.00
   4   5  -9   75.74    7.78
  -4   5   8  780.36   29.74
   4   5  -8  736.86   23.29
  -4  -5   7    3.26    2.69
  -4   5   7    0.29    2.42
   4   5  -7    0.35    1.23
  -4  -5   6   98.90    8.54
  -4   5   6   80.54    9.09
  -4   5   5    1.75    2.55
  -4  -5   5    0.78    1.29
  -4   5   4  893.81   29.81
   4  -5  -4  906.71   23.44
   4  -5  -3  183.97   10.78
  -4   5   3  182.77   13.36
  -4  -5   3  170.65   12.89
  -4  -5   2  112.35   10.11
  -4   5   2  112.99   10.56
  -4   5   1   -1.37    2.45
  -4  -5   1    0.91    2.00
  -4  -5   0 1169.16   31.90
  -4   5   0 1112.57   32.14
  -4  -5  -1   11.25    3.61
  -4   5  -1   18.10    3.56
  -4  -5  -2  425.94   16.82
  -4   5  -2  456.86   20.77
  -4  -5  -3   24.20    3.34
  -4   5  -3   29.35    5.79
  -4  -5  -4  712.76   19.47
  -4   5  -4  751.41   27.36
  -4  -5  -5   -0.93    1.47
  -4   5  -5   -1.06    2.26
  -4   5  -6  454.99   22.16
  -4  -5  -6  456.99   14.55
  -4   5  -7   13.54    4.06
  -4   5  -8  356.02   20.13
  -4   5  -9   20.86    4.98
  -4   5 -10    9.55    3.37
  -4   5 -11    2.67    2.81
  -4   5 -12  302.46   20.60
  -4   5 -13   12.12    4.26
  -4   5 -14   34.28    7.83
  -4   5 -15    0.58    2.70
  -4   5 -16   33.61    8.21
  -4   5 -17   65.57   11.17
  -4   5 -18    1.36    3.06
   4   5  21   -6.35    7.21
   4   6 -24   25.28    7.65
   4   6 -23   53.88    9.89
   4   6 -22    4.69    3.46
   4   6 -21  130.75   14.80
   4   6 -20   35.13    7.29
   4   6 -19   -3.80    3.57
   4   6 -18   39.57    7.38
  -4   6  18   41.06    7.96
  -4   6  17  182.75   16.93
   4   6 -17  180.04   15.50
  -4   6  16    1.42    3.15
   4   6 -16    0.42    1.75
  -4   6  15  187.58   16.56
   4   6 -15  173.46   13.93
  -4   6  14   96.49   11.62
   4   6 -14   90.01   10.14
   4   6 -13    0.64    1.62
  -4   6  13    5.50    3.06
  -4   6  12  234.76   17.43
   4   6 -12  216.99   14.52
  -4   6  11   34.94    6.80
   4   6 -11   25.53    4.95
  -4   6  10 1188.16   38.00
   4   6 -10 1136.39   31.87
  -4   6   9 1390.92   40.24
   4   6  -9 1347.10   33.61
  -4  -6   8   29.95    5.52
  -4   6   8   21.59    4.86
   4   6  -8   26.95    4.66
  -4  -6   7  339.99   16.47
  -4   6   7  350.02   19.48
   4   6  -7  336.93   15.74
   4   6  -6   14.56    2.97
  -4  -6   6   12.01    3.18
   4  -6  -5  154.80   10.28
  -4   6   5  167.43   13.16
  -4  -6   5  154.52   10.53
  -4   6   4  106.35   10.31
  -4  -6   4   94.57    8.39
   4  -6  -4  104.95    9.04
  -4   6   3    7.58    3.11
   4  -6  -3   10.30    3.30
  -4  -6   3    7.09    2.51
  -4   6   2  355.25   18.69
  -4  -6   2  325.95   17.72
  -4   6   1 1731.67   40.93
  -4  -6   1 1760.66   40.82
  -4  -6   0    5.30    3.11
  -4   6   0    2.92    1.68
  -4  -6  -1 1008.63   28.26
  -4   6  -1  913.81   29.98
  -4  -6  -2   99.33    8.08
  -4   6  -2  103.86   10.39
  -4   6  -3  984.62   31.42
  -4  -6  -3  897.16   21.88
  -4   6  -4   79.67    9.39
  -4  -6  -4   71.37    6.00
  -4   6  -5   94.62   10.09
  -4  -6  -5   93.85    6.49
  -4   6  -6   20.48    4.75
  -4   6  -7    9.82    3.09
  -4   6  -8   71.51    9.18
  -4   6  -9   -2.14    2.54
  -4   6 -10  147.01   14.08
  -4   6 -11  523.08   27.29
  -4   6 -12    7.53    3.36
  -4   6 -13   18.03    5.82
  -4   6 -14   49.72    8.92
  -4   6 -15   23.48    6.60
  -4   6 -16    7.66    4.28
  -4   6 -17    5.95    3.21
  -4   6 -18   24.76    7.05
   4   7 -23   32.48    8.24
   4   7 -22   27.34    7.76
   4   7 -21    0.43    1.97
   4   7 -20  104.19   13.07
   4   7 -19   11.12    4.05
   4   7 -18    4.75    3.73
  -4   7  17   68.74    9.82
   4   7 -17   70.72    9.87
  -4   7  16  105.58   12.14
   4   7 -16  120.41   12.20
  -4   7  15   96.95   11.20
   4   7 -15   98.10   11.02
  -4   7  14   10.61    4.01
   4   7 -14   10.55    2.91
   4   7 -13   21.71    5.32
  -4   7  13   22.74    5.59
  -4   7  12  205.75   16.00
   4   7 -12  194.44   14.40
   4   7 -11  270.51   16.44
  -4   7  11  280.23   18.49
  -4   7  10    0.02    3.40
   4   7 -10    1.81    1.92
   4   7  -9  279.71   15.69
  -4   7   9  299.41   18.38
  -4  -7   8   35.19    6.61
   4   7  -8   24.42    4.38
  -4   7   8   36.50    7.09
  -4  -7   7  399.57   19.71
  -4   7   7  390.29   20.68
   4   7  -7  380.84   17.03
  -4   7   6    3.83    2.90
  -4  -7   6    2.76    2.07
   4   7  -6    2.76    1.42
   4   7  -5    3.99    2.07
  -4   7   5    4.48    2.59
   4  -7  -5    0.82    2.49
  -4  -7   5   -0.85    2.15
  -4  -7   4  504.11   20.93
  -4   7   4  524.96   22.93
   4  -7  -3  627.34   25.15
  -4   7   3  558.62   23.59
  -4   7   2   49.00    6.94
  -4  -7   2   48.09    7.09
   4  -7  -2   41.93    5.96
  -4  -7   1   73.40    8.25
  -4   7   1   76.81    8.68
  -4   7   0  887.73   30.01
  -4  -7   0  934.39   28.86
  -4  -7  -1  855.47   26.44
  -4   7  -1  769.56   27.86
  -4  -7  -2   49.10    5.90
  -4   7  -2   43.33    6.87
  -4   7  -3  127.95   11.82
  -4  -7  -3  107.50    7.54
  -4   7  -4  350.19   19.54
  -4   7  -5   20.54    5.04
  -4   7  -6   87.55   10.13
  -4   7  -7   12.85    3.58
  -4   7  -8   35.63    6.66
  -4   7  -9    7.43    3.28
  -4   7 -10   24.32    6.11
  -4   7 -11   53.47    9.10
  -4   7 -12   89.54   11.99
  -4   7 -13   44.12    8.70
  -4   7 -14    4.94    2.70
  -4   7 -15   18.29    6.86
  -4   7 -16  136.86   16.78
  -4   7 -17  193.64   20.06
  -4   7 -18   18.65    6.01
   4   8 -23   -3.40    3.48
   4   8 -22  136.85   16.22
   4   8 -21   26.06    7.24
   4   8 -20  118.88   14.31
   4   8 -19    1.96    2.70
   4   8 -18  197.19   17.04
   4   8 -17  137.27   14.18
   4   8 -16   -1.62    2.25
  -4   8  15    1.49    2.83
   4   8 -15    0.56    1.92
   4   8 -14  437.78   23.39
  -4   8  14  430.85   23.07
   4   8 -13   99.39   10.80
  -4   8  13  101.81   10.91
   4   8 -12   94.27   10.31
  -4   8  12  102.42   11.11
   4   8 -11   69.45    8.58
  -4   8  11   68.91    8.83
   4   8 -10  451.93   21.15
  -4   8  10  446.99   22.51
  -4  -8   9  196.01   15.12
  -4   8   9  193.72   14.76
   4   8  -9  201.59   13.79
  -4  -8   8  205.32   15.79
   4   8  -8  196.82   13.17
  -4   8   8  203.69   14.85
  -4  -8   7  353.42   20.38
  -4   8   7  327.46   18.61
   4   8  -7  344.02   16.83
  -4   8   6  316.55   18.12
   4   8  -6  315.79   15.40
  -4  -8   6  318.14   18.30
   4  -8  -5   91.78    9.66
  -4  -8   5   75.62    8.36
  -4   8   5   85.02    9.36
   4   8  -5   86.23    7.74
  -4   8   4  173.50   13.25
   4   8  -4  182.20   11.12
  -4  -8   4  160.47   12.38
   4  -8  -4  199.16   15.07
   4  -8  -3  119.73   12.23
  -4   8   3  102.82   10.06
   4  -8  -2  425.18   21.71
  -4   8   2  413.55   20.63
  -4  -8   2  404.33   20.72
  -4  -8   1   89.46    9.70
  -4   8   1  100.48   10.30
  -4   8   0  282.76   17.30
  -4  -8   0  300.08   16.26
  -4  -8  -1   56.46    6.87
  -4   8  -1   42.01    6.80
  -4  -8  -2  338.25   15.28
  -4   8  -2  337.01   19.32
  -4   8  -3  193.83   14.92
  -4   8  -4  122.02   12.00
  -4   8  -5  114.18   11.76
  -4   8  -6   48.13    7.86
  -4   8  -7   90.28   10.74
  -4   8  -8   -1.54    3.46
  -4   8  -9   14.80    4.82
  -4   8 -10  161.41   15.60
  -4   8 -11   28.79    6.71
  -4   8 -12   61.15   10.16
  -4   8 -13   99.83   13.47
  -4   8 -14  153.95   16.78
  -4   8 -15    6.49    4.14
  -4   8 -16   39.08    9.26
  -4   8 -17   15.25    6.55
  -4   8 -18   59.25   11.84
   4   9 -23   93.68   14.15
   4   9 -22    6.11    4.77
   4   9 -21   16.62    5.89
   4   9 -20   -3.49    4.13
   4   9 -19  268.63   21.26
   4   9 -18   20.65    6.03
   4   9 -17   24.02    6.29
   4   9 -16   -3.53    3.43
   4   9 -15  234.66   17.93
  -4   9  14   23.05    7.00
   4   9 -14   -1.35    2.50
   4   9 -13  107.13   11.63
  -4   9  13  126.13   12.68
  -4   9  12   16.82    5.88
   4   9 -12    0.08    1.95
   4   9 -11  851.37   31.03
  -4   9  11  840.13   30.50
  -4   9  10   26.56    5.50
  -4  -9  10   33.02    6.95
   4   9 -10   29.86    5.69
  -4   9   9   23.40    5.30
  -4  -9   9   26.39    6.81
   4   9  -9   22.01    5.13
  -4  -9   8  548.10   28.04
  -4   9   8  478.95   22.73
   4   9  -8  496.64   21.57
  -4   9   7  707.91   27.50
   4   9  -7  718.58   25.16
  -4   9   6   89.12    9.55
   4   9  -6   91.40    8.56
  -4  -9   6   85.17   10.17
  -4   9   5   -4.37    3.60
   4  -9  -5   -1.91    3.11
   4   9  -5    1.80    0.99
  -4  -9   5   -1.59    2.69
  -4  -9   4    0.47    1.50
   4   9  -4    5.65    1.92
  -4   9   4    2.09    1.44
   4  -9  -4    0.41    1.74
   4  -9  -3  551.77   28.98
  -4   9   3  455.41   22.08
   4  -9  -2  106.36   11.90
  -4   9   2   98.38   10.17
  -4  -9   1   49.30    6.83
  -4   9   1   53.45    7.31
  -4  -9   0   27.12    5.35
  -4   9   0   30.07    5.86
  -4   9  -1  515.73   24.12
  -4  -9  -1  530.75   21.10
  -4  -9  -2   78.31    7.37
  -4   9  -2   68.91    9.20
  -4   9  -3    7.62    3.10
  -4   9  -4   19.42    4.86
  -4   9  -5  245.27   17.57
  -4   9  -6    3.17    2.70
  -4   9  -7   10.02    3.82
  -4   9  -8   20.75    5.20
  -4   9  -9  116.68   13.35
  -4   9 -10    7.43    3.99
  -4   9 -11   81.03   11.37
  -4   9 -12    9.39    4.17
  -4   9 -13  156.36   17.18
  -4   9 -14    0.81    3.45
  -4   9 -15    2.84    4.68
  -4   9 -16   -1.08    2.43
  -4   9 -17   66.44   13.01
  -4   9 -18   -1.03    4.24
   4  10 -22   98.20   14.15
   4  10 -21    2.37    4.00
   4  10 -20   43.10    9.14
   4  10 -19    3.34    2.16
   4  10 -18  259.58   21.20
   4  10 -17   -0.72    2.70
   4  10 -16    2.82    2.50
   4  10 -15    4.35    2.94
   4  10 -14  357.16   22.23
  -4  10  13    0.06    1.37
   4  10 -13   -0.70    2.79
  -4  10  12   55.68    8.41
   4  10 -12   53.17    8.39
  -4  10  11   26.36    6.41
  -4 -10  11   16.39    5.41
   4  10 -11   11.70    3.75
  -4  10  10  514.57   23.69
   4  10 -10  497.02   23.74
  -4  10   9   40.15    6.79
  -4 -10   9   47.09    9.12
   4  10  -9   38.71    6.66
  -4  10   8  532.90   23.98
   4  10  -8  519.40   22.84
  -4  10   7   26.23    5.35
  -4 -10   7   29.91    6.96
   4  10  -7   24.22    5.08
  -4  10   6  123.80   11.65
   4  10  -6  126.45   10.44
  -4 -10   6  127.62   13.01
   4 -10  -5   13.22    4.57
  -4 -10   5   11.73    2.88
   4  10  -5   13.29    3.36
  -4  10   5   17.54    4.57
  -4 -10   4   24.85    5.20
   4  10  -4   31.89    4.70
  -4  10   4   34.46    6.24
   4 -10  -4   34.47    7.19
   4 -10  -3    4.28    3.02
   4  10  -3    2.83    1.60
  -4  10   3    1.00    2.29
   4 -10  -2  260.33   20.13
  -4  10   2  229.64   16.13
   4 -10  -1    4.62    4.25
  -4 -10   1   -3.21    3.13
  -4  10   1   -0.68    1.43
  -4 -10   0    4.95    2.33
  -4  10   0    7.28    3.46
  -4  10  -1  144.49   12.97
  -4 -10  -1  125.25   10.22
  -4  10  -2  395.19   21.94
  -4  10  -3   24.80    5.93
  -4  10  -4  161.32   14.43
  -4  10  -5   11.85    4.98
  -4  10  -6  123.16   13.03
  -4  10  -7   -0.48    2.87
  -4  10  -8    6.39    3.02
  -4  10  -9    0.08    2.47
  -4  10 -10  248.09   20.35
  -4  10 -11   -0.30    1.95
  -4  10 -12  124.85   15.02
  -4  10 -13   14.70    6.23
  -4  10 -14   58.66   11.11
  -4  10 -15   12.07    5.74
  -4  10 -16   41.84   10.05
  -4  10 -17   -2.59    3.11
  -4  10 -18   19.36    7.30
   4  11 -22   19.82    7.29
   4  11 -21   10.27    4.36
   4  11 -20   34.18    8.13
   4  11 -19   46.00    9.67
   4  11 -18    2.84    2.86
   4  11 -17    6.86    4.50
   4  11 -16   12.79    4.68
   4  11 -15  193.95   17.36
   4  11 -14    5.98    3.46
   4  11 -13  101.68   12.19
   4  11 -12   26.63    6.05
  -4 -11  12   31.14    7.99
  -4 -11  11  387.05   28.13
   4  11 -11  306.29   19.84
  -4 -11  10   11.03    4.87
   4  11 -10   11.22    4.27
   4  11  -9   52.91    7.88
  -4 -11   9   66.37   11.41
  -4 -11   8  368.62   27.59
   4  11  -8  326.88   18.68
  -4 -11   7   81.92   12.24
  -4  11   7   88.15   10.03
   4  11  -7   74.17    8.59
   4  11  -6    8.79    3.10
  -4 -11   6   -4.36    4.86
  -4  11   5    6.00    4.27
   4 -11  -5    0.53    2.31
  -4 -11   5   -0.97    3.38
   4  11  -5    0.74    1.81
  -4  11   4  133.17   12.71
  -4 -11   4  117.70   12.83
   4 -11  -4  134.57   15.18
   4  11  -4  121.20    9.74
  -4  11   3  247.76   16.94
   4  11  -3  254.64   13.68
  -4  11   2   64.63    8.85
   4 -11  -2   72.16   11.48
  -4  11   1   35.31    6.68
   4 -11  -1   42.58    8.68
  -4 -11   1   23.30    5.20
   4 -11   0  224.94   17.20
  -4 -11   0  245.13   15.17
  -4  11  -1    2.07    2.04
  -4  11  -2   27.50    5.80
  -4  11  -3   32.04    6.76
  -4  11  -4  127.57   13.19
  -4  11  -5  770.17   33.00
  -4  11  -6   26.17    6.21
  -4  11  -7   89.09   11.48
  -4  11  -8   46.08    8.80
  -4  11  -9  232.83   19.70
  -4  11 -10   38.61    8.23
  -4  11 -11    1.37    2.78
  -4  11 -12    9.17    4.00
  -4  11 -13  129.61   16.36
  -4  11 -14    2.71    3.31
  -4  11 -15   16.97    7.30
  -4  11 -16   -7.22    6.24
  -4  11 -17   33.76    9.22
   4  12 -21  104.72   15.64
   4  12 -20    1.48    3.15
   4  12 -19    7.46    4.72
   4  12 -18  119.10   15.17
   4  12 -17    9.60    4.63
   4  12 -16    9.95    4.70
   4  12 -15   -2.98    4.21
  -4 -12  14   52.80   10.35
   4  12 -14   39.11    7.80
  -4 -12  13  281.29   24.74
   4  12 -13  267.96   20.25
  -4 -12  12   -0.58    3.01
   4  12 -12    0.21    2.58
  -4 -12  11  103.51   15.88
   4  12 -11   79.37   10.63
  -4 -12  10   99.19   15.27
   4  12 -10   72.95    9.65
  -4 -12   9  173.43   20.40
   4  12  -9  136.01   12.84
  -4 -12   8   67.89   12.47
   4  12  -8   54.96    7.86
   4  12  -7  142.25   12.27
  -4 -12   7  150.83   17.31
   4  12  -6   76.92    8.76
  -4 -12   6   67.65   10.85
  -4  12   5   46.49    8.05
   4 -12  -5   44.32    8.84
  -4 -12   5   31.51    7.34
   4  12  -5   36.42    5.72
  -4  12   4   37.82    7.59
   4  12  -4   28.16    4.95
   4 -12  -4   28.89    7.37
   4 -12  -3   55.72   10.34
  -4  12   3   45.82    7.76
   4  12  -3   40.28    5.67
   4 -12  -2   10.24    5.46
  -4  12   2   10.19    4.04
   4 -12  -1  134.54   16.34
  -4  12   1  131.06   12.97
   4 -12   0  278.83   22.67
  -4  12   0  276.11   19.07
  -4  12  -1    6.74    3.85
   4 -12   1    7.06    3.73
  -4  12  -2  149.76   14.42
  -4  12  -3  226.49   17.88
  -4  12  -4    9.75    3.95
  -4  12  -5    0.91    2.37
  -4  12  -6    9.75    3.81
  -4  12  -7  141.66   15.16
  -4  12  -8  120.07   14.23
  -4  12  -9   -0.59    2.43
  -4  12 -10  149.24   16.38
  -4  12 -11  124.40   15.57
  -4  12 -12    2.68    2.85
  -4  12 -13   31.11    8.52
  -4  12 -14   54.41   11.17
  -4  12 -15   22.18    7.94
  -4  12 -16   21.69    7.46
  -4  12 -17   -5.42    5.71
   4  13 -20   33.42    9.35
   4  13 -19    3.63    4.48
   4  13 -18   27.68    7.90
   4  13 -17   25.94    7.38
   4  13 -16   31.83    7.98
  -4 -13  15  102.53   15.04
   4  13 -15  134.72   15.52
   4  13 -14    1.54    2.31
  -4 -13  14    4.86    5.37
  -4 -13  13   70.78   14.09
   4  13 -13   60.97    9.93
  -4 -13  12  155.68   20.91
   4  13 -12  123.15   13.85
  -4 -13  11   33.92   10.44
   4  13 -11   24.51    5.96
  -4 -13  10  125.95   18.93
   4  13 -10   95.90   11.47
  -4 -13   9   -2.43    3.83
   4  13  -9    3.98    1.88
   4  13  -8  336.76   20.30
  -4 -13   8  386.51   30.90
   4  13  -7   47.85    7.51
  -4 -13   7   46.00   10.08
  -4 -13   6   22.90    6.12
   4  13  -6   20.65    4.61
  -4 -13   5    1.18    3.31
  -4  13   5   -0.73    1.55
   4  13  -5    1.08    1.50
   4  13  -4  204.66   13.68
   4 -13  -4  229.64   21.86
   4  13  -3   71.96    7.53
   4 -13  -3   70.60   12.35
   4 -13  -2   25.11    6.86
  -4  13   2   24.56    5.88
   4 -13  -1  149.68   18.19
  -4  13   1  123.66   13.24
   4 -13   0  846.92   41.99
  -4  13   0  795.82   33.32
  -4  13  -1  243.65   18.78
   4 -13   1  210.13   20.26
  -4  13  -2  129.77   13.85
   4 -13   2   95.47   12.66
  -4  13  -3   10.21    3.88
  -4  13  -4   65.09   10.16
  -4  13  -5    8.25    3.91
  -4  13  -6   48.02    8.90
  -4  13  -7   -3.04    4.28
  -4  13  -8   28.48    7.32
  -4  13  -9    2.86    2.59
  -4  13 -10    0.34    3.01
  -4  13 -11   21.10    7.31
  -4  13 -12   82.20   13.72
  -4  13 -13   23.18    7.42
  -4  13 -14    1.53    4.09
  -4  13 -15   -5.90    5.37
  -4  13 -16    5.80    4.53
   4  14 -18    3.32    3.83
   4  14 -17  140.54   17.32
   4  14 -16    1.15    3.21
   4  14 -15   14.73    5.62
  -4 -14  14   44.61   11.83
   4  14 -14   38.02    8.25
  -4 -14  13  169.36   22.83
   4  14 -13  158.64   16.75
  -4 -14  12   -1.84    4.81
   4  14 -12    1.99    2.62
  -4 -14  11  171.70   23.60
   4  14 -11  138.80   14.80
  -4 -14  10   83.77   17.37
   4  14 -10   59.90    9.52
   4  14  -9  252.15   19.01
  -4 -14   9  290.78   28.86
  -4 -14   8   23.09    7.87
   4  14  -8   22.69    5.76
  -4 -14   7   46.84    9.96
   4  14  -7   48.08    7.95
  -4 -14   6    8.84    5.20
  -4  14   6    0.64    1.44
   4  14  -6   16.64    4.24
  -4 -14   5  142.70   17.50
   4  14  -5  161.46   13.11
  -4  14   4   -2.79    2.81
   4 -14  -4   -2.91    4.97
   4  14  -4    0.85    1.52
  -4  14   3   -6.88    4.94
   4 -14  -3  161.21   18.94
   4 -14  -2    0.29    3.98
   4 -14  -1  533.57   38.11
  -4  14   1  362.30   22.44
  -4  14   0   33.10    7.82
   4 -14   0   27.98    8.42
  -4  14  -1   71.47   10.53
   4 -14   1   77.67   13.40
   4 -14   2    2.37    5.36
  -4  14  -2   -0.57    3.30
  -4  14  -3  241.38   19.90
   4 -14   3  191.81   18.88
  -4  14  -4   37.53    7.80
  -4  14  -5   14.04    5.25
  -4  14  -6   -0.55    2.33
  -4  14  -7   32.34    8.03
  -4  14  -8    0.05    3.32
  -4  14  -9    8.51    4.17
  -4  14 -10    2.13    3.87
  -4  14 -11   39.35    9.76
  -4  14 -12    2.38    3.47
  -4  14 -13   26.95    8.46
  -4  14 -14    4.03    4.56
  -4  14 -15   80.57   14.02
   4  15 -17   16.00    6.01
   4  15 -16   86.66   13.51
   4  15 -15   20.91    6.89
   4  15 -14    9.92    4.98
  -4 -15  13   -3.66    6.76
   4  15 -13    2.77    4.02
  -4 -15  12  301.10   33.76
   4  15 -12  257.13   21.46
  -4 -15  11   -1.82    4.77
   4  15 -11    4.17    2.75
  -4 -15  10   27.65   10.91
   4  15 -10   28.27    6.68
  -4 -15   9  -11.32    8.15
   4  15  -9   -0.85    2.71
  -4 -15   8   28.84    8.27
   4  15  -8   31.11    6.77
  -4 -15   7    0.11    4.19
   4  15  -7    0.55    2.37
  -4 -15   6   -1.80    4.66
   4  15  -6   -1.45    1.81
  -4  15   5   -0.50    1.81
   4 -15  -4  114.52   16.24
  -4  15   4    0.22    1.60
  -4  15   3   -3.75    3.45
   4 -15  -3   -4.03    4.69
  -4  15   2    0.58    1.84
   4 -15  -2    4.97    4.99
   4 -15  -1   16.96    6.87
  -4  15   1   -0.83    2.31
   4 -15   0  273.90   27.51
  -4  15   0   14.54    5.67
   4 -15   1   -0.14    4.17
  -4  15  -1   -0.36    3.34
  -4  15  -2   52.57    9.53
   4 -15   2   54.65   11.79
   4 -15   3   17.78    7.04
  -4  15  -3   10.44    4.57
  -4  15  -4  137.51   15.62
   4 -15   4  100.01   14.78
  -4  15  -5    4.48    4.57
  -4  15  -6    6.38    3.38
  -4  15  -7    3.71    2.55
  -4  15  -8   97.46   14.34
  -4  15  -9    1.97    3.50
  -4  15 -10   10.95    4.46
  -4  15 -11    6.61    4.91
  -4  15 -12   51.92   11.28
  -4  15 -13    0.23    3.06
  -4  15 -14    3.11    3.79
   4  16 -13   42.37    9.01
  -4 -16  12   16.64    9.68
   4  16 -12   20.57    6.66
  -4 -16  11    9.75    7.77
   4  16 -11    3.01    3.10
  -4 -16  10    9.60    6.49
   4  16 -10   17.30    5.45
  -4 -16   9   57.03   13.70
   4  16  -9   48.56    9.17
  -4 -16   8   27.01    8.14
  -4 -16   7   -1.18    5.44
  -4 -16   6    2.05    5.01
  -4  16   3   -0.18    2.55
   4 -16  -3   62.91   12.61
  -4  16   2   -0.52    1.76
   4 -16  -2   19.75    7.52
   4 -16  -1   70.43   13.75
  -4  16   1   -0.09    2.26
   4 -16   0   11.67    5.50
  -4  16   0   -0.56    2.58
  -4  16  -1   -1.03    2.97
   4 -16   1   34.71   10.88
   4 -16   2    7.62    6.36
  -4  16  -2   10.18    5.62
  -4  16  -3  144.61   16.53
   4 -16   3  128.47   19.55
   4 -16   4    2.09    5.20
  -4  16  -4   -0.13    2.42
  -4  16  -5    2.67    3.54
   4 -16   5    8.42    7.00
  -4  16  -6   59.44   11.04
  -4  16  -7  104.61   15.07
  -4  16  -8    9.34    5.10
  -4  16  -9    6.91    2.96
  -4  16 -10   21.63    8.14
  -4  16 -11   40.78   10.45
  -4  16 -12    3.95    3.81
  -4 -17  10   13.45    8.76
  -4 -17   9   18.48    8.34
  -4 -17   8    7.96    6.75
  -4 -17   7   56.64   13.20
   4 -17  -3   36.27   10.24
   4 -17  -2   37.34   10.23
   4 -17  -1   12.41    5.92
   4 -17   0   30.82    9.62
  -4  17   0   -0.25    2.00
   4 -17   1  116.41   19.22
  -4  17  -1   -0.18    2.39
  -4  17  -2   -0.85    2.79
   4 -17   2   68.38   15.18
   4 -17   3    0.31    4.27
  -4  17  -3   -5.36    6.05
  -4  17  -4   19.14    6.96
   4 -17   4   22.81    9.70
   4 -17   5   15.04    9.01
  -4  17  -5   17.32    6.33
  -4  17  -6   44.75    9.97
   4 -17   6   52.14   13.86
   4 -17   7   -2.31    4.48
  -4  17  -7   -1.61    3.51
  -4  17  -8   72.69   13.04
  -4  17  -9   16.42    6.18
  -4  17 -10    4.37    3.99
  -4 -18   8    7.71    5.88
   4 -18  -2   66.10   13.42
   4 -18  -1   -0.60    5.23
   4 -18   0    7.72    6.36
   4 -18   1    1.47    4.54
   4 -18   2   -0.64    5.87
   4 -18   3   17.19    8.92
   4 -18   4   82.75   17.17
   4 -18   5    0.46    5.09
   4 -18   6   48.48   14.69
  -5   0  23   -2.03    4.85
  -5   0  22    8.09    4.18
  -5   0  21   -2.97    3.80
  -5   0  20  165.58   18.22
  -5   0  19   -3.75    3.29
  -5   0  18   -0.30    3.85
  -5   0  17   -1.62    3.75
  -5   0  16 1157.89   44.95
  -5   0  15   -2.60    3.77
  -5   0  14    5.03    2.87
  -5   0  13    0.23    2.69
  -5   0  12  670.67   31.96
  -5   0  11   -1.23    3.32
  -5   0  10    0.71    3.47
  -5   0   9   -1.48    1.89
  -5   0   8  550.14   26.25
  -5   0   7    0.87    3.30
  -5   0   6  589.67   26.58
  -5   0   5    0.03    2.56
  -5   0   4 1153.93   36.49
   5   0  -3    0.03    0.43
  -5   0   3   -1.70    3.37
  -5   0   2  110.00   11.02
   5   0  -2  109.68    6.07
  -5   0   1    1.64    2.52
   5   0  -1   -1.52    1.55
   5   0   0  152.30    9.09
  -5   0   0  143.38   12.09
  -5   0  -1    2.39    2.38
  -5   0  -2  488.58   21.27
  -5   0  -3   -0.73    2.01
  -5   0  -4  185.75   12.93
  -5   0  -5    1.06    1.73
  -5   0  -6    5.71    2.52
   5   0   7   -1.13    2.68
  -5   0  -7    0.34    1.59
  -5   0  -8  753.79   27.96
   5   0   8  743.41   32.98
  -5   0  -9    0.29    1.58
   5   0   9   -4.19    4.29
  -5   0 -10   29.44    6.02
   5   0  10   27.02    6.71
  -5   0 -11   -0.54    1.59
   5   0  11   -3.70    5.21
  -5   0 -12  215.52   15.39
   5   0  12  220.22   21.30
   5   0  13   -0.56    3.52
  -5   0 -13    1.05    1.82
  -5   0 -14  125.75   11.81
   5   0  14  150.42   18.65
   5   0  15   -4.01    6.01
   5   0  16   99.59   16.20
   5   0  17   -1.70    5.42
   5   0  18   -1.86    6.03
   5   0  19   -5.40    5.91
   5   0  20   33.75   11.29
   5   0  21    0.53    3.53
  -5  -1  23  185.20   21.13
  -5  -1  22  108.87   15.73
  -5   1  22  117.71   16.70
  -5   1  21   66.37   11.89
  -5  -1  21   68.92   12.26
  -5   1  20   16.91    6.45
  -5  -1  20   12.85    4.66
  -5  -1  19   88.33   13.40
  -5   1  19   96.99   13.77
  -5   1  18    3.25    2.43
  -5  -1  18   -0.42    3.33
  -5   1  17  158.72   16.63
  -5  -1  17  153.79   17.10
  -5   1  16   -0.07    2.34
  -5  -1  16   -1.74    4.93
  -5   1  15  514.17   29.19
  -5  -1  15  501.53   29.41
  -5   1  14   -0.35    2.60
  -5  -1  14    0.28    3.60
  -5   1  13  313.37   22.12
  -5  -1  13  316.07   22.84
  -5   1  12   86.37   11.57
  -5  -1  12   85.28   11.62
  -5  -1  11  258.08   19.69
  -5   1  11  248.96   18.54
  -5   1  10   62.37    9.55
  -5  -1  10   64.15    9.42
  -5   1   9  636.36   28.51
  -5  -1   9  652.64   29.58
  -5   1   8   48.50    7.92
  -5  -1   8   49.74    7.87
  -5   1   7   34.51    6.62
  -5  -1   7   28.61    6.03
  -5   1   6  296.87   18.95
  -5  -1   6  281.46   18.08
  -5   1   5  739.97   29.34
  -5  -1   5  701.39   28.45
  -5   1   4   69.76    9.20
  -5  -1   4   68.80    9.33
  -5   1   3  343.73   19.71
  -5  -1   3  344.42   19.93
  -5  -1   2  247.54   16.58
  -5   1   2  239.78   16.09
  -5  -1   1 1327.00   37.30
   5  -1  -1 1261.81   23.80
  -5   1   1 1264.93   37.05
   5  -1   0   71.97    6.46
  -5   1   0   80.59    9.46
  -5  -1   0   74.63    8.31
  -5   1  -1   34.79    6.11
  -5  -1  -1   34.74    6.03
   5  -1   1   35.96    5.00
  -5  -1  -2  295.46   16.17
   5  -1   2  301.11   15.26
  -5   1  -2  283.70   16.80
  -5   1  -3  377.60   19.16
   5  -1   3  377.87   18.08
  -5  -1  -3  382.46   18.31
  -5   1  -4  184.22   13.37
  -5  -1  -4  192.13   13.06
   5  -1   4  179.74   13.12
  -5   1  -5   85.40    9.23
  -5  -1  -5   72.44    8.06
   5  -1   5   82.20    9.59
   5  -1   6   12.36    3.36
  -5   1  -6   15.00    3.88
  -5  -1  -6   14.45    3.66
  -5   1  -7  199.20   14.58
  -5  -1  -7  205.56   13.94
   5  -1   7  209.03   16.63
  -5   1  -8    1.51    1.75
  -5  -1  -8    3.02    2.66
   5  -1   8   -0.20    3.09
  -5   1  -9  268.54   17.32
  -5  -1  -9  275.65   16.45
   5  -1   9  263.47   20.70
  -5  -1 -10   96.40    9.77
  -5   1 -10   96.25   10.70
   5  -1  10   96.62   13.28
   5  -1  11  212.33   20.31
  -5  -1 -11  200.96   13.92
  -5   1 -11  201.14   15.44
  -5  -1 -12   -1.36    1.57
  -5   1 -12   -0.71    2.27
   5  -1  12   -2.23    4.23
   5   1  12   -2.57    5.30
  -5  -1 -13   47.38    6.86
  -5   1 -13   48.07    7.75
   5  -1  13   53.88   10.98
   5   1  13   41.20    9.54
   5  -1  14    5.05    3.91
  -5   1 -14    5.17    3.14
   5   1  14    1.07    2.88
  -5   1 -15  112.76   12.35
   5   1  15  101.89   15.43
   5  -1  15  119.89   17.83
   5  -1  16   -0.80    5.47
   5   1  16    3.51    3.98
   5  -1  17   12.64    6.37
   5   1  17    8.67    5.65
   5  -1  18    0.61    3.87
   5   1  18   -1.63    5.24
   5  -1  19   31.34   11.19
   5   1  19   27.26    9.08
   5  -1  20   -2.12    5.85
   5   1  20   -2.01    6.54
   5  -1  21   25.38   10.68
   5   1  21   12.66    7.56
  -5  -2  23  106.18   16.03
  -5   2  22   -1.24    3.07
  -5  -2  22   -6.79    5.91
  -5   2  21   43.68    9.73
  -5  -2  21   33.69    8.30
  -5   2  20   52.15   10.31
  -5  -2  20   40.70    9.12
  -5   2  19   37.83    8.73
  -5  -2  19   34.74    8.15
  -5   2  18   13.88    4.67
  -5  -2  18    9.12    3.96
  -5   2  17   54.93    9.85
  -5  -2  17   51.88    9.96
  -5   2  16  296.44   22.58
  -5  -2  16  267.80   22.21
  -5   2  15  145.95   15.77
  -5  -2  15  161.87   17.26
  -5   2  14   -0.15    2.43
  -5  -2  14   -1.42    3.55
  -5   2  13   65.54   10.07
  -5  -2  13   64.61   10.38
  -5   2  12  313.71   21.61
  -5  -2  12  318.37   22.84
  -5   2  11   32.28    6.99
  -5  -2  11   28.05    6.28
  -5   2  10    3.89    3.24
  -5  -2  10   -3.92    4.35
  -5   2   9  340.15   20.93
  -5  -2   9  323.24   21.59
  -5   2   8  436.72   23.87
  -5  -2   8  429.30   24.00
  -5  -2   7   55.26    8.15
  -5   2   7   63.90    9.05
  -5  -2   6   16.27    5.20
  -5   2   6   14.99    5.20
  -5   2   5  319.67   19.68
  -5  -2   5  308.69   18.94
  -5   2   4  175.89   14.10
  -5  -2   4  188.52   14.76
  -5  -2   3  191.57   15.04
  -5   2   3  188.67   14.81
  -5   2   2   -1.50    3.91
  -5  -2   2    5.70    2.62
  -5  -2   1  384.14   20.39
  -5   2   1  356.13   19.81
  -5  -2   0  467.10   21.53
  -5   2   0  464.52   21.87
   5  -2   1  288.96   14.40
  -5   2  -1  273.47   16.76
  -5  -2  -1  272.67   15.95
   5  -2   2  370.24   17.38
  -5   2  -2  368.79   19.39
  -5  -2  -2  351.89   17.53
  -5   2  -3  182.45   13.53
   5  -2   3  180.78   12.80
  -5  -2  -3  178.69   12.25
  -5   2  -4  505.59   22.72
   5  -2   4  519.21   22.84
  -5  -2  -4  491.43   20.27
   5  -2   5   50.26    7.26
  -5   2  -5   49.71    7.16
  -5  -2  -5   46.79    5.95
  -5   2  -6  366.54   20.11
  -5  -2  -6  375.92   18.02
   5  -2   6  344.06   20.61
  -5   2  -7  165.68   13.42
  -5  -2  -7  169.84   12.21
   5  -2   7  166.36   14.98
  -5  -2  -8   52.55    6.68
  -5   2  -8   49.82    7.76
   5  -2   8   52.97    9.11
  -5   2  -9   83.83   10.00
  -5  -2  -9   86.76    8.66
   5  -2   9   83.01   11.71
   5  -2  10    2.14    2.71
  -5  -2 -10    7.78    2.82
  -5   2 -10    9.42    3.33
  -5  -2 -11   26.71    4.86
  -5   2 -11   32.62    6.40
   5  -2  11   28.51    7.27
  -5   2 -12  416.43   23.60
   5  -2  12  420.07   30.17
  -5   2 -13   71.46   10.07
   5  -2  13   64.81   12.39
  -5   2 -14   17.09    4.83
   5  -2  14   12.15    5.11
  -5   2 -15   18.05    5.57
   5  -2  15   19.57    6.88
   5   2  15   15.24    5.50
   5   2  16  108.46   16.30
   5  -2  16  138.42   20.01
   5   2  17    4.54    3.82
   5  -2  17    7.25    4.51
   5   2  18    2.77    4.75
   5  -2  18   -0.51    5.30
   5   2  19    5.94    4.75
   5  -2  19   14.15    7.63
   5   2  20    9.67    5.07
   5  -2  20   22.93   10.69
  -5  -3  23   51.98   11.30
  -5  -3  22   55.51   11.31
  -5   3  21    5.00    4.96
  -5  -3  21   -2.85    5.52
  -5  -3  20    0.46    2.87
  -5   3  20   -0.36    3.86
  -5   3  19    6.10    4.39
  -5  -3  19    1.14    4.25
  -5   3  18   78.81   11.79
  -5  -3  18   72.36   12.14
  -5   3  17   16.25    5.88
  -5  -3  17    8.23    2.47
  -5   3  16    7.57    4.16
  -5  -3  16    2.28    2.70
  -5   3  15   43.79    8.53
  -5  -3  15   43.12    9.36
  -5   3  14  392.83   25.05
  -5  -3  14  408.49   27.06
  -5   3  13   60.27    9.80
  -5  -3  13   52.70    9.88
  -5   3  12   80.06   11.20
  -5  -3  12   86.40   12.45
  -5   3  11  367.17   23.07
  -5  -3  11  372.49   25.34
  -5   3  10  109.52   12.83
  -5  -3  10  107.68   13.34
  -5   3   9  710.15   31.08
  -5  -3   9  720.02   32.86
  -5  -3   8   28.16    6.48
  -5   3   8   24.31    6.06
  -5  -3   7   39.93    7.31
  -5   3   7   53.01    8.43
  -5   3   6  312.20   19.66
  -5  -3   6  297.87   19.12
  -5   3   5    3.15    2.06
  -5  -3   5    1.80    1.81
  -5  -3   4   13.41    4.13
  -5   3   4    9.90    2.58
  -5  -3   3  650.42   27.54
  -5   3   3  606.80   26.84
  -5  -3   2  958.48   33.23
  -5   3   2  932.35   32.33
  -5  -3   1  279.37   17.70
  -5   3   1  238.98   16.41
  -5   3   0   20.92    4.86
  -5  -3   0   22.17    5.05
  -5   3  -1  108.08   10.45
  -5  -3  -1   90.25    9.22
  -5   3  -2  644.86   25.98
  -5  -3  -2  638.13   23.29
  -5   3  -3  306.01   18.17
  -5  -3  -3  291.80   15.28
   5  -3   3  305.07   17.27
  -5   3  -4   91.34    9.82
   5  -3   4   92.17    9.91
  -5  -3  -4   94.43    8.68
  -5  -3  -5   24.86    4.37
   5  -3   5   25.59    5.83
  -5   3  -5   25.81    5.30
  -5   3  -6  382.99   21.11
  -5  -3  -6  380.36   17.46
   5  -3   6  374.38   21.95
  -5   3  -7   24.14    5.49
  -5  -3  -7   31.66    5.18
   5  -3   7   27.71    6.06
  -5  -3  -8   31.04    5.13
  -5   3  -8   25.83    5.69
   5  -3   8   29.39    6.81
  -5  -3  -9   67.19    7.19
  -5   3  -9   75.34    9.85
   5  -3   9   61.59   10.53
  -5  -3 -10  223.47   12.71
  -5   3 -10  245.42   17.89
   5  -3  10  243.13   21.02
  -5   3 -11   30.12    6.46
   5  -3  11   33.05    8.61
  -5   3 -12    4.90    3.36
   5  -3  12    4.90    3.60
  -5   3 -13   53.77    9.32
   5  -3  13   51.83   10.87
  -5   3 -14   77.93   10.86
   5  -3  14   83.38   14.76
  -5   3 -15    2.58    2.63
   5  -3  15   -4.88    5.33
   5  -3  16   -6.96    6.98
  -5   3 -16    0.71    1.95
   5  -3  17   -4.51    4.75
   5   3  17    0.33    4.16
   5   3  18   25.44    8.40
   5  -3  18   33.98   13.01
   5   3  19   25.56    8.62
   5  -3  19   38.91   12.98
   5  -3  20   -7.37    6.73
   5   3  20   -8.01    6.64
  -5  -4  24   40.88   10.37
  -5  -4  23  136.20   17.77
  -5  -4  22   54.92   11.81
  -5   4  20    4.24    5.97
  -5   4  19  182.44   18.86
  -5   4  18    7.29    5.26
  -5   4  17  122.98   15.38
  -5   4  16   24.34    7.19
  -5   4  15  281.22   21.74
  -5   4  14   19.84    6.41
  -5   4  13  296.57   21.84
  -5   4  12  329.09   22.76
  -5   4  11 1080.87   40.25
  -5  -4  11 1129.18   44.93
  -5  -4  10    3.70    3.43
  -5  -4  10   -0.08    0.79
  -5   4   9  250.79   18.81
  -5  -4   9  232.71   19.39
  -5   4   8  218.13   17.17
  -5  -4   8  221.70   18.12
  -5  -4   7   17.91    4.87
  -5   4   7   23.02    5.83
  -5  -4   6    8.88    4.28
  -5   4   6    6.72    2.87
  -5  -4   5  603.48   27.71
  -5   4   5  655.96   28.39
   5  -4  -4  197.73   10.39
  -5  -4   4  169.49   14.31
  -5   4   4  158.17   13.46
  -5  -4   3  139.52   12.88
  -5   4   3  132.24   12.73
  -5  -4   2    3.77    3.15
  -5   4   2    2.92    3.01
  -5  -4   1  728.33   29.17
  -5   4   1  695.12   27.83
  -5  -4   0   61.14    8.35
  -5   4   0   59.55    8.08
  -5  -4  -1  831.52   27.72
  -5   4  -1  820.67   29.94
  -5  -4  -2   24.07    4.29
  -5   4  -2   26.55    4.93
  -5  -4  -3   21.82    4.36
  -5   4  -3   25.41    5.28
  -5   4  -4   80.64    9.63
  -5  -4  -4   81.48    8.00
  -5   4  -5  311.21   18.99
  -5  -4  -5  296.55   14.71
  -5   4  -6   34.94    6.65
  -5  -4  -6   26.05    4.49
   5  -4   7  332.58   21.97
  -5   4  -7  332.51   20.39
  -5  -4  -7  329.17   15.45
  -5   4  -8    5.97    2.57
   5  -4   8   11.22    5.43
  -5  -4  -8    6.61    2.24
  -5   4  -9  199.52   16.26
   5  -4   9  178.46   17.68
  -5   4 -10   33.71    7.16
   5  -4  10   34.14    8.12
  -5   4 -11   73.65   10.20
   5  -4  11   64.85   11.96
  -5   4 -12   28.39    6.75
   5  -4  12   31.64    8.48
  -5   4 -13  102.07   13.12
   5  -4  13  110.05   16.72
  -5   4 -14    5.67    3.43
   5  -4  14    6.80    3.99
   5  -4  15   71.74   14.99
  -5   4 -15   81.85   12.28
  -5   4 -16    2.02    3.40
   5  -4  16    1.18    4.58
   5  -4  17    9.41    8.12
   5  -4  18   -2.98    5.67
   5   4  19   -0.98    5.16
   5   4  20    4.76    6.52
  -5  -5  24   15.16    5.12
  -5   5  19   17.76    6.48
  -5   5  18  254.95   21.71
  -5   5  17   -6.77    4.95
  -5   5  16   21.85    7.10
  -5   5  15    7.73    5.03
  -5   5  14  637.43   32.82
  -5   5  13   16.91    6.15
  -5   5  12   26.01    6.81
  -5   5  11  123.07   13.84
  -5   5  10  596.00   29.54
  -5  -5  10   -0.43    1.03
  -5   5   9  233.11   18.11
  -5  -5   9  259.39   20.55
  -5   5   8   17.11    4.53
  -5  -5   8   13.21    5.06
  -5  -5   7    0.19    0.87
  -5   5   7   -2.99    2.97
  -5  -5   7   -1.61    3.78
  -5  -5   6  495.49   25.87
  -5   5   6  510.75   25.55
   5  -5  -5    0.58    0.82
  -5  -5   5    0.09    2.21
  -5   5   4    4.38    3.68
  -5  -5   4    2.84    3.62
   5  -5  -4    0.65    1.23
  -5  -5   3   17.30    5.04
  -5   5   3   18.64    5.04
  -5  -5   2  637.58   26.92
  -5   5   2  601.54   26.35
  -5  -5   1  456.75   23.00
  -5   5   1  420.67   22.11
  -5   5   0    6.11    1.96
  -5  -5   0    2.86    2.80
  -5  -5  -1   63.23    7.89
  -5   5  -1   59.51    8.30
  -5   5  -2  808.03   30.44
  -5  -5  -2  745.87   24.83
  -5  -5  -3    4.62    2.86
  -5   5  -3    5.90    3.61
  -5  -5  -4   16.95    3.56
  -5   5  -4   24.91    5.61
  -5  -5  -5    1.11    1.25
  -5   5  -5   -1.60    2.20
  -5   5  -6  335.14   20.47
  -5  -5  -6  332.58   14.94
  -5   5  -7  124.88   12.91
  -5   5  -8   -0.25    2.49
  -5   5  -9   93.06   11.38
  -5   5 -10  376.08   23.50
  -5   5 -11   14.72    5.42
  -5   5 -12    1.79    2.63
  -5   5 -13    0.14    2.41
  -5   5 -14  127.94   14.94
  -5   5 -15   14.80    6.18
  -5   5 -16   28.53    7.90
  -5   5 -17   26.94    7.78
   5   5  20    2.01    3.97
  -5   6  18   17.73    6.15
  -5   6  17   27.00    7.44
   5   6 -17   31.20    6.27
   5   6 -16    4.48    2.97
  -5   6  16    6.03    3.16
  -5   6  15  198.52   18.26
   5   6 -15  214.24   16.29
  -5   6  14   55.77   10.14
   5   6 -14   58.99    8.46
  -5   6  13  557.73   29.88
  -5   6  12   57.32    9.74
  -5   6  11   44.09    7.73
  -5  -6  11    0.50    1.89
  -5  -6  10    0.16    1.08
  -5   6  10   50.19    8.64
  -5  -6   9   -0.34    1.32
  -5   6   9   22.61    5.24
  -5   6   8    8.69    2.26
  -5  -6   8    0.48    1.11
  -5   6   7  366.75   21.91
  -5  -6   7  341.57   23.58
  -5   6   6    7.92    4.69
  -5  -6   6    2.23    2.28
  -5  -6   5  323.78   20.12
  -5   6   5  332.71   20.29
   5  -6  -5  323.15   15.39
   5  -6  -4  136.39   11.51
  -5  -6   4  111.25   11.66
  -5   6   4  120.82   12.25
  -5   6   3   57.49    8.33
   5  -6  -3   64.78    7.20
  -5  -6   3   55.64    8.29
  -5   6   2    9.30    3.28
  -5  -6   2    9.31    4.49
  -5  -6   1  297.69   18.42
  -5   6   1  258.76   17.20
  -5   6   0   15.07    3.91
  -5  -6   0   19.15    5.16
  -5  -6  -1  307.48   17.19
  -5   6  -1  280.63   18.13
  -5  -6  -2   28.27    4.92
  -5   6  -2   32.16    6.40
  -5   6  -3  410.10   22.45
  -5  -6  -3  363.95   16.08
  -5  -6  -4   11.55    2.83
  -5   6  -4    9.53    3.23
  -5   6  -5  452.29   23.90
  -5  -6  -5  410.07   16.24
  -5   6  -6   -0.53    2.44
  -5   6  -7   36.83    7.06
  -5   6  -8  123.67   13.16
  -5   6  -9  137.33   14.34
  -5   6 -10   23.46    6.23
  -5   6 -11  107.47   13.28
  -5   6 -12   24.76    6.59
  -5   6 -13  136.74   15.76
  -5   6 -14    0.48    2.50
  -5   6 -15   -1.17    2.84
  -5   6 -16   52.59   10.67
  -5   6 -17  109.25   15.50
   5   7 -20    7.63    4.16
   5   7 -19   67.68   10.54
   5   7 -18   35.39    6.89
  -5   7  17    5.64    3.64
   5   7 -17    0.94    2.40
  -5   7  16    5.13    3.90
   5   7 -16    4.16    3.19
  -5   7  15  158.05   16.34
   5   7 -15  148.86   14.01
  -5   7  14  159.38   15.91
   5   7 -14  149.92   13.79
  -5   7  13   78.20   11.16
   5   7 -13   65.95    8.63
  -5   7  12   21.19    4.78
   5   7 -12   21.65    4.91
   5   7 -11   97.73   10.04
  -5   7  11   94.82   11.74
  -5  -7  10    0.24    1.57
  -5   7  10   14.99    4.20
  -5   7   9    5.81    2.20
  -5  -7   9    0.02    1.35
  -5  -7   8    0.41    1.08
  -5   7   8  104.04   12.29
  -5  -7   7   -0.81    1.80
  -5   7   7  182.28   15.77
  -5   7   6  146.28   13.71
  -5  -7   6  110.05   13.46
  -5   7   5  151.05   13.97
  -5  -7   5  156.84   15.08
   5  -7  -5  163.42   12.26
   5  -7  -4  116.84   11.25
  -5   7   4   94.13   10.82
  -5  -7   4   88.37   10.78
   5  -7  -3  146.35   12.20
  -5   7   3  138.12   13.12
  -5  -7   3  127.58   12.89
  -5  -7   2  449.54   23.75
  -5   7   2  479.33   24.13
  -5  -7   1  242.29   16.92
  -5   7   1  232.89   16.74
  -5  -7   0    4.21    2.58
  -5   7   0   -1.54    2.85
  -5  -7  -1    3.43    2.73
  -5   7  -1    3.73    2.95
  -5  -7  -2  713.67   24.14
  -5   7  -2  778.89   30.91
  -5   7  -3   87.59   10.46
  -5  -7  -3   80.55    7.37
  -5   7  -4   11.87    4.37
  -5   7  -5   33.94    7.14
  -5   7  -6  103.26   12.09
  -5   7  -7   37.95    7.06
  -5   7  -8    5.20    2.56
  -5   7  -9   81.67   11.23
  -5   7 -10  184.54   17.34
  -5   7 -11   56.10    9.83
  -5   7 -12   -3.84    3.59
  -5   7 -13   70.39   11.54
  -5   7 -14   38.57    8.74
  -5   7 -15   47.87   10.50
  -5   7 -16   18.29    7.33
  -5   7 -17   63.37   12.94
   5   8 -22    3.85    3.25
   5   8 -21    6.57    4.36
   5   8 -20  113.82   14.01
   5   8 -19   19.04    5.83
   5   8 -18    4.04    2.77
   5   8 -17   16.12    5.59
   5   8 -16  125.05   13.42
  -5   8  16  125.33   14.20
  -5   8  15   14.33    4.82
   5   8 -15   13.18    4.36
  -5   8  14    3.48    2.53
   5   8 -14    4.58    3.05
  -5   8  13   27.77    6.47
   5   8 -13   30.91    6.25
   5   8 -12  376.23   20.94
  -5   8  12  372.57   23.46
  -5   8  11   -0.70    2.51
  -5  -8  11    1.05    1.66
   5   8 -11   -0.35    2.32
  -5   8  10   37.67    7.55
   5   8 -10   25.64    5.06
  -5   8   9   11.22    4.61
  -5  -8   9   -0.58    1.65
  -5   8   8   27.21    5.91
  -5  -8   8   -1.49    2.38
  -5   8   7   -0.07    1.99
  -5  -8   7   -2.72    3.00
  -5   8   6    1.44    2.67
  -5   8   5  343.11   20.60
   5  -8  -5  375.91   20.36
  -5  -8   5  367.35   22.89
  -5   8   4  586.28   26.80
  -5  -8   4  568.86   27.66
   5  -8  -3  137.03   12.71
  -5   8   3  114.32   12.06
  -5  -8   3  101.67   11.53
   5  -8  -2   71.59    8.13
  -5   8   2   92.87   10.48
  -5  -8   2   80.84   10.39
  -5  -8   1   35.14    6.60
  -5   8   1   28.21    5.70
  -5  -8   0  335.58   19.30
  -5   8   0  332.36   20.33
  -5  -8  -1  109.21   10.67
  -5   8  -1  117.33   12.16
  -5  -8  -2   92.90    8.82
  -5   8  -2   90.99   10.51
  -5   8  -3    3.20    2.12
  -5   8  -4   98.29   11.50
  -5   8  -5    6.41    3.41
  -5   8  -6    3.48    2.01
  -5   8  -7   51.99    8.66
  -5   8  -8  232.29   18.99
  -5   8  -9   61.34    9.74
  -5   8 -10    0.97    2.77
  -5   8 -11    5.94    2.42
  -5   8 -12   67.88   11.17
  -5   8 -13   31.73    8.31
  -5   8 -14   -1.55    2.30
  -5   8 -15    4.43    4.07
  -5   8 -16  106.07   16.03
  -5   8 -17   14.36    6.67
   5   9 -22   -0.08    2.63
   5   9 -21   28.84    8.17
   5   9 -20   -0.76    3.15
   5   9 -19  175.99   17.57
   5   9 -18    3.68    3.13
   5   9 -17  137.13   14.74
   5   9 -16    1.82    2.01
   5   9 -15  185.75   16.37
  -5   9  15  181.10   16.46
  -5   9  14    7.74    4.42
   5   9 -14   -0.17    2.75
   5   9 -13  291.78   19.49
  -5   9  13  289.59   20.26
  -5   9  12    6.37    4.35
  -5  -9  12    0.75    2.55
   5   9 -12    6.24    3.23
  -5   9  11  250.12   18.48
   5   9 -11  269.40   17.84
  -5   9  10    8.48    3.76
  -5  -9  10   -2.29    3.57
   5   9 -10    5.74    2.71
  -5   9   9  141.80   13.77
   5   9  -9  135.31   11.94
  -5   9   8    6.44    2.53
  -5  -9   8   -3.03    3.54
  -5  -9   7   -7.23    4.54
  -5   9   7  159.54   14.48
  -5   9   6  341.86   20.74
  -5   9   5  442.59   23.57
  -5  -9   5  418.62   26.16
   5  -9  -5  488.23   25.20
  -5   9   4    5.35    2.54
   5  -9  -4    4.50    2.86
  -5  -9   4   -0.26    3.17
  -5  -9   3  140.15   13.93
  -5   9   3  143.53   13.41
   5  -9  -2    2.97    2.63
  -5  -9   2    0.76    1.92
  -5   9   2    4.79    2.98
  -5   9   1  161.28   14.27
  -5  -9   1  177.45   14.06
  -5  -9   0    4.45    2.82
  -5   9   0   -1.58    2.65
  -5  -9  -1  210.44   14.50
  -5   9  -1  203.52   16.36
  -5   9  -2    5.49    2.56
  -5   9  -3   68.05    9.95
  -5   9  -4   22.48    5.72
  -5   9  -5   69.97    9.92
  -5   9  -6   -2.61    3.26
  -5   9  -7   40.26    7.96
  -5   9  -8    4.23    2.42
  -5   9  -9   79.04   11.58
  -5   9 -10   25.69    6.56
  -5   9 -11   20.05    5.75
  -5   9 -12    3.76    3.58
  -5   9 -13   50.18   10.75
  -5   9 -14   -3.63    4.28
  -5   9 -15   52.98   11.41
  -5   9 -16   11.14    6.36
  -5   9 -17   18.81    8.07
   5  10 -22   -1.02    3.83
   5  10 -21    5.78    4.92
   5  10 -20  133.49   16.07
   5  10 -19    6.17    4.26
   5  10 -18    4.72    3.73
   5  10 -17  116.04   13.82
   5  10 -16  100.74   12.50
   5  10 -15   13.27    4.20
  -5  10  14   48.32    8.80
   5  10 -14   39.70    7.67
  -5  10  13   15.95    5.79
   5  10 -13    9.50    3.20
   5  10 -12  411.52   23.13
  -5  10  12  394.57   22.80
  -5  10  11    2.02    2.87
   5  10 -11    2.45    1.76
  -5  10  10    1.90    1.66
   5  10 -10    4.11    2.81
  -5  10   9   -0.39    2.13
   5  10  -9    1.84    1.49
  -5  10   8  588.70   27.80
   5  10  -8  601.69   25.15
  -5  10   7   21.72    5.42
  -5 -10   7   -9.83    6.44
  -5  10   6    0.49    2.47
  -5  10   5  132.46   13.17
   5 -10  -5  132.08   13.97
  -5  10   4  499.47   25.29
  -5 -10   4  515.48   27.03
   5 -10  -4  568.36   29.77
   5 -10  -3   91.46   12.67
  -5  10   3   77.33   10.09
  -5 -10   3   57.55    8.75
  -5 -10   2   12.79    4.18
   5 -10  -2   17.69    5.43
  -5  10   2   10.45    4.04
   5 -10  -1   14.40    5.04
  -5 -10   1    6.22    3.21
  -5  10   1    7.36    3.56
  -5  10   0  189.48   15.96
  -5 -10   0  174.25   13.57
  -5  10  -1    2.34    1.87
  -5  10  -2   -1.13    2.85
  -5  10  -3  176.06   16.00
  -5  10  -4  123.27   13.72
  -5  10  -5    2.40    2.10
  -5  10  -6  100.30   12.74
  -5  10  -7    8.28    4.11
  -5  10  -8  136.77   15.36
  -5  10  -9   -5.64    4.68
  -5  10 -10    4.27    2.23
  -5  10 -11    1.28    2.84
  -5  10 -12  176.77   19.08
  -5  10 -13    7.71    4.43
  -5  10 -14    1.73    3.47
  -5  10 -15    0.57    3.07
  -5  10 -16   12.51    6.19
   5  11 -21    5.90    3.70
   5  11 -20   -0.92    3.22
   5  11 -19   54.23   10.37
   5  11 -18   17.15    6.16
   5  11 -17   17.15    5.77
   5  11 -16    3.16    2.04
   5  11 -15   11.35    4.67
  -5 -11  14  106.17   17.52
   5  11 -14   51.41    8.99
  -5 -11  13  390.25   31.40
   5  11 -13  276.57   20.21
  -5  11  12   11.87    5.04
   5  11 -12    4.65    2.93
  -5  11  11   51.82    8.34
  -5 -11  11   30.91    9.00
   5  11 -11   49.74    7.97
  -5  11  10   20.91    5.33
   5  11 -10   20.72    4.98
  -5  11   9   57.70    8.66
   5  11  -9   56.04    7.96
  -5  11   8  117.34   12.35
   5  11  -8  121.76   11.66
  -5  11   7  277.89   19.04
  -5 -11   7   -8.72    5.15
  -5  11   6   16.60    4.73
   5 -11  -5   49.78    8.73
  -5  11   5   49.43    8.08
  -5 -11   4    1.65    3.70
  -5  11   4    3.30    1.94
   5 -11  -4    6.49    3.06
   5 -11  -3  106.61   13.89
  -5  11   3   92.96   11.08
  -5 -11   3   71.87   10.27
   5 -11  -2  262.44   21.01
  -5  11   2  235.20   17.76
  -5 -11   2  232.25   16.74
   5 -11  -1  210.43   18.15
  -5  11   1  238.94   18.48
  -5 -11   1  187.11   14.72
   5 -11   0    6.15    3.54
  -5  11   0    4.18    2.71
  -5  11  -1    7.47    3.69
  -5  11  -2   91.07   11.42
  -5  11  -3    1.98    2.59
  -5  11  -4   84.24   11.58
  -5  11  -5  152.94   15.76
  -5  11  -6  405.66   25.92
  -5  11  -7   78.32   11.54
  -5  11  -8   12.72    4.64
  -5  11  -9  152.92   17.03
  -5  11 -10   25.65    7.38
  -5  11 -11  140.62   16.91
  -5  11 -12   72.80   12.64
  -5  11 -13   21.37    7.86
  -5  11 -14   10.04    5.74
  -5  11 -15   -4.10    5.16
  -5  11 -16   -1.04    4.40
   5  12 -20    0.46    3.29
   5  12 -19   38.19    8.92
   5  12 -18   17.25    5.97
   5  12 -17    3.55    3.03
   5  12 -16  145.25   16.15
   5  12 -15    6.81    4.11
   5  12 -14   -0.50    3.17
   5  12 -13   14.36    4.59
  -5 -12  13   39.48   12.86
  -5 -12  12  103.03   18.32
   5  12 -12   59.14    9.58
   5  12 -11   21.08    5.69
  -5  12  11  -10.39    6.37
  -5 -12  10   35.23    9.64
   5  12 -10   25.24    5.78
  -5 -12   9   37.54    7.15
  -5  12   9   30.78    5.82
  -5  12   8  108.96   13.13
   5  12  -8   75.92    9.41
  -5  12   7   38.51    8.98
   5  12  -7   18.25    4.63
  -5  12   6   14.29    6.07
  -5  12   5   69.26    9.90
   5 -12  -5   69.58   11.46
  -5  12   4  204.83   16.90
   5 -12  -4  208.02   19.47
  -5 -12   4  152.71   16.54
  -5  12   3  166.75   15.27
  -5 -12   3  129.31   13.71
   5 -12  -3  190.30   18.86
  -5 -12   2   40.61    7.38
   5 -12  -2   74.26   12.31
  -5  12   2   59.44    8.92
   5 -12  -1   71.54   11.46
  -5  12   1   82.98   10.87
   5 -12   0  270.64   21.18
  -5  12   0  313.98   21.45
  -5  12  -1   61.36    9.70
  -5  12  -2    5.59    3.74
  -5  12  -3   11.64    4.23
  -5  12  -4   64.95   10.40
  -5  12  -5  280.77   21.74
  -5  12  -6   54.66    9.59
  -5  12  -7  127.35   14.89
  -5  12  -8   73.11   11.71
  -5  12  -9   37.58    9.00
  -5  12 -10    1.33    2.97
  -5  12 -11    6.68    3.42
  -5  12 -12    6.08    4.85
  -5  12 -13   68.16   12.30
  -5  12 -14   -1.88    4.58
  -5  12 -15   17.25    7.02
   5  13 -19    5.29    4.21
   5  13 -18  112.32   15.23
   5  13 -17   -3.39    3.93
   5  13 -16   15.29    5.96
   5  13 -15   49.84    9.83
   5  13 -14   95.63   12.65
   5  13 -13   15.39    5.26
  -5 -13  12   17.39    9.38
   5  13 -12    6.58    3.78
  -5 -13  11   14.40    8.77
   5  13 -11   -4.23    3.59
   5  13 -10   29.30    6.33
  -5 -13  10   44.19   10.96
  -5 -13   9   24.58    8.45
   5  13  -9   22.63    5.62
  -5 -13   8    6.44    2.69
  -5  13   8   -1.14    1.58
   5  13  -8    9.27    3.44
  -5 -13   7   13.95    5.13
   5  13  -7   26.73    5.70
  -5  13   6  132.48   14.17
  -5  13   5   30.84    7.57
   5 -13  -4    4.51    3.61
  -5 -13   4    4.13    3.91
  -5  13   4    9.32    4.57
   5 -13  -3   43.54    9.24
  -5  13   3   54.43    9.29
   5 -13  -2  379.34   28.76
  -5  13   2  341.28   22.98
  -5  13   1    5.33    3.64
   5 -13  -1    3.40    2.73
   5 -13   0   10.32    5.79
  -5  13   0    6.03    3.31
  -5  13  -1  138.36   14.89
   5 -13   1  103.95   13.42
  -5  13  -2   86.71   11.60
  -5  13  -3   22.21    6.41
  -5  13  -4   66.24   10.74
  -5  13  -5   12.82    5.35
  -5  13  -6  144.76   16.03
  -5  13  -7   -1.58    3.16
  -5  13  -8    9.82    5.08
  -5  13  -9   -4.10    4.80
  -5  13 -10   48.74   10.87
  -5  13 -11    1.01    3.32
  -5  13 -12    7.38    4.99
  -5  13 -13   28.86    8.91
  -5  13 -14   46.68   11.35
   5  14 -17  140.68   17.27
   5  14 -16    3.95    3.92
   5  14 -15  211.43   20.02
   5  14 -14   22.52    7.02
   5  14 -13   11.17    4.69
   5  14 -12    2.80    2.15
   5  14 -11   42.02    8.41
  -5 -14  11   40.30   11.88
  -5 -14  10   -1.68    4.25
   5  14 -10    9.04    4.33
  -5 -14   9   44.73   11.44
   5  14  -9   37.61    7.62
  -5 -14   8   22.53    6.79
   5  14  -8   29.06    6.92
   5  14  -7   97.02   11.10
  -5  14   7   -0.14    1.53
  -5  14   6   -2.22    2.96
  -5  14   5   -7.95    4.83
   5 -14  -4   -0.94    4.02
  -5  14   4   -0.58    3.27
  -5  14   3  116.12   13.69
   5 -14  -3  102.64   15.05
   5 -14  -2    1.15    3.12
  -5  14   2    1.24    2.78
   5 -14  -1  160.64   19.80
  -5  14   1  132.07   14.71
   5 -14   0   11.18    5.67
  -5  14   0   21.49    6.06
   5 -14   1  100.18   15.08
  -5  14  -1  123.24   14.51
  -5  14  -2   -0.69    2.11
   5 -14   2    1.65    3.79
  -5  14  -3   39.18    8.39
  -5  14  -4    8.45    4.22
  -5  14  -5  105.80   13.76
  -5  14  -6   11.55    4.74
  -5  14  -7   74.39   12.68
  -5  14  -8    4.80    4.03
  -5  14  -9   37.74    9.36
  -5  14 -10    2.30    3.61
  -5  14 -11    9.07    5.99
  -5  14 -12    2.47    4.89
  -5  14 -13   36.36   10.42
   5  15 -15    6.55    3.81
   5  15 -14  253.21   22.43
   5  15 -13   76.76   12.14
   5  15 -12    4.24    3.92
   5  15 -11   73.79   11.42
  -5 -15  10  110.27   18.81
   5  15 -10   94.50   12.36
  -5 -15   9   -8.30    7.06
   5  15  -9    1.43    2.91
  -5 -15   8   17.37    7.12
   5  15  -8   13.70    4.75
  -5  15   6   -1.34    2.86
  -5  15   5   -5.33    4.13
   5 -15  -4    2.03    3.00
  -5  15   4   -9.36    5.81
   5 -15  -3   11.42    4.66
  -5  15   3  -13.95    8.09
  -5  15   2  310.86   22.53
   5 -15  -2  311.51   26.76
   5 -15  -1    2.98    4.07
  -5  15   1    0.82    2.68
  -5  15   0    6.53    4.13
   5 -15   0    2.86    3.22
   5 -15   1    7.00    5.25
  -5  15  -1    4.87    2.39
  -5  15  -2   79.26   12.25
   5 -15   2   81.13   14.17
   5 -15   3    5.24    5.62
  -5  15  -3    7.27    4.32
   5 -15   4    3.31    3.88
  -5  15  -4   -0.23    3.36
  -5  15  -5   -1.41    2.51
  -5  15  -6  132.98   16.73
  -5  15  -7    2.92    3.58
  -5  15  -8   -3.11    4.07
  -5  15  -9   10.49    6.52
  -5  15 -10   60.38   12.40
  -5  15 -11    1.79    3.78
  -5  15 -12   19.37    7.88
  -5 -16   9   16.71    7.04
  -5  16   3  -10.01    6.28
   5 -16  -3   96.75   15.15
  -5  16   2    1.12    2.17
   5 -16  -2   12.11    5.66
   5 -16  -1   67.32   13.18
  -5  16   1    9.66    5.52
   5 -16   0  136.02   19.35
  -5  16   0  181.99   18.89
  -5  16  -1   64.99   11.43
   5 -16   1   38.56   10.49
   5 -16   2    5.39    5.09
  -5  16  -2   -2.16    3.66
  -5  16  -3   71.73   11.76
   5 -16   3   73.79   14.51
   5 -16   4    1.12    3.73
  -5  16  -4    0.55    3.62
  -5  16  -5   22.80    7.42
   5 -16   5   28.55    9.71
  -5  16  -6    7.98    4.96
  -5  16  -7   34.05    9.19
  -5  16  -8    0.22    3.66
  -5  16  -9   28.56    8.54
  -5  16 -10    5.57    3.45
  -5  17   0    1.81    2.40
  -5  17  -1   27.08    8.61
  -5  17  -2   40.92   10.03
   5 -17   2   20.56    9.35
  -5  17  -3   68.58   12.14
  -5  17  -4    1.70    3.49
  -5  17  -5   -1.29    3.51
  -5  17  -6   57.22   11.77
  -5  17  -7   20.53    6.84
  -6   0  23    3.65    3.28
  -6   0  22   49.51   10.14
  -6   0  21   -4.44    5.45
  -6   0  20   42.07    9.22
  -6   0  19    2.04    4.48
  -6   0  18  431.36   29.59
  -6   0  17    3.39    4.70
  -6   0  16   58.58   10.73
  -6   0  15    0.99    3.25
  -6   0  14  409.42   27.16
  -6   0  13    0.79    3.64
  -6   0  12   76.92   11.35
  -6   0  11    1.07    3.69
  -6   0  10  182.01   16.81
  -6   0   9    1.77    3.75
  -6   0   8   21.93    6.77
  -6   0   7    1.08    2.90
  -6   0   6 2083.93   54.87
  -6   0   5    1.64    2.30
  -6   0   4  588.29   28.49
  -6   0   3   -0.55    3.18
   6   0  -2  727.69   17.73
  -6   0   2  829.53   33.19
  -6   0   1   -4.70    4.53
   6   0  -1   -1.48    1.57
   6   0   0   71.15    6.91
  -6   0   0   75.77   10.18
  -6   0  -1    4.25    3.51
   6   0   1    1.03    1.59
   6   0   2  899.71   27.66
  -6   0  -2  871.47   31.37
  -6   0  -3   -0.59    1.69
   6   0   3   -4.10    2.78
  -6   0  -4  805.23   29.32
   6   0   4  784.62   29.22
   6   0   5    1.82    1.77
  -6   0  -5    2.65    2.80
  -6   0  -6  546.90   24.93
   6   0   6  552.03   27.05
   6   0   7   -1.52    3.47
  -6   0  -7    0.61    1.95
  -6   0  -8   80.96    9.88
   6   0   8   70.11   10.75
  -6   0  -9    6.38    3.75
   6   0   9    1.46    2.72
  -6   0 -10  515.13   25.52
   6   0  10  517.45   30.98
  -6   0 -11    0.46    2.30
   6   0  11   -2.85    3.43
  -6   0 -12   -1.24    2.51
   6   0  12    1.80    4.35
   6   0  13    0.77    3.18
   6   0  14    0.98    3.10
   6   0  15   -5.23    4.87
   6   0  16   -1.13    4.03
   6   0  17   -7.40    6.74
   6   0  18   11.48    5.65
   6   0  19    1.00    5.40
  -6  -1  23   67.10   12.99
  -6   1  22   54.10   11.21
  -6  -1  22   54.85   12.00
  -6   1  21   61.44   12.73
  -6  -1  21   48.24   10.36
  -6   1  20   24.61    7.69
  -6  -1  20   13.93    4.10
  -6   1  19   16.64    6.14
  -6  -1  19   11.06    4.59
  -6   1  18   19.53    6.47
  -6  -1  18   16.11    6.12
  -6   1  17   99.82   13.86
  -6  -1  17  104.52   15.11
  -6   1  16   24.49    7.91
  -6  -1  16   13.79    4.59
  -6   1  15  123.91   15.27
  -6  -1  15  124.09   15.67
  -6   1  14   65.36   11.04
  -6  -1  14   61.14   10.76
  -6   1  13  454.61   27.95
  -6  -1  13  458.53   28.96
  -6   1  12   53.36    9.82
  -6  -1  12   51.67    9.47
  -6   1  11  226.70   18.85
  -6  -1  11  210.55   19.20
  -6   1  10   74.06   10.98
  -6  -1  10   77.41   10.91
  -6   1   9  192.74   17.16
  -6  -1   9  194.31   16.96
  -6   1   8  200.20   17.25
  -6  -1   8  193.94   16.94
  -6  -1   7    8.09    4.07
  -6   1   7    2.91    2.11
  -6  -1   6    3.77    2.92
  -6   1   6    1.60    3.39
  -6   1   5  827.36   33.72
  -6  -1   5  833.54   34.21
  -6   1   4  315.01   20.75
  -6  -1   4  330.60   21.77
  -6  -1   3  495.06   26.22
  -6   1   3  464.12   24.95
  -6   1   2   46.11    7.50
  -6  -1   2   47.17    7.87
   6  -1  -1   77.12    6.49
  -6   1   1   86.00   11.35
  -6  -1   1   89.02   10.54
   6  -1   0   86.77    7.76
  -6   1   0  102.12   11.91
  -6  -1   0   84.16   10.23
   6  -1   1  161.90   11.33
  -6   1  -1  162.16   13.73
  -6  -1  -1  155.76   13.64
   6  -1   2  137.93   11.07
  -6   1  -2  138.22   12.73
  -6  -1  -2  138.49   12.26
  -6   1  -3   60.50    8.36
   6  -1   3   71.34    8.36
  -6  -1  -3   75.87    8.75
  -6  -1  -4   -0.20    1.72
   6  -1   4   -0.81    3.04
  -6   1  -4   -0.26    2.38
   6  -1   5    6.39    2.76
  -6   1  -5   11.39    3.64
  -6  -1  -5    6.08    2.32
   6  -1   6   12.86    3.87
  -6   1  -6    9.72    2.93
  -6  -1  -6    9.39    3.46
  -6   1  -7  266.20   17.93
  -6  -1  -7  254.93   16.87
   6  -1   7  252.73   19.19
   6  -1   8   10.60    4.43
  -6  -1  -8    8.87    3.64
  -6   1  -8    9.20    3.20
  -6   1  -9  133.39   13.41
  -6  -1  -9  144.84   12.87
   6  -1   9  126.53   14.84
   6   1   9  123.11   14.65
  -6  -1 -10    1.27    1.73
  -6   1 -10    3.58    3.01
   6  -1  10   -2.41    3.10
   6   1  10   -2.52    3.27
  -6  -1 -11   70.34    9.08
  -6   1 -11   75.90   10.29
   6  -1  11   68.94   12.08
   6   1  11   58.89   11.23
  -6   1 -12    1.15    1.93
   6  -1  12    5.91    3.82
   6   1  12    2.29    3.23
   6  -1  13   12.55    6.28
  -6   1 -13    9.57    3.86
   6   1  13    2.19    4.44
   6  -1  14   10.72    6.62
   6   1  14   10.50    5.81
   6   1  15   22.11    7.42
   6  -1  15   20.03    8.17
   6   1  16   20.08    8.00
   6  -1  16   17.80    7.30
   6  -1  17   -3.08    6.59
   6   1  17    6.99    6.28
   6  -1  18   -2.43    5.85
   6   1  18  -10.27    7.06
   6  -1  19   29.23    9.30
   6   1  19   26.86    9.49
  -6  -2  23    1.34    4.46
  -6   2  22   11.57    5.54
  -6  -2  22   10.31    6.09
  -6   2  21    1.98    3.61
  -6  -2  21    2.99    4.15
  -6   2  20   -1.22    3.05
  -6  -2  20   -4.19    4.62
  -6   2  19   47.63   10.12
  -6  -2  19   38.52    9.54
  -6   2  18   37.57    9.17
  -6  -2  18   19.71    6.52
  -6   2  17   25.31    7.23
  -6  -2  17   22.02    6.93
  -6   2  16   22.99    6.89
  -6  -2  16   20.79    5.93
  -6   2  15  105.24   14.39
  -6  -2  15   95.30   13.73
  -6   2  14  135.07   15.65
  -6  -2  14  118.26   15.44
  -6   2  13   65.59   10.95
  -6  -2  13   67.47   11.19
  -6   2  12    7.35    3.70
  -6  -2  12    3.04    3.71
  -6   2  11    7.74    3.62
  -6  -2  11   11.97    4.93
  -6   2  10  276.08   21.16
  -6  -2  10  295.94   21.88
  -6   2   9   82.59   11.39
  -6  -2   9   78.62   11.25
  -6   2   8   93.40   12.19
  -6  -2   8   99.86   12.39
  -6   2   7  310.42   21.19
  -6  -2   7  324.70   21.09
  -6   2   6  865.91   35.19
  -6  -2   6  771.04   33.08
  -6  -2   5   63.54    9.64
  -6   2   5   66.38    9.83
  -6   2   4    7.36    2.19
  -6  -2   4   19.42    5.62
  -6  -2   3  333.92   21.58
  -6   2   3  322.10   20.82
  -6  -2   2   76.81   10.50
  -6   2   2   86.82   11.07
  -6  -2   1  238.09   17.61
  -6   2   1  221.53   16.92
  -6   2   0   18.12    5.15
  -6  -2   0    9.07    3.08
  -6   2  -1   34.61    6.92
  -6  -2  -1   36.55    7.30
   6  -2   1   31.83    5.16
  -6   2  -2  387.74   21.48
   6  -2   2  396.47   19.36
  -6  -2  -2  373.86   20.02
  -6   2  -3  153.30   13.19
   6  -2   3  157.26   13.01
  -6  -2  -3  156.06   12.43
  -6   2  -4   86.88   10.09
  -6  -2  -4   88.22    9.33
   6  -2   4   86.33    9.97
  -6   2  -5  140.05   12.99
  -6  -2  -5  135.47   11.63
   6  -2   5  142.89   13.28
  -6   2  -6  249.78   17.66
  -6  -2  -6  243.97   15.71
   6  -2   6  244.51   18.36
   6  -2   7   26.12    6.43
  -6   2  -7   27.75    6.35
  -6  -2  -7   27.79    5.67
  -6  -2  -8    0.53    1.41
  -6   2  -8   -0.45    1.94
   6  -2   8   -3.36    4.59
  -6   2  -9   90.22   11.20
  -6  -2  -9   91.98    9.93
   6  -2   9   77.54   11.62
  -6  -2 -10   81.77    9.32
  -6   2 -10   91.94   11.48
   6  -2  10   92.13   13.36
  -6   2 -11   77.88   10.54
   6  -2  11   65.76   11.30
  -6   2 -12   23.66    6.28
   6  -2  12   20.31    6.88
  -6   2 -13   26.05    6.65
   6  -2  13   28.64    8.79
   6   2  13   23.12    7.55
  -6   2 -14    9.68    4.50
   6   2  14    5.96    4.15
   6  -2  14    5.94    5.42
   6  -2  15    8.68    5.11
   6   2  15    3.27    4.31
   6  -2  16    9.59    5.97
   6   2  16    7.26    3.30
   6  -2  17   18.89    9.31
   6   2  17    8.54    4.86
   6   2  18   18.52    7.72
   6  -2  18   10.16    6.99
   6  -2  19   11.17    8.48
   6   2  19   -1.23    4.33
  -6  -3  23   -7.27    6.10
  -6  -3  22   37.78    9.39
  -6   3  21   14.55    7.07
  -6  -3  21    0.10    4.93
  -6   3  20   19.47    7.13
  -6  -3  20   15.11    6.15
  -6   3  19    1.72    3.90
  -6  -3  19   -0.93    3.67
  -6   3  18   18.70    6.01
  -6  -3  18   18.49    5.39
  -6   3  17   26.30    7.75
  -6  -3  17   22.19    7.22
  -6   3  16  230.98   21.35
  -6  -3  16  231.67   22.65
  -6   3  15    0.78    2.44
  -6  -3  15   -0.75    4.31
  -6   3  14   -1.28    2.31
  -6  -3  14    7.44    4.94
  -6   3  13   40.96    9.04
  -6  -3  13   42.48    9.29
  -6   3  12  177.27   17.66
  -6  -3  12  179.89   18.52
  -6  -3  11    7.63    4.77
  -6   3  11    5.73    3.14
  -6  -3  10   61.20   10.84
  -6   3  10   71.82   10.77
  -6   3   9  107.58   13.18
  -6  -3   9  103.16   12.93
  -6   3   8  132.01   14.60
  -6  -3   8  111.52   13.63
  -6  -3   7    3.69    3.70
  -6   3   7    6.66    4.35
  -6   3   6  165.10   15.23
  -6  -3   6  170.48   15.66
  -6  -3   5  482.90   26.09
  -6   3   5  460.57   25.57
  -6  -3   4  459.38   25.41
  -6   3   4  459.48   25.17
  -6   3   3   29.19    8.09
  -6  -3   3   17.95    5.93
  -6   3   2   29.90    6.94
  -6  -3   2   36.65    7.52
  -6  -3   1  245.83   18.50
  -6   3   1  216.83   16.85
  -6   3   0  573.77   26.89
  -6  -3   0  612.58   27.79
  -6   3  -1   86.88   10.70
  -6  -3  -1   87.19    9.88
  -6   3  -2    3.70    2.50
  -6  -3  -2   11.54    4.39
  -6  -3  -3   15.04    3.87
  -6   3  -3   14.35    4.31
  -6   3  -4  165.49   14.19
   6  -3   4  155.54   13.90
  -6  -3  -4  147.45   11.92
  -6   3  -5   -0.15    1.67
   6  -3   5   -0.51    2.60
  -6  -3  -5    0.01    1.66
   6  -3   6   11.03    3.73
  -6   3  -6   12.52    4.24
  -6  -3  -6   13.57    3.54
   6  -3   7   30.80    6.61
  -6   3  -7   35.77    7.19
  -6  -3  -7   34.94    5.99
  -6   3  -8  345.47   21.94
   6  -3   8  335.22   23.87
  -6  -3  -8  347.69   18.54
  -6   3  -9   39.47    7.46
  -6  -3  -9   37.27    6.09
   6  -3   9   38.79    8.75
  -6   3 -10   -4.72    3.67
   6  -3  10    2.72    4.87
  -6   3 -11   24.27    6.49
   6  -3  11   17.29    6.80
  -6   3 -12  133.80   14.75
   6  -3  12  134.82   17.64
  -6   3 -13   -1.07    3.56
   6  -3  13   -5.68    5.33
  -6   3 -14    0.02    2.57
   6  -3  14    8.48    6.25
   6  -3  15   14.91    8.22
   6   3  15   18.09    7.84
   6  -3  16   35.56   10.96
   6   3  16   26.61    8.18
   6  -3  17   12.91    9.01
   6   3  17   -3.37    4.02
   6  -3  18    1.59    6.49
   6   3  18   -0.78    3.78
  -6  -4  23  113.28   16.96
  -6  -4  22   -2.74    5.90
  -6  -4  21    1.54    3.44
  -6   4  20    0.24    3.96
  -6  -4  20    6.33    5.25
  -6   4  19   21.53    7.69
  -6  -4  19   17.27    7.24
  -6   4  18   -3.21    3.98
  -6  -4  18   -0.54    4.13
  -6   4  17  145.88   17.24
  -6  -4  17  127.63   17.31
  -6  -4  16   -3.83    5.00
  -6   4  16   -0.40    2.57
  -6   4  15  210.93   20.44
  -6  -4  15  197.84   21.06
  -6  -4  14   -1.84    4.91
  -6   4  14    2.82    3.74
  -6  -4  13   87.53   13.74
  -6   4  13   83.30   12.72
  -6  -4  12   47.81    9.82
  -6   4  12   46.65    9.25
  -6   4  11  109.93   13.94
  -6  -4  11  101.80   14.12
  -6  -4  10   -0.32    2.74
  -6   4  10   -0.60    2.86
  -6   4   9  701.11   33.58
  -6  -4   9  677.68   34.24
  -6  -4   8   27.20    7.29
  -6   4   8   32.44    7.14
  -6  -4   7  278.54   20.86
  -6   4   7  304.02   21.44
  -6  -4   6   10.24    4.96
  -6   4   6    7.32    2.70
  -6  -4   5  119.90   13.42
  -6   4   5  120.24   13.08
  -6  -4   4   81.74   10.98
  -6   4   4   91.82   11.96
  -6  -4   3  173.52   16.30
  -6   4   3  181.17   15.88
  -6   4   2   41.90    7.79
  -6  -4   2   42.87    8.12
  -6   4   1   53.34    8.55
  -6  -4   1   51.93    8.96
  -6  -4   0   78.32    9.88
  -6   4   0   65.52    8.98
  -6   4  -1  254.53   18.13
  -6  -4  -1  276.95   17.97
  -6  -4  -2   24.79    5.52
  -6   4  -2   22.27    4.87
  -6  -4  -3   51.13    6.99
  -6   4  -3   40.37    7.20
  -6  -4  -4   -0.01    1.85
  -6   4  -4   -2.51    2.90
  -6   4  -5  292.10   19.59
  -6  -4  -5  267.38   15.35
  -6   4  -6    4.87    2.86
  -6  -4  -6    4.73    1.80
  -6   4  -7  110.77   12.18
  -6  -4  -7  100.96    9.61
   6  -4   8   23.79    6.58
  -6   4  -8   21.51    5.74
  -6   4  -9  161.75   15.37
   6  -4   9  165.24   17.49
   6  -4  10   14.61    5.47
  -6   4 -10   15.16    5.48
   6  -4  11  143.28   18.08
  -6   4 -11  155.93   16.08
  -6   4 -12   23.51    7.11
   6  -4  12   21.04    6.70
  -6   4 -13   13.21    4.97
   6  -4  13   13.52    6.49
  -6   4 -14    1.08    2.75
   6  -4  14   -1.92    5.08
  -6   4 -15    8.26    4.80
   6  -4  15   15.45    7.89
   6   4  17   12.69    6.09
   6   4  18   -6.68    6.99
  -6  -5  23   37.57    9.61
  -6  -5  22   -3.04    6.86
  -6  -5  21    5.63    3.31
  -6  -5  20  209.72   22.69
  -6  -5  19   13.89    7.13
  -6   5  19   18.38    6.41
  -6  -5  18    6.41    3.68
  -6   5  18   18.89    7.23
  -6  -5  17   35.97    9.52
  -6   5  17   37.18    8.94
  -6   5  16  490.23   31.27
  -6  -5  16  514.61   35.29
  -6  -5  15    6.15    5.17
  -6   5  15    2.23    3.57
  -6  -5  14    7.84    4.34
  -6   5  14    8.13    4.27
  -6   5  13  110.01   14.52
  -6  -5  13  103.57   15.83
  -6   5  12  696.23   35.60
  -6  -5  12  716.16   39.71
  -6  -5  11   94.15   14.30
  -6   5  11   94.96   12.70
  -6   5  10  161.62   16.68
  -6  -5  10  169.86   18.66
  -6  -5   9  450.62   28.08
  -6   5   9  417.70   26.32
  -6  -5   8  294.39   22.06
  -6   5   8  311.18   22.04
  -6  -5   7    3.35    2.20
  -6   5   7   -0.59    3.73
  -6  -5   6   20.14    5.89
  -6   5   6   19.78    5.95
  -6  -5   5   -1.25    2.93
  -6   5   5    1.35    3.43
  -6  -5   4  349.24   22.97
  -6   5   4  380.14   23.15
  -6  -5   3    1.90    2.32
  -6   5   3    1.26    2.27
  -6   5   2   22.51    5.70
  -6  -5   2   22.13    6.38
  -6  -5   1   93.23   11.57
  -6   5   1   75.39    9.99
  -6   5   0   60.38    8.76
  -6  -5   0   65.88    9.09
  -6   5  -1   -3.31    3.50
  -6  -5  -1   -2.99    3.11
  -6  -5  -2   23.80    5.22
  -6   5  -2   27.19    5.92
  -6  -5  -3   17.53    4.25
  -6   5  -3   21.41    5.63
  -6   5  -4  331.06   21.11
  -6  -5  -4  307.66   16.15
  -6  -5  -5    8.20    2.78
  -6   5  -5   10.97    4.05
  -6  -5  -6   54.33    6.83
  -6   5  -6   48.91    8.58
  -6   5  -7    3.48    3.29
  -6   5  -8  391.16   24.31
  -6   5  -9    9.73    3.10
  -6   5 -10   10.75    3.88
  -6   5 -11   -0.77    3.51
  -6   5 -12  119.60   15.13
  -6   5 -13    3.87    3.08
  -6   5 -14    1.71    3.03
  -6   5 -15   -2.82    3.75
   6   5  18    3.33    3.40
  -6  -6  23   34.95    9.89
  -6  -6  22   41.88   10.24
  -6  -6  21   -0.88    4.40
  -6  -6  20   33.41    9.47
  -6   6  19  168.95   19.11
  -6  -6  19  158.79   21.21
  -6  -6  18   28.05    8.14
  -6   6  18   26.24    7.67
  -6   6  17  117.60   15.28
  -6  -6  17  108.49   17.01
  -6  -6  16   29.12    8.58
  -6   6  16   33.64    8.90
  -6   6  15  278.34   23.47
  -6  -6  15  274.64   27.67
  -6   6  14   34.27    8.22
  -6  -6  14   31.03    8.43
  -6   6  13   41.69    9.08
  -6  -6  13   36.04    8.96
  -6   6  12   66.41   11.32
  -6  -6  12   67.99   12.66
  -6   6  11   25.26    7.01
  -6  -6  11   18.41    5.00
  -6  -6  10  565.77   35.03
  -6   6  10  613.95   32.25
  -6  -6   9  471.27   30.06
  -6   6   9  468.32   27.97
  -6  -6   8  470.70   29.07
  -6   6   8  491.09   28.20
  -6  -6   7  608.21   31.34
  -6   6   7  635.86   31.34
  -6  -6   6  115.52   13.87
  -6   6   6  136.49   14.57
  -6  -6   5    1.30    2.85
  -6   6   5    2.31    3.43
  -6  -6   4   42.93    8.57
  -6   6   4   33.78    7.03
   6  -6  -3  162.48   10.95
  -6  -6   3  177.94   16.35
  -6   6   3  198.21   16.43
  -6  -6   2  131.45   13.66
  -6   6   2  120.75   12.55
  -6  -6   1  598.78   29.40
  -6   6   1  533.86   26.91
  -6   6   0    8.06    2.94
  -6  -6   0    5.13    2.89
  -6  -6  -1  454.97   22.57
  -6   6  -1  437.55   24.46
  -6  -6  -2   15.51    4.02
  -6   6  -2   23.87    6.52
  -6  -6  -3   14.91    3.71
  -6   6  -3   17.76    5.24
  -6  -6  -4    3.54    1.51
  -6   6  -4    8.39    4.53
  -6   6  -5  441.04   25.36
  -6   6  -6   79.07   10.99
  -6   6  -7   37.69    7.48
  -6   6  -8    2.02    2.91
  -6   6  -9    9.32    4.26
  -6   6 -10   -5.04    4.47
  -6   6 -11  125.89   15.21
  -6   6 -12    2.55    3.15
  -6   6 -13  118.25   15.45
  -6   6 -14    8.54    4.35
  -6   6 -15   10.04    5.05
  -6  -7  23    1.71    4.45
  -6  -7  22    0.43    4.48
  -6  -7  21    5.00    6.78
  -6  -7  20   63.68   13.30
  -6   7  18   72.21   12.38
  -6   7  17    1.96    2.86
  -6   7  16  140.57   16.36
  -6   7  15   -0.13    3.54
  -6   7  14   -2.95    3.82
  -6  -7  14   -0.33    6.39
  -6   7  13   49.81    9.62
  -6  -7  13   59.30   13.09
  -6   7  12  141.22   16.03
  -6  -7  12  151.45   19.76
  -6  -7  11   22.71    7.81
  -6   7  11   12.97    4.85
  -6   7  10   34.55    7.07
  -6  -7  10   38.68    8.91
  -6  -7   9  264.16   24.09
  -6   7   9  279.38   21.58
  -6  -7   8  131.73   15.81
  -6   7   8  144.21   15.16
  -6  -7   7  552.84   30.86
  -6   7   7  542.87   29.08
  -6   7   6    2.12    3.28
  -6  -7   6    0.15    2.79
  -6  -7   5  293.42   20.71
  -6   7   5  289.49   20.59
  -6  -7   4  114.11   13.67
  -6   7   4  121.52   13.08
   6  -7  -3  260.67   16.14
  -6  -7   3  251.02   19.21
  -6   7   3  248.17   18.94
  -6   7   2   48.39    8.62
  -6  -7   2   60.24    9.50
  -6  -7   1  258.43   19.30
  -6   7   1  234.66   18.29
  -6  -7   0  402.21   22.71
  -6   7   0  375.02   22.88
  -6  -7  -1   76.58    9.41
  -6   7  -1   77.96   10.64
  -6   7  -2   65.48    9.38
  -6  -7  -2   59.74    7.68
  -6   7  -3  281.00   20.13
  -6  -7  -3  247.58   14.51
  -6   7  -4  158.27   15.26
  -6   7  -5   25.99    6.35
  -6   7  -6   21.60    5.50
  -6   7  -7    0.47    2.14
  -6   7  -8  127.93   14.73
  -6   7  -9   48.11    8.91
  -6   7 -10    3.87    2.81
  -6   7 -11   10.56    4.49
  -6   7 -12  108.50   14.57
  -6   7 -13   17.15    5.94
  -6   7 -14   -2.12    2.94
  -6   7 -15    0.58    3.81
  -6  -8  22   19.19    6.86
  -6   8  16    6.43    3.69
  -6   8  15  187.48   18.70
  -6   8  14  113.34   14.34
  -6   8  13   30.26    7.62
  -6   8  12   63.65   10.84
  -6  -8  12   76.83   15.35
  -6  -8  11  118.99   17.63
  -6   8  11  113.97   14.24
  -6   8  10  327.53   23.47
  -6  -8  10  376.12   31.10
  -6   8   9    3.51    3.62
  -6  -8   9   -2.54    5.66
  -6   8   8    3.62    2.07
  -6  -8   8    2.07    4.16
  -6   8   7  209.78   18.16
  -6  -8   7  180.33   18.63
  -6  -8   6  299.65   22.79
  -6   8   6  321.60   21.80
  -6   8   5   33.16    7.04
  -6  -8   5   22.79    6.61
   6  -8  -5   24.39    5.31
  -6   8   4   30.01    6.39
   6  -8  -4   33.96    6.50
  -6  -8   4   22.13    6.66
   6  -8  -3  246.24   16.97
  -6  -8   3  227.64   18.05
  -6   8   3  238.32   18.51
  -6  -8   2  600.94   28.72
  -6   8   2  606.96   29.60
  -6  -8   1   77.66   11.01
  -6   8   1   68.27   10.09
  -6  -8   0   19.04    5.36
  -6   8   0    9.92    3.90
  -6  -8  -1   20.58    4.92
  -6   8  -1   18.16    4.96
  -6   8  -2  274.50   20.54
  -6  -8  -2  261.61   15.73
  -6   8  -3    8.92    4.80
  -6   8  -4   -0.85    1.92
  -6   8  -5  135.81   14.55
  -6   8  -6  133.79   14.80
  -6   8  -7    2.19    2.40
  -6   8  -8    0.30    3.25
  -6   8  -9   55.59    9.68
  -6   8 -10   71.99   11.72
  -6   8 -11   18.61    6.58
  -6   8 -12    1.58    3.21
  -6   8 -13    9.78    5.30
  -6   8 -14   45.13   10.49
  -6   8 -15    6.96    5.00
  -6   9  15  136.20   15.43
  -6   9  14   10.82    4.51
  -6   9  13   95.70   13.18
  -6   9  12    7.76    4.60
  -6   9  11   48.46    9.19
  -6   9  10    1.17    2.57
  -6  -9  10   -0.32    1.60
  -6  -9  10   -3.60    5.98
  -6   9   9  423.42   25.77
  -6  -9   9  445.72   34.14
  -6   9   8   -0.92    2.45
  -6  -9   8   -0.35    3.56
  -6   9   7  141.15   14.71
  -6  -9   7  152.10   16.83
  -6   9   6  212.19   17.78
  -6  -9   6  196.44   19.09
  -6   9   5  310.27   21.42
  -6  -9   5  297.90   21.62
   6  -9  -5  353.04   22.20
  -6   9   4  103.32   12.40
  -6  -9   4  109.72   12.69
   6  -9  -4  123.62   13.29
   6  -9  -3  362.05   22.53
  -6  -9   3  287.16   20.71
  -6   9   3  312.55   21.57
  -6  -9   2    5.49    3.44
   6  -9  -2    7.34    3.39
  -6   9   2    0.34    2.35
  -6  -9   1  109.55   12.27
  -6   9   1   99.92   12.34
  -6   9   0   42.77    8.09
  -6  -9   0   46.59    7.86
  -6   9  -1   88.69   11.46
  -6   9  -2   27.91    6.62
  -6   9  -3  165.15   16.28
  -6   9  -4   22.97    5.84
  -6   9  -5   99.50   12.89
  -6   9  -6    3.74    3.61
  -6   9  -7   43.28    8.73
  -6   9  -8    2.08    2.33
  -6   9  -9   37.90    8.33
  -6   9 -10    6.43    4.24
  -6   9 -11   51.71   10.61
  -6   9 -12   12.51    6.03
  -6   9 -13   14.41    6.22
  -6   9 -14   -3.40    4.19
  -6   9 -15   23.81    8.29
  -6  10  14   94.18   12.13
  -6  10  13    0.30    1.98
  -6  10  12   23.08    6.44
  -6  10  11    4.53    3.84
  -6  10  10  248.36   19.85
  -6 -10  10  312.67   29.81
  -6  10   9    4.16    2.04
  -6 -10   9   -5.31    4.93
  -6  10   8   21.46    5.41
  -6 -10   8   22.98    7.44
  -6  10   7   -4.12    3.21
  -6 -10   7    0.22    4.73
  -6  10   6  590.08   29.97
  -6 -10   6  579.98   32.51
  -6 -10   5   -1.04    2.51
   6 -10  -5    2.12    2.39
  -6  10   5    2.08    2.12
   6 -10  -4    1.07    2.78
  -6 -10   4   -1.44    3.13
  -6  10   4   -4.25    3.99
  -6 -10   3   14.35    4.19
   6 -10  -3   16.65    5.40
  -6  10   3   10.55    3.67
   6 -10  -2  298.38   20.55
  -6 -10   2  287.12   19.73
  -6  10   2  305.52   21.56
  -6 -10   1    0.19    2.66
   6 -10  -1    0.88    1.98
  -6  10   1   -1.79    3.31
  -6  10   0    4.49    3.07
  -6  10  -1    8.87    3.64
  -6  10  -2   45.38    8.31
  -6  10  -3   26.87    6.55
  -6  10  -4    0.25    2.22
  -6  10  -5    3.93    3.61
  -6  10  -6  216.43   19.80
  -6  10  -7   10.18    4.52
  -6  10  -8    6.09    4.23
  -6  10  -9   -2.72    4.02
  -6  10 -10  110.72   15.31
  -6  10 -11   -1.09    4.02
  -6  10 -12    4.34    3.92
  -6  10 -13    5.90    5.26
  -6  10 -14   95.19   15.19
  -6  10 -15   17.69    7.70
  -6  11  13  123.06   13.71
  -6  11  12    8.46    3.47
  -6  11  11    5.03    3.73
  -6  11  10    5.68    3.05
  -6  11   9  185.58   16.87
  -6 -11   9  242.86   25.71
  -6  11   8   54.85    9.31
  -6 -11   8   49.20   12.76
  -6 -11   7   10.33    4.88
  -6  11   7   11.26    4.82
  -6  11   6  144.04   14.79
  -6 -11   6  121.78   16.14
  -6 -11   5   64.83   10.71
   6 -11  -5   84.47   12.05
  -6  11   5   74.14   10.82
  -6  11   4  100.86   12.37
  -6 -11   4   95.57   12.10
   6 -11  -4  118.07   14.30
   6 -11  -3  194.17   18.78
  -6  11   3  169.38   16.39
  -6 -11   3  150.46   14.98
   6 -11  -2    6.67    3.97
  -6 -11   2    6.05    4.11
  -6  11   2   -0.15    2.77
   6 -11  -1  117.83   13.33
  -6  11   1  143.98   15.03
  -6  11   0  139.34   15.17
  -6  11  -1   65.63   10.64
  -6  11  -2   23.92    6.17
  -6  11  -3    2.31    2.24
  -6  11  -4    2.80    3.83
  -6  11  -5  222.41   20.20
  -6  11  -6   34.47    8.43
  -6  11  -7  304.14   24.01
  -6  11  -8    3.92    2.78
  -6  11  -9   18.30    6.12
  -6  11 -10    0.75    3.78
  -6  11 -11   97.44   14.76
  -6  11 -12   29.58    8.80
  -6  11 -13   62.38   12.40
  -6  11 -14   -0.68    4.55
  -6  12  11  157.84   15.32
  -6  12  10   37.13    7.45
  -6 -12   9    2.26    5.71
  -6  12   9   -0.21    2.44
  -6 -12   8    0.32    5.22
  -6  12   8   -1.39    2.22
  -6  12   7  135.13   14.55
  -6 -12   7  128.79   17.42
  -6  12   6   88.15   11.83
  -6 -12   6  108.50   14.96
  -6 -12   5    4.02    3.18
  -6  12   5    4.80    3.11
  -6 -12   4   15.09    5.82
   6 -12  -4   19.27    5.84
  -6  12   4   24.89    6.56
   6 -12  -3   14.41    5.59
  -6  12   3   14.51    5.23
   6 -12  -2   38.08    9.11
  -6  12   2   35.46    7.95
   6 -12  -1   24.71    6.67
  -6  12   1   26.18    6.86
   6 -12   0   18.50    5.94
  -6  12   0   26.21    6.88
  -6  12  -1   25.56    7.10
  -6  12  -2  305.52   22.99
  -6  12  -3  104.48   13.69
  -6  12  -4   -3.88    4.03
  -6  12  -5   30.64    8.06
  -6  12  -6   54.69   10.69
  -6  12  -7   21.18    6.97
  -6  12  -8    6.90    4.07
  -6  12  -9   57.01   11.28
  -6  12 -10  135.19   17.65
  -6  12 -11   37.69    9.81
  -6  12 -12    1.74    3.50
  -6  12 -13   28.98    8.93
  -6  13  10   33.44    8.94
  -6 -13   9    9.21    4.62
  -6  13   9   38.61    8.96
  -6  13   8  200.48   18.06
  -6 -13   8  239.04   25.47
  -6 -13   7   38.68   11.13
  -6  13   7   58.44   10.09
  -6 -13   6   24.38    7.51
  -6  13   6   33.05    7.47
  -6  13   5   37.27    8.26
  -6  13   4  127.18   14.60
  -6  13   3   19.10    5.35
   6 -13  -3   23.68    6.79
   6 -13  -2    0.53    2.54
  -6  13   2    1.90    2.94
  -6  13   1   46.84    9.01
   6 -13  -1   49.47    9.77
   6 -13   0  110.73   14.31
  -6  13   0  120.85   14.49
  -6  13  -1    0.79    2.55
   6 -13   1    7.26    4.53
  -6  13  -2   85.77   12.23
  -6  13  -3  113.17   14.29
  -6  13  -4   96.08   13.56
  -6  13  -5   17.47    6.96
  -6  13  -6    2.82    3.61
  -6  13  -7    3.36    4.40
  -6  13  -8   80.56   13.52
  -6  13  -9    7.60    5.71
  -6  13 -10   -0.47    3.51
  -6  13 -11   -2.35    4.06
  -6  13 -12    5.61    5.24
  -6 -14   9   -0.72    7.22
  -6  14   8    0.06    2.38
  -6  14   7  149.88   16.18
  -6  14   6   21.97    7.25
  -6  14   5   34.93    7.81
  -6  14   4   14.00    4.33
  -6  14   3   65.13   10.92
  -6  14   2   -1.90    3.46
   6 -14  -1   -1.69    3.63
  -6  14   1    0.29    2.10
   6 -14   0    4.54    4.32
  -6  14   0    6.28    4.05
   6 -14   1  147.87   17.69
  -6  14  -1  161.06   17.13
  -6  14  -2   17.79    5.88
   6 -14   2   16.59    6.40
  -6  14  -3   11.90    5.57
  -6  14  -4    5.17    3.87
  -6  14  -5   80.84   13.27
  -6  14  -6   -2.13    3.89
  -6  14  -7    0.09    3.63
  -6  14  -8   -1.55    4.01
  -6  14  -9   18.95    6.97
  -6  14 -10   -1.24    4.91
  -6  14 -11   13.77    6.17
  -6  15   5    1.19    1.88
  -6  15   4   32.12    7.88
  -6  15   3   -1.69    2.91
  -6  15   2    5.49    4.28
  -6  15   1    4.57    3.64
  -6  15   0  118.33   15.13
  -6  15  -1   -2.02    4.21
  -6  15  -2    8.52    4.11
  -6  15  -3   -5.61    5.61
  -6  15  -4   82.77   13.10
  -6  15  -5   -1.33    3.92
  -6  15  -6   23.21    7.37
  -6  15  -7    6.96    3.92
  -6  15  -8   70.77   13.07
  -6  15  -9    1.64    3.95
  -6  15 -10    6.32    4.48
  -6  16   3   18.72    4.73
  -6  16   2    8.51    4.73
  -6  16   1    4.01    4.78
  -6  16   0    2.95    2.90
  -6  16  -1   52.89   10.64
  -6  16  -2   24.18    7.45
  -6  16  -3    6.37    4.56
  -6  16  -4    3.40    3.52
  -6  16  -5   51.23   10.42
  -6  16  -6    3.32    3.16
  -6  16  -7   29.71    9.20
  -7   0  22  231.61   23.97
  -7   0  21   -2.51    3.75
  -7   0  20   58.80   12.13
  -7   0  19    2.60    5.16
  -7   0  18   28.86    8.08
  -7   0  17    0.94    3.65
  -7   0  16  417.56   29.76
  -7   0  15    1.34    2.99
  -7   0  14  158.97   18.48
  -7   0  13    1.96    4.73
  -7   0  12   28.81    7.49
  -7   0  11    1.89    4.12
  -7   0  10  183.77   17.82
  -7   0   9   -2.72    3.46
  -7   0   8  245.81   20.56
  -7   0   7   -1.10    3.70
  -7   0   6    2.80    2.94
  -7   0   5   -7.16    5.00
  -7   0   4  902.03   38.52
  -7   0   3    3.16    2.39
  -7   0   2   86.68   11.13
  -7   0   1   -0.68    2.32
   7   0   0  176.57   11.72
  -7   0   0  184.96   16.57
  -7   0  -1   -0.44    2.62
   7   0   1   -3.92    3.15
  -7   0  -2   -1.51    2.67
   7   0   2    0.83    1.82
  -7   0  -3   -2.95    3.36
   7   0   3   -2.52    2.85
  -7   0  -4  400.21   22.28
   7   0   4  396.45   21.51
   7   0   5   -6.27    4.59
  -7   0  -5    5.57    3.29
   7   0   6   -3.87    4.10
  -7   0  -6    1.23    1.83
   7   0   7   -4.89    4.41
  -7   0  -7   -0.91    2.52
  -7   0  -8   83.68   10.53
   7   0   8   65.45    9.99
  -7   0  -9    1.62    2.02
   7   0   9   -4.45    4.50
  -7   0 -10   85.89   11.23
   7   0  10   85.02   12.92
  -7   0 -11   -2.69    3.31
   7   0  11   -2.90    4.34
   7   0  12  121.76   16.79
   7   0  13    0.26    3.64
   7   0  14   -0.61    2.99
   7   0  15    0.64    3.75
   7   0  16   63.56   14.01
  -7   1  22   18.79    7.85
  -7  -1  22   18.59    7.80
  -7   1  21   -0.77    3.78
  -7  -1  21    5.40    5.17
  -7  -1  20   97.13   15.43
  -7   1  20  101.54   15.54
  -7   1  19  147.01   18.49
  -7  -1  19  167.11   20.00
  -7   1  18   69.04   12.89
  -7  -1  18   60.90   12.60
  -7   1  17   16.23    6.55
  -7  -1  17    9.71    5.24
  -7   1  16    5.11    5.40
  -7  -1  16    4.71    5.47
  -7   1  15  228.55   21.87
  -7  -1  15  241.23   22.56
  -7   1  14    7.28    5.41
  -7  -1  14    7.76    5.90
  -7   1  13   -1.23    4.21
  -7  -1  13    9.82    6.17
  -7   1  12    2.31    4.04
  -7  -1  12   10.25    5.04
  -7   1  11  199.48   19.33
  -7  -1  11  203.68   19.74
  -7  -1  10    2.73    3.80
  -7   1  10    3.86    3.39
  -7  -1   9   12.09    5.52
  -7   1   9    8.68    4.12
  -7   1   8   97.02   12.73
  -7  -1   8   91.90   12.65
  -7   1   7  401.44   26.35
  -7  -1   7  411.26   26.67
  -7   1   6   69.68   10.51
  -7  -1   6   84.70   12.11
  -7   1   5  145.45   15.53
  -7  -1   5  142.50   15.41
  -7  -1   4  109.58   13.78
  -7   1   4  102.17   13.28
  -7  -1   3  556.97   30.07
  -7   1   3  527.04   29.14
  -7   1   2   30.00    7.60
  -7  -1   2   16.37    5.30
  -7   1   1  127.72   14.29
  -7  -1   1  123.66   13.75
  -7   1   0    9.29    3.96
  -7  -1   0   12.70    5.39
   7  -1   0   11.32    2.97
   7   1   0    9.25    2.57
   7  -1   1  252.39   15.42
   7   1   1  228.82   13.84
  -7   1  -1  254.25   18.59
  -7  -1  -1  263.69   18.84
   7  -1   2  131.59   11.53
  -7   1  -2  119.53   12.73
   7   1   2  126.93   11.07
  -7  -1  -2  138.37   13.25
  -7   1  -3   10.74    3.61
  -7  -1  -3    8.58    3.37
   7  -1   3   13.36    4.11
   7   1   3    8.04    2.75
  -7   1  -4   62.56    9.34
  -7  -1  -4   58.49    8.58
   7  -1   4   50.09    7.86
   7   1   4   55.39    7.41
  -7   1  -5  411.81   23.38
  -7  -1  -5  397.40   21.84
   7  -1   5  396.96   23.15
   7   1   5  387.47   22.21
   7  -1   6   14.56    5.13
   7   1   6    8.77    3.24
  -7   1  -6   13.08    4.04
  -7  -1  -6   11.90    4.36
  -7   1  -7   89.14   10.83
  -7  -1  -7   80.58   10.00
   7  -1   7   75.84   10.94
   7   1   7   72.89   10.47
   7  -1   8   11.69    4.45
  -7   1  -8   14.45    4.57
  -7  -1  -8   17.87    5.15
   7   1   8    5.45    2.57
  -7   1  -9  102.21   12.35
  -7  -1  -9  100.92   11.59
   7  -1   9   98.78   13.34
   7   1   9   91.37   12.96
  -7  -1 -10    5.03    2.56
  -7   1 -10    5.08    3.78
   7  -1  10   11.04    5.03
   7   1  10   10.92    4.76
  -7   1 -11    1.77    2.35
   7  -1  11   -1.85    4.18
   7   1  11   -3.13    4.29
   7  -1  12    8.62    4.37
   7   1  12   -4.27    5.27
   7  -1  13   64.10   13.00
   7   1  13   53.67   11.17
   7  -1  14   -1.62    5.28
   7   1  14   -4.48    4.73
   7  -1  15   -4.10    5.38
   7   1  15   -7.20    6.67
   7  -1  16   -8.13    6.63
   7   1  16   -7.50    6.28
  -7  -2  23   16.09    7.22
  -7  -2  22   34.33    9.50
  -7   2  21  140.74   18.21
  -7  -2  21  161.65   19.99
  -7   2  20   29.50    8.42
  -7  -2  20   28.77    8.91
  -7   2  19   -2.29    2.61
  -7  -2  19    0.49    3.46
  -7   2  18   25.78    8.04
  -7  -2  18   29.29    8.68
  -7   2  17   98.94   14.74
  -7  -2  17   89.69   14.77
  -7   2  16   81.51   13.08
  -7  -2  16   88.51   13.84
  -7   2  15   -3.59    4.48
  -7  -2  15   -1.15    3.50
  -7   2  14   35.68    8.55
  -7  -2  14   38.37    9.72
  -7   2  13  205.44   20.16
  -7  -2  13  204.90   21.12
  -7  -2  12   39.62    9.50
  -7   2  12   40.32    9.64
  -7  -2  11   -1.78    3.86
  -7   2  11    2.52    2.71
  -7   2  10  242.76   21.05
  -7  -2  10  245.84   21.26
  -7  -2   9   26.35    7.75
  -7   2   9   20.96    6.76
  -7   2   8  327.19   23.90
  -7  -2   8  303.01   22.86
  -7  -2   7   36.81    8.05
  -7   2   7   35.20    7.88
  -7   2   6   43.59    8.52
  -7  -2   6   52.81    9.79
  -7  -2   5  368.84   24.93
  -7   2   5  348.48   24.00
  -7  -2   4  319.09   23.41
  -7   2   4  292.36   21.87
  -7   2   3   46.15    9.58
  -7  -2   3   42.48    9.17
  -7   2   2    8.65    4.63
  -7  -2   2    7.44    3.11
  -7   2   1  170.82   15.97
  -7  -2   1  191.43   17.40
  -7   2   0  124.22   13.50
  -7  -2   0  147.35   14.67
  -7   2  -1    2.73    2.55
  -7  -2  -1   -1.10    2.38
  -7   2  -2   44.90    7.97
  -7  -2  -2   44.39    7.39
   7  -2   2   46.40    7.19
  -7   2  -3  128.99   13.42
   7  -2   3  128.48   12.34
  -7  -2  -3  124.65   12.02
  -7   2  -4  500.78   26.18
  -7  -2  -4  490.78   23.80
   7  -2   4  536.75   26.18
   7  -2   5   -2.37    3.21
  -7   2  -5    2.50    2.43
  -7  -2  -5    5.30    2.96
   7  -2   6   12.32    4.51
  -7   2  -6   20.35    5.55
  -7  -2  -6   13.85    4.56
  -7  -2  -7   56.86    8.56
   7  -2   7   57.12    9.67
  -7   2  -7   58.60    9.23
  -7   2  -8  334.61   22.22
  -7  -2  -8  324.96   19.90
   7  -2   8  320.08   23.92
  -7   2  -9    3.42    3.38
  -7  -2  -9   -0.46    1.72
   7  -2   9    4.16    3.67
   7  -2  10   -0.61    3.45
  -7   2 -10    0.82    2.19
   7   2  10   -3.27    3.19
  -7   2 -11   19.72    5.82
   7  -2  11   25.11    8.79
   7   2  11   22.31    7.38
  -7   2 -12   32.33    7.82
   7  -2  12   32.06    9.21
   7   2  12   24.99    7.07
   7  -2  13   -5.10    4.76
   7   2  13   -3.85    4.44
   7  -2  14   20.89    8.27
   7   2  14   12.10    4.39
   7  -2  15   36.52   10.98
   7   2  15   25.10    8.78
   7  -2  16   20.54    8.43
   7   2  16   16.09    7.63
  -7  -3  23   48.96   11.85
  -7  -3  22   35.97    9.94
  -7   3  21   11.80    6.02
  -7  -3  21   15.51    6.50
  -7   3  20   41.53   10.26
  -7  -3  20   40.04   10.34
  -7   3  19    2.99    2.85
  -7  -3  19    9.29    5.54
  -7  -3  18   73.87   13.39
  -7   3  18   62.51   11.54
  -7  -3  17    8.02    5.15
  -7   3  17   13.83    5.63
  -7  -3  16   -0.91    3.36
  -7   3  16    1.99    3.78
  -7  -3  15   43.46   10.64
  -7   3  15   40.09    9.54
  -7   3  14  129.61   16.38
  -7  -3  14  129.83   17.31
  -7  -3  13    2.05    3.97
  -7   3  13    2.22    4.12
  -7  -3  12   60.97   11.09
  -7   3  12   71.26   12.55
  -7   3  11  106.33   14.29
  -7  -3  11  103.06   14.50
  -7   3  10  313.54   24.17
  -7  -3  10  326.56   24.46
  -7  -3   9   49.71    9.42
  -7   3   9   53.83   10.55
  -7  -3   8   13.16    5.35
  -7   3   8   14.72    5.13
  -7  -3   7  764.72   35.72
  -7   3   7  785.39   36.69
  -7  -3   6  176.99   17.69
  -7   3   6  181.23   17.67
  -7   3   5   14.15    3.87
  -7  -3   5   21.05    6.36
  -7   3   4   14.58    6.09
  -7  -3   4   13.99    6.16
  -7  -3   3  185.01   17.93
  -7   3   3  175.55   17.00
  -7  -3   2  158.79   17.17
  -7   3   2  161.60   15.98
  -7   3   1    3.92    2.63
  -7  -3   1    5.68    2.78
  -7   3   0   42.59    8.26
  -7  -3   0   46.73    8.12
  -7   3  -1  107.38   12.45
  -7  -3  -1  113.31   12.40
  -7   3  -2  149.46   14.74
  -7  -3  -2  147.03   13.59
  -7  -3  -3   -0.91    2.36
  -7   3  -3    3.05    2.71
  -7   3  -4   86.18   11.18
  -7  -3  -4   72.49    8.81
  -7   3  -5  247.26   18.77
  -7  -3  -5  226.04   15.73
  -7   3  -6  164.27   15.63
  -7  -3  -6  163.04   13.38
   7  -3   6  165.76   16.51
   7  -3   7   58.71   10.08
  -7   3  -7   63.02    9.79
  -7  -3  -7   55.27    7.85
   7  -3   8   12.94    5.51
  -7   3  -8   26.33    6.69
  -7   3  -9   12.25    4.69
   7  -3   9    2.73    3.37
  -7   3 -10  128.12   14.58
   7  -3  10  130.56   16.58
  -7   3 -11   -3.56    3.44
   7  -3  11    3.53    3.72
  -7   3 -12    1.47    3.10
   7  -3  12    7.49    4.91
  -7   3 -13    9.63    4.28
   7  -3  13   11.46    6.41
   7   3  13   16.65    7.60
   7  -3  14   20.78    8.97
   7   3  14    6.40    5.30
   7  -3  15   11.16    7.31
   7   3  15    0.23    3.46
   7  -3  16    2.46    5.06
   7   3  16   -0.03    4.30
  -7  -4  23   -2.72    4.63
  -7  -4  22   10.97    6.75
  -7  -4  21  201.58   23.00
  -7  -4  20   74.01   13.93
  -7   4  20   89.04   15.29
  -7  -4  19   18.88    6.86
  -7   4  19   30.40    8.58
  -7  -4  18    3.50    4.40
  -7   4  18    0.47    3.46
  -7   4  17  249.73   23.87
  -7  -4  17  242.83   25.00
  -7  -4  16   50.41   12.05
  -7   4  16   45.41   10.21
  -7  -4  15   47.85   11.13
  -7   4  15   43.08    9.92
  -7  -4  14   -2.32    5.35
  -7   4  14   -2.71    3.52
  -7   4  13  269.60   23.59
  -7  -4  13  307.35   26.36
  -7  -4  12    4.54    4.73
  -7   4  12    5.22    3.46
  -7  -4  11   20.01    6.99
  -7   4  11   20.82    6.51
  -7   4  10  423.04   28.12
  -7  -4  10  417.86   29.22
  -7   4   9  719.05   36.20
  -7  -4   9  685.76   36.13
  -7  -4   8   74.09   11.96
  -7   4   8   72.97   11.35
  -7  -4   7   36.56    8.33
  -7   4   7   35.91    8.38
  -7  -4   6   55.61    9.82
  -7   4   6   62.78   10.30
  -7  -4   5   92.99   12.63
  -7   4   5   88.77   12.54
  -7   4   4   25.01    7.04
  -7  -4   4   21.46    6.86
  -7   4   3    8.34    4.56
  -7  -4   3    7.73    4.61
  -7   4   2   63.42   10.00
  -7  -4   2   74.19   11.29
  -7   4   1   37.50    7.84
  -7  -4   1   36.24    7.70
  -7   4   0   25.20    6.23
  -7  -4   0   26.08    6.53
  -7   4  -1   19.46    5.45
  -7  -4  -1   24.33    5.60
  -7  -4  -2    7.39    3.35
  -7   4  -2    6.51    3.40
  -7   4  -3  311.58   21.34
  -7  -4  -3  290.34   18.03
  -7  -4  -4    5.51    2.02
  -7   4  -4    7.96    4.37
  -7   4  -5   33.71    7.09
  -7  -4  -5   26.84    5.10
  -7   4  -6   -0.99    2.46
  -7  -4  -6   -2.02    1.98
  -7   4  -7  213.52   18.48
  -7   4  -8    5.30    2.90
  -7   4  -9   -0.83    3.20
  -7   4 -10    2.10    3.52
  -7   4 -11   57.92   10.30
  -7   4 -12   -0.03    3.95
  -7   4 -13   -2.19    4.26
   7   4  15   16.22    6.35
   7   4  16   -9.00    6.97
  -7  -5  22  132.89   19.04
  -7  -5  21    9.92    6.94
  -7  -5  20   89.31   16.33
  -7  -5  19   -1.55    4.84
  -7   5  19    2.61    3.40
  -7   5  18  249.72   24.12
  -7  -5  18  253.46   26.86
  -7  -5  17   -2.48    6.28
  -7   5  17    3.70    4.91
  -7  -5  16   13.35    6.58
  -7   5  16   23.15    7.50
  -7  -5  15   -5.40    5.31
  -7   5  15    2.19    4.33
  -7   5  14  285.52   25.00
  -7  -5  14  263.36   26.03
  -7  -5  13    1.55    4.14
  -7   5  13   -0.68    2.83
  -7  -5  12   82.75   13.65
  -7   5  12   73.48   12.38
  -7  -5  11   33.18    8.52
  -7   5  11   27.71    7.71
  -7  -5  10  270.12   24.10
  -7   5  10  257.55   22.28
  -7  -5   9  131.87   16.42
  -7   5   9  121.39   15.34
  -7  -5   8   70.72   12.33
  -7   5   8   83.65   12.10
  -7  -5   7   17.94    6.72
  -7   5   7   32.95    7.65
  -7  -5   6  294.50   22.02
  -7   5   6  321.69   23.61
  -7  -5   5    8.57    4.30
  -7   5   5   13.87    5.66
  -7   5   4    5.75    4.48
  -7  -5   4    4.94    3.82
  -7   5   3    1.36    2.15
  -7  -5   3    1.14    3.50
  -7  -5   2  125.28   15.02
  -7   5   2  116.87   13.29
  -7   5   1   43.20    8.20
  -7  -5   1   42.17    9.17
  -7   5   0   29.71    6.35
  -7  -5   0   22.92    6.10
  -7  -5  -1   41.43    7.77
  -7   5  -1   48.73    8.50
  -7  -5  -2   49.95    7.64
  -7   5  -2   51.76    8.79
  -7  -5  -3   46.70    7.44
  -7   5  -3   52.57    8.96
  -7   5  -4  140.21   14.69
  -7  -5  -4  121.51   11.27
  -7  -5  -5    0.59    1.73
  -7   5  -5    1.41    3.15
  -7   5  -6  153.22   15.91
  -7   5  -7    3.45    3.57
  -7   5  -8   34.42    7.65
  -7   5  -9   67.40   11.03
  -7   5 -10   82.89   12.56
  -7   5 -11    7.68    4.06
  -7   5 -12   18.29    6.79
  -7   5 -13    4.11    4.10
  -7  -6  22    8.99    5.65
  -7  -6  21  135.65   20.25
  -7  -6  20   19.66    7.31
  -7  -6  19    5.10    5.16
  -7  -6  18   20.04    7.01
  -7   6  18   27.78    9.29
  -7   6  17  121.45   17.13
  -7  -6  17  113.82   18.33
  -7  -6  16   12.24    6.24
  -7   6  16   22.58    7.80
  -7  -6  15  106.49   17.10
  -7   6  15   99.60   14.55
  -7  -6  14   44.18   11.12
  -7   6  14   40.29    9.99
  -7  -6  13  285.88   27.60
  -7   6  13  273.73   24.10
  -7  -6  12   -4.37    5.57
  -7   6  12   -0.28    2.62
  -7  -6  11   35.35    9.35
  -7   6  11   45.18    9.44
  -7  -6  10   36.97    8.60
  -7   6  10   33.72    8.18
  -7  -6   9   53.20   11.02
  -7   6   9   54.43   10.73
  -7  -6   8    3.81    4.95
  -7   6   8    6.40    4.00
  -7  -6   7  230.96   20.94
  -7   6   7  263.26   21.93
  -7  -6   6   22.00    7.39
  -7   6   6   27.70    7.82
  -7  -6   5  424.93   27.13
  -7   6   5  452.68   27.59
  -7  -6   4  107.55   13.90
  -7   6   4   99.46   12.84
  -7   6   3   42.64    8.42
  -7  -6   3   42.73    9.40
  -7   6   2    9.98    4.08
  -7  -6   2    6.76    4.59
  -7   6   1   30.47    6.88
  -7  -6   1   32.38    7.89
  -7  -6   0   17.72    4.65
  -7   6   0   20.69    5.89
  -7  -6  -1   -2.86    3.57
  -7   6  -1   -1.67    3.27
  -7  -6  -2   12.25    4.12
  -7   6  -2   10.42    4.03
  -7   6  -3  201.21   18.13
  -7  -6  -3  177.84   13.75
  -7   6  -4   42.37    8.46
  -7   6  -5    0.09    2.39
  -7   6  -6    1.68    2.75
  -7   6  -7  275.86   21.80
  -7   6  -8   48.13    9.37
  -7   6  -9   60.83   10.72
  -7   6 -10    6.30    3.96
  -7   6 -11   49.09    9.82
  -7   6 -12    2.26    3.94
  -7   6 -13   -4.67    3.75
  -7  -7  22    0.77    4.54
  -7  -7  21   19.68    7.93
  -7  -7  20   49.75   13.07
  -7  -7  19    8.12    5.28
  -7  -7  18   28.46    9.31
  -7  -7  17   -2.60    6.08
  -7   7  17    1.03    3.50
  -7   7  16    5.85    3.66
  -7  -7  16   -5.30    6.28
  -7   7  15    4.57    2.99
  -7  -7  15  -15.06    9.01
  -7   7  14   65.78   12.03
  -7  -7  14   74.29   15.39
  -7   7  13   22.05    5.44
  -7  -7  13   24.32    9.10
  -7   7  12   77.77   12.49
  -7  -7  12   80.43   14.69
  -7  -7  11  113.87   16.68
  -7   7  11  121.15   15.95
  -7   7  10   40.23    9.09
  -7  -7  10   29.08    9.31
  -7   7   9    3.76    5.12
  -7  -7   9    2.64    3.05
  -7   7   8    2.51    3.24
  -7  -7   8    1.32    3.48
  -7  -7   7   58.56   10.33
  -7   7   7   69.82   11.62
  -7  -7   6  392.86   26.52
  -7   7   6  423.16   26.97
  -7  -7   5   14.17    5.78
  -7   7   5   13.52    4.98
  -7  -7   4    5.85    4.84
  -7   7   4    0.88    2.55
  -7  -7   3   99.63   13.68
  -7   7   3  103.90   13.00
  -7   7   2   23.28    6.25
  -7  -7   2   23.89    7.90
  -7  -7   1   10.89    4.62
  -7   7   1    8.67    4.03
  -7  -7   0   69.47   10.37
  -7   7   0   71.31   10.75
  -7   7  -1  185.45   17.25
  -7  -7  -1  163.94   14.73
  -7   7  -2  152.62   15.68
  -7  -7  -2  159.10   13.42
  -7   7  -3   69.10   10.59
  -7   7  -4  126.95   14.77
  -7   7  -5   45.23    9.24
  -7   7  -6  129.81   14.87
  -7   7  -7   11.36    5.15
  -7   7  -8    4.06    2.92
  -7   7  -9   24.74    6.83
  -7   7 -10   79.61   12.62
  -7   7 -11    2.22    2.69
  -7   7 -12   11.39    5.56
  -7   7 -13   17.78    7.14
  -7  -8  21    5.27    4.34
  -7  -8  20   31.97    9.89
  -7  -8  19   -7.25    6.41
  -7  -8  18   11.91    8.39
  -7  -8  17   54.84   13.56
  -7   8  16   29.54    8.14
  -7  -8  16   40.29   11.98
  -7   8  15   -2.53    4.09
  -7  -8  15   -5.03    7.74
  -7   8  14   11.05    5.98
  -7  -8  14    9.77    7.09
  -7   8  13   74.43   13.22
  -7  -8  13   54.21   13.07
  -7   8  12   37.74    8.78
  -7  -8  12   45.47   12.63
  -7   8  11    6.45    4.81
  -7  -8  11    0.56    4.35
  -7   8  10   62.51   11.90
  -7  -8  10   49.69   10.21
  -7   8   9    8.90    5.01
  -7  -8   9   12.18    6.15
  -7  -8   8  106.01   15.34
  -7   8   8  104.83   13.77
  -7   8   7   -1.76    2.70
  -7  -8   7    4.40    3.57
  -7   8   6    3.31    2.63
  -7  -8   6    2.68    2.71
  -7   8   5   79.85   11.62
  -7  -8   5   62.09   10.94
  -7  -8   4  187.01   17.95
  -7   8   4  218.66   19.13
  -7  -8   3    3.70    2.73
  -7   8   3    1.66    2.44
  -7  -8   2   37.95    8.36
  -7   8   2   37.82    7.61
  -7  -8   1   99.42   12.47
  -7   8   1   82.68   11.62
  -7  -8   0  211.11   17.50
  -7   8   0  206.45   18.44
  -7  -8  -1    6.30    3.29
  -7   8  -1   12.18    4.51
  -7   8  -2    6.40    3.99
  -7   8  -3   34.87    7.83
  -7   8  -4  138.36   15.62
  -7   8  -5   19.91    5.91
  -7   8  -6   16.77    5.58
  -7   8  -7   14.65    5.90
  -7   8  -8   65.84   11.10
  -7   8  -9   -0.71    2.95
  -7   8 -10    4.51    2.34
  -7   8 -11    7.89    4.08
  -7   8 -12   13.13    5.89
  -7   8 -13   -3.58    5.40
  -7  -9  21   15.78    7.78
  -7  -9  20    3.99    5.26
  -7  -9  19  111.98   18.97
  -7  -9  18    5.36    5.50
  -7  -9  17   -6.05    8.15
  -7  -9  16   13.60    7.93
  -7  -9  15  148.03   23.09
  -7   9  15  136.11   16.98
  -7   9  14   -2.61    4.61
  -7  -9  14   -3.29    6.44
  -7   9  13    8.04    4.22
  -7  -9  13    8.67    5.39
  -7   9  12    0.74    3.78
  -7  -9  12    6.32    5.11
  -7   9  11  173.82   18.46
  -7  -9  11  183.34   24.49
  -7   9  10    6.71    4.38
  -7  -9  10   -1.81    7.01
  -7   9   9    3.00    3.14
  -7  -9   9    1.61    3.23
  -7   9   8    4.07    3.25
  -7  -9   8    4.51    4.33
  -7  -9   7  205.86   20.39
  -7   9   7  220.65   19.88
  -7   9   6    5.85    3.70
  -7  -9   6    7.06    3.57
  -7   9   5   32.88    7.81
  -7  -9   5   31.51    7.82
  -7  -9   4  123.16   14.79
  -7   9   4  135.74   15.58
  -7  -9   3  181.09   17.29
  -7   9   3  192.11   18.10
  -7   9   2   26.61    6.56
  -7  -9   2   21.44    6.15
  -7  -9   1    6.87    3.42
  -7   9   1    4.63    2.56
  -7   9   0   -0.02    2.26
  -7   9  -1  104.18   13.59
  -7   9  -2   17.43    5.45
  -7   9  -3   -5.95    5.07
  -7   9  -4    2.95    3.42
  -7   9  -5   68.14   11.10
  -7   9  -6   12.68    5.21
  -7   9  -7    5.42    3.71
  -7   9  -8    3.04    2.83
  -7   9  -9   31.69    8.31
  -7   9 -10    6.43    3.92
  -7   9 -11    6.94    4.66
  -7   9 -12    4.82    3.89
  -7   9 -13    8.26    4.91
  -7 -10  20   86.64   18.80
  -7 -10  19    6.88    7.02
  -7 -10  18   39.06   13.25
  -7 -10  17   25.34   10.25
  -7 -10  16   69.84   16.92
  -7 -10  15   61.99   16.39
  -7  10  14    0.57    2.80
  -7 -10  14   -7.82    9.10
  -7  10  13   26.09    6.79
  -7 -10  13   33.01   10.40
  -7  10  12  233.30   21.09
  -7 -10  12  325.22   33.42
  -7  10  11    5.83    4.51
  -7 -10  11   -0.85    5.92
  -7  10  10   53.25    9.94
  -7 -10  10   55.18   11.66
  -7  10   9    7.99    4.12
  -7 -10   9   -1.71    5.06
  -7 -10   8   85.51   14.47
  -7  10   8  105.93   14.08
  -7  10   7    0.22    2.39
  -7 -10   7    6.43    4.75
  -7 -10   6  167.87   17.92
  -7  10   6  191.68   18.08
  -7 -10   5    1.33    2.43
  -7  10   5   -0.52    3.54
  -7 -10   4  111.95   14.20
  -7  10   4  129.42   14.98
  -7 -10   3   35.25    8.14
  -7  10   3   36.97    8.17
  -7  10   2   49.95    9.46
  -7 -10   2   53.27    9.58
  -7  10   1   71.85   11.14
  -7  10   0  104.98   13.77
  -7  10  -1    3.08    3.97
  -7  10  -2    8.95    4.78
  -7  10  -3   -2.11    3.30
  -7  10  -4   22.68    6.12
  -7  10  -5   36.72    8.41
  -7  10  -6   51.91   10.37
  -7  10  -7   -1.72    3.73
  -7  10  -8   20.00    6.76
  -7  10  -9   -0.64    2.84
  -7  10 -10   -1.64    2.75
  -7  10 -11   -2.86    3.95
  -7  10 -12    9.35    5.68
  -7  10 -13    3.22    4.91
  -7 -11  19   39.64   14.67
  -7 -11  18    8.12    9.06
  -7 -11  17  -15.28   10.97
  -7 -11  16   10.80    9.80
  -7 -11  15   47.14   14.57
  -7 -11  14   47.37   13.76
  -7  11  13   44.15    9.18
  -7 -11  13   64.44   17.34
  -7  11  12   24.83    6.96
  -7 -11  12   12.53    5.98
  -7  11  11  197.56   19.01
  -7 -11  11  218.64   27.67
  -7  11  10    0.76    3.17
  -7 -11  10    4.76    4.93
  -7  11   9   -2.68    3.01
  -7 -11   9    2.96    3.66
  -7  11   8   26.10    6.43
  -7 -11   8   27.42    8.60
  -7  11   7  150.50   16.60
  -7 -11   7  131.78   17.02
  -7 -11   6    4.22    3.79
  -7  11   6   -1.34    3.49
  -7 -11   5   -1.17    3.59
  -7  11   5    3.42    2.35
  -7 -11   4    1.17    3.05
  -7  11   4    3.54    3.85
  -7  11   3   55.05    9.79
  -7  11   2  107.64   14.39
  -7  11   1    6.61    4.19
  -7  11   0   25.72    6.54
  -7  11  -1  160.22   17.32
  -7  11  -2    1.36    2.88
  -7  11  -3   33.55    8.31
  -7  11  -4   60.77   11.06
  -7  11  -5   10.38    5.18
  -7  11  -6   90.11   13.75
  -7  11  -7   -0.14    3.02
  -7  11  -8   74.11   13.03
  -7  11  -9   58.66   11.66
  -7  11 -10    0.06    3.47
  -7  11 -11   -6.32    4.41
  -7  11 -12    0.23    2.49
  -7 -12  17   53.40   16.85
  -7 -12  16    2.11    9.32
  -7 -12  15   14.57    8.76
  -7 -12  14   87.39   19.77
  -7 -12  13    3.04    6.44
  -7 -12  12   87.33   17.52
  -7  12  11   -2.20    3.42
  -7 -12  11   -2.73    6.86
  -7  12  10    8.30    4.93
  -7 -12  10    3.52    6.16
  -7 -12   9   73.18   15.26
  -7  12   9   72.30   11.54
  -7 -12   8   77.30   14.33
  -7  12   8   83.12   12.15
  -7 -12   7    3.74    3.74
  -7  12   7    6.32    3.82
  -7 -12   6   24.53    7.58
  -7  12   6   36.09    8.22
  -7  12   5   20.88    5.86
  -7  12   4   81.48   12.13
  -7  12   3   18.55    5.18
  -7  12   2   47.60    9.31
  -7  12   1   86.46   12.90
  -7  12   0    9.65    4.59
  -7  12  -1   -0.64    4.29
  -7  12  -2   64.72   10.98
  -7  12  -3   16.91    6.98
  -7  12  -4   10.59    4.55
  -7  12  -5   82.67   13.31
  -7  12  -6   25.18    7.75
  -7  12  -7  134.01   17.18
  -7  12  -8    4.98    4.91
  -7  12  -9   -0.76    4.17
  -7  12 -10    4.46    4.47
  -7  12 -11   19.16    8.14
  -7 -13  14  145.65   26.58
  -7 -13  13    1.29    9.76
  -7 -13  12   -4.94    8.62
  -7 -13  11   17.07    7.02
  -7 -13  10   86.20   17.38
  -7  13   9   11.06    5.82
  -7  13   8    2.70    3.95
  -7  13   7   38.83    8.57
  -7  13   6   41.76    8.98
  -7  13   5   -0.69    2.59
  -7  13   4    4.54    2.75
  -7  13   3   18.36    6.85
  -7  13   2  100.49   13.97
  -7  13   1   -2.38    3.60
  -7  13   0   14.59    4.84
  -7  13  -1   18.08    6.35
  -7  13  -2   23.12    6.87
  -7  13  -3    8.87    4.31
  -7  13  -4    8.37    3.96
  -7  13  -5   12.21    5.91
  -7  13  -6  100.37   15.18
  -7  13  -7    0.80    3.20
  -7  13  -8    5.82    4.99
  -7  13  -9   -2.95    4.82
  -7  13 -10   27.58    8.60
  -7  14   7   14.99    6.01
  -7  14   6    6.46    3.68
  -7  14   5   71.44   11.67
  -7  14   4    4.53    4.06
  -7  14   3   11.62    5.28
  -7  14   2    0.68    2.64
  -7  14   1   58.16   11.18
  -7  14   0    1.27    3.65
  -7  14  -1    3.51    3.68
  -7  14  -2    2.17    2.98
  -7  14  -3   46.87   10.58
  -7  14  -4   -4.33    3.70
  -7  14  -5    3.88    3.64
  -7  14  -6   -3.82    5.14
  -7  14  -7   74.54   13.44
  -7  14  -8    1.19    3.35
  -7  14  -9    1.54    4.90
  -7  15   4    0.99    2.47
  -7  15   3   12.42    6.10
  -7  15   2   42.68    9.58
  -7  15   1    2.33    3.79
  -7  15   0   57.90   11.51
  -7  15  -1    8.69    5.27
  -7  15  -2   10.51    5.42
  -7  15  -3    5.80    4.61
  -7  15  -4   19.17    6.67
  -7  15  -5    9.08    5.05
  -7  15  -6   36.26   10.35
  -7  15  -7    5.93    4.51
  -7  16  -1   -3.86    5.10
  -7  16  -2   48.31   11.09
  -8   0  21    3.35    3.57
  -8   0  20   47.47   11.11
  -8   0  19   -1.39    3.53
  -8   0  18   68.13   13.82
  -8   0  17    5.56    4.20
  -8   0  16  112.28   16.58
  -8   0  15   -1.97    4.12
  -8   0  14   14.93    5.91
  -8   0  13    0.45    3.43
  -8   0  12  123.80   16.79
  -8   0  11    0.62    3.97
  -8   0  10  420.36   29.62
  -8   0   9    3.05    3.63
  -8   0   8    5.14    4.64
  -8   0   7    4.88    3.87
  -8   0   6  139.85   16.29
  -8   0   5   -4.25    4.71
  -8   0   4  463.71   30.12
  -8   0   3   -5.39    5.54
  -8   0   2   36.68    9.24
  -8   0   1    0.12    4.57
  -8   0   0  267.77   21.46
  -8   0  -1    2.91    3.18
  -8   0  -2  289.46   20.99
  -8   0  -3   -3.29    3.32
   8   0   3   -3.00    3.43
  -8   0  -4  208.70   17.22
   8   0   4  177.09   15.21
   8   0   5    1.42    1.96
  -8   0  -5    2.57    2.51
   8   0   6   43.80    8.31
  -8   0  -6   51.67    8.69
   8   0   7   -0.88    2.53
  -8   0  -7    0.81    2.00
  -8   0  -8   92.07   11.78
   8   0   8   71.69   11.20
  -8   0  -9   -3.50    3.61
   8   0   9   -1.80    4.57
   8   0  10    4.40    3.39
   8   0  11   -4.81    4.31
   8   0  12   76.12   13.43
  -8  -1  22   50.60   12.54
  -8   1  21  149.90   19.61
  -8  -1  21  144.24   19.23
  -8   1  20    9.62    5.64
  -8  -1  20   16.94    7.11
  -8   1  19    4.56    4.47
  -8  -1  19    5.65    5.09
  -8   1  18   26.20    8.83
  -8  -1  18   34.23    9.68
  -8   1  17   62.11   12.32
  -8  -1  17   63.40   12.44
  -8  -1  16   59.81   12.45
  -8   1  16   43.09    9.75
  -8  -1  15    1.41    4.32
  -8   1  15    1.26    2.87
  -8  -1  14   23.81    7.68
  -8   1  14   19.31    7.36
  -8   1  13  279.13   25.09
  -8  -1  13  257.90   24.12
  -8  -1  12   10.86    5.70
  -8   1  12    6.60    4.48
  -8   1  11    3.34    2.93
  -8  -1  11    4.49    3.94
  -8   1  10    0.27    3.21
  -8  -1  10   -0.14    3.89
  -8   1   9  238.75   21.67
  -8  -1   9  233.09   21.96
  -8   1   8   -2.66    2.73
  -8  -1   8    5.29    4.21
  -8   1   7    1.85    3.05
  -8  -1   7   -3.75    4.11
  -8  -1   6  141.19   16.74
  -8   1   6  131.39   16.02
  -8  -1   5  118.77   15.09
  -8   1   5  105.16   14.19
  -8   1   4   63.46   11.43
  -8  -1   4   59.39   11.54
  -8   1   3   17.20    7.19
  -8  -1   3   11.21    4.62
  -8   1   2  110.94   14.74
  -8  -1   2  102.29   14.16
  -8   1   1  158.30   17.41
  -8  -1   1  170.52   18.14
  -8   1   0    9.50    4.55
  -8  -1   0   13.03    5.83
  -8   1  -1   -1.30    2.71
  -8  -1  -1   -1.05    2.72
  -8   1  -2   20.95    5.85
  -8  -1  -2   19.35    5.53
  -8   1  -3  210.29   17.81
  -8  -1  -3  218.23   17.49
   8  -1   3  200.14   15.85
   8   1   3  186.59   14.70
   8  -1   4   -0.45    3.07
   8   1   4   -3.16    3.05
  -8   1  -4   -0.22    3.38
  -8  -1  -4   -1.96    3.19
   8  -1   5    1.63    2.05
   8   1   5   -0.81    2.95
  -8   1  -5    0.08    2.48
  -8  -1  -5    0.45    2.37
   8  -1   6   -0.36    2.65
   8   1   6    0.34    2.83
  -8   1  -6   -0.40    2.50
  -8  -1  -6    2.89    3.19
   8  -1   7   18.92    6.47
   8   1   7    7.13    4.36
  -8   1  -7   12.95    4.64
  -8  -1  -7   12.84    4.57
   8  -1   8   -0.22    2.86
  -8   1  -8    1.16    2.32
   8   1   8   -0.88    3.84
  -8  -1  -8   -0.67    1.81
  -8   1  -9   -0.57    1.84
   8  -1   9   -3.01    4.17
   8   1   9   -2.57    3.96
   8  -1  10   -1.56    3.72
   8   1  10    1.20    2.71
   8  -1  11   35.52    9.13
   8   1  11   33.61    8.66
   8  -1  12   -3.32    3.30
   8   1  12   -0.18    4.18
  -8  -2  22    3.37    3.95
  -8  -2  21    3.65    4.28
  -8   2  21    0.32    4.21
  -8  -2  20   -4.45    5.62
  -8   2  20    1.70    3.95
  -8  -2  19   31.17    8.83
  -8   2  19   30.94    8.87
  -8  -2  18   86.99   15.05
  -8   2  18   80.76   14.53
  -8  -2  17    5.12    5.36
  -8   2  17   -2.89    5.54
  -8  -2  16   -0.68    4.75
  -8   2  16   -4.96    3.96
  -8  -2  15   71.76   13.85
  -8   2  15   80.52   13.85
  -8  -2  14    8.66    6.68
  -8   2  14    5.43    3.00
  -8  -2  13   30.09    9.58
  -8   2  13   22.18    7.81
  -8   2  12  113.07   15.59
  -8  -2  12  112.81   16.28
  -8   2  11  161.24   18.71
  -8  -2  11  165.62   19.15
  -8   2  10  132.83   16.75
  -8  -2  10  112.37   15.80
  -8   2   9   41.43    8.93
  -8  -2   9   50.15   10.93
  -8   2   8  114.64   14.65
  -8  -2   8  111.17   15.06
  -8   2   7    6.71    2.84
  -8  -2   7   12.64    5.96
  -8  -2   6   97.23   14.04
  -8   2   6   91.48   13.14
  -8   2   5    0.45    2.81
  -8  -2   5   -0.65    4.25
  -8  -2   4  150.41   17.24
  -8   2   4  174.43   18.30
  -8   2   3  171.66   17.84
  -8  -2   3  179.42   19.01
  -8   2   2   45.81    9.19
  -8  -2   2   44.27    9.78
  -8   2   1   -0.19    3.51
  -8  -2   1   -0.30    3.65
  -8   2   0   55.19    9.96
  -8  -2   0   64.32   10.56
  -8   2  -1  164.43   16.70
  -8  -2  -1  165.40   16.09
  -8   2  -2  103.39   13.01
  -8  -2  -2  108.05   12.67
  -8  -2  -3   23.33    5.61
   8   2   3   21.93    4.98
  -8   2  -3   22.72    6.08
  -8  -2  -4   58.36    8.77
   8  -2   4   50.79    8.45
   8   2   4   51.42    7.84
  -8   2  -4   61.47    9.57
  -8   2  -5  106.60   12.78
  -8  -2  -5   97.33   11.23
   8  -2   5  106.03   12.84
   8   2   5   83.99   10.84
   8  -2   6   15.63    5.51
   8   2   6    6.09    2.08
  -8   2  -6   13.75    4.69
  -8  -2  -6   15.84    5.06
   8  -2   7    1.86    3.40
   8   2   7    0.13    2.63
  -8   2  -7   -0.30    3.11
  -8  -2  -7   -0.21    2.25
   8  -2   8   46.23    9.68
  -8   2  -8   47.59    8.94
   8   2   8   42.55    8.76
  -8   2  -9   12.63    5.10
   8  -2   9   10.00    4.89
   8   2   9   11.09    4.93
  -8   2 -10   41.27    8.65
   8  -2  10   42.34    9.88
   8   2  10   27.34    8.07
   8  -2  11   -2.10    4.83
   8   2  11    2.34    2.46
   8   2  12    2.96    2.49
  -8  -3  22   17.75    7.59
  -8  -3  21   10.14    6.29
  -8  -3  20   -0.23    4.57
  -8   3  20    2.80    3.05
  -8  -3  19    2.02    5.81
  -8   3  19    5.88    6.21
  -8  -3  18    9.55    6.93
  -8   3  18    9.85    6.15
  -8  -3  17    4.89    4.52
  -8   3  17    7.78    4.76
  -8  -3  16    3.06    4.16
  -8   3  16    6.56    4.83
  -8  -3  15    1.12    3.82
  -8   3  15    8.12    5.28
  -8   3  14  124.67   17.10
  -8  -3  14  132.37   18.10
  -8  -3  13   62.86   13.14
  -8   3  13   58.08   11.62
  -8  -3  12   83.33   14.22
  -8   3  12   81.86   13.50
  -8  -3  11    1.48    4.90
  -8   3  11    0.92    2.76
  -8  -3  10   93.68   14.70
  -8   3  10   93.87   14.10
  -8  -3   9   61.36   11.33
  -8   3   9   65.46   11.93
  -8  -3   8  452.37   30.11
  -8   3   8  448.40   29.93
  -8   3   7   16.35    5.68
  -8  -3   7   24.30    7.37
  -8   3   6    6.35    4.32
  -8  -3   6    6.35    4.12
  -8  -3   5  133.12   16.55
  -8   3   5  133.88   16.43
  -8   3   4   27.99    7.82
  -8  -3   4   10.80    4.20
  -8   3   3    4.60    5.03
  -8  -3   3    1.88    3.13
  -8  -3   2  101.59   13.75
  -8   3   2   89.24   13.27
  -8   3   1   27.64    7.35
  -8  -3   1   24.36    6.59
  -8   3   0   61.76   10.65
  -8  -3   0   67.05   10.77
  -8   3  -1    5.11    2.05
  -8  -3  -1    7.66    4.05
  -8   3  -2  122.98   14.14
  -8  -3  -2  133.41   13.72
  -8   3  -3   83.00   11.45
  -8  -3  -3   87.82   10.79
  -8   3  -4   85.15   11.92
  -8  -3  -4   69.12    9.29
  -8   3  -5   13.65    4.85
  -8  -3  -5    9.33    3.54
  -8   3  -6   15.41    5.37
  -8  -3  -6   11.76    4.01
  -8   3  -7   15.61    5.42
  -8   3  -8   37.72    7.92
  -8   3  -9    4.61    2.72
   8   3   9    4.59    2.35
  -8   3 -10   35.32    7.91
   8   3  10   23.56    6.84
  -8   3 -11    7.52    4.27
   8   3  11    0.27    2.99
   8   3  12   13.10    6.02
  -8  -4  22    5.76    4.64
  -8  -4  21   -0.47    4.31
  -8  -4  20   -0.12    4.01
  -8  -4  19   47.74   11.82
  -8   4  19   57.02   12.62
  -8  -4  18   48.28   13.49
  -8   4  18   40.32   10.55
  -8  -4  17   34.58   10.77
  -8   4  17   44.41   10.30
  -8  -4  16    5.13    5.96
  -8   4  16    0.72    2.75
  -8   4  15  169.77   20.10
  -8  -4  15  169.70   21.85
  -8  -4  14   -2.51    4.35
  -8   4  14    1.43    5.19
  -8  -4  13    2.72    3.54
  -8   4  13   -3.67    4.36
  -8  -4  12   15.56    7.15
  -8   4  12   12.43    6.35
  -8  -4  11  157.08   18.94
  -8   4  11  160.86   18.89
  -8  -4  10   10.42    6.93
  -8   4  10    2.61    3.42
  -8  -4   9   13.45    6.58
  -8   4   9   15.61    6.18
  -8  -4   8    2.17    3.88
  -8   4   8   -3.90    2.71
  -8  -4   7  582.57   33.80
  -8   4   7  607.57   35.19
  -8   4   6   18.87    7.82
  -8  -4   6    6.75    5.64
  -8   4   5   24.28    7.98
  -8  -4   5   28.03    8.10
  -8   4   4    1.86    2.39
  -8  -4   4   -1.85    3.37
  -8  -4   3   96.00   13.92
  -8   4   3   85.00   12.86
  -8   4   2    6.31    3.78
  -8  -4   2    3.57    2.54
  -8   4   1   -1.97    4.02
  -8  -4   1    1.65    3.05
  -8   4   0   12.77    5.22
  -8  -4   0   19.99    6.41
  -8   4  -1   66.91   10.91
  -8  -4  -1   68.60   10.50
  -8   4  -2  113.03   13.78
  -8  -4  -2  124.07   13.04
  -8  -4  -3    1.52    1.95
  -8   4  -3    0.33    2.80
  -8  -4  -4    1.04    1.87
  -8   4  -4    2.64    3.60
  -8   4  -5  132.24   14.64
  -8   4  -6   -0.25    2.77
  -8   4  -7   -2.85    3.37
  -8   4  -8    4.17    2.71
  -8   4  -9   46.12    9.57
  -8   4 -10    1.55    2.51
  -8   4 -11    0.13    2.68
  -8  -5  21   35.94   11.24
  -8  -5  20  107.69   18.06
  -8  -5  19    3.54    4.57
  -8   5  19   17.29    7.49
  -8  -5  18   84.24   16.38
  -8   5  18   88.70   15.12
  -8  -5  17   42.70   11.52
  -8   5  17   46.84   12.04
  -8  -5  16   76.56   14.71
  -8   5  16   71.84   13.29
  -8  -5  15   21.94    9.04
  -8   5  15   18.66    7.14
  -8   5  14  164.49   19.68
  -8  -5  14  182.43   22.94
  -8  -5  13    5.09    6.15
  -8   5  13   -1.40    4.60
  -8  -5  12  190.83   22.14
  -8   5  12  182.22   20.26
  -8  -5  11   46.31   11.34
  -8   5  11   39.87    9.56
  -8  -5  10  295.44   25.90
  -8   5  10  313.97   25.96
  -8  -5   9  176.51   19.60
  -8   5   9  180.15   19.71
  -8  -5   8   45.94   10.39
  -8   5   8   65.29   12.46
  -8  -5   7  117.27   16.09
  -8   5   7  111.48   15.45
  -8   5   6   32.22    7.67
  -8  -5   6   35.38    8.58
  -8   5   5    4.52    4.69
  -8  -5   5    3.54    4.56
  -8   5   4   56.30   10.64
  -8  -5   4   62.79   11.64
  -8   5   3    2.06    3.57
  -8  -5   3    2.20    3.62
  -8   5   2   57.87   10.48
  -8  -5   2   60.15   10.98
  -8   5   1   12.71    5.11
  -8  -5   1   14.61    5.17
  -8   5   0   31.37    7.26
  -8  -5   0   28.54    7.18
  -8  -5  -1   14.89    5.19
  -8   5  -1   13.03    5.24
  -8  -5  -2   11.39    4.17
  -8   5  -2   21.29    5.79
  -8  -5  -3   -1.63    2.71
  -8   5  -3    4.47    3.58
  -8   5  -4   34.64    7.81
  -8   5  -5    2.32    2.45
  -8   5  -6   68.07   10.98
  -8   5  -7    4.82    3.85
  -8   5  -8   20.21    6.17
  -8   5  -9    2.15    3.61
  -8   5 -10   53.53   10.24
  -8   5 -11   -2.19    3.84
  -8  -6  21    6.09    6.28
  -8  -6  20   42.28   12.38
  -8  -6  19   23.19   10.56
  -8  -6  18   88.69   17.57
  -8   6  18   81.48   14.81
  -8  -6  17   12.62    5.75
  -8   6  17    3.22    3.20
  -8  -6  16   38.22   12.87
  -8   6  16   41.99   10.41
  -8  -6  15  283.70   30.02
  -8   6  15  278.22   25.94
  -8  -6  14    1.68    5.20
  -8   6  14   -0.85    4.49
  -8  -6  13   18.63    9.07
  -8   6  13    8.24    3.86
  -8  -6  12   60.47   12.81
  -8   6  12   59.25   11.80
  -8   6  11  105.92   15.59
  -8  -6  11  104.35   16.96
  -8  -6  10    4.43    4.81
  -8   6  10    3.92    4.42
  -8  -6   9  144.78   18.09
  -8   6   9  162.47   18.93
  -8  -6   8  407.50   29.33
  -8   6   8  462.29   30.77
  -8  -6   7  531.76   32.94
  -8   6   7  565.07   33.54
  -8   6   6   23.35    7.50
  -8  -6   6   22.35    7.74
  -8   6   5    1.55    3.41
  -8  -6   5    7.03    5.37
  -8  -6   4  103.91   14.45
  -8   6   4   88.74   13.50
  -8   6   3   32.50    7.36
  -8  -6   3   39.24    9.14
  -8   6   2   11.67    4.57
  -8  -6   2   22.10    6.47
  -8   6   1    0.15    3.06
  -8  -6   1    2.72    3.09
  -8  -6   0   23.51    6.49
  -8   6   0   31.84    6.88
  -8   6  -1  308.23   23.80
  -8  -6  -1  336.64   22.27
  -8  -6  -2    6.17    3.30
  -8   6  -2    9.92    5.07
  -8   6  -3   32.77    8.17
  -8   6  -4   21.76    6.59
  -8   6  -5   42.55    9.30
  -8   6  -6   32.82    8.14
  -8   6  -7    7.57    4.16
  -8   6  -8    0.61    3.79
  -8   6  -9   28.73    7.83
  -8   6 -10    5.97    5.21
  -8   6 -11    9.80    5.48
  -8  -7  21   57.57   13.55
  -8  -7  20   39.48   12.18
  -8  -7  19   21.26    9.67
  -8  -7  18   58.34   14.51
  -8  -7  17   23.87    8.91
  -8   7  17   12.78    5.34
  -8  -7  16    4.74    4.16
  -8   7  16   -4.16    5.44
  -8  -7  15   26.28    9.86
  -8   7  15   19.11    7.40
  -8  -7  14   97.92   18.09
  -8   7  14   88.86   14.66
  -8  -7  13   -0.41    5.11
  -8   7  13   -0.62    4.24
  -8  -7  12   51.44   12.02
  -8   7  12   70.00   13.51
  -8  -7  11   18.62    8.63
  -8   7  11   13.04    6.00
  -8  -7  10  146.23   19.02
  -8   7  10  148.82   18.41
  -8  -7   9  206.79   21.61
  -8   7   9  196.58   20.91
  -8  -7   8   79.30   13.21
  -8   7   8   84.41   13.43
  -8  -7   7    2.80    4.76
  -8   7   7   -4.51    4.65
  -8  -7   6   31.33    7.91
  -8   7   6   35.88    8.85
  -8  -7   5  350.24   26.07
  -8   7   5  362.94   26.32
  -8  -7   4  124.20   16.01
  -8   7   4  107.67   14.53
  -8   7   3    1.57    2.29
  -8  -7   3    7.78    4.65
  -8   7   2   24.30    6.85
  -8  -7   2   36.04    8.88
  -8   7   1  242.26   21.03
  -8  -7   1  241.27   20.78
  -8  -7   0   28.10    7.11
  -8   7   0   28.96    7.46
  -8   7  -1   10.61    5.00
  -8   7  -2  115.95   14.74
  -8   7  -3  132.14   15.76
  -8   7  -4   25.79    7.41
  -8   7  -5   -6.43    4.64
  -8   7  -6   35.59    8.02
  -8   7  -7    8.14    4.02
  -8   7  -8   19.69    6.73
  -8   7  -9   15.82    6.22
  -8   7 -10    7.08    4.62
  -8   7 -11   26.23    8.13
  -8  -8  20   -1.92    6.33
  -8  -8  19   38.43   11.81
  -8  -8  18   14.84    8.18
  -8  -8  17    1.70    6.26
  -8  -8  16  169.61   25.68
  -8   8  16  147.22   19.16
  -8   8  15   87.52   15.11
  -8  -8  15   78.74   17.67
  -8   8  14   62.47   12.54
  -8  -8  14   55.33   13.23
  -8  -8  13   53.03   13.63
  -8   8  13   60.42   12.41
  -8   8  12   45.00   11.11
  -8  -8  12   44.08   11.39
  -8  -8  11   94.17   16.92
  -8   8  11   92.25   15.13
  -8  -8  10    9.87    5.04
  -8   8  10   11.01    5.53
  -8  -8   9   21.52    8.40
  -8   8   9   27.97    8.18
  -8  -8   8  111.97   15.85
  -8   8   8  123.96   16.50
  -8  -8   7   59.27   11.61
  -8   8   7   55.16   10.72
  -8  -8   6  117.42   15.53
  -8   8   6  128.72   16.11
  -8   8   5   12.85    6.09
  -8  -8   5   12.41    6.27
  -8   8   4   54.16   10.30
  -8  -8   4   68.75   11.73
  -8   8   3    5.69    4.30
  -8  -8   3    8.85    4.95
  -8  -8   2   39.33    8.85
  -8   8   2   37.90    7.94
  -8  -8   1    8.18    4.02
  -8   8   1   11.07    4.62
  -8   8   0  122.98   14.98
  -8   8  -1   92.65   13.29
  -8   8  -2   64.06   10.87
  -8   8  -3    4.21    4.30
  -8   8  -4   95.83   13.65
  -8   8  -5   23.71    7.08
  -8   8  -6   89.86   13.56
  -8   8  -7    0.76    2.60
  -8   8  -8    4.62    3.20
  -8   8  -9    1.94    2.69
  -8   8 -10   26.60    8.09
  -8   8 -11    7.32    4.40
  -8  -9  19    5.90    7.02
  -8  -9  18   -5.89    8.26
  -8  -9  17  150.88   24.34
  -8  -9  16   -1.86    6.37
  -8   9  15   10.24    5.79
  -8  -9  15   -0.80    6.00
  -8   9  14   11.86    6.65
  -8  -9  14    7.22    7.59
  -8  -9  13  110.55   19.37
  -8   9  13  119.27   16.96
  -8   9  12   19.74    6.63
  -8  -9  12   15.98    7.48
  -8   9  11    2.64    4.20
  -8  -9  11   -0.48    4.25
  -8   9  10   -0.62    3.06
  -8  -9  10    7.13    6.18
  -8  -9   9  166.25   20.32
  -8   9   9  167.13   19.04
  -8   9   8   -0.71    3.89
  -8  -9   8    7.66    4.84
  -8   9   7   -1.14    2.89
  -8  -9   7    7.70    5.47
  -8   9   6    0.33    3.05
  -8  -9   6    5.41    4.70
  -8  -9   5  104.13   14.65
  -8   9   5  130.23   16.27
  -8   9   4   42.64    9.16
  -8  -9   4   52.25   10.20
  -8  -9   3    4.43    4.68
  -8   9   3    0.21    2.60
  -8   9   2   54.61   10.39
  -8   9   1  170.62   18.21
  -8   9   0   25.54    7.08
  -8   9  -1    1.91    2.66
  -8   9  -2   -2.99    4.26
  -8   9  -3  151.49   17.17
  -8   9  -4    5.31    3.06
  -8   9  -5   -0.66    4.26
  -8   9  -6   12.06    4.96
  -8   9  -7   72.45   12.57
  -8   9  -8    1.79    3.09
  -8   9  -9    1.70    4.18
  -8   9 -10   -3.81    4.38
  -8   9 -11   24.56    8.30
  -8 -10  18   52.61   15.54
  -8 -10  17    2.23    8.10
  -8 -10  16  130.70   24.58
  -8 -10  15    4.38    7.10
  -8 -10  14   30.79   11.00
  -8  10  13    4.84    3.79
  -8 -10  13   11.97    8.37
  -8  10  12   27.24    8.62
  -8 -10  12   27.00   10.90
  -8  10  11   19.42    7.44
  -8 -10  11   11.95    7.46
  -8  10  10   34.52    8.66
  -8 -10  10   23.42    8.72
  -8  10   9   -0.12    3.58
  -8 -10   9   -6.23    6.01
  -8  10   8   86.84   13.39
  -8 -10   8   86.29   14.29
  -8  10   7    2.77    3.56
  -8 -10   7    8.14    5.61
  -8  10   6   50.59   10.08
  -8 -10   6   38.09    9.28
  -8 -10   5   -3.93    5.63
  -8  10   5    5.03    4.38
  -8  10   4  151.63   17.48
  -8  10   3   -3.92    4.88
  -8  10   2   72.30   12.17
  -8  10   1   -0.29    2.79
  -8  10   0   79.05   12.49
  -8  10  -1    1.51    3.36
  -8  10  -2   34.22    8.30
  -8  10  -3    0.97    3.10
  -8  10  -4   16.75    6.36
  -8  10  -5   14.15    7.22
  -8  10  -6   92.13   14.32
  -8  10  -7    2.39    3.18
  -8  10  -8   38.37    9.60
  -8  10  -9    4.36    3.89
  -8  10 -10   14.81    6.73
  -8 -11  16   -0.64    6.57
  -8 -11  15    0.43    6.09
  -8 -11  14    4.16    4.81
  -8 -11  13  163.35   25.74
  -8  11  12   65.86   11.98
  -8 -11  12   76.41   17.76
  -8  11  11    8.20    3.23
  -8 -11  11    8.92    6.64
  -8  11  10    6.67    3.65
  -8 -11  10    9.61    5.65
  -8  11   9  101.54   14.32
  -8 -11   9   98.13   17.32
  -8  11   8   36.20    9.04
  -8 -11   8   36.89    9.76
  -8 -11   7   -0.81    3.17
  -8  11   7   -2.75    4.30
  -8  11   6   44.96    9.67
  -8  11   5   50.53   10.60
  -8  11   4   -1.75    2.66
  -8  11   3    6.88    4.44
  -8  11   2   19.31    7.08
  -8  11   1  144.87   17.34
  -8  11   0    6.07    3.64
  -8  11  -1    0.67    3.25
  -8  11  -2   52.31   10.72
  -8  11  -3  133.87   16.87
  -8  11  -4    7.37    5.33
  -8  11  -5   62.28   11.82
  -8  11  -6    4.13    5.18
  -8  11  -7  151.29   18.73
  -8  11  -8    3.00    4.59
  -8  11  -9   11.14    6.66
  -8  12  10   34.11    8.86
  -8  12   9   16.01    5.84
  -8  12   8   17.86    6.49
  -8  12   7   45.19   10.05
  -8  12   6   63.10   11.60
  -8  12   5    0.80    4.60
  -8  12   4   40.09    9.45
  -8  12   3   14.76    5.31
  -8  12   2   12.93    5.57
  -8  12   1    4.37    3.00
  -8  12   0    1.68    2.86
  -8  12  -1   39.36    9.32
  -8  12  -2   66.55   12.42
  -8  12  -3   14.37    6.57
  -8  12  -4  103.61   15.38
  -8  12  -5   59.35   11.73
  -8  12  -6   43.72   11.01
  -8  12  -7   -3.20    4.38
  -8  12  -8    0.07    3.07
  -8  13   8   82.95   13.54
  -8  13   7    1.22    3.53
  -8  13   6   52.14   10.69
  -8  13   5   51.47   10.53
  -8  13   4   17.73    5.71
  -8  13   3   -1.79    3.64
  -8  13   2    4.48    3.39
  -8  13   1   23.44    7.26
  -8  13   0   23.14    7.04
  -8  13  -1    3.96    3.98
  -8  13  -2   38.42    9.91
  -8  13  -3   11.09    5.63
  -8  13  -4   -3.61    5.99
  -8  13  -5   11.62    6.51
  -8  13  -6   12.35    7.00
  -8  13  -7    2.63    3.78
  -8  14   5   -1.14    3.31
  -8  14   4    5.07    3.63
  -8  14   3   31.98    8.42
  -8  14   2   17.62    6.59
  -8  14   1    1.01    3.22
  -8  14   0    2.92    4.15
  -8  14  -1   17.39    6.75
  -8  14  -2   -1.45    3.83
  -8  14  -3   12.43    6.01
  -8  14  -4    8.04    4.89
  -8  14  -5   28.61    8.93
  -9   0  20    2.79    3.86
  -9   0  19   -0.42    3.36
  -9   0  18   25.70    8.80
  -9   0  17    3.77    4.58
  -9   0  16   36.59   11.03
  -9   0  15   -3.02    4.15
  -9   0  14  304.58   28.32
  -9   0  13    9.12    7.32
  -9   0  12    4.28    5.63
  -9   0  11   -4.58    4.54
  -9   0  10   25.14    8.12
  -9   0   9   -1.01    3.44
  -9   0   8   25.56    8.04
  -9   0   7   -1.01    3.33
  -9   0   6   10.55    6.09
  -9   0   5    0.37    3.28
  -9   0   4   15.54    6.19
  -9   0   3    2.84    4.33
  -9   0   2  469.83   31.82
  -9   0   1   -0.47    3.75
  -9   0   0   23.12    7.02
  -9   0  -1   -4.05    3.54
  -9   0  -2   75.82   11.70
  -9   0  -3    1.52    2.75
  -9   0  -4   60.15   10.04
  -9   0  -5    2.74    2.65
  -9   0  -6   76.46   10.99
  -9  -1  20   28.45   10.43
  -9   1  20   22.81    8.55
  -9  -1  19   16.15    7.97
  -9   1  19   13.91    6.87
  -9  -1  18   29.48    8.97
  -9   1  18   20.85    6.68
  -9  -1  17   37.87   10.91
  -9   1  17   45.81   12.18
  -9   1  16   73.53   14.00
  -9  -1  16   71.39   14.57
  -9   1  15  151.61   20.05
  -9  -1  15  141.84   19.65
  -9   1  14    8.81    6.34
  -9  -1  14    5.29    4.41
  -9   1  13   14.89    5.52
  -9  -1  13   14.99    6.85
  -9   1  12   21.67    7.25
  -9  -1  12   22.03    8.04
  -9   1  11   46.04   10.14
  -9  -1  11   35.16    9.67
  -9   1  10    1.79    3.95
  -9  -1  10    2.01    4.25
  -9   1   9    5.99    4.29
  -9  -1   9    6.68    4.66
  -9   1   8    3.11    3.28
  -9  -1   8    0.52    3.92
  -9  -1   7  121.50   16.28
  -9   1   7  101.77   15.33
  -9   1   6   -0.45    2.78
  -9  -1   6   -2.42    4.74
  -9   1   5   12.29    6.34
  -9  -1   5    6.69    2.78
  -9   1   4   67.58   12.49
  -9  -1   4   75.04   13.28
  -9   1   3  186.62   20.32
  -9  -1   3  197.77   21.67
  -9   1   2    0.71    3.34
  -9  -1   2   -1.71    3.92
  -9   1   1   54.07   10.67
  -9  -1   1   55.06   10.82
  -9   1   0    6.05    3.43
  -9  -1   0   10.50    4.91
  -9   1  -1  187.40   18.64
  -9  -1  -1  183.21   18.65
  -9   1  -2   15.22    5.83
  -9  -1  -2   14.35    4.91
  -9  -1  -3   12.09    4.08
  -9   1  -3   11.22    5.11
  -9   1  -4   27.79    7.24
  -9  -1  -4   29.54    7.15
  -9   1  -5  115.08   13.75
  -9  -1  -5  123.57   13.76
  -9   1  -6    3.12    2.73
  -9  -1  -6    1.24    2.91
  -9   1  -7   17.45    6.53
  -9  -2  20    5.93    4.47
  -9   2  20   -3.95    5.26
  -9  -2  19   61.36   13.89
  -9   2  19   63.85   12.91
  -9  -2  18   25.85    9.76
  -9   2  18   25.54    9.19
  -9  -2  17   29.74   10.07
  -9   2  17   22.38    8.88
  -9  -2  16    1.82    5.02
  -9   2  16    4.87    3.90
  -9  -2  15   33.69   10.32
  -9   2  15   28.11    9.00
  -9  -2  14   87.95   15.60
  -9   2  14   86.22   14.50
  -9   2  13   82.25   15.35
  -9  -2  13   83.56   14.93
  -9   2  12    3.94    4.40
  -9  -2  12   10.58    5.55
  -9   2  11   53.23   11.75
  -9  -2  11   52.71   11.51
  -9   2  10  113.68   16.12
  -9  -2  10   97.43   15.71
  -9   2   9   70.61   12.58
  -9  -2   9   69.58   13.30
  -9   2   8    6.01    3.63
  -9  -2   8   13.36    6.46
  -9   2   7   -2.17    5.53
  -9  -2   7    0.31    3.56
  -9   2   6   93.87   14.55
  -9  -2   6   95.74   14.93
  -9   2   5   10.60    4.96
  -9  -2   5    6.26    3.07
  -9   2   4   17.78    6.89
  -9  -2   4    7.54    4.09
  -9   2   3   48.96   10.90
  -9  -2   3   43.76   10.16
  -9   2   2  199.89   20.41
  -9  -2   2  218.68   22.29
  -9   2   1  147.96   17.64
  -9  -2   1  160.59   18.56
  -9   2   0   68.22   11.61
  -9  -2   0   70.49   12.16
  -9   2  -1    5.92    4.20
  -9  -2  -1    7.01    4.21
  -9  -2  -2   30.27    7.21
  -9   2  -2   27.40    7.21
  -9  -2  -3   46.49    8.57
  -9   2  -3   52.04    9.54
  -9   2  -4   24.33    6.36
  -9  -2  -4   20.07    6.12
  -9   2  -5   -2.40    2.81
  -9  -2  -5    0.04    2.48
  -9   2  -6  127.99   14.86
  -9   2  -7    4.03    2.71
  -9   2  -8    7.81    4.08
  -9  -3  20   25.77    8.70
  -9  -3  19    1.51    4.66
  -9   3  19    1.04    4.49
  -9  -3  18    3.13    5.28
  -9   3  18    6.19    5.51
  -9  -3  17    8.52    6.65
  -9   3  17    6.72    5.30
  -9  -3  16   52.78   13.19
  -9   3  16   43.52   11.43
  -9  -3  15  114.37   17.98
  -9   3  15  102.24   16.58
  -9  -3  14   26.88    9.14
  -9   3  14   28.05    8.46
  -9  -3  13    2.68    4.80
  -9   3  13    4.44    4.03
  -9   3  12  139.27   18.25
  -9  -3  12  140.35   19.19
  -9   3  11   24.62    7.51
  -9  -3  11   26.45    8.44
  -9   3  10   42.55   10.73
  -9  -3  10   39.79   10.34
  -9   3   9   23.93    7.56
  -9  -3   9   27.20    8.33
  -9  -3   8  134.70   17.58
  -9   3   8  141.73   17.70
  -9   3   7   32.74    9.21
  -9  -3   7   32.07    9.00
  -9   3   6   61.53   12.34
  -9  -3   6   61.58   12.00
  -9  -3   5  183.84   20.65
  -9   3   5  167.13   19.45
  -9   3   4   75.34   12.97
  -9  -3   4   77.13   13.54
  -9   3   3   99.51   14.86
  -9  -3   3  125.83   16.89
  -9   3   2   33.01    8.42
  -9  -3   2   44.71   10.07
  -9   3   1    0.63    2.51
  -9  -3   1    0.65    3.75
  -9   3   0   83.49   12.78
  -9  -3   0   85.89   13.03
  -9   3  -1   47.38    9.54
  -9  -3  -1   51.40   10.20
  -9  -3  -2   45.07    8.57
  -9   3  -2   40.39    8.94
  -9  -3  -3    4.94    3.01
  -9   3  -3   10.85    4.44
  -9   3  -4   40.32    8.83
  -9   3  -5   34.87    8.20
  -9   3  -6    0.60    2.54
  -9   3  -7    4.17    3.64
  -9   3  -8   19.66    6.30
  -9  -4  20    9.07    7.18
  -9  -4  19   30.68   10.08
  -9  -4  18   67.21   15.11
  -9   4  18   58.54   13.56
  -9  -4  17   96.15   17.49
  -9   4  17   85.03   15.61
  -9  -4  16   11.14    7.26
  -9   4  16    5.29    5.59
  -9  -4  15   35.41   11.26
  -9   4  15   20.40    7.52
  -9  -4  14   31.54   10.86
  -9   4  14   20.50    8.63
  -9  -4  13  158.83   20.91
  -9   4  13  131.85   18.55
  -9  -4  12    3.05    5.08
  -9   4  12    4.13    3.96
  -9  -4  11   31.76    9.52
  -9   4  11   25.02    7.76
  -9   4  10    5.28    3.61
  -9  -4  10   16.48    7.23
  -9  -4   9  150.37   19.10
  -9   4   9  149.13   19.02
  -9   4   8   84.01   14.78
  -9  -4   8   83.65   14.69
  -9   4   7   90.23   14.61
  -9  -4   7   69.30   12.89
  -9   4   6   35.47    9.56
  -9  -4   6   32.64    9.67
  -9   4   5  105.51   14.75
  -9  -4   5  101.13   15.52
  -9   4   4    3.48    2.56
  -9  -4   4   -1.85    4.51
  -9   4   3    0.76    3.10
  -9  -4   3   -1.27    2.93
  -9   4   2   45.53   10.07
  -9  -4   2   41.50    8.86
  -9   4   1   48.77   10.20
  -9  -4   1   76.27   12.86
  -9   4   0   -3.12    3.63
  -9  -4   0    2.45    3.25
  -9  -4  -1    3.14    2.99
  -9   4  -1   -0.08    2.52
  -9  -4  -2    6.66    3.20
  -9   4  -2    4.18    3.06
  -9   4  -3   33.67    8.30
  -9   4  -4    2.14    4.31
  -9   4  -5    0.05    2.81
  -9   4  -6    0.70    2.58
  -9   4  -7   46.11    9.76
  -9   4  -8   -5.15    3.95
  -9  -5  20   90.54   17.99
  -9  -5  19    7.52    6.25
  -9  -5  18    8.11    7.96
  -9   5  18    1.52    5.91
  -9  -5  17    5.67    5.56
  -9   5  17    4.92    3.69
  -9  -5  16  152.07   22.78
  -9   5  16  136.67   19.64
  -9  -5  15    3.57    5.87
  -9   5  15   -1.15    3.45
  -9  -5  14   17.47    8.34
  -9   5  14   10.53    4.89
  -9  -5  13    3.15    5.21
  -9   5  13    9.53    5.16
  -9  -5  12  177.89   21.75
  -9   5  12  202.26   22.58
  -9  -5  11   15.06    7.65
  -9   5  11   16.36    6.25
  -9  -5  10   48.68   11.25
  -9   5  10   49.98   11.57
  -9   5   9   10.61    5.92
  -9  -5   9   -1.74    3.68
  -9   5   8   88.00   14.26
  -9  -5   8   74.01   12.89
  -9   5   7   62.50   12.07
  -9  -5   7   64.04   12.51
  -9   5   6    9.87    5.41
  -9  -5   6   10.25    4.44
  -9   5   5   11.69    6.29
  -9  -5   5   10.92    6.31
  -9   5   4   98.46   14.51
  -9  -5   4  105.38   15.72
  -9   5   3    9.42    3.52
  -9  -5   3   11.06    4.95
  -9   5   2   39.47    9.15
  -9  -5   2   44.57   10.22
  -9   5   1   -1.07    2.65
  -9  -5   1    5.70    5.21
  -9  -5   0   56.73   10.86
  -9   5   0   62.28   11.51
  -9  -5  -1    3.75    3.10
  -9   5  -1    4.45    3.98
  -9   5  -2   38.88    8.57
  -9   5  -3   33.09    7.84
  -9   5  -4   25.73    7.31
  -9   5  -5    4.98    3.77
  -9   5  -6    0.31    3.58
  -9   5  -7   -2.56    2.53
  -9   5  -8   45.64    9.96
  -9   5  -9    1.12    3.06
  -9  -6  19   39.97   11.71
  -9  -6  18   33.89   12.53
  -9  -6  17   25.10   11.35
  -9   6  17    7.83    4.70
  -9  -6  16   46.31   13.35
  -9   6  16   28.15    9.04
  -9  -6  15   14.10    9.16
  -9   6  15    9.04    4.89
  -9  -6  14    7.47    5.16
  -9   6  14    1.19    4.37
  -9  -6  13  321.69   30.64
  -9   6  13  282.52   27.42
  -9  -6  12   -1.65    4.80
  -9   6  12    8.14    5.49
  -9  -6  11   36.52   10.50
  -9   6  11   53.34   12.48
  -9  -6  10    4.13    5.77
  -9   6  10    1.13    4.01
  -9   6   9   18.07    7.66
  -9  -6   9   15.95    6.00
  -9   6   8    3.24    3.56
  -9  -6   8    0.57    4.18
  -9   6   7   17.38    6.76
  -9  -6   7   13.59    5.73
  -9   6   6    1.83    3.41
  -9  -6   6   -1.23    3.07
  -9  -6   5  321.71   26.89
  -9   6   5  302.58   25.87
  -9   6   4    9.89    5.73
  -9  -6   4   16.37    6.20
  -9   6   3   39.09    9.51
  -9  -6   3   38.03    9.20
  -9   6   2   25.67    7.25
  -9  -6   2   32.87    8.66
  -9   6   1   99.29   14.39
  -9  -6   1  105.31   14.63
  -9  -6   0    5.92    3.02
  -9   6   0    0.06    3.74
  -9   6  -1   -0.71    3.15
  -9   6  -2    4.10    3.51
  -9   6  -3   64.63   11.79
  -9   6  -4   47.09   10.02
  -9   6  -5    3.61    2.93
  -9   6  -6   -0.84    2.63
  -9   6  -7    9.86    4.52
  -9   6  -8    4.90    4.77
  -9   6  -9   22.63    7.58
  -9  -7  19  118.74   21.16
  -9  -7  18   -2.06    5.09
  -9  -7  17    4.29    6.57
  -9  -7  16   30.18   11.76
  -9   7  16   33.74   10.55
  -9  -7  15   -9.20    8.66
  -9   7  15    8.22    6.37
  -9  -7  14    6.39    7.17
  -9   7  14    6.03    4.83
  -9  -7  13   -1.76    4.33
  -9   7  13    2.29    4.22
  -9  -7  12  148.42   20.92
  -9   7  12  148.40   19.83
  -9  -7  11   14.57    8.34
  -9   7  11   17.76    8.52
  -9  -7  10   17.47    7.91
  -9   7  10   15.36    6.36
  -9  -7   9    2.03    3.60
  -9   7   9    3.27    4.95
  -9   7   8   19.59    7.35
  -9  -7   8   15.69    6.02
  -9   7   7   26.57    7.91
  -9  -7   7   23.98    7.61
  -9   7   6   83.24   13.99
  -9  -7   6   71.68   12.13
  -9   7   5   -1.33    2.93
  -9  -7   5   -2.39    2.65
  -9  -7   4  178.67   20.04
  -9   7   4  187.56   20.20
  -9   7   3   26.04    7.86
  -9  -7   3   28.77    8.30
  -9  -7   2   62.98   11.68
  -9   7   2   53.94   10.44
  -9   7   1    3.13    4.56
  -9   7   0   10.96    5.54
  -9   7  -1   68.60   11.79
  -9   7  -2   18.90    6.80
  -9   7  -3    0.42    2.53
  -9   7  -4   61.11   11.75
  -9   7  -5   26.43    7.87
  -9   7  -6   -0.08    3.08
  -9   7  -7    3.75    3.61
  -9   7  -8   32.28    8.61
  -9   7  -9   12.54    5.61
  -9  -8  18    7.96    7.33
  -9  -8  17   19.45   10.47
  -9  -8  16    8.18    6.75
  -9  -8  15   27.15   11.77
  -9   8  15   10.64    6.20
  -9  -8  14   41.90   12.59
  -9   8  14   33.51   10.62
  -9  -8  13   24.77   10.41
  -9   8  13   17.74    8.31
  -9  -8  12   52.71   13.44
  -9   8  12   43.17   10.97
  -9  -8  11   20.82    8.28
  -9   8  11   12.01    4.84
  -9  -8  10    9.75    6.42
  -9   8  10   10.33    5.99
  -9  -8   9   32.59    9.40
  -9   8   9   44.88   11.00
  -9  -8   8    4.82    4.78
  -9   8   8    5.32    3.37
  -9   8   7   -1.61    3.47
  -9  -8   7   -1.84    4.28
  -9   8   6    9.49    5.19
  -9  -8   6   18.45    6.62
  -9   8   5   27.02    8.21
  -9  -8   5   22.54    7.48
  -9   8   4   76.70   12.57
  -9  -8   4   64.68   12.31
  -9   8   3   -2.27    5.16
  -9   8   2   54.32   10.54
  -9   8   1   10.58    5.31
  -9   8   0    2.27    3.26
  -9   8  -1   12.57    5.61
  -9   8  -2   96.94   14.43
  -9   8  -3   37.32    9.66
  -9   8  -4   31.02    8.70
  -9   8  -5    3.58    3.08
  -9   8  -6   22.81    7.17
  -9   8  -7   12.82    6.33
  -9   8  -8    1.94    4.17
  -9  -9  16    1.23    5.52
  -9  -9  15   47.77   14.90
  -9  -9  14   21.15   11.11
  -9   9  14   -7.73    7.66
  -9  -9  13   13.43    7.03
  -9   9  13   12.08    5.86
  -9  -9  12    9.37    6.21
  -9   9  12    0.03    3.68
  -9  -9  11  114.02   19.29
  -9   9  11  128.00   18.06
  -9  -9  10    3.43    4.76
  -9   9  10   10.75    6.86
  -9  -9   9    1.16    4.06
  -9   9   9   -4.30    6.09
  -9  -9   8   -8.95    6.93
  -9   9   8    0.80    2.64
  -9   9   7   10.22    5.79
  -9  -9   7    9.51    5.30
  -9   9   6   -4.55    4.29
  -9  -9   6   -4.99    4.83
  -9   9   5   13.09    5.24
  -9   9   4    2.38    3.49
  -9   9   3   32.22    8.22
  -9   9   2   26.21    7.79
  -9   9   1   32.34    8.65
  -9   9   0    6.15    3.11
  -9   9  -1   92.74   14.45
  -9   9  -2    2.01    3.94
  -9   9  -3   -5.43    4.31
  -9   9  -4   -0.60    4.78
  -9   9  -5   -0.93    3.18
  -9   9  -6    5.55    4.47
  -9   9  -7   -1.45    3.61
  -9   9  -8    6.92    4.15
  -9 -10  13    5.75    7.19
  -9  10  12   88.20   15.17
  -9 -10  12   92.19   19.16
  -9  10  11   11.71    5.32
  -9 -10  11    3.53    4.00
  -9  10  10  113.64   16.97
  -9 -10  10   94.21   16.49
  -9  10   9   16.25    5.83
  -9 -10   9   16.19    6.33
  -9  10   8    9.19    4.94
  -9  10   7   -1.82    4.31
  -9  10   6   30.23    8.44
  -9  10   5    2.20    3.69
  -9  10   4   -0.72    4.06
  -9  10   3   -3.95    4.97
  -9  10   2   54.80   11.05
  -9  10   1   -0.95    3.77
  -9  10   0    2.66    3.00
  -9  10  -1    3.62    3.46
  -9  10  -2   62.66   12.02
  -9  10  -3    2.42    3.00
  -9  10  -4   19.45    7.65
  -9  10  -5   -3.39    4.10
  -9  10  -6    7.55    5.45
  -9  10  -7    3.39    4.72
  -9  11  10   -1.96    4.53
  -9  11   9    1.65    2.69
  -9  11   8    8.75    5.26
  -9  11   7   55.67   11.50
  -9  11   6    0.22    3.62
  -9  11   5    4.46    3.22
  -9  11   4   -3.72    5.31
  -9  11   3    0.97    3.52
  -9  11   2   -0.52    3.89
  -9  11   1   10.27    6.13
  -9  11   0   67.98   12.62
  -9  11  -1   71.26   13.17
  -9  11  -2    6.54    5.09
  -9  11  -3   -0.32    3.23
  -9  11  -4    3.72    3.73
  -9  11  -5   39.01   10.20
  -9  11  -6   63.94   12.58
  -9  12   8   26.48    8.21
  -9  12   7   -2.68    4.40
  -9  12   6   44.45   10.99
  -9  12   5   14.74    6.36
  -9  12   4    8.43    4.94
  -9  12   3    1.75    4.31
  -9  12   2   35.80    9.41
  -9  12   1   83.42   14.17
  -9  12   0    2.57    4.79
  -9  12  -1    4.72    4.18
  -9  12  -2   19.92    7.43
  -9  12  -3   19.41    7.98
  -9  12  -4   -9.10    5.79
  -9  12  -5    3.65    5.81
  -9  13   5   -6.62    4.83
  -9  13   4   14.89    6.86
  -9  13   3    4.54    3.92
  -9  13   2   -0.06    3.82
  -9  13   1   -4.26    5.21
  -9  13   0   42.98   10.85
  -9  13  -1   -0.10    2.86
  -9  13  -2   12.75    5.93
 -10   0  18    5.88    5.56
 -10   0  17    0.69    4.18
 -10   0  16   74.49   15.21
 -10   0  15    3.12    6.06
 -10   0  14    2.28    3.73
 -10   0  13    6.16    5.61
 -10   0  12   74.47   14.24
 -10   0  11    3.99    4.45
 -10   0  10   19.37    7.25
 -10   0   9    0.65    3.29
 -10   0   8  135.82   18.74
 -10   0   7   -1.89    4.54
 -10   0   6   15.44    5.85
 -10   0   5    6.83    6.37
 -10   0   4  118.83   17.27
 -10   0   3   -0.81    4.80
 -10   0   2   28.27    9.09
 -10   0   1   -1.31    4.28
 -10   0   0    7.31    4.51
 -10   0  -1   -6.92    5.51
 -10   0  -2   -1.36    3.61
 -10   0  -3   -5.91    3.84
 -10   1  18    4.60    5.75
 -10  -1  18    0.85    4.26
 -10   1  17   67.83   14.74
 -10  -1  17   92.85   16.72
 -10   1  16   12.45    6.71
 -10  -1  16    5.68    6.68
 -10   1  15    5.01    4.45
 -10  -1  15   11.98    7.09
 -10   1  14   90.35   16.51
 -10  -1  14   91.51   16.74
 -10   1  13  111.66   17.40
 -10  -1  13  113.49   18.21
 -10   1  12    1.63    4.66
 -10  -1  12    5.89    5.43
 -10   1  11   48.39   11.55
 -10  -1  11   38.39   10.30
 -10   1  10    0.45    5.68
 -10  -1  10    0.74    3.90
 -10   1   9   47.51   10.73
 -10  -1   9   53.23   11.59
 -10   1   8   14.43    7.17
 -10  -1   8   10.14    7.08
 -10   1   7   30.60    9.39
 -10  -1   7   37.84   10.79
 -10   1   6    9.60    6.84
 -10  -1   6    1.64    3.62
 -10   1   5   75.36   14.24
 -10  -1   5   58.46   13.13
 -10   1   4   23.39    7.84
 -10  -1   4   11.81    7.57
 -10   1   3   -3.27    4.90
 -10  -1   3   11.84    6.50
 -10   1   2   52.97   11.78
 -10  -1   2   66.03   12.83
 -10   1   1   18.14    6.84
 -10  -1   1   14.48    6.66
 -10   1   0   -2.91    5.23
 -10  -1   0   -6.66    4.90
 -10   1  -1   23.67    7.79
 -10  -1  -1   13.19    5.46
 -10  -1  -2    1.81    3.91
 -10   1  -2    4.86    4.37
 -10   1  -3   40.74    9.13
 -10  -1  -3   38.60    8.81
 -10   1  -4    2.02    2.63
 -10   2  18   48.55   13.13
 -10  -2  18   16.98    8.38
 -10   2  17   10.49    6.39
 -10  -2  17   13.12    7.43
 -10   2  16   89.47   16.22
 -10  -2  16   86.73   17.30
 -10   2  15   21.04    8.80
 -10  -2  15   30.18   11.63
 -10   2  14   28.68    8.93
 -10  -2  14   35.52   12.03
 -10   2  13   17.32    5.73
 -10  -2  13   28.92    9.63
 -10   2  12   59.79   12.62
 -10  -2  12   80.63   15.27
 -10   2  11    7.17    4.49
 -10  -2  11    8.99    5.33
 -10   2  10   12.40    5.50
 -10  -2  10    4.73    4.25
 -10   2   9   16.95    7.19
 -10  -2   9   21.05    8.36
 -10   2   8   69.38   13.49
 -10  -2   8   69.98   13.04
 -10   2   7   96.79   15.96
 -10  -2   7  108.39   16.70
 -10   2   6    1.80    4.13
 -10  -2   6   -3.08    3.97
 -10   2   5    6.17    5.49
 -10  -2   5    0.07    3.64
 -10   2   4  102.78   16.02
 -10  -2   4  126.33   18.16
 -10   2   3   34.84    9.80
 -10  -2   3   43.00   11.15
 -10   2   2   -1.75    4.81
 -10  -2   2    3.44    5.27
 -10   2   1   32.12    8.99
 -10  -2   1   24.63    8.63
 -10   2   0   43.26    9.76
 -10  -2   0   54.04   11.30
 -10   2  -1   45.35   10.13
 -10  -2  -1   41.45    9.89
 -10  -2  -2   15.67    6.04
 -10   2  -2   14.01    5.53
 -10   2  -3    5.58    4.17
 -10   2  -4   18.19    6.31
 -10   2  -5   33.49    8.12
 -10  -3  18   10.68    6.82
 -10   3  17   42.26   11.70
 -10  -3  17   41.11   12.66
 -10   3  16    7.13    5.38
 -10  -3  16    2.98    4.42
 -10   3  15   -1.02    4.05
 -10  -3  15    0.13    4.32
 -10   3  14   38.68    9.52
 -10  -3  14   37.16   11.10
 -10   3  13   27.32    8.59
 -10  -3  13   30.39   10.91
 -10   3  12   -6.48    6.07
 -10  -3  12    7.80    6.17
 -10   3  11   -1.62    5.04
 -10  -3  11    4.99    4.87
 -10   3  10   64.47   13.09
 -10  -3  10   73.33   14.82
 -10   3   9   46.49   10.80
 -10  -3   9   45.98   10.88
 -10   3   8   -1.96    4.08
 -10  -3   8    5.43    5.57
 -10   3   7   17.18    7.50
 -10  -3   7   11.48    6.61
 -10   3   6  272.72   26.10
 -10  -3   6  288.94   27.51
 -10   3   5   13.05    7.00
 -10  -3   5    9.93    5.45
 -10   3   4   16.61    6.79
 -10  -3   4   14.82    5.98
 -10   3   3   13.46    6.41
 -10  -3   3   20.00    8.55
 -10   3   2   59.15   12.12
 -10  -3   2   69.69   13.38
 -10   3   1   18.91    7.17
 -10  -3   1   10.96    5.78
 -10   3   0    4.63    3.12
 -10  -3   0    5.17    3.38
 -10  -3  -1    3.23    2.82
 -10   3  -1    6.47    3.29
 -10   3  -2   32.30    8.30
 -10   3  -3   10.93    6.00
 -10   3  -4   -0.77    3.65
 -10   3  -5   -2.24    3.67
 -10  -4  18  -12.87    8.51
 -10  -4  17   12.94    8.15
 -10   4  17    0.79    4.22
 -10   4  16    7.43    4.07
 -10  -4  16   10.61    6.71
 -10  -4  15  149.60   23.07
 -10   4  15  138.54   19.47
 -10   4  14    4.70    6.79
 -10  -4  14    6.10    6.79
 -10   4  13   21.05    7.25
 -10  -4  13   17.16    6.56
 -10   4  12    6.39    5.43
 -10  -4  12    6.16    4.59
 -10   4  11   32.23    9.17
 -10  -4  11   48.48   12.69
 -10   4  10   -0.38    4.18
 -10  -4  10    5.13    5.05
 -10   4   9   18.52    7.11
 -10  -4   9    9.86    5.14
 -10   4   8   15.57    6.76
 -10  -4   8   14.68    7.91
 -10   4   7   68.42   13.48
 -10  -4   7   60.44   12.74
 -10   4   6   -0.26    3.61
 -10  -4   6    2.09    3.51
 -10   4   5  143.67   18.42
 -10  -4   5  148.52   19.54
 -10   4   4    8.64    5.36
 -10  -4   4    7.33    5.28
 -10   4   3  105.26   16.04
 -10  -4   3  130.99   18.24
 -10   4   2   -0.38    3.72
 -10  -4   2    4.88    5.08
 -10   4   1    4.69    2.71
 -10  -4   1    8.30    4.84
 -10   4   0   -1.98    3.13
 -10   4  -1   35.02    9.17
 -10   4  -2   -3.18    3.01
 -10   4  -3    4.21    3.95
 -10   4  -4   22.99    7.76
 -10   4  -5    7.23    4.59
 -10  -5  17    3.58    5.08
 -10  -5  16    2.13    5.46
 -10   5  16   -7.40    7.07
 -10  -5  15   53.65   13.57
 -10   5  15   45.06   11.64
 -10   5  14  116.52   18.56
 -10  -5  14  134.10   20.81
 -10   5  13   -5.26    5.75
 -10  -5  13   -8.21    5.93
 -10   5  12    0.07    4.57
 -10  -5  12    0.24    4.04
 -10   5  11    8.50    6.29
 -10  -5  11    0.73    5.08
 -10   5  10  117.36   17.51
 -10  -5  10   96.70   16.74
 -10   5   9   35.66    9.24
 -10  -5   9   44.69   11.62
 -10   5   8    8.20    5.05
 -10  -5   8   17.13    7.38
 -10   5   7   53.64   11.52
 -10  -5   7   55.04   11.85
 -10   5   6   44.82   10.86
 -10  -5   6   44.40   11.36
 -10   5   5   33.24    9.55
 -10  -5   5   39.69   10.34
 -10   5   4   -2.23    4.59
 -10  -5   4   -5.16    5.07
 -10   5   3   -1.60    4.94
 -10  -5   3    2.35    4.99
 -10   5   2   75.51   13.85
 -10  -5   2  102.96   16.21
 -10   5   1   10.71    5.13
 -10   5   0    5.62    3.63
 -10   5  -1   -2.43    4.89
 -10   5  -2   29.41    8.75
 -10   5  -3   10.22    5.06
 -10   5  -4    7.46    4.57
 -10   5  -5    4.93    4.57
 -10   5  -6   22.17    7.08
 -10  -6  16  185.29   26.37
 -10  -6  15   24.35   10.05
 -10   6  15   28.12   10.50
 -10  -6  14   -7.96    6.85
 -10   6  14    0.61    4.00
 -10   6  13   72.47   15.12
 -10  -6  13   85.35   17.15
 -10   6  12   11.04    5.69
 -10  -6  12    0.04    4.50
 -10   6  11   48.10   12.20
 -10  -6  11   40.22   10.97
 -10   6  10    2.13    4.85
 -10  -6  10   11.01    6.96
 -10   6   9    6.88    5.97
 -10  -6   9    8.30    6.83
 -10   6   8   37.45    9.70
 -10  -6   8   33.65    9.86
 -10  -6   7  207.16   23.22
 -10   6   7  190.93   22.31
 -10   6   6   89.16   15.47
 -10  -6   6   92.23   15.53
 -10   6   5  127.18   17.86
 -10  -6   5  115.66   16.77
 -10   6   4    1.67    4.42
 -10  -6   4    2.39    4.89
 -10   6   3   26.42    7.82
 -10   6   2    1.43    3.71
 -10   6   1    3.09    2.45
 -10   6   0    5.70    3.68
 -10   6  -1   78.54   13.77
 -10   6  -2    2.03    2.56
 -10   6  -3   25.83    8.09
 -10   6  -4    2.25    2.90
 -10   6  -5   -1.66    2.82
 -10  -7  15    6.30    6.89
 -10  -7  14   54.06   14.51
 -10   7  14   37.69   10.86
 -10  -7  13   72.25   16.13
 -10   7  13   85.95   15.96
 -10   7  12   -4.78    4.77
 -10  -7  12   -1.97    6.45
 -10   7  11    9.24    6.84
 -10  -7  11    4.47    3.99
 -10   7  10   67.12   13.90
 -10  -7  10   66.57   13.20
 -10   7   9    8.18    4.61
 -10  -7   9    9.78    5.75
 -10   7   8    6.49    5.85
 -10  -7   8    6.37    3.78
 -10   7   7   31.56    9.43
 -10  -7   7   33.46    9.96
 -10   7   6   74.95   14.14
 -10  -7   6   65.41   13.51
 -10   7   5   22.61    8.00
 -10   7   4    0.45    4.12
 -10   7   3   86.52   14.00
 -10   7   2   90.01   14.92
 -10   7   1   34.61    9.02
 -10   7   0   14.61    6.69
 -10   7  -1   12.53    6.01
 -10   7  -2   16.88    6.37
 -10   7  -3    7.18    5.64
 -10   7  -4    3.64    4.77
 -10   7  -5   15.83    7.11
 -10   8  13   38.14   10.25
 -10  -8  12   49.21   12.63
 -10   8  12   30.55    9.50
 -10   8  11   -2.21    4.09
 -10  -8  11   -4.94    5.59
 -10   8  10   -4.83    6.53
 -10  -8  10   -0.23    5.00
 -10   8   9   31.70    9.54
 -10   8   8    9.45    6.53
 -10   8   7    9.46    5.28
 -10   8   6    3.10    4.49
 -10   8   5   -1.48    5.17
 -10   8   4  117.97   17.44
 -10   8   3   -3.56    3.79
 -10   8   2    1.25    4.39
 -10   8   1    4.01    3.82
 -10   8   0   34.31    9.13
 -10   8  -1    3.10    3.17
 -10   8  -2   -2.50    4.36
 -10   8  -3   12.02    6.11
 -10   8  -4   38.73    9.97
 -10   8  -5    8.51    4.81
 -10   9  11    2.20    3.75
 -10   9  10   -0.11    4.81
 -10   9   9   31.82    8.97
 -10   9   8    0.42    3.13
 -10   9   7   12.34    6.73
 -10   9   6    2.20    3.87
 -10   9   5    7.32    4.87
 -10   9   4    6.99    6.05
 -10   9   3   45.15    9.92
 -10   9   2    0.49    3.30
 -10   9   1   47.34   10.44
 -10   9   0    7.11    4.10
 -10   9  -1   11.16    5.91
 -10   9  -2    9.57    4.75
 -10   9  -3    8.05    4.65
 -10   9  -4   -2.25    3.25
 -10  10  10   10.75    5.39
 -10  10   9   -0.65    4.35
 -10  10   8   23.51    8.41
 -10  10   7   -1.67    5.62
 -10  10   6    1.99    3.11
 -10  10   5    1.65    4.02
 -10  10   4   54.18   12.06
 -10  10   3   14.76    6.68
 -10  10   2   -5.49    4.68
 -10  10   1   -2.29    4.45
 -10  10   0   65.69   13.00
 -10  10  -1    5.39    4.41
 -10  10  -2   -2.35    4.04
 -10  10  -3   -3.61    3.96
 -10  11   7    5.21    4.87
 -10  11   6   35.33    9.44
 -10  11   5   10.35    5.90
 -10  11   4   -6.04    5.76
 -10  11   3    3.42    4.63
 -10  11   2    6.23    3.81
 -10  11   1   58.63   12.55
 -10  11   0    1.26    3.48
 -10  11  -1   15.75    6.55
 -11   0  16    1.06    3.95
 -11   0  15    4.19    4.98
 -11   0  14   86.40   16.89
 -11   0  13   -3.28    4.16
 -11   0  12   22.84    8.50
 -11   0  11   -3.99    5.89
 -11   0  10   17.05    6.94
 -11   0   9   -3.34    5.81
 -11   0   8    0.65    4.47
 -11   0   7    4.44    5.21
 -11   0   6   63.60   13.04
 -11   0   5   -2.54    5.68
 -11   0   4    1.43    4.81
 -11   0   3    5.33    6.28
 -11   0   2   63.43   13.35
 -11   0   1    1.58    3.54
 -11   0   0   12.63    6.28
 -11   1  15   -1.59    4.91
 -11  -1  15    9.56    6.93
 -11   1  14   10.70    6.62
 -11  -1  14    7.33    7.51
 -11   1  13   27.63   10.07
 -11  -1  13   41.30   11.78
 -11   1  12    8.12    6.02
 -11  -1  12    2.17    4.95
 -11   1  11    4.01    5.26
 -11  -1  11    5.59    6.41
 -11   1  10    1.42    3.09
 -11  -1  10   -9.98    6.84
 -11   1   9   13.48    7.18
 -11  -1   9   20.44    8.04
 -11   1   8    9.57    6.64
 -11  -1   8   -4.36    5.83
 -11   1   7   34.45    9.42
 -11  -1   7   29.94    9.39
 -11   1   6    5.37    4.02
 -11  -1   6   14.75    9.19
 -11   1   5   34.34    9.98
 -11  -1   5   43.43   11.42
 -11   1   4   -1.08    4.89
 -11  -1   4    2.16    4.51
 -11   1   3   38.88   10.84
 -11  -1   3   39.22   11.05
 -11   1   2    7.85    6.07
 -11  -1   2    6.24    4.22
 -11   1   1   37.64   10.55
 -11  -1   1   38.60    9.83
 -11   1   0   -8.00    5.83
 -11   2  15    2.34    3.53
 -11  -2  15    9.09    7.16
 -11   2  14   57.73   13.14
 -11  -2  14   61.58   14.80
 -11   2  13    4.59    5.54
 -11  -2  13    2.71    5.63
 -11   2  12   -4.86    7.15
 -11  -2  12    2.17    4.71
 -11   2  11   22.92    9.16
 -11  -2  11   30.87   10.25
 -11   2  10   33.01   10.43
 -11  -2  10   32.31    9.46
 -11   2   9   -0.11    5.68
 -11  -2   9   -4.75    4.97
 -11   2   8   10.46    7.09
 -11  -2   8    6.45    4.25
 -11   2   7   30.20    9.56
 -11  -2   7   19.73    7.98
 -11   2   6   38.97   10.62
 -11  -2   6   57.45   13.50
 -11   2   5   32.29    9.80
 -11  -2   5   38.67   10.33
 -11   2   4    1.41    4.66
 -11  -2   4   -0.27    3.90
 -11   2   3   -1.37    4.79
 -11  -2   3    0.07    5.33
 -11   2   2   60.87   13.37
 -11   2   1    2.29    4.13
 -11   2   0   -4.87    4.83
 -11   2  -1   25.49    8.33
 -11   3  15   19.75    7.70
 -11  -3  15   33.37   12.78
 -11   3  14    0.45    4.30
 -11  -3  14   -1.18    4.50
 -11   3  13   30.44    9.16
 -11  -3  13   25.97   10.31
 -11   3  12   18.05    8.00
 -11  -3  12   30.48   10.88
 -11   3  11    7.54    7.79
 -11  -3  11   10.17    7.16
 -11   3  10    2.95    3.58
 -11  -3  10   -3.64    4.90
 -11   3   9   10.30    5.24
 -11  -3   9    9.35    6.20
 -11   3   8   68.37   13.85
 -11  -3   8   55.47   13.35
 -11   3   7    6.46    3.88
 -11  -3   7   -0.77    6.36
 -11   3   6   19.20    7.76
 -11  -3   6   19.56    7.79
 -11   3   5   18.40    8.54
 -11  -3   5   11.72    6.78
 -11   3   4   96.56   16.37
 -11  -3   4  103.59   17.37
 -11   3   3   13.10    6.76
 -11   3   2    2.53    4.75
 -11   3   1   19.51    7.31
 -11   3   0   29.64    8.75
 -11   3  -1   12.84    6.53
 -11   4  14   18.24    9.44
 -11  -4  14   30.27   11.03
 -11   4  13   11.89    7.17
 -11  -4  13    6.88    7.42
 -11   4  12   -3.21    5.80
 -11  -4  12   11.05    8.17
 -11   4  11   39.57   10.47
 -11  -4  11   38.46   11.43
 -11   4  10   -5.58    4.89
 -11  -4  10    4.15    6.64
 -11   4   9    3.30    3.32
 -11  -4   9   -0.12    4.83
 -11   4   8    2.91    3.86
 -11  -4   8   -5.50    5.87
 -11   4   7   75.20   14.53
 -11  -4   7   85.76   15.58
 -11   4   6   17.44    7.46
 -11  -4   6   15.72    6.17
 -11   4   5   -3.23    4.66
 -11   4   4   14.26    6.25
 -11   4   3   39.94   11.32
 -11   4   2    7.44    5.58
 -11   4   1   43.65   11.43
 -11   4   0    4.79    4.35
 -11   4  -1   -0.55    5.37
 -11   5  13    5.01    5.36
 -11   5  12   33.52    9.94
 -11   5  11    2.79    4.45
 -11  -5  11   10.01    6.16
 -11   5  10   13.09    7.24
 -11  -5  10   18.60    9.44
 -11   5   9   11.08    7.20
 -11  -5   9    6.38    6.45
 -11   5   8   55.27   12.27
 -11   5   7   -3.84    5.06
 -11   5   6   -1.45    4.16
 -11   5   5   21.98    7.97
 -11   5   4   57.38   12.66
 -11   5   3    7.06    4.88
 -11   5   2   -0.46    3.44
 -11   5   1   -2.59    4.77
 -11   5   0   30.44    9.67
 -11   5  -1   -0.58    3.96
 -11   6  12   13.67    7.55
 -11   6  11  102.70   16.80
 -11   6  10    7.20    5.09
 -11   6   9    5.21    4.49
 -11   6   8    2.24    3.76
 -11   6   7    3.31    3.87
 -11   6   6    7.62    6.56
 -11   6   5   68.21   13.61
 -11   6   4   14.53    6.80
 -11   6   3   97.20   16.17
 -11   6   2    1.85    4.84
 -11   6   1   10.15    5.61
 -11   6   0    0.07    4.31
 -11   6  -1    9.06    5.15
 -11   7  11   18.29    8.37
 -11   7  10    0.04    5.65
 -11   7   9   -3.62    3.45
 -11   7   8   14.01    7.21
 -11   7   7    6.21    3.61
 -11   7   6   -3.32    5.15
 -11   7   5   14.72    7.36
 -11   7   4  136.29   19.28
 -11   7   3   37.90   10.39
 -11   7   2    2.16    3.63
 -11   7   1   -1.30    3.40
 -11   7   0   39.23   10.76
 -11   8   9   -0.69    5.15
 -11   8   8   -2.05    5.10
 -11   8   7    2.36    4.17
 -11   8   6   31.82    9.91
 -11   8   5   12.46    7.12
 -11   8   4   13.80    6.55
 -11   8   3   10.44    6.00
 -11   8   2   54.74   12.39
 -11   8   1    3.23    5.87
   0   0   0    0.00    0.00



TITL 7 in P2(1)/c
REM P2(1)/c (#14 in standard setting)
CELL 0.71073   7.923141  13.810669  17.140636  90.0000 102.1705  90.0000
ZERR    8.00   0.000407   0.000602   0.000793   0.0000   0.0049   0.0000
LATT  1
SYMM -x, y+1/2,-z+1/2
SFAC C H N O
UNIT 88.00 80.00 8.00 8.00
TREF
HKLF 4
END
_computing_structure_solution     'SHELXT 2014/5 (Sheldrick, 2014)'
_computing_structure_solution     'SHELXT 2014/5 (Sheldrick, 2014)'
;
_shelx_hkl_checksum              95685
_olex2_submission_special_instructions 'No special instructions were received'
_oxdiff_exptl_absorpt_empirical_details
;
Empirical correction (ABSPACK) includes:
- Absorption correction using spherical harmonics
- Frame scaling
- Detector area scaling
;
_oxdiff_exptl_absorpt_empirical_full_max 1.918
_oxdiff_exptl_absorpt_empirical_full_min 0.646
loop_
_space_group_symop_operation_xyz
'x, y, z'
'-x, y+1/2, -z+1/2'
'-x, -y, -z'
'x, -y-1/2, z-1/2'
loop_
_atom_site_label
_atom_site_type_symbol
_atom_site_fract_x
_atom_site_fract_y
_atom_site_fract_z
_atom_site_U_iso_or_equiv
_atom_site_adp_type
_atom_site_occupancy
_atom_site_site_symmetry_order
_atom_site_calc_flag
_atom_site_refinement_flags_posn
_atom_site_refinement_flags_adp
_atom_site_refinement_flags_occupancy
_atom_site_disorder_assembly
_atom_site_disorder_group
Zn1 Zn 0.70266(3) 0.55219(2) 0.12559(2) 0.01950(9) Uani 1 1 d . . . . .
O2 O 0.5754(2) 0.44355(11) 0.16068(11) 0.0261(3) Uani 1 1 d . . . . .
O3 O -0.0738(2) -0.05223(12) 0.70390(10) 0.0287(4) Uani 1 1 d . . . . .
N2 N 0.3065(2) 0.18743(13) 0.42881(10) 0.0212(4) Uani 1 1 d . . . . .
N1 N 0.4258(2) 0.14952(13) 0.30334(11) 0.0216(4) Uani 1 1 d . . . . .
N3 N 0.2527(2) 0.02232(13) 0.49202(10) 0.0208(4) Uani 1 1 d . . . . .
O4 O 0.1678(3) 0.01296(18) 0.77190(10) 0.0443(5) Uani 1 1 d . . . . .
O1 O 0.7622(3) 0.33191(15) 0.13840(13) 0.0436(5) Uani 1 1 d . . . . .
O5 O 1.0507(3) 0.21073(17) 0.18875(15) 0.0538(6) Uani 1 1 d . . . . .
H5A H 0.9560 0.2396 0.1888 0.081 Uiso 1 1 d G . . . .
H5B H 1.0500 0.1622 0.2191 0.081 Uiso 1 1 d G . . . .
C11 C 0.2526(3) 0.19570(15) 0.49760(12) 0.0199(4) Uani 1 1 d . . . . .
C2 C 0.5568(3) 0.28622(15) 0.21345(12) 0.0212(4) Uani 1 1 d . . . . .
C12 C 0.2234(3) 0.10100(16) 0.53381(12) 0.0192(4) Uani 1 1 d . . . . .
C14 C 0.1365(3) 0.00199(16) 0.63316(12) 0.0196(4) Uani 1 1 d . . . . .
C15 C 0.1700(3) -0.07925(17) 0.59058(13) 0.0248(4) Uani 1 1 d . . . . .
H15 H 0.1525 -0.1413 0.6084 0.030 Uiso 1 1 calc R . . . .
C13 C 0.1671(3) 0.09351(16) 0.60497(12) 0.0196(4) Uani 1 1 d . . . . .
H13 H 0.1500 0.1488 0.6334 0.024 Uiso 1 1 calc R . . . .
C7 C 0.3439(3) 0.26613(16) 0.39046(12) 0.0206(4) Uani 1 1 d . . . . .
C6 C 0.4141(3) 0.24446(15) 0.31857(12) 0.0197(4) Uani 1 1 d . . . . .
C10 C 0.2302(3) 0.28610(16) 0.52973(13) 0.0236(4) Uani 1 1 d . . . . .
H10 H 0.1931 0.2909 0.5776 0.028 Uiso 1 1 calc R . . . .
C3 C 0.4729(3) 0.31518(16) 0.27301(13) 0.0220(4) Uani 1 1 d . . . . .
C17 C 0.0734(3) -0.01070(16) 0.70956(12) 0.0218(4) Uani 1 1 d . . . . .
C16 C 0.2299(3) -0.06513(16) 0.52101(14) 0.0251(5) Uani 1 1 d . . . . .
H16 H 0.2553 -0.1192 0.4933 0.030 Uiso 1 1 calc R . . . .
C8 C 0.3229(3) 0.35835(16) 0.41909(13) 0.0248(4) Uani 1 1 d . . . . .
H8 H 0.3483 0.4124 0.3914 0.030 Uiso 1 1 calc R . . . .
N4 N 0.1798(3) 0.65605(17) 0.57533(15) 0.0400(5) Uani 1 1 d . . . . .
C4 C 0.5733(3) 0.18789(17) 0.19956(14) 0.0281(5) Uani 1 1 d . . . . .
H4 H 0.6309 0.1666 0.1608 0.034 Uiso 1 1 calc R . . . .
C1 C 0.6395(3) 0.35839(16) 0.16664(13) 0.0235(4) Uani 1 1 d . . . . .
C18 C 0.2358(3) 0.46793(17) 0.51959(14) 0.0251(4) Uani 1 1 d . . . . .
C9 C 0.2636(3) 0.36960(16) 0.48964(13) 0.0224(4) Uani 1 1 d . . . . .
C5 C 0.5022(3) 0.12207(17) 0.24467(14) 0.0262(5) Uani 1 1 d . . . . .
H5 H 0.5081 0.0564 0.2336 0.031 Uiso 1 1 calc R . . . .
C19 C 0.1934(4) 0.4829(2) 0.59369(15) 0.0341(6) Uani 1 1 d . . . . .
H19 H 0.1833 0.4306 0.6266 0.041 Uiso 1 1 calc R . . . .
C21 C 0.2428(5) 0.55053(18) 0.47370(19) 0.0420(7) Uani 1 1 d . . . . .
H21 H 0.2651 0.5451 0.4227 0.050 Uiso 1 1 calc R . . . .
C22 C 0.2162(5) 0.6412(2) 0.50455(19) 0.0465(7) Uani 1 1 d . . . . .
H22 H 0.2248 0.6951 0.4731 0.056 Uiso 1 1 calc R . . . .
C20 C 0.1664(4) 0.5766(2) 0.61793(17) 0.0391(6) Uani 1 1 d . . . . .
H20 H 0.1370 0.5845 0.6673 0.047 Uiso 1 1 calc R . . . .
loop_
_atom_site_aniso_label
_atom_site_aniso_U_11
_atom_site_aniso_U_22
_atom_site_aniso_U_33
_atom_site_aniso_U_23
_atom_site_aniso_U_13
_atom_site_aniso_U_12
Zn1 0.02628(14) 0.01454(14) 0.01979(13) 0.00173(9) 0.00966(10) 0.00082(9)
O2 0.0322(8) 0.0140(8) 0.0359(9) 0.0049(6) 0.0162(7) 0.0016(6)
O3 0.0267(8) 0.0342(10) 0.0252(8) 0.0088(7) 0.0056(6) -0.0075(7)
N2 0.0297(9) 0.0159(8) 0.0206(8) -0.0004(7) 0.0110(7) -0.0013(7)
N1 0.0287(9) 0.0144(8) 0.0245(8) 0.0000(7) 0.0122(7) -0.0023(7)
N3 0.0300(9) 0.0156(8) 0.0188(8) -0.0012(7) 0.0094(7) 0.0003(7)
O4 0.0453(11) 0.0680(15) 0.0211(8) -0.0084(9) 0.0106(8) -0.0248(11)
O1 0.0586(12) 0.0307(10) 0.0553(11) 0.0167(9) 0.0434(10) 0.0134(9)
O5 0.0538(14) 0.0476(14) 0.0673(15) 0.0300(12) 0.0292(12) 0.0104(11)
C11 0.0261(10) 0.0165(9) 0.0187(9) 0.0011(7) 0.0083(7) -0.0006(8)
C2 0.0285(10) 0.0150(10) 0.0223(9) 0.0018(8) 0.0102(8) -0.0013(8)
C12 0.0240(9) 0.0172(10) 0.0177(9) 0.0005(7) 0.0071(7) -0.0006(7)
C14 0.0224(9) 0.0198(10) 0.0175(8) 0.0011(7) 0.0060(7) -0.0027(8)
C15 0.0361(12) 0.0169(10) 0.0228(10) 0.0025(8) 0.0095(9) -0.0005(9)
C13 0.0263(10) 0.0153(10) 0.0188(8) -0.0015(7) 0.0082(7) -0.0012(8)
C7 0.0285(10) 0.0163(10) 0.0189(8) 0.0012(7) 0.0096(7) -0.0021(8)
C6 0.0261(10) 0.0157(9) 0.0192(9) 0.0018(7) 0.0087(7) -0.0004(8)
C10 0.0332(11) 0.0194(10) 0.0209(9) -0.0004(8) 0.0119(8) 0.0010(8)
C3 0.0290(10) 0.0162(10) 0.0233(9) 0.0024(8) 0.0110(8) -0.0011(8)
C17 0.0298(10) 0.0180(10) 0.0198(9) 0.0013(8) 0.0103(8) -0.0011(8)
C16 0.0404(13) 0.0144(10) 0.0228(10) -0.0015(8) 0.0121(9) 0.0010(9)
C8 0.0380(12) 0.0155(10) 0.0239(10) 0.0016(8) 0.0130(9) -0.0023(9)
N4 0.0511(14) 0.0252(12) 0.0439(13) -0.0072(10) 0.0109(11) 0.0015(10)
C4 0.0433(13) 0.0166(10) 0.0309(11) 0.0005(9) 0.0226(10) -0.0011(9)
C1 0.0329(11) 0.0189(10) 0.0218(9) 0.0043(8) 0.0126(8) 0.0001(8)
C18 0.0326(11) 0.0180(10) 0.0264(10) -0.0021(8) 0.0103(9) 0.0002(9)
C9 0.0305(11) 0.0150(10) 0.0234(10) -0.0011(8) 0.0092(8) 0.0006(8)
C5 0.0386(12) 0.0149(10) 0.0302(11) -0.0015(8) 0.0190(9) -0.0016(9)
C19 0.0517(16) 0.0254(13) 0.0276(12) -0.0020(10) 0.0134(11) 0.0012(11)
C21 0.075(2) 0.0193(12) 0.0378(14) 0.0000(10) 0.0261(14) 0.0008(12)
C22 0.077(2) 0.0184(12) 0.0479(16) 0.0012(12) 0.0213(16) 0.0008(13)
C20 0.0551(17) 0.0320(14) 0.0323(13) -0.0084(11) 0.0138(12) 0.0042(13)
loop_
_atom_type_symbol
_atom_type_description
_atom_type_scat_dispersion_real
_atom_type_scat_dispersion_imag
_atom_type_scat_source
C C 0.0033 0.0016 'International Tables Vol C Tables 4.2.6.8 and 6.1.1.4'
H H 0.0000 0.0000 'International Tables Vol C Tables 4.2.6.8 and 6.1.1.4'
N N 0.0061 0.0033 'International Tables Vol C Tables 4.2.6.8 and 6.1.1.4'
O O 0.0106 0.0060 'International Tables Vol C Tables 4.2.6.8 and 6.1.1.4'
Zn Zn 0.2839 1.4301 'International Tables Vol C Tables 4.2.6.8 and 6.1.1.4'
loop_
_geom_angle_atom_site_label_1
_geom_angle_atom_site_label_2
_geom_angle_atom_site_label_3
_geom_angle
_geom_angle_site_symmetry_1
_geom_angle_site_symmetry_3
_geom_angle_publ_flag
O2 Zn1 O3 103.59(8) . 4_665 ?
O2 Zn1 N2 147.97(7) . 2_655 ?
O2 Zn1 N1 88.29(7) . 2_655 ?
O2 Zn1 N3 109.55(7) . 2_655 ?
O3 Zn1 N2 104.15(8) 4_665 2_655 ?
O3 Zn1 N1 94.38(7) 4_665 2_655 ?
O3 Zn1 N3 109.45(7) 4_665 2_655 ?
N2 Zn1 N1 73.96(7) 2_655 2_655 ?
N2 Zn1 N3 75.54(7) 2_655 2_655 ?
N3 Zn1 N1 145.00(7) 2_655 2_655 ?
C1 O2 Zn1 120.34(15) . . ?
C17 O3 Zn1 135.86(15) . 4_466 ?
C11 N2 Zn1 118.87(14) . 2_645 ?
C7 N2 Zn1 119.99(14) . 2_645 ?
C7 N2 C11 120.56(18) . . ?
C6 N1 Zn1 115.42(14) . 2_645 ?
C5 N1 Zn1 125.44(15) . 2_645 ?
C5 N1 C6 119.00(19) . . ?
C12 N3 Zn1 114.99(14) . 2_645 ?
C16 N3 Zn1 125.67(14) . 2_645 ?
C16 N3 C12 118.72(18) . . ?
H5A O5 H5B 104.5 . . ?
N2 C11 C12 113.48(18) . . ?
N2 C11 C10 121.03(19) . . ?
C10 C11 C12 125.48(18) . . ?
C3 C2 C1 121.9(2) . . ?
C4 C2 C3 118.9(2) . . ?
C4 C2 C1 119.08(19) . . ?
N3 C12 C11 115.36(18) . . ?
N3 C12 C13 121.99(19) . . ?
C13 C12 C11 122.64(19) . . ?
C15 C14 C17 119.72(19) . . ?
C13 C14 C15 118.87(19) . . ?
C13 C14 C17 121.39(19) . . ?
C14 C15 H15 120.8 . . ?
C16 C15 C14 118.3(2) . . ?
C16 C15 H15 120.8 . . ?
C12 C13 C14 119.0(2) . . ?
C12 C13 H13 120.5 . . ?
C14 C13 H13 120.5 . . ?
N2 C7 C6 113.90(18) . . ?
N2 C7 C8 121.16(19) . . ?
C8 C7 C6 124.90(19) . . ?
N1 C6 C7 114.27(18) . . ?
N1 C6 C3 122.08(19) . . ?
C3 C6 C7 123.55(19) . . ?
C11 C10 H10 120.2 . . ?
C11 C10 C9 119.54(19) . . ?
C9 C10 H10 120.2 . . ?
C6 C3 C2 118.6(2) . . ?
O3 C17 C14 116.65(19) . . ?
O4 C17 O3 124.6(2) . . ?
O4 C17 C14 118.6(2) . . ?
N3 C16 C15 123.1(2) . . ?
N3 C16 H16 118.5 . . ?
C15 C16 H16 118.5 . . ?
C7 C8 H8 120.1 . . ?
C7 C8 C9 119.7(2) . . ?
C9 C8 H8 120.1 . . ?
C22 N4 C20 115.6(2) . . ?
C2 C4 H4 120.6 . . ?
C5 C4 C2 118.7(2) . . ?
C5 C4 H4 120.6 . . ?
O2 C1 C2 116.09(19) . . ?
O1 C1 O2 125.2(2) . . ?
O1 C1 C2 118.7(2) . . ?
C19 C18 C9 122.1(2) . . ?
C21 C18 C9 121.8(2) . . ?
C21 C18 C19 116.0(2) . . ?
C10 C9 C8 117.9(2) . . ?
C10 C9 C18 121.9(2) . . ?
C8 C9 C18 120.2(2) . . ?
N1 C5 C4 122.4(2) . . ?
N1 C5 H5 118.8 . . ?
C4 C5 H5 118.8 . . ?
C18 C19 H19 120.3 . . ?
C20 C19 C18 119.4(2) . . ?
C20 C19 H19 120.3 . . ?
C18 C21 H21 120.2 . . ?
C18 C21 C22 119.6(3) . . ?
C22 C21 H21 120.2 . . ?
N4 C22 C21 124.7(3) . . ?
N4 C22 H22 117.7 . . ?
C21 C22 H22 117.7 . . ?
N4 C20 C19 124.6(2) . . ?
N4 C20 H20 117.7 . . ?
C19 C20 H20 117.7 . . ?
loop_
_geom_bond_atom_site_label_1
_geom_bond_atom_site_label_2
_geom_bond_distance
_geom_bond_site_symmetry_2
_geom_bond_publ_flag
Zn1 O2 1.9711(16) . ?
Zn1 O3 1.9840(17) 4_665 ?
Zn1 N2 2.0821(18) 2_655 ?
Zn1 N1 2.2020(18) 2_655 ?
Zn1 N3 2.1589(18) 2_655 ?
O2 C1 1.277(3) . ?
O3 Zn1 1.9839(17) 4_466 ?
O3 C17 1.285(3) . ?
N2 Zn1 2.0821(18) 2_645 ?
N2 C11 1.341(3) . ?
N2 C7 1.336(3) . ?
N1 Zn1 2.2019(18) 2_645 ?
N1 C6 1.344(3) . ?
N1 C5 1.334(3) . ?
N3 Zn1 2.1590(18) 2_645 ?
N3 C12 1.348(3) . ?
N3 C16 1.333(3) . ?
O4 C17 1.213(3) . ?
O1 C1 1.230(3) . ?
O5 H5A 0.8497 . ?
O5 H5B 0.8496 . ?
C11 C12 1.486(3) . ?
C11 C10 1.391(3) . ?
C2 C3 1.389(3) . ?
C2 C4 1.390(3) . ?
C2 C1 1.513(3) . ?
C12 C13 1.388(3) . ?
C14 C15 1.394(3) . ?
C14 C13 1.393(3) . ?
C14 C17 1.507(3) . ?
C15 H15 0.9300 . ?
C15 C16 1.387(3) . ?
C13 H13 0.9300 . ?
C7 C6 1.485(3) . ?
C7 C8 1.387(3) . ?
C6 C3 1.391(3) . ?
C10 H10 0.9300 . ?
C10 C9 1.396(3) . ?
C16 H16 0.9300 . ?
C8 H8 0.9300 . ?
C8 C9 1.395(3) . ?
N4 C22 1.321(4) . ?
N4 C20 1.334(4) . ?
C4 H4 0.9300 . ?
C4 C5 1.387(3) . ?
C18 C9 1.485(3) . ?
C18 C19 1.396(3) . ?
C18 C21 1.393(3) . ?
C5 H5 0.9300 . ?
C19 H19 0.9300 . ?
C19 C20 1.390(4) . ?
C21 H21 0.9300 . ?
C21 C22 1.392(4) . ?
C22 H22 0.9300 . ?
C20 H20 0.9300 . ?
