#------------------------------------------------------------------------------
#$Date: 2022-10-18 01:13:02 +0300 (Tue, 18 Oct 2022) $
#$Revision: 278614 $
#$URL: file:///home/coder/svn-repositories/cod/cif/1/56/77/1567794.cif $
#------------------------------------------------------------------------------
#
# This file is available in the Crystallography Open Database (COD),
# http://www.crystallography.net/
#
# All data on this site have been placed in the public domain by the
# contributors.
#
data_1567794
loop_
_publ_author_name
'Zeng, Heng'
'Xie, Xiao-Jing'
'Wang, Ying'
'Luo, Dong'
'Wei, Rong-Jia'
'Lu, Weigang'
'Li, Dan'
_publ_section_title
;
 Spatial Disposition of Square-Planar Mononuclear Nodes in Metal-Organic
 Frameworks for C2H2/CO2 Separation
;
_journal_name_full               'Chemical Science'
_journal_paper_doi               10.1039/D2SC04324F
_journal_year                    2022
_chemical_formula_moiety
'C16 H10 Cu N4 O4, 3(H2 O), 2(C2 H3 N), C1.5 H3 N0.75'
_chemical_formula_sum            'C21.5 H25 Cu N6.75 O7'
_chemical_formula_weight         553.52
_space_group_crystal_system      monoclinic
_space_group_IT_number           14
_space_group_name_Hall           '-P 2ybc'
_space_group_name_H-M_alt        'P 1 21/c 1'
_atom_sites_solution_hydrogens   mixed
_audit_block_doi                 10.5517/ccdc.csd.cc2bjndy
_audit_creation_date             2022-03-22
_audit_creation_method
;
Olex2 1.3
(compiled 2020.11.12 svn.r5f609507 for OlexSys, GUI svn.r6408)
;
_audit_update_record
;
2022-03-22 deposited with the CCDC.	2022-10-17 downloaded from the CCDC.
;
_cell_angle_alpha                90
_cell_angle_beta                 93.1530(10)
_cell_angle_gamma                90
_cell_formula_units_Z            4
_cell_length_a                   14.23210(10)
_cell_length_b                   13.23780(10)
_cell_length_c                   14.6287(2)
_cell_measurement_reflns_used    8535
_cell_measurement_temperature    100.01(11)
_cell_measurement_theta_max      76.5990
_cell_measurement_theta_min      3.0870
_cell_volume                     2751.90(5)
_computing_cell_refinement       'CrysAlisPro 1.171.39.33c (Rigaku OD, 2017)'
_computing_data_collection       'CrysAlisPro 1.171.39.33c (Rigaku OD, 2017)'
_computing_data_reduction        'CrysAlisPro 1.171.39.33c (Rigaku OD, 2017)'
_computing_molecular_graphics    'Olex2 1.3 (Dolomanov et al., 2009)'
_computing_publication_material  'Olex2 1.3 (Dolomanov et al., 2009)'
_computing_structure_refinement  'SHELXL 2018/3 (Sheldrick, 2015)'
_computing_structure_solution    'SHELXT 2014/5 (Sheldrick, 2014)'
_diffrn_ambient_temperature      100.0
_diffrn_measured_fraction_theta_full 0.983
_diffrn_measured_fraction_theta_max 0.946
_diffrn_measurement_details
;
List of Runs (angles in degrees, time in seconds):

  # Type    Start    End  Width  t~exp~   \w     \q     \k     \f   Frames
#--------------------------------------------------------------------------
  1  \w    -39.00  24.00   0.50    0.50    --   -0.90 -82.00 150.00  126
  2  \w     13.00  88.00   0.50    0.50    --    0.90  38.00 -30.00  150
  3  \w    -13.00  15.00   0.50    0.50    --    0.90  82.00 150.00   56
  4  \w    -21.00   5.00   0.50    0.50    --    0.90  38.00 -30.00   52
  5  \w     89.00 115.00   0.50    1.08    --  105.10  19.00-120.00   52
  6  \w    166.00 192.00   0.50    1.08    --  105.10  19.00-120.00   52
  7  \w     93.00 187.00   0.50    1.08    --  105.10  38.00  30.00  188
  8  \w     86.00 133.00   0.50    1.08    --  105.10 -82.00-120.00   94
  9  \w     20.00 140.00   0.50    1.08    --  105.10 -82.00-150.00  240
 10  \w     30.00 138.00   0.50    1.08    --  105.10 -77.00  60.00  216
 11  \w     82.00 141.00   0.50    1.08    --  105.10  82.00 -30.00  118
 12  \w    123.00 184.00   0.50    1.08    --  105.10  38.00  60.00  122
;
_diffrn_measurement_device       'four-circle diffractometer'
_diffrn_measurement_device_type  'XtaLAB AFC12 (RINC): Kappa single'
_diffrn_measurement_method       '\w scans'
_diffrn_radiation_type           CuK\a
_diffrn_radiation_wavelength     1.54184
_diffrn_reflns_av_R_equivalents  0.0277
_diffrn_reflns_av_unetI/netI     0.0336
_diffrn_reflns_Laue_measured_fraction_full 0.983
_diffrn_reflns_Laue_measured_fraction_max 0.946
_diffrn_reflns_limit_h_max       17
_diffrn_reflns_limit_h_min       -18
_diffrn_reflns_limit_k_max       16
_diffrn_reflns_limit_k_min       -16
_diffrn_reflns_limit_l_max       18
_diffrn_reflns_limit_l_min       -16
_diffrn_reflns_number            14174
_diffrn_reflns_point_group_measured_fraction_full 0.983
_diffrn_reflns_point_group_measured_fraction_max 0.946
_diffrn_reflns_theta_full        67.684
_diffrn_reflns_theta_max         77.553
_diffrn_reflns_theta_min         4.565
_exptl_absorpt_coefficient_mu    1.557
_exptl_absorpt_correction_T_max  1.00000
_exptl_absorpt_correction_T_min  0.90222
_exptl_absorpt_correction_type   multi-scan
_exptl_absorpt_process_details
;
CrysAlisPro 1.171.39.33c (Rigaku Oxford Diffraction, 2017)
Empirical absorption correction using spherical harmonics,
 implemented in SCALE3 ABSPACK scaling algorithm.
;
_exptl_crystal_colour            blue
_exptl_crystal_colour_primary    blue
_exptl_crystal_density_diffrn    1.336
_exptl_crystal_description       block
_exptl_crystal_F_000             1145
_exptl_crystal_size_max          0.1
_exptl_crystal_size_mid          0.05
_exptl_crystal_size_min          0.05
_refine_diff_density_max         1.651
_refine_diff_density_min         -0.953
_refine_diff_density_rms         0.132
_refine_ls_extinction_coef       0.0036(8)
_refine_ls_extinction_expression Fc^*^=kFc[1+0.001xFc^2^\l^3^/sin(2\q)]^-1/4^
_refine_ls_extinction_method     'SHELXL-2018/3 (Sheldrick 2018)'
_refine_ls_goodness_of_fit_ref   1.051
_refine_ls_hydrogen_treatment    constr
_refine_ls_matrix_type           full
_refine_ls_number_parameters     367
_refine_ls_number_reflns         5536
_refine_ls_number_restraints     97
_refine_ls_restrained_S_all      1.058
_refine_ls_R_factor_all          0.1217
_refine_ls_R_factor_gt           0.1134
_refine_ls_shift/su_max          0.001
_refine_ls_shift/su_mean         0.000
_refine_ls_structure_factor_coef Fsqd
_refine_ls_weighting_details
'w=1/[\s^2^(Fo^2^)+(0.1441P)^2^+14.9399P] where P=(Fo^2^+2Fc^2^)/3'
_refine_ls_weighting_scheme      calc
_refine_ls_wR_factor_gt          0.2897
_refine_ls_wR_factor_ref         0.2960
_reflns_Friedel_coverage         0.000
_reflns_number_gt                4900
_reflns_number_total             5536
_reflns_threshold_expression     'I > 2\s(I)'
_cod_data_source_file            d2sc04324f2.cif
_cod_data_source_block           jnu-4
_cod_original_formula_sum        'C21.50 H25 Cu N6.75 O7'
_cod_database_code               1567794
_shelx_shelxl_version_number     2018/3
_shelx_space_group_comment
;
The symmetry employed for this shelxl refinement is uniquely defined
by the following loop, which should always be used as a source of
symmetry information in preference to the above space-group names.
They are only intended as comments.
;
_shelx_estimated_absorpt_t_max   0.926
_shelx_estimated_absorpt_t_min   0.860
_olex2_refinement_description
;
1. Fixed Uiso
 At 1.2 times of:
  All C(H) groups
 At 1.5 times of:
  All C(H,H,H) groups, All O(H,H) groups
2. Restrained distances
 C17-N5
 1.137 with sigma of 0.01
 C17-C18
 1.456 with sigma of 0.01
 C18-N5
 2.593 with sigma of 0.02
 C19-N6
 1.137 with sigma of 0.01
 C19-C20
 1.456 with sigma of 0.01
 C20-N6
 2.593 with sigma of 0.02
 C21-N7
 1.137 with sigma of 0.01
 C21-C22
 1.456 with sigma of 0.01
 C22-N7
 2.593 with sigma of 0.02
 C23-N8
 1.137 with sigma of 0.01
 C23-C24
 1.456 with sigma of 0.01
 C24-N8
 2.593 with sigma of 0.02
 N8-O4
 3 with sigma of 0.01
3. Uiso/Uaniso restraints and constraints
N5 \\sim C17 \\sim C18: within 2A with sigma of 0.04 and sigma for terminal
atoms of 0.08 within 2A
N6 \\sim C19 \\sim C20: within 2A with sigma of 0.04 and sigma for terminal
atoms of 0.08 within 2A
N7 \\sim C21 \\sim C22: within 2A with sigma of 0.04 and sigma for terminal
atoms of 0.08 within 2A
N8 \\sim C23 \\sim C24: within 2A with sigma of 0.04 and sigma for terminal
atoms of 0.08 within 2A
4. Rigid body (RIGU) restrains
 N6, C19, C20
 with sigma for 1-2 distances of 0.004 and sigma for 1-3 distances of 0.004
 N5, C17, C18
 with sigma for 1-2 distances of 0.0005 and sigma for 1-3 distances of 0.0005
 C20, N6, C19
 with sigma for 1-2 distances of 0.0005 and sigma for 1-3 distances of 0.0005
 N7, C21, C22
 with sigma for 1-2 distances of 0.0005 and sigma for 1-3 distances of 0.0005
 N8, C23, C24
 with sigma for 1-2 distances of 0.004 and sigma for 1-3 distances of 0.004
5. Others
 Fixed Sof: N5(0.5) C17(0.5) C18(0.5) H18A(0.5) H18B(0.5) H18C(0.5) N6(0.75)
 C19(0.75) C20(0.75) N8(0.5) C23(0.5) C24(0.5) H24A(0.5) H24B(0.5) H24C(0.5)
6.a Free rotating group:
 O5(H5A,H5B), O6(H6A,H6B), O7(H7A,H7B), N5(C17,C18), N6(C19,C20), N7(C21,C22),
 N8(C23,C24)
6.b Aromatic/amide H refined with riding coordinates:
 C2(H2), C8(H8), C9(H9), C11(H11), C12(H12), C15(H15), C16(H16)
6.c Idealised Me refined as rotating group:
 C13(H13A,H13B,H13C), C18(H18A,H18B,H18C), C20(H20A,H20B,H20C), C22(H22A,H22B,
 H22C), C24(H24A,H24B,H24C)
;
_shelx_res_file
;
TITL cu-ha-1_a.res in P2(1)/c
    jnu-4.res
    created by SHELXL-2018/3 at 22:04:16 on 22-Mar-2022
REM Old TITL cu-ha-1 in P2(1)/m
REM SHELXT solution in P2(1)/c
REM R1 0.290, Rweak 0.229, Alpha 0.083, Orientation as input
REM Formula found by SHELXT: C17 N10 O7 Cu
CELL 1.54184 14.2321 13.2378 14.6287 90 93.153 90
ZERR 4 0.0001 0.0001 0.0002 0 0.001 0
LATT 1
SYMM -X,0.5+Y,0.5-Z
SFAC C H Cu N O
UNIT 86 100 4 27 28
DFIX 1.137 0.01 C17 N5
DFIX 1.456 0.01 C17 C18
DFIX 2.593 C18 N5
DFIX 1.137 0.01 C19 N6
DFIX 1.456 0.01 C19 C20
DFIX 2.593 C20 N6
DFIX 1.137 0.01 C21 N7
DFIX 1.456 0.01 C21 C22
DFIX 2.593 C22 N7
DFIX 1.137 0.01 C23 N8
DFIX 1.456 0.01 C23 C24
DFIX 2.593 C24 N8
DFIX 3 0.01 N8 O4
SIMU N5 C17 C18
SIMU N6 C19 C20
SIMU N7 C21 C22
SIMU N8 C23 C24
RIGU N6 C19 C20
RIGU 0.0005 0.0005 N5 C17 C18
RIGU 0.0005 0.0005 C20 N6 C19
RIGU 0.0005 0.0005 N7 C21 C22
RIGU N8 C23 C24

L.S. 10
PLAN  5
SIZE 0.1 0.05 0.05
TEMP -173.15
CONF
BOND $H
list 4
MORE -1
fmap 2
acta
OMIT -5 4 15
OMIT -5 0 14
OMIT -2 2 2
OMIT 1 0 0
OMIT 1 4 3
OMIT -6 0 12
OMIT -1 2 1
OMIT 2 3 0
OMIT -3 1 2
OMIT -2 1 1
OMIT 1 1 3
OMIT 1 0 4
OMIT -5 2 15
OMIT -1 6 17
OMIT -4 5 16
OMIT -3 7 16
OMIT -2 1 3
OMIT -7 7 12
OMIT 2 0 4
OMIT -7 1 11
OMIT -2 0 4
OMIT -2 3 1
OMIT 0 1 1
OMIT -4 1 3
OMIT -3 0 4
OMIT 4 4 1
OMIT 0 2 3
OMIT 1 5 4
OMIT 3 6 0
OMIT 2 2 0
OMIT 5 2 4
OMIT 3 1 0
OMIT -6 2 12
OMIT 0 5 3
OMIT 1 4 5
OMIT -4 1 16
OMIT -8 1 8
OMIT 0 2 5
OMIT 0 0 4
OMIT -1 4 5
OMIT 2 6 2
OMIT -6 1 13
OMIT -3 0 16
OMIT -6 7 13
OMIT -5 8 13
OMIT -3 0 2
OMIT 4 2 2
OMIT -2 3 6
OMIT 6 2 1
OMIT 9 2 2
OMIT -1 3 1
OMIT -1 4 1
OMIT -11 0 2
OMIT 11 2 9
OMIT 3 6 1
OMIT 10 3 10
OMIT -4 4 16
OMIT 6 2 0
OMIT 3 3 0
OMIT -8 4 11
OMIT 12 1 10
OMIT -7 3 16
OMIT 7 2 5
OMIT -3 3 4
OMIT -4 5 2
OMIT -2 5 17
OMIT 2 3 1
OMIT -5 4 2
OMIT 16 1 4
OMIT 1 2 3
OMIT -4 3 16
OMIT -5 1 1
OMIT 9 1 2
OMIT -6 3 4
REM <olex2.extras>
REM <HklSrc "%.\\JNU-4.hkl">
REM </olex2.extras>

WGHT    0.144100   14.939899
EXTI    0.003641
FVAR       0.53678
CU1   3    1.000000    0.500000    0.000000    10.50000    0.03485    0.02683 =
         0.02024    0.00275    0.00107   -0.00972
CU2   3    0.500000    0.500000    0.500000    10.50000    0.04756    0.12135 =
         0.03072    0.00005   -0.00092    0.05895
O1    5    0.953411    0.428022    0.104258    11.00000    0.04313    0.03516 =
         0.02229    0.00420    0.00376   -0.01139
O2    5    0.585501    0.442477    0.413367    11.00000    0.04235    0.07077 =
         0.03144    0.00786    0.00482    0.03057
N1    4    0.837523    0.194691    0.339504    11.00000    0.02459    0.02418 =
         0.01701    0.00010    0.00178   -0.00082
N2    4    0.911977    0.077957    0.417196    11.00000    0.03158    0.02727 =
         0.02184   -0.00543    0.00218    0.00326
O3    5    0.866692    0.567091    0.105869    11.00000    0.04790    0.04649 =
         0.05127    0.02726   -0.00060   -0.00351
N3    4    0.850900    0.030387    0.355462    11.00000    0.03326    0.02638 =
         0.02629   -0.00302    0.00236    0.00134
C1    1    0.810197    0.293944    0.308800    11.00000    0.02007    0.02972 =
         0.01593    0.00140   -0.00335   -0.00074
N4    4    0.596091    0.035155    0.100263    11.00000    0.03613    0.05439 =
         0.03301    0.00013   -0.00347   -0.02287
C2    1    0.861452    0.339910    0.242089    11.00000    0.02190    0.02961 =
         0.02110    0.00215   -0.00008   -0.00528
AFIX  43
H2    2    0.913872    0.306509    0.218233    11.00000   -1.20000
AFIX   0
C3    1    0.904729    0.174827    0.408374    11.00000    0.02610    0.02767 =
         0.01887   -0.00152   -0.00324    0.00342
C4    1    0.806481    0.102254    0.308773    11.00000    0.02864    0.02979 =
         0.02313    0.00046    0.00388   -0.00208
C5    1    0.708651    0.437711    0.315245    11.00000    0.02664    0.03385 =
         0.03701    0.00141    0.00214    0.00265
C6    1    0.835025    0.435011    0.210930    11.00000    0.02864    0.03536 =
         0.02411    0.00313   -0.00302   -0.00578
C7    1    0.733404    0.082935    0.236076    11.00000    0.02827    0.03375 =
         0.02501   -0.00017    0.00082   -0.00596
C8    1    0.734373    0.341045    0.346145    11.00000    0.02323    0.03313 =
         0.02521   -0.00117    0.00457   -0.00076
AFIX  43
H8    2    0.700471    0.308372    0.391856    11.00000   -1.20000
AFIX   0
C9    1    0.759839    0.484295    0.248093    11.00000    0.03048    0.02787 =
         0.04563    0.00770   -0.00520    0.00022
AFIX  43
H9    2    0.743037    0.550319    0.227668    11.00000   -1.20000
AFIX   0
C10   1    0.888185    0.481784    0.135049    11.00000    0.03424    0.03480 =
         0.03832    0.00762   -0.01253   -0.01149
C11   1    0.643897    0.122589    0.097852    11.00000    0.03741    0.05448 =
         0.02741    0.00259   -0.00362   -0.02219
AFIX  43
H11   2    0.629867    0.168056    0.048741    11.00000   -1.20000
AFIX   0
C12   1    0.712769    0.149073    0.164058    11.00000    0.03699    0.04349 =
         0.02910    0.00192   -0.00262   -0.01572
AFIX  43
H12   2    0.745358    0.211435    0.160280    11.00000   -1.20000
AFIX   0
C13   1    0.958243    0.253948    0.460264    11.00000    0.04841    0.03122 =
         0.03785   -0.00350   -0.01995    0.00435
AFIX 137
H13A  2    0.988784    0.298622    0.417475    11.00000   -1.50000
H13B  2    1.006193    0.222201    0.501469    11.00000   -1.50000
H13C  2    0.915194    0.293419    0.496213    11.00000   -1.50000
AFIX   0
C14   1    0.629866    0.492050    0.357729    11.00000    0.03104    0.03547 =
         0.07202   -0.00380    0.00537    0.00582
C15   1    0.683598   -0.007557    0.238601    11.00000    0.04185    0.04165 =
         0.05027    0.01018   -0.00712   -0.01482
AFIX  43
H15   2    0.695749   -0.054323    0.287074    11.00000   -1.20000
AFIX   0
O4    5    0.610490    0.577293    0.335079    11.00000    0.06287    0.04738 =
         0.31063    0.02612    0.09260    0.01904
C16   1    0.616410   -0.028128    0.169632    11.00000    0.05118    0.04431 =
         0.05663    0.00669   -0.00937   -0.02530
AFIX  43
H16   2    0.583034   -0.090174    0.171545    11.00000   -1.20000
AFIX   6

O5    5    0.431993    0.316074    0.503739    11.00000    0.05959    0.07978 =
         0.11781    0.01022    0.00853    0.00472
H5A   2    0.489490    0.333209    0.502484    11.00000   -1.50000
H5B   2    0.426933    0.252787    0.495082    11.00000   -1.50000
AFIX   6

O6    5    1.041623    0.182005    0.237383    11.00000    0.06898    0.06659 =
         0.12678    0.01447    0.01723    0.01463
H6A   2    1.089922    0.153028    0.262032    11.00000   -1.50000
H6B   2    1.013530    0.141884    0.199636    11.00000   -1.50000
AFIX   6

O7    5    1.152018    0.192002    0.636491    11.00000    0.10456    0.06436 =
         0.18443    0.01565    0.03946    0.00364
H7A   2    1.126848    0.134007    0.640017    11.00000   -1.50000
H7B   2    1.186882    0.193419    0.591165    11.00000   -1.50000
AFIX   6

N5    4    0.488364   -0.167830    0.330461    10.50000    0.08325    0.13094 =
         0.13926   -0.01975    0.02318   -0.04538
C17   1    0.485922   -0.220332    0.268823    10.50000    0.07127    0.11064 =
         0.12652   -0.00363    0.00143   -0.01719
C18   1    0.484079   -0.288274    0.190466    10.50000    0.04844    0.05974 =
         0.09522    0.03617   -0.00104   -0.01475
AFIX 137
H18A  2    0.434342   -0.267175    0.145508    10.50000   -1.50000
H18B  2    0.471652   -0.357313    0.210756    10.50000   -1.50000
H18C  2    0.545001   -0.286062    0.162397    10.50000   -1.50000
AFIX   6

N6    4    0.699142    0.151357    0.504847    10.75000    0.07852    0.06868 =
         0.05583    0.01303    0.03441    0.01631
C19   1    0.676819    0.068878    0.505235    10.75000    0.07942    0.07051 =
         0.08400    0.02580   -0.00898    0.01333
C20   1    0.649742   -0.037201    0.505334    10.75000    0.23776    0.08609 =
         0.16713    0.04670   -0.11045   -0.03737
AFIX 137
H20A  2    0.608507   -0.051590    0.451033    11.00000   -1.50000
H20B  2    0.616281   -0.051932    0.560584    11.00000   -1.50000
H20C  2    0.706214   -0.079472    0.504451    11.00000   -1.50000
AFIX   6

N7    4    0.958052    0.029202    0.126677    11.00000    0.11331    0.14049 =
         0.09050    0.01437    0.01504    0.01382
C21   1    0.906683   -0.006833    0.074034    11.00000    0.10505    0.12995 =
         0.10946    0.00125    0.00396    0.03931
C22   1    0.841658   -0.052071    0.005453    11.00000    0.10433    0.24269 =
         0.20327   -0.09286   -0.03455    0.08333
AFIX 137
H22A  2    0.872342   -0.057853   -0.052672    11.00000   -1.50000
H22B  2    0.785564   -0.009441   -0.003072    11.00000   -1.50000
H22C  2    0.823296   -0.119371    0.025936    11.00000   -1.50000
AFIX   6

N8    4    0.698293    0.760123    0.274625    10.50000    0.04436    0.04366 =
         0.16208    0.01109   -0.00439    0.00826
C23   1    0.717310    0.751200    0.200552    10.50000    0.22957    0.10497 =
         0.17934   -0.03563    0.01932    0.00585
C24   1    0.742760    0.740965    0.105976    10.50000    0.11193    0.02115 =
         0.19606    0.02116    0.06213    0.00813
AFIX 137
H24A  2    0.710371    0.682342    0.078096    10.50000   -1.50000
H24B  2    0.810951    0.731582    0.104355    10.50000   -1.50000
H24C  2    0.724093    0.802081    0.071805    10.50000   -1.50000
AFIX   0
HKLF 4




REM  cu-ha-1_a.res in P2(1)/c
REM wR2 = 0.2960, GooF = S = 1.051, Restrained GooF = 1.058 for all data
REM R1 = 0.1134 for 4900 Fo > 4sig(Fo) and 0.1217 for all 5536 data
REM 367 parameters refined using 97 restraints

END

WGHT      0.1461     14.7572

REM Highest difference peak  1.651,  deepest hole -0.953,  1-sigma level  0.132
Q1    1   0.7611 -0.1789 -0.0215  11.00000  0.05    1.65
Q2    1   1.0845  0.1359  0.7676  11.00000  0.05    1.42
Q3    1   0.7824  0.7405  0.1518  11.00000  0.05    1.40
Q4    1   0.5352 -0.0313  0.6362  11.00000  0.05    1.38
Q5    1   0.8725  0.0002 -0.0230  11.00000  0.05    1.18
;
_shelx_res_checksum              42552
_shelx_hkl_file
;
   0   0   1    0.38    0.33
   0   0  -2  132.79    4.00
   0   0   2  142.58    4.17
   0   0   3    1.29    0.96
   0   0  -3    1.34    0.83
   0   0  -4   86.97    3.86
   0   0   4   85.64    3.98
   0   0  -5    6.60    1.43
   0   0  -5    8.25    1.95
   0   0  -6 2481.29   52.73
   0   0  -6 2537.41   55.88
   0   0  -7    1.78    1.67
   0   0  -7    1.57    1.13
   0   0  -7    1.45    1.38
   0   0  -8 3796.98   85.36
   0   0  -8 3677.73   77.48
   0   0  -8 3811.34   83.01
   0   0  -9    0.28    1.47
   0   0   9    0.09    1.11
   0   0  -9    0.69    1.27
   0   0  10 1335.50   31.66
   0   0  11    0.37    1.51
   0   0  12 2155.17   49.04
   0   0  13    1.80    1.90
   0   0  14   78.12    5.51
   0   0  15   -1.55    1.98
   0   0  15   -0.50    1.93
   0   0  16   33.40    3.15
   0   0  16   31.67    3.24
   0   0  17   49.81    3.09
   0  -1   0    0.35    0.48
   0  -1   0    0.24    0.46
   0   1   0    0.11    0.55
   0  -1   1    7.64    0.91
   0   1  -1    7.70    0.90
   0   1  -2  783.33   17.43
   0  -1  -2  786.22   17.89
   0  -1   2  777.63   17.44
   0  -1  -3  206.83    7.05
   0   1  -3  210.82    6.96
   0   1  -3  205.75    5.06
   0   1   3  218.22    7.22
   0   1  -4   50.12    2.23
   0   1  -4   50.60    3.52
   0  -1  -4   50.27    3.52
   0   1   4   53.70    3.74
   0  -1  -5   24.79    2.75
   0   1  -5   27.75    2.89
   0   1  -5   23.44    1.73
   0   1   5   27.70    2.94
   0   1  -6   20.38    3.57
   0  -1  -6   19.97    2.62
   0   1   6   22.17    2.87
   0   1  -6   19.66    1.66
   0   1  -6   21.99    2.89
   0  -1  -7   85.61    6.36
   0   1  -7   87.72    6.15
   0   1  -7   94.08    7.61
   0  -1  -7   90.31    5.63
   0   1  -7   80.51    3.58
   0   1  -8   83.55    6.44
   0  -1  -8   95.95    7.21
   0  -1  -8   80.63    5.50
   0   1  -8   82.98    7.60
   0   1  -8   72.61    3.10
   0  -1  -8   85.86    6.84
   0   1   9  170.48    7.18
   0   1  -9  165.00    9.96
   0   1  -9  149.92   11.19
   0  -1  -9  157.01   10.13
   0  -1  -9  143.20    9.71
   0   1  10  348.73   11.89
   0  -1  10  330.98   11.92
   0  -1  10  331.17   11.16
   0   1  11    7.23    2.29
   0  -1  11    5.02    1.79
   0  -1  11    5.83    2.03
   0  -1  12   26.15    3.33
   0   1  12   27.53    3.83
   0   1  13    3.23    2.19
   0  -1  13    3.96    1.98
   0  -1  14    2.92    1.69
   0  -1  14   -0.13    2.21
   0   1  14    5.18    2.38
   0  -1  15   74.88    5.03
   0   1  15   83.49    5.53
   0  -1  15   73.50    4.77
   0   1  16   23.95    3.05
   0   1  16   17.30    2.71
   0  -1  16   18.46    2.13
   0   1  17   13.44    1.86
   0   1  17   16.89    2.19
   0  -2   1  404.03    9.48
   0   2  -1  393.08   11.10
   0  -2  -1  391.44    9.08
   0   2  -1  388.62    9.47
   0  -2   1  406.39   10.30
   0   2  -2 2945.31   57.98
   0   2  -2 2971.15   60.15
   0  -2   2 2993.12   57.97
   0  -2   2 2946.67   60.15
   0   2  -3  466.51   12.80
   0  -2  -3  471.55   13.60
   0  -2   3  473.87   12.81
   0   2   3  482.35   13.83
   0  -2   4   39.26    3.34
   0   2  -4   33.94    2.99
   0   2   4   37.33    3.58
   0  -2  -4   36.53    3.47
   0   2  -5   46.93    5.04
   0   2  -5   44.88    3.69
   0   2   5   48.73    4.33
   0  -2  -5   39.37    3.72
   0   2  -6  135.19    7.13
   0   2  -6  139.69    9.19
   0  -2  -6  138.62    7.46
   0   2   6  130.97    7.61
   0   2  -7   35.21    3.88
   0   2  -7   28.48    4.54
   0  -2  -7   31.39    3.77
   0  -2  -7   34.42    3.67
   0   2   7   32.42    4.01
   0  -2  -8 2169.03   52.08
   0  -2  -8 2251.90   52.75
   0   2  -8 2293.52   53.37
   0   2  -8 2172.44   58.29
   0   2   9   36.86    3.38
   0  -2   9   36.99    3.64
   0  -2  -9   29.57    4.01
   0   2  -9   38.74    4.68
   0  -2  10 1165.84   27.72
   0   2  10 1181.23   29.28
   0  -2  10 1179.02   30.13
   0  -2  11   11.64    2.12
   0   2  11   12.65    2.70
   0  -2  11   11.51    2.57
   0  -2  12  537.72   15.97
   0  -2  12  514.16   17.46
   0  -2  13   22.51    3.32
   0   2  13   28.86    3.81
   0  -2  13   20.01    2.74
   0  -2  13   21.76    3.15
   0  -2  14  304.50   10.82
   0  -2  14  322.23   11.37
   0  -2  15   15.09    2.39
   0   2  15    8.87    2.64
   0   2  16  167.71    7.57
   0   2  16  155.32    7.24
   0   2  17   12.74    2.14
   0   2  17   14.18    1.98
   0   3   0    2.21    1.49
   0   3   0   -0.07    1.29
   0  -3   0    1.30    1.35
   0   3  -1  229.75    7.30
   0  -3   1  227.71    7.87
   0  -3  -1  217.88    8.11
   0  -3   1  226.39    7.16
   0   3  -1  228.49    8.56
   0  -3  -2  169.34    4.86
   0   3  -2  171.34    7.89
   0  -3   2  177.07    5.43
   0   3  -2  172.33    5.49
   0  -3   2  177.71    6.84
   0   3  -3  460.90   15.47
   0   3   3  445.84   14.42
   0  -3   3  457.50   13.27
   0  -3  -3  450.70   14.19
   0   3  -3  455.63   13.17
   0   3  -4   18.32    2.53
   0  -3  -4   16.44    2.87
   0   3   4   13.52    2.78
   0  -3   4   13.00    2.23
   0   3  -5  179.20    8.07
   0  -3  -5  168.03    8.68
   0   3   5  174.21    9.13
   0  -3   5  166.36    8.00
   0   3   6    0.75    1.70
   0   3  -6    0.49    1.91
   0   3  -6    1.26    1.34
   0  -3  -6    0.24    1.00
   0  -3  -6    1.35    1.66
   0   3   7  133.93    8.74
   0  -3  -7  138.43    8.55
   0  -3  -7  137.57    6.49
   0   3  -7  152.06   10.84
   0   3  -7  147.70    8.23
   0   3  -8    1.34    1.32
   0  -3  -8    1.33    1.09
   0  -3  -8    1.71    1.67
   0  -3  -9    3.04    1.80
   0   3  -9    1.55    1.40
   0  -3   9    3.20    1.83
   0   3   9    1.68    1.54
   0  -3  10  212.42   10.10
   0   3  10  219.06    9.39
   0   3  11   31.67    3.87
   0  -3  11   31.75    4.15
   0  -3  12    7.99    2.77
   0  -3  12    5.31    1.98
   0   3  12    6.46    2.64
   0  -3  13    2.34    2.04
   0   3  13    3.00    2.39
   0   3  14    1.68    2.47
   0  -3  14    0.14    1.60
   0   3  16   41.27    3.84
   0   3  16   47.13    4.09
   0   3  17    4.28    1.61
   0   3  17    1.02    1.59
   0  -4   0 7823.80  155.36
   0  -4   1   23.24    2.83
   0  -4  -1   24.18    2.97
   0   4  -1   25.90    3.12
   0  -4   1   26.40    2.60
   0  -4  -2 1252.32   31.12
   0  -4   2 1277.03   30.09
   0  -4   2 1247.27   27.90
   0   4  -2 1263.63   31.88
   0  -4   3   53.74    4.18
   0   4  -3   52.99    5.20
   0  -4   3   56.70    2.88
   0   4  -3   52.92    2.90
   0   4  -4  883.80   27.35
   0  -4   4  909.86   24.40
   0  -4  -4  927.66   25.99
   0   4   4  934.44   26.58
   0  -4   5  100.30    6.36
   0   4  -5  102.48    6.36
   0  -4  -5  102.64    7.25
   0   4   5   99.29    7.32
   0   4  -6 1137.11   30.51
   0  -4  -6 1190.67   33.10
   0   4   6 1168.13   33.73
   0   4  -7  114.77    9.90
   0   4  -7  108.82    7.33
   0  -4  -7  105.63    8.08
   0   4   7  112.94    8.66
   0  -4   8 1346.87   33.31
   0   4  -8 1356.11   36.56
   0   4   8 1319.90   31.56
   0   4   8 1358.10   32.12
   0  -4   9   48.25    4.67
   0   4   9   49.32    4.18
   0   4   9   50.15    3.98
   0  -4  10   75.23    6.13
   0   4  10   68.85    4.84
   0  -4  11    4.07    2.56
   0  -4  12  126.66    8.29
   0   4  12  124.00    7.65
   0   4  13   25.74    3.81
   0  -4  13   17.77    3.52
   0  -4  14  267.16   11.64
   0   4  14  303.16   12.05
   0   4  15   16.23    3.18
   0  -4  15   17.89    2.77
   0   4  16  162.43    7.30
   0   4  16  170.58    7.50
   0   4  17   48.42    3.39
   0   4  17   54.49    3.37
   0  -5   0    0.24    1.37
   0  -5   1   82.63    5.65
   0  -5  -1   86.47    5.88
   0  -5   1   86.53    5.22
   0   5  -1   82.45    5.82
   0   5  -2  682.82   18.43
   0  -5   2  702.19   18.24
   0  -5  -2  706.28   21.16
   0  -5   2  718.42   20.44
   0   5  -2  660.01   21.20
   0   5   2  679.96   21.24
   0  -5   3  469.56   15.55
   0   5  -3  462.33   12.92
   0   5  -3  446.50   17.37
   0  -5   3  462.12   12.60
   0   5  -4   38.94    5.20
   0   5  -4   36.74    2.17
   0  -5   4   41.45    4.18
   0   5   5   10.62    3.21
   0   5  -5    8.14    3.15
   0  -5   5   10.01    2.45
   0  -5  -5    7.53    2.77
   0   5  -6   57.56    6.93
   0   5   6   60.71    6.65
   0  -5  -6   59.38    6.17
   0  -5   6   59.09    5.42
   0   5   7  256.44    9.89
   0  -5   7  251.43   10.53
   0   5   7  258.47    9.31
   0   5   8  114.33    6.35
   0   5   8  124.10    6.79
   0  -5   8  117.00    7.17
   0   5   8  118.55    6.29
   0   5   9   36.27    3.69
   0   5   9   41.00    3.97
   0  -5   9   33.56    4.38
   0   5  10   82.59    5.90
   0   5  10   87.87    5.78
   0  -5  10   88.85    6.95
   0  -5  11   50.44    5.58
   0   5  11   44.12    4.55
   0  -5  12    2.42    2.48
   0  -5  13  125.32    8.31
   0  -5  14   19.71    3.53
   0   5  15    0.25    2.40
   0  -5  15    1.84    1.85
   0   5  16   -0.86    1.82
   0   5  16   -0.49    1.95
   0   5  17   24.21    2.31
   0   5  17    1.68    1.39
   0   6   0 1813.43   43.95
   0  -6   0 1806.53   43.39
   0   6  -1  129.02    7.42
   0  -6  -1  120.28    7.64
   0  -6   1  126.01    7.05
   0   6   1  129.89    8.11
   0  -6   1  133.40    7.90
   0  -6   2  582.66   18.99
   0   6  -2  557.58   17.22
   0   6  -2  559.28   19.80
   0  -6   2  569.08   16.76
   0   6   2  558.91   19.88
   0  -6  -2  565.31   19.60
   0  -6   3   57.41    3.88
   0  -6  -3   59.85    5.83
   0   6  -3   53.38    5.83
   0   6  -3   55.75    4.05
   0   6   3   61.45    6.14
   0  -6   3   58.39    5.20
   0   6  -4 1260.95   28.77
   0  -6   4 1376.30   35.09
   0   6  -4 1364.26   38.87
   0   6  -5    7.99    3.10
   0  -6   5   10.79    2.70
   0  -6  -5    6.35    2.57
   0  -6   6 1661.36   43.39
   0   6   6 1652.49   38.75
   0  -6   6 1654.87   39.64
   0   6   6 1687.83   38.72
   0   6   7   76.49    5.33
   0   6   7   73.65    4.69
   0   6   7   72.05    5.24
   0   6   8 1663.41   40.15
   0   6   8 1654.39   38.74
   0  -6   8 1690.49   41.49
   0   6   8 1653.53   39.66
   0   6   9  144.78    7.63
   0   6   9  143.06    7.82
   0  -6   9  142.69    8.96
   0   6  10   37.00    4.07
   0   6  10   32.87    3.97
   0  -6  10   34.70    4.87
   0  -6  11   35.70    5.08
   0   6  11   29.37    3.99
   0   6  12  641.63   20.05
   0  -6  12  641.58   22.03
   0  -6  13    0.58    2.59
   0   6  13    4.13    2.63
   0  -6  14  248.25   11.24
   0  -6  15   24.22    3.10
   0  -6  16   50.17    3.01
   0   6  17   48.66    2.73
   0  -7   0    0.19    1.35
   0  -7   0    1.27    1.78
   0   7   0    0.81    1.65
   0   7   1  197.71   11.19
   0  -7  -1  188.14   10.58
   0   7  -1  200.65   10.30
   0  -7   1  196.21    9.80
   0  -7   1  201.89   10.84
   0  -7   2   47.22    4.31
   0   7  -2   48.81    4.59
   0   7   2   48.57    5.71
   0  -7   2   50.65    5.27
   0  -7  -2   47.07    5.38
   0  -7  -3  641.58   23.07
   0  -7   3  627.12   21.58
   0   7  -3  592.05   22.99
   0   7  -3  613.51   18.54
   0  -7   3  623.79   17.99
   0   7   4   22.13    2.85
   0   7  -4   21.74    4.44
   0  -7   4   25.92    4.04
   0   7   5  442.42   14.46
   0  -7   5  435.08   14.79
   0   7   6   33.00    3.77
   0  -7   6   34.80    4.07
   0   7   6   32.23    3.67
   0  -7   6   30.11    3.12
   0   7   6   33.19    3.07
   0   7   7   34.41    4.03
   0  -7   7   35.53    4.42
   0   7   7   31.81    3.34
   0   7   7   36.92    4.18
   0   7   8    9.09    2.63
   0   7   8    9.87    2.39
   0   7   8   13.91    2.97
   0   7   9    9.30    2.73
   0   7   9    8.26    2.64
   0  -7   9   10.18    3.48
   0   7  10  144.61    8.26
   0   7  10  137.16    7.86
   0  -7  10  151.44    9.83
   0  -7  11   17.05    4.07
   0   7  11   12.76    3.22
   0   7  11   13.35    2.80
   0   7  12    9.74    2.99
   0  -7  12    8.84    3.52
   0  -7  13    4.35    3.02
   0   7  13    1.42    2.56
   0  -7  14   74.36    5.87
   0   7  14   64.52    5.05
   0   7  15   94.17    5.30
   0  -7  15   90.30    5.48
   0   7  15  105.98    5.52
   0   7  16    3.96    1.50
   0   7  16   32.04    2.57
   0   8   0  152.93   10.17
   0  -8   0  151.17    9.62
   0  -8   1  328.24   14.14
   0   8   1  325.17   11.36
   0  -8  -1  316.01   15.19
   0   8  -1  320.84   14.77
   0   8  -2  448.05   17.14
   0  -8   2  466.90   16.64
   0   8   2  449.42   14.10
   0   8   2  453.51   14.49
   0   8   3  227.41    9.39
   0   8   3  227.46    9.60
   0  -8   3  230.53    9.48
   0   8   4  980.50   26.21
   0  -8   4 1012.13   26.59
   0  -8   5   15.04    2.94
   0   8   5   10.42    2.51
   0   8   5   14.52    2.07
   0   8   5   12.57    2.67
   0  -8   6  535.37   16.78
   0  -8   6  567.47   18.61
   0   8   6  520.17   15.47
   0   8   6  543.95   17.80
   0  -8   7    2.24    2.48
   0   8   7    3.02    1.56
   0   8   7    1.65    2.23
   0   8   7    2.92    2.43
   0   8   8  421.52   15.43
   0  -8   8  406.17   16.40
   0   8   8  384.71   13.58
   0   8   9   30.64    4.18
   0   8   9   26.40    3.52
   0   8  10    9.45    2.57
   0   8  10    7.26    2.62
   0   8  11   94.32    6.64
   0  -8  11  110.25    8.49
   0   8  11   99.15    6.55
   0  -8  12   14.82    4.06
   0   8  12   15.41    3.28
   0  -8  13    4.42    2.82
   0   8  13    0.86    2.22
   0   8  14   87.15    5.18
   0  -8  14   91.62    6.19
   0   8  15    2.99    1.62
   0  -8  15    4.08    1.75
   0   8  16   73.63    3.34
   0   8  16  112.87    3.87
   0   9   0    0.50    1.51
   0   9   0    0.22    1.14
   0   9   1    3.71    1.99
   0   9   1    5.90    1.89
   0   9  -1    6.11    1.89
   0   9  -2    2.62    1.46
   0  -9   2    3.43    1.61
   0   9   2    3.07    1.88
   0   9   2    5.50    1.83
   0   9   3   17.15    3.03
   0   9   3   15.06    2.90
   0  -9   3   15.29    2.85
   0   9  -3   12.34    2.15
   0   9   4    7.88    2.41
   0   9   4    7.26    2.37
   0  -9   4    4.44    2.10
   0   9   5  284.37   12.08
   0  -9   5  286.90   12.36
   0  -9   5  285.19   11.85
   0   9   6   18.25    3.43
   0   9   6   14.24    2.28
   0  -9   6   18.33    3.52
   0   9   6   19.52    3.45
   0  -9   6   13.66    2.72
   0   9   7  136.63    6.92
   0  -9   7  126.68    7.24
   0   9   7  150.73    8.78
   0  -9   7  140.74    9.09
   0  -9   8   81.40    7.04
   0   9   8   74.67    6.26
   0   9   8   62.94    4.92
   0   9   9   43.26    4.30
   0  -9   9   45.80    5.89
   0   9   9   44.76    5.11
   0   9  10  107.74    7.24
   0   9  10  103.12    6.48
   0   9  11   26.88    3.76
   0   9  11   28.75    3.81
   0  -9  12   59.53    5.96
   0   9  12   48.36    4.25
   0  -9  13   21.11    3.66
   0   9  13   19.68    2.80
   0  -9  14   -0.12    1.75
   0   9  14   -2.15    1.66
   0  -9  15   35.64    2.75
   0   9  15   29.84    2.19
   0  10   0  181.31    8.15
   0  10   0  184.39    8.88
   0  10   1   17.96    3.08
   0  10  -1   19.67    2.92
   0  10   1   16.05    2.72
   0  10   2   29.48    3.85
   0  10  -2   33.88    3.57
   0 -10   2   29.43    3.49
   0  10   2   38.45    4.06
   0  10   3   30.60    3.94
   0 -10   3   28.65    3.65
   0  10  -3   23.66    2.92
   0  10   3   30.16    3.98
   0 -10   4  236.03   10.92
   0  10   4  228.39   10.95
   0  10   4  228.98   10.77
   0 -10   5   72.43    6.17
   0  10   5   73.47    6.14
   0 -10   5   73.30    6.03
   0 -10  -6  328.14   12.94
   0 -10   6  330.15   13.31
   0  10   6  333.41   14.01
   0 -10   6  354.61   14.79
   0  10   6  341.17   14.19
   0 -10   7    4.73    3.04
   0  10   7    4.45    2.69
   0 -10  -7    1.39    1.56
   0 -10   7    1.67    1.70
   0  10   7    1.87    1.48
   0  10   8  114.35    6.20
   0 -10   8  141.11    9.27
   0  10   8  129.72    8.39
   0  10   9    2.64    2.33
   0 -10   9    5.32    3.25
   0  10   9    3.62    1.86
   0  10  10   45.09    3.97
   0  10  10   47.81    4.93
   0 -10  10   59.28    6.16
   0  10  11   38.90    3.66
   0  10  12   61.27    4.02
   0 -10  13    3.84    2.44
   0  10  13   38.90    2.91
   0  10  14   49.10    2.84
   0 -10  14   41.82    3.34
   0  11   0   -0.13    1.42
   0  11   0   -0.62    1.95
   0  11   1  131.13    7.87
   0  11   1  126.48    7.15
   0  11  -1  129.06    7.39
   0  11   2    2.04    2.33
   0  11   2   -0.91    1.98
   0  11  -2    0.55    1.45
   0  11   3    8.41    2.68
   0  11  -3    7.31    2.07
   0 -11   3    5.35    2.21
   0 -11   3    6.81    2.89
   0  11   3    8.63    3.07
   0 -11  -4  335.97   14.09
   0  11   4  331.86   13.91
   0 -11   4  331.52   14.27
   0  11   4  335.09   13.67
   0 -11   4  336.12   13.54
   0 -11   5   16.92    3.63
   0 -11  -5   15.47    3.37
   0  11   5   23.55    4.23
   0 -11   5   17.22    3.42
   0 -11   6  119.68    8.18
   0 -11  -6  120.26    7.37
   0 -11   6  112.37    7.40
   0 -11   7   11.51    3.46
   0 -11  -7    8.91    2.27
   0 -11   7    8.13    2.33
   0  11   7   11.59    3.51
   0 -11   8   10.75    3.33
   0  11   8   11.12    3.25
   0 -11   9    6.91    3.35
   0  11   9    3.43    2.49
   0 -11  10   -0.18    2.67
   0  11  10    3.83    1.39
   0  11  10    1.58    2.07
   0  11  11  141.90    5.49
   0 -11  11  174.52    8.91
   0  11  12   13.65    2.14
   0  12   0  767.00   22.71
   0  12   1   22.11    3.63
   0 -12   1   26.61    4.42
   0  12  -1   26.59    3.60
   0 -12  -1   27.36    4.42
   0 -12   2   74.25    6.72
   0  12  -2   71.01    5.25
   0  12   2   74.20    6.18
   0 -12  -2   76.29    6.75
   0 -12   3    1.69    1.76
   0  12   3    3.20    2.48
   0 -12   3    2.60    2.75
   0  12  -3    1.66    1.54
   0 -12  -3    3.30    2.62
   0 -12  -4  245.95   11.82
   0 -12   4  259.01   12.33
   0  12   4  258.65   12.04
   0 -12   4  252.77   11.04
   0  12   5    0.18    2.70
   0 -12   5   -0.18    2.22
   0 -12   5    1.17    2.17
   0 -12  -5    0.34    1.98
   0 -12  -6    3.61    2.12
   0 -12   6    5.55    2.64
   0 -12   6    7.63    2.68
   0 -12  -7    9.71    2.17
   0 -12   7   11.68    3.25
   0 -12   7   14.37    2.66
   0  12   8  241.24   10.95
   0 -12   8  232.69   11.09
   0  12   9    9.55    2.77
   0 -12   9   11.97    3.05
   0 -12  10    8.25    2.63
   0 -12  11    6.73    2.26
   0 -12  12   67.94    4.22
   0  13   0   -0.88    1.78
   0  13  -1   76.91    5.43
   0 -13   1   87.89    7.21
   0 -13  -1   84.16    7.11
   0  13   1   79.61    6.05
   0 -13  -2    8.08    3.11
   0  13   2   10.05    2.90
   0 -13   2   11.41    3.43
   0  13  -2    8.85    2.16
   0 -13  -3  264.54   12.20
   0 -13   3  264.05   12.48
   0  13   3  258.89   11.64
   0 -13   4    6.43    2.83
   0 -13  -4    4.42    2.51
   0  13   4    6.46    2.85
   0 -13   4    4.23    1.82
   0 -13  -5    6.23    2.45
   0 -13   5    3.02    1.91
   0  13   5    4.88    2.83
   0 -13   5    4.06    2.36
   0 -13  -6   -0.13    1.58
   0 -13   6    0.83    1.79
   0 -13   6   -0.68    1.80
   0  13   6    0.16    2.30
   0 -13   7    7.21    2.50
   0 -13  -7    3.81    1.41
   0  13   8    9.95    2.62
   0 -13   8    9.31    2.42
   0 -13   9  219.79    8.94
   0  13   9  211.03    8.77
   0 -13  10    0.65    1.44
   0 -13  11   95.66    4.45
   0  14   0   93.28    5.72
   0  14   1    1.04    1.77
   0  14  -1    1.18    1.32
   0 -14   1    1.59    2.67
   0 -14  -1    2.09    2.64
   0 -14  -2   12.23    3.24
   0 -14   2   12.88    3.43
   0  14   2    7.76    2.40
   0 -14  -3    0.94    2.16
   0  14   3    0.55    1.89
   0 -14   3    1.79    2.18
   0  14   4   55.27    4.80
   0 -14  -4   48.23    4.57
   0 -14   4   50.93    4.78
   0 -14  -5    2.50    1.80
   0  14   5    2.77    2.22
   0 -14   5    2.71    1.94
   0  14   6   13.76    2.82
   0 -14   7    8.42    1.63
   0 -14   8   14.52    1.86
   0  15   0    0.56    1.04
   0  15   1   61.99    4.09
   0 -15   1   67.01    5.30
   0 -15  -1   70.38    5.41
   0  15   2    2.83    1.56
   0 -15   2    3.45    2.16
   0 -15  -2    2.70    2.02
   0 -15  -3   63.16    4.66
   0  15   3   61.27    4.28
   0 -15   3   62.77    4.82
   0 -15  -4   -0.30    1.35
   0  15   4    0.39    1.44
   0  15   5    2.21    1.52
   0  15   6   -0.33    1.26
  -1   0  17   81.59    4.08
  -1   0  16  112.38    5.51
  -1   0  16  124.75    6.20
  -1   0  15   -1.74    1.99
  -1   0  15   -1.93    2.31
  -1   0  14   21.35    3.54
  -1   0  14   19.85    2.97
  -1   0  13    4.40    2.19
  -1   0  12    9.90    2.43
  -1   0  11    1.09    1.68
  -1   0  10  494.37   14.80
  -1   0   9    3.98    1.49
   1   0  -9    2.04    1.79
   1   0  -9    3.08    1.76
   1   0  -8 1147.80   27.23
   1   0  -8 1204.62   31.73
   1   0  -7    4.89    1.83
   1   0  -7    3.94    1.19
   1   0  -6  774.37   20.80
  -1   0   6  764.93   18.92
   1   0  -6  726.61   18.47
  -1   0   5    7.72    1.58
   1   0  -5    8.15    1.49
   1   0  -4 2022.85   41.74
   1   0  -3    0.70    0.78
  -1   0   3    0.37    0.86
   1   0  -2  132.61    4.04
  -1   0   2  131.16    4.06
  -1   0   1    0.32    0.54
   1   0  -1    0.50    0.52
   1   0   0  153.10    3.85
  -1   0   0  161.56    3.87
   1   0   1    3.07    0.91
  -1   0  -2  720.61   16.90
  -1   0  -3    3.46    1.41
  -1   0  -3    1.93    1.49
  -1   0  -3    2.26    1.24
  -1   0  -4  198.02    7.93
  -1   0  -4  195.60    8.00
  -1   0  -4  194.67    7.02
  -1   0  -5    1.03    1.37
  -1   0  -5    0.61    1.39
  -1   0  -6 1254.90   33.03
  -1   0  -6 1298.89   30.21
  -1   0  -6 1277.90   32.64
  -1   0  -7    7.67    2.40
  -1   0  -7    8.97    1.91
  -1   0  -7   12.31    2.89
  -1   0  -8  149.74    7.25
  -1   0  -8  158.92    9.90
  -1   0  -8  152.34    9.45
   1   0   9    0.87    1.19
  -1   0  -9    1.05    1.62
   1   0  10  212.81    8.69
   1   0  11   21.81    3.21
   1   0  12   77.25    5.55
   1   0  13    3.65    2.16
   1   0  14   55.22    4.66
   1   0  15    2.03    1.84
   1   0  15   -0.12    1.89
   1   0  16   97.28    5.18
   1   0  16  101.98    5.31
   1   0  17    5.29    1.29
   1   0  17   29.89    2.14
  -1   1  17   49.16    3.48
  -1   1  17   45.47    2.96
  -1   1  16   12.29    2.34
  -1   1  16   17.36    2.83
  -1   1  15  110.38    6.41
  -1  -1  15  110.50    6.17
  -1  -1  15   91.69    5.34
  -1   1  15  109.40    6.58
  -1  -1  14   33.25    3.87
  -1   1  14   36.16    4.04
  -1  -1  13  601.90   18.14
  -1  -1  13  619.57   18.72
  -1   1  13  648.44   19.34
  -1   1  12   43.72    4.37
  -1  -1  12   46.38    4.06
  -1   1  11  716.87   20.30
  -1  -1  11  701.63   19.43
  -1   1  10   43.25    3.84
  -1  -1  10   49.00    3.72
   1  -1  -9 1379.32   37.98
  -1   1   9 1403.98   32.19
   1   1  -9 1384.05   36.74
   1  -1  -9 1329.52   39.17
   1  -1  -8  250.61   10.22
   1   1  -8  260.41   11.35
   1  -1  -8  261.26   12.12
   1  -1  -7  761.52   19.81
  -1   1   7  763.52   20.43
   1   1  -7  755.30   20.67
   1   1  -6   28.58    3.05
   1   1  -6   27.75    1.61
  -1   1   6   27.37    3.08
   1  -1  -6   28.61    3.03
  -1   1   5    4.34    1.56
   1   1  -5    7.35    0.88
   1   1  -5    5.22    1.53
   1  -1  -5    7.72    1.68
   1   1  -4  397.44   10.97
   1   1  -4  387.56    8.73
   1  -1  -4  391.12   11.50
  -1  -1   4  401.58    8.86
  -1   1   3    6.11    1.48
   1   1  -3    4.62    1.15
   1  -1  -3    5.56    1.46
  -1  -1   2 1434.15   29.30
   1   1  -2 1468.41   29.25
  -1   1   2 1433.99   30.76
  -1  -1   0 1318.61   27.31
   1   1   2    6.80    1.60
   1  -1   2    5.39    1.78
  -1  -1  -2    5.49    1.49
  -1   1  -2    5.88    1.87
   1  -1   2    5.21    1.41
  -1   1  -2    5.66    1.43
  -1   1  -3   69.56    4.61
  -1  -1  -3   64.35    3.28
  -1   1  -3   65.72    3.93
  -1  -1  -3   67.34    3.94
  -1   1  -4  139.77    5.14
  -1   1  -4  131.49    6.32
  -1   1  -4  124.00    6.94
  -1  -1  -4  133.37    5.76
  -1   1  -5   25.42    3.12
  -1  -1  -5   23.85    2.81
  -1  -1  -5   26.73    3.02
  -1   1  -5   22.79    3.49
  -1   1  -6  150.61    8.02
  -1   1  -6  151.82    8.98
  -1  -1  -6  149.39    7.66
  -1   1  -6  148.28    5.91
  -1  -1  -6  152.72    7.50
  -1  -1  -7  546.48   18.97
  -1   1  -7  522.76   14.18
  -1   1  -7  546.60   20.07
  -1  -1  -7  524.02   16.80
  -1   1  -7  533.14   18.32
  -1  -1  -7  525.24   17.69
  -1   1  -8   23.73    2.21
  -1  -1  -8   24.28    3.25
  -1  -1  -8   22.24    3.47
  -1   1  -8   23.79    4.24
  -1   1  -8   25.31    3.82
  -1  -1  -8   27.32    4.12
  -1   1  -9 1606.01   46.70
  -1  -1  -9 1563.89   43.01
   1  -1   9 1685.62   37.04
   1   1   9 1683.00   37.65
   1  -1  10   24.10    3.14
   1  -1  10   25.18    2.85
   1   1  10   28.76    3.20
   1   1  11 1758.62   40.65
   1  -1  11 1662.12   40.65
   1  -1  11 1751.58   39.87
   1   1  12  216.26    9.73
   1  -1  12  213.92    9.22
   1   1  13  327.60   12.68
   1  -1  13  320.22   11.92
   1   1  14    2.45    2.00
   1  -1  14    2.22    1.77
   1  -1  15   41.40    3.54
   1  -1  15   43.09    3.76
   1   1  15   42.82    4.17
   1  -1  16   10.94    1.93
   1  -1  16    3.50    1.48
   1   1  16    5.99    2.02
   1   1  16    5.83    2.14
   1   1  17   58.96    3.46
   1   1  17   55.30    3.28
  -1   2  17   36.93    2.96
  -1   2  17   25.86    2.78
  -1   2  16   91.62    5.59
  -1   2  16   79.86    5.08
  -1   2  15   -1.25    2.47
  -1   2  15   -1.20    2.36
  -1  -2  14   34.80    3.68
  -1   2  14   32.11    3.95
  -1   2  13    2.14    2.26
  -1  -2  13    0.38    2.06
  -1  -2  13    2.59    1.84
  -1  -2  13   -0.55    1.79
  -1  -2  12   33.71    3.73
  -1   2  12   39.33    4.38
  -1  -2  12   34.22    3.93
  -1  -2  12   38.91    3.51
  -1  -2  11   59.43    4.16
  -1   2  11   59.51    4.91
  -1  -2  11   58.00    4.93
  -1   2  10    1.93    1.66
  -1  -2  10    1.01    1.17
  -1  -2  10    2.04    1.63
  -1   2   9  119.58    6.07
   1  -2  -9  100.52    7.10
   1   2  -9  114.84    7.65
   1   2  -8  384.48   18.64
  -1   2   8  383.68   15.29
   1  -2  -8  395.18   14.84
   1   2  -8  387.80   14.40
   1  -2  -7    0.76    1.28
   1   2  -7    0.53    1.14
  -1   2   7    1.88    1.76
   1  -2  -6    6.32    1.94
   1   2  -6    4.90    1.58
  -1   2   6    4.54    1.87
   1   2  -5  721.67   18.55
  -1   2   5  709.37   20.27
   1  -2  -5  716.15   19.93
   1   2  -4   39.92    2.85
   1  -2  -4   42.64    3.68
   1   2  -3  322.31    8.93
   1  -2  -3  327.75   10.41
  -1  -2   3  310.02    8.89
  -1   2   3  325.52   10.55
  -1  -2   2  204.88    5.98
  -1   2   2  188.58    7.15
   1  -2  -2  197.70    7.16
  -1  -2   2  194.35    4.93
   1   2  -1  120.95    4.17
   1   2   0   31.05    2.40
   1  -2   0   28.53    2.55
  -1   2   0   31.36    2.38
   1  -2   0   30.08    2.31
  -1   2  -1  132.12    5.83
   1  -2   1  145.57    6.09
   1  -2   1  134.03    4.73
  -1   2  -1  139.39    4.83
   1  -2   2 1061.96   24.49
  -1   2  -2 1062.58   22.69
  -1   2  -2 1049.35   24.40
   1   2   3 1529.66   35.34
   1  -2   3 1506.09   34.50
  -1   2  -3 1578.07   34.52
  -1   2  -3 1540.84   31.81
   1  -2   4  327.02   11.27
  -1  -2  -4  313.21    8.74
   1   2   4  320.73   11.60
  -1  -2  -4  323.89   11.41
  -1   2  -4  323.82   11.05
  -1   2  -4  313.43   12.53
  -1   2  -4  330.45    8.34
  -1   2  -5  581.24   13.55
   1   2   5  603.73   18.21
  -1   2  -5  587.64   13.76
  -1   2  -5  576.71   17.48
  -1  -2  -5  579.87   15.21
  -1   2  -5  594.09   19.80
  -1  -2  -5  582.56   17.78
  -1  -2  -6   82.45    5.85
  -1  -2  -6   80.57    4.79
  -1   2  -6   79.78    3.24
  -1   2  -6   79.42    5.77
  -1   2  -6   90.17    7.30
  -1   2  -6   78.23    3.17
  -1   2  -7   10.51    2.50
  -1   2  -7    8.18    0.84
  -1  -2  -7   11.81    2.61
  -1   2  -7    9.67    0.88
  -1  -2  -7   10.05    2.03
  -1   2  -7   10.87    3.16
  -1  -2  -8    0.90    1.18
  -1   2  -8    1.89    1.58
  -1  -2  -8    0.19    1.20
  -1   2  -8    2.95    2.36
  -1  -2  -9    1.04    1.36
   1  -2   9    1.43    1.40
   1   2   9    1.29    1.36
   1  -2  10  172.60    8.68
   1   2  10  174.68    8.12
   1  -2  10  176.07    7.32
   1  -2  11   44.89    3.80
   1  -2  11   46.93    4.72
   1   2  11   49.78    4.66
   1  -2  12    8.66    2.11
   1  -2  12    5.45    2.26
   1   2  12    8.22    2.64
   1   2  13   21.47    3.51
   1  -2  13   15.82    3.00
   1  -2  13   17.21    2.60
   1  -2  14   96.29    5.52
   1   2  14  111.57    6.94
   1  -2  14  100.73    5.51
   1   2  15  115.73    6.76
   1   2  16   -1.38    2.01
   1   2  16   -0.11    1.92
   1   2  17    0.73    1.52
   1   2  17    0.98    1.39
  -1   3  18   67.46    2.83
  -1   3  17  177.17    6.86
  -1   3  17  174.91    6.47
  -1   3  16   12.85    2.51
  -1   3  16   13.04    2.74
  -1   3  15  219.40    9.65
  -1   3  14    1.68    2.07
  -1  -3  14    0.14    1.61
  -1  -3  13  205.20   10.08
  -1  -3  13  212.53    8.66
  -1   3  13  227.20   10.41
  -1  -3  12   18.85    3.29
  -1  -3  12   16.92    2.78
  -1   3  12   18.11    3.20
  -1  -3  11  351.87   11.77
  -1  -3  11  349.94   13.81
  -1   3  11  361.72   13.23
  -1   3  10   45.64    4.19
  -1  -3  10   41.53    3.53
  -1  -3  10   49.40    4.66
  -1   3   9  995.16   25.02
   1  -3  -9  929.81   29.35
  -1  -3   9  980.81   26.03
   1   3  -8   53.69    4.80
  -1   3   8   48.68    5.42
   1  -3  -8   47.45    5.13
   1  -3  -8   45.92    4.39
   1   3  -7  623.33   24.30
  -1   3   7  620.72   21.41
   1  -3  -7  611.78   20.55
   1   3  -7  627.96   18.89
   1  -3  -6  144.63    8.33
  -1   3   6  153.36    8.86
   1   3  -6  151.31    7.24
  -1   3   5 2740.01   60.76
   1   3  -5 2681.82   57.31
   1  -3  -5 2644.80   60.01
   1   3  -4    1.81    1.02
   1  -3  -4    2.32    1.77
  -1  -3   4    2.01    1.27
  -1  -3   3   50.57    3.30
   1  -3  -3   51.49    4.15
  -1   3   3   51.38    4.22
  -1  -3   3   47.26    1.64
   1   3  -2  487.49   11.93
  -1  -3   2  497.56   11.82
  -1  -3   2  494.12   13.09
   1  -3  -1 1388.05   30.66
  -1   3   1 1379.59   31.54
   1   3  -1 1379.85   30.18
   1  -3  -1 1387.25   31.49
  -1  -3   1 1384.00   29.94
   1  -3   0 3628.39   76.41
  -1  -3   0 3741.52   75.77
   1   3   0 3789.02   75.97
  -1   3   0 3778.75   75.78
   1  -3   0 3654.06   75.80
   1   3   1 2863.88   57.72
   1  -3   1 2997.96   59.82
   1  -3   1 3018.21   62.27
  -1   3  -1 2821.77   59.89
   1  -3   1 2996.00   61.07
   1   3   1 2934.32   61.55
   1  -3   2  600.67   14.52
  -1   3  -2  571.23   15.94
  -1   3  -2  577.10   14.42
   1  -3   2  592.40   16.10
  -1   3  -2  586.07   17.44
  -1   3  -3  738.63   19.68
   1  -3   3  760.95   19.93
   1   3   3  730.78   20.88
  -1   3  -3  730.93   17.00
  -1  -3  -3  732.50   20.47
  -1  -3  -4   13.53    2.65
  -1   3  -4   11.64    1.27
   1  -3   4   11.99    2.29
  -1   3  -4    9.66    2.12
   1   3   4   10.90    2.60
   1   3   5  644.40   20.01
  -1   3  -5  669.95   21.96
   1  -3   5  644.20   19.07
  -1   3  -5  575.02   12.96
  -1   3  -5  596.14   13.20
  -1  -3  -5  654.97   19.76
  -1   3  -5  651.87   18.99
  -1  -3  -6  323.38   13.50
  -1   3  -6  309.53   15.11
  -1   3  -6  323.30   12.95
   1   3   6  313.85   13.63
  -1   3  -7  618.93   20.64
  -1   3  -7  608.42   23.97
  -1  -3  -7  611.28   20.98
  -1  -3  -8    1.35    1.51
  -1   3  -8    1.10    1.51
   1  -3   9  441.59   15.16
   1  -3  10    5.15    2.30
   1   3  10    7.00    2.26
   1  -3  11  341.70   13.86
   1   3  11  345.75   12.92
   1  -3  12   16.14    3.39
   1   3  12   15.79    3.11
   1  -3  13  260.12   11.72
   1   3  13  290.64   11.99
   1   3  14    8.34    2.71
   1   3  16    4.39    1.92
   1   3  16    4.80    2.19
   1   3  17   32.99    2.81
   1   3  17   32.06    2.74
  -1   4  17  118.33    4.93
  -1   4  17   84.52    4.52
  -1   4  16   -0.97    2.19
  -1   4  16   -0.20    1.88
  -1   4  15   56.68    4.76
  -1  -4  15   45.75    3.92
  -1  -4  14   44.73    4.62
  -1   4  14   51.21    4.94
  -1  -4  13    1.61    2.24
  -1   4  13    5.45    2.77
  -1  -4  12    9.73    3.10
  -1   4  12    9.02    3.00
  -1  -4  11    2.55    2.45
  -1  -4  10    4.54    2.40
  -1  -4   9   37.75    4.26
  -1   4   9   34.68    3.49
  -1  -4   8   62.14    4.88
  -1   4   8   58.02    4.28
   1   4  -8   67.25    5.55
  -1   4   8   63.13    4.41
   1   4  -7    1.22    1.07
   1   4  -7    1.31    2.36
  -1   4   7    1.75    1.88
   1  -4  -7    1.34    1.75
  -1   4   6  339.49   15.01
   1  -4  -6  353.17   14.81
  -1   4   5   47.62    5.05
  -1  -4   5   48.00    4.05
   1  -4  -5   45.44    4.81
   1   4  -5   48.43    5.81
   1  -4  -4   54.07    4.94
  -1  -4   4   45.59    3.81
  -1  -4   3 1548.55   35.53
  -1  -4   3 1567.20   32.35
  -1  -4   2  562.36   15.57
   1  -4  -2  562.98   14.81
   1  -4  -2  558.66   16.99
  -1   4   2  522.40   16.84
  -1  -4   2  564.02   14.23
   1   4  -2  533.29   17.28
   1   4  -2  556.67   14.40
  -1  -4   1    3.94    1.40
   1  -4  -1    6.85    1.87
   1  -4  -1    5.14    1.97
   1   4  -1    5.07    1.66
   1   4  -1    4.48    1.93
  -1   4   1    4.88    1.83
   1  -4   0    9.15    2.36
  -1  -4   0    9.93    2.12
   1   4   0    9.50    2.21
  -1   4   0    9.08    2.20
   1   4   0    9.84    1.98
   1  -4   0    9.60    2.17
  -1  -4  -1    5.95    2.05
   1  -4   1    5.99    1.78
   1   4   1    5.99    2.15
   1  -4   1    7.61    2.08
  -1   4  -1    5.86    1.77
   1  -4   2 1004.22   24.08
  -1   4  -2 1020.73   24.22
   1  -4   2 1049.06   26.26
  -1  -4  -2 1021.53   26.74
   1   4   2 1066.72   27.45
  -1   4  -2 1028.46   27.74
   1  -4   3  287.55   11.01
  -1   4  -3  275.52    8.68
  -1   4  -3  282.04   12.40
  -1   4  -4   14.79    3.33
  -1   4  -4   13.21    2.59
  -1   4  -4   18.61    1.70
   1  -4   4   15.18    2.72
   1   4   4   16.02    3.13
  -1  -4  -4   17.39    3.11
  -1   4  -5  196.87    9.20
   1  -4   5  187.86    9.21
   1   4   5  203.76   10.43
  -1  -4  -5  186.38    9.80
  -1   4  -6  222.00   10.77
  -1   4  -6  210.85   12.81
   1   4   6  228.31   12.12
  -1  -4  -6  208.28   11.31
  -1   4  -7  188.81   12.80
  -1   4  -7  192.13   10.48
  -1  -4  -7  185.69   11.09
   1   4   8   11.04    2.24
   1  -4   8    9.50    2.64
   1   4   8    9.93    2.16
  -1   4  -8   11.60    2.93
   1   4   9  124.69    6.70
   1   4   9  127.02    6.70
   1  -4   9  123.96    7.60
   1   4   9  128.97    6.39
   1  -4  10   26.46    4.06
   1  -4  11   71.45    6.39
   1  -4  12    5.57    2.80
   1  -4  13   10.27    3.11
   1   4  13   15.95    3.36
   1   4  14    9.19    2.88
   1  -4  14    5.07    2.43
   1  -4  15   59.91    4.56
   1   4  15   77.00    5.45
   1   4  16   11.92    2.55
   1   4  17   11.55    1.89
   1   4  17   11.51    1.87
  -1   5  17   66.78    3.37
  -1   5  17   15.34    2.11
  -1   5  16    7.88    2.27
  -1   5  15  236.03    9.70
  -1  -5  15  216.82    9.12
  -1   5  14    5.30    2.93
  -1  -5  14    8.28    2.74
  -1  -5  13  430.63   16.44
  -1  -5  12   18.78    3.88
  -1  -5  11  134.51    8.87
  -1   5  11  128.54    7.73
  -1  -5  10    3.69    2.46
  -1   5  10    3.83    2.11
  -1   5  10    3.30    1.88
  -1  -5   9  354.60   13.95
  -1   5   9  347.87   12.52
  -1   5   9  343.17   12.69
  -1   5   8   69.70    4.98
  -1   5   8   67.06    4.69
  -1  -5   8   70.04    5.52
  -1   5   7 2201.77   49.16
  -1   5   7 2194.17   48.04
  -1   5   7 2224.32   49.05
  -1  -5   7 2215.22   50.05
   1   5  -6  463.97   21.13
  -1   5   6  476.94   19.64
  -1  -5   6  466.76   16.33
   1  -5  -6  496.70   19.29
  -1   5   5  456.78   17.83
   1  -5  -5  476.52   17.61
  -1  -5   5  444.13   14.64
   1   5  -5  451.47   19.10
   1  -5  -4   20.81    1.93
   1  -5  -4   24.95    3.83
   1   5  -4   24.70    4.22
  -1  -5   4   22.27    2.99
  -1  -5   3 4047.83   80.63
  -1  -5   3 4121.20   84.28
   1  -5  -3 3867.99   81.06
   1   5  -3 4050.98   88.48
   1   5  -2   89.67    4.99
  -1  -5   2   79.19    5.25
   1   5  -2   75.59    6.05
  -1  -5   2   78.32    4.56
   1  -5  -2   82.02    4.73
  -1  -5   1  725.08   19.53
   1  -5  -1  714.23   19.67
  -1  -5   1  729.10   20.29
  -1   5   1  717.70   21.18
   1   5  -1  725.21   19.98
   1  -5  -1  700.13   20.79
   1   5  -1  693.19   20.43
   1  -5   0  386.87   13.44
  -1   5   0  404.48   13.87
   1   5   0  385.51   12.49
   1   5   0  414.00   13.98
  -1  -5   0  396.71   13.48
   1  -5   0  405.37   14.19
  -1  -5  -1 1068.39   27.91
   1   5   1 1099.62   28.56
   1  -5   1 1054.90   27.79
  -1   5  -1 1036.24   26.61
   1  -5   1 1020.21   26.29
   1  -5   2  272.38   11.31
  -1  -5  -2  268.68   11.62
  -1   5  -2  265.90    9.81
   1   5   2  275.05   12.01
   1  -5   2  260.24    9.58
   1   5   3  796.08   24.40
  -1   5  -3  758.29   19.53
  -1  -5  -3  745.76   23.39
  -1   5  -3  736.24   24.28
   1  -5   3  779.84   22.65
  -1   5  -4   46.85    5.57
   1  -5   4   47.94    4.75
   1   5   5 3215.16   62.08
  -1  -5  -5 3276.92   61.11
   1  -5   5 3253.05   58.81
  -1   5  -5 3132.39   63.95
   1   5   6    9.93    3.20
  -1  -5  -6   12.58    3.18
   1  -5   6   13.28    3.08
   1   5   7 1885.42   42.63
   1   5   7 1974.45   43.89
   1  -5   7 1959.01   45.12
   1   5   8    1.53    1.53
   1   5   8    1.68    1.54
   1  -5   8    2.37    1.91
   1   5   8    2.48    1.51
   1   5   9  336.07   11.98
   1  -5   9  322.84   13.57
   1   5   9  320.00   11.92
   1   5   9  327.93   12.32
   1   5  10   53.05    4.87
   1  -5  10   55.49    5.64
   1   5  10   49.17    4.25
   1  -5  11  173.76   10.22
   1   5  11  195.49    9.51
   1  -5  12  123.45    8.64
   1  -5  13  479.41   17.70
   1  -5  14    2.78    2.36
   1  -5  15   70.95    5.02
   1   5  15   77.64    5.35
   1   5  16    5.91    2.09
   1   5  16    4.79    1.98
   1   5  17  203.70    6.69
   1   5  17  187.97    6.41
  -1   6  17   66.53    3.23
  -1   6  16   22.67    2.73
  -1  -6  15   55.14    4.42
  -1   6  15   65.71    4.75
  -1  -6  14   77.78    6.06
  -1  -6  13   23.27    4.15
  -1   6  13   20.26    3.80
  -1  -6  12   19.55    4.05
  -1   6  12   18.66    3.39
  -1   6  11    2.50    2.33
  -1  -6  11    2.30    2.64
  -1   6  10   32.84    4.08
  -1  -6  10   31.90    4.65
  -1   6  10   34.10    4.10
  -1   6   9   59.03    5.11
  -1   6   9   58.28    4.87
  -1  -6   9   61.31    5.86
  -1   6   8   88.99    6.04
  -1  -6   8   94.22    6.80
  -1   6   8   92.66    5.69
  -1   6   7  205.00    9.10
  -1   6   7  191.89    8.09
  -1   6   7  193.38    8.99
  -1   6   6  194.59    8.53
  -1  -6   6  175.12    9.65
  -1   6   6  191.87    7.61
  -1  -6   6  182.61    8.74
  -1   6   6  192.78    8.59
   1   6  -5    1.55    2.34
  -1  -6   5    1.55    1.55
   1  -6  -5    1.27    1.70
   1   6  -4  155.02   10.67
  -1  -6   4  168.89    8.85
   1   6  -3   52.58    5.80
  -1  -6   3   59.76    5.06
  -1  -6   3   57.50    3.79
   1  -6  -3   61.46    5.92
  -1  -6   2   82.01    5.18
  -1  -6   2   91.56    6.29
   1   6  -2   80.81    6.64
   1   6  -2   86.51    5.53
   1  -6  -2   78.24    6.43
  -1  -6   1   85.28    5.73
  -1  -6   1   88.59    6.24
   1   6  -1   86.73    5.99
   1   6  -1   82.56    6.08
   1  -6  -1   83.05    6.35
   1  -6   0   19.76    3.22
   1  -6   0   16.63    3.30
   1   6   0   13.45    2.86
  -1  -6   0   15.95    3.01
   1   6   1   27.78    4.00
  -1  -6  -1   24.04    3.59
   1  -6   1   29.15    3.89
   1  -6   1   27.63    3.39
   1  -6   2  746.85   23.20
  -1  -6  -2  724.52   23.40
   1  -6   2  739.46   20.73
   1   6   2  763.01   24.42
  -1  -6  -3    3.82    2.26
   1   6   3    5.15    2.49
   1  -6   3    4.35    1.97
  -1   6  -4   35.42    5.30
  -1   6  -4   30.93    2.82
   1  -6   4   40.92    4.75
  -1  -6  -5    4.44    2.51
   1  -6   5    3.28    2.07
  -1   6  -5    3.00    0.63
  -1   6  -5    3.47    2.66
   1   6   6  186.38    8.16
   1  -6   6  177.53    8.72
   1   6   6  182.82    8.29
   1   6   6  174.03    7.17
   1   6   7   39.06    3.79
   1   6   7   36.67    3.91
   1   6   7   38.01    3.42
   1   6   8   35.90    3.83
   1   6   8   36.61    4.12
   1   6   8   34.39    3.68
   1  -6   8   36.48    4.59
   1   6   9    7.07    2.44
   1   6   9    6.30    2.44
   1  -6   9    4.41    2.81
   1   6   9    6.64    2.23
   1   6  10   98.01    6.51
   1  -6  10  103.93    7.87
   1   6  10   97.02    6.34
   1   6  11  256.61   11.21
   1  -6  11  268.28   13.06
   1   6  11  247.83   10.45
   1   6  12   80.17    6.14
   1  -6  12   73.52    6.86
   1   6  13  207.66    9.84
   1  -6  13  206.45   10.97
   1   6  14    9.77    2.91
   1  -6  14   11.18    3.12
   1  -6  15    0.60    1.67
   1  -6  16    9.60    1.46
   1   6  17   29.95    2.12
  -1   7  16   82.38    3.86
  -1   7  16   18.27    2.25
  -1   7  15   76.45    4.75
  -1  -7  15   71.48    4.85
  -1   7  15   80.19    4.79
  -1  -7  14    3.25    2.44
  -1   7  14    0.61    2.13
  -1   7  13  184.28    9.02
  -1  -7  13  198.86   10.46
  -1   7  12   -1.07    2.79
  -1  -7  12    0.84    2.60
  -1   7  11  312.69   12.63
  -1  -7  11  332.31   14.85
  -1   7  10   11.39    2.80
  -1   7  10   12.55    3.08
  -1  -7  10   14.29    3.93
  -1   7   9   31.83    3.86
  -1   7   9   28.99    4.00
  -1  -7   9   28.13    4.53
  -1   7   8   34.14    3.62
  -1   7   8   29.24    3.83
  -1   7   7  889.75   23.26
  -1  -7   7  883.14   25.77
  -1   7   7  901.20   24.90
  -1   7   6   29.29    3.54
  -1   7   6   26.23    2.84
  -1  -7   6   27.03    3.69
  -1   7   5 1230.40   30.72
  -1   7   5 1242.58   30.80
  -1  -7   5 1260.45   34.57
  -1  -7   5 1228.47   31.25
  -1   7   4  472.48   14.56
   1   7  -4  447.74   20.27
  -1  -7   4  461.25   17.41
   1   7  -3 1067.28   33.39
  -1  -7   3 1114.22   31.09
  -1  -7   3 1097.31   27.28
   1  -7  -3 1094.44   33.28
  -1  -7   2   32.48    4.10
  -1   7   2   25.03    4.21
   1   7  -2   26.54    3.44
  -1  -7   2   31.44    3.54
   1   7  -2   26.61    4.09
   1  -7  -2   30.86    4.44
   1   7  -1  325.28   13.62
   1  -7  -1  348.53   15.33
   1  -7  -1  316.97   14.29
  -1  -7   1  318.37   13.11
  -1  -7   1  347.63   14.45
   1  -7   0  431.72   17.30
   1  -7   0  403.11   16.00
   1   7   0  423.98   16.76
  -1  -7   0  429.10   16.29
   1  -7   1    8.69    2.29
  -1  -7  -1   13.15    3.14
   1  -7   1   13.37    3.19
   1   7   1    9.64    2.87
  -1  -7  -2  545.74   20.34
   1  -7   2  525.95   17.47
   1  -7   2  536.31   19.97
   1   7   2  545.64   21.10
   1  -7   3  615.85   21.76
  -1   7  -3  577.22   18.29
  -1  -7  -3  595.69   22.31
   1   7   4  191.59    8.44
   1   7   4  188.88    8.30
   1   7   5 1591.43   37.43
   1  -7   5 1549.36   37.84
   1  -7   6   13.21    2.79
   1  -7   6   13.85    2.31
   1   7   6   13.51    2.10
   1   7   6   17.07    2.81
   1   7   6   15.27    2.90
   1   7   7  735.90   21.43
   1  -7   7  772.04   23.00
   1   7   7  740.40   21.85
   1   7   7  707.88   19.83
   1   7   8   11.88    2.87
   1   7   8   13.72    2.49
   1   7   8   10.78    2.64
   1   7   9  738.21   22.03
   1   7   9  718.20   21.11
   1   7   9  752.26   22.69
   1   7  10  192.85    9.33
   1  -7  10  202.61   11.39
   1   7  10  183.53    9.30
   1  -7  11   24.77    4.75
   1   7  11   22.68    3.69
   1   7  11   17.73    3.02
   1   7  12   35.74    4.24
   1  -7  12   31.84    5.01
   1  -7  13  126.95    8.44
   1   7  13  130.15    7.35
   1   7  14   31.56    3.67
   1  -7  14   30.02    4.07
   1   7  15  173.95    7.28
   1  -7  15  173.43    7.70
   1   7  16    7.65    1.66
   1   7  16    0.52    1.31
  -1   8  16   33.57    2.11
  -1   8  16   45.38    3.32
  -1   8  15   44.85    3.34
  -1   8  15   -1.55    1.57
  -1   8  14    7.70    2.30
  -1   8  14   16.54    2.78
  -1  -8  14   13.60    3.03
  -1   8  13    3.19    2.20
  -1  -8  13    6.88    2.90
  -1  -8  12    4.27    3.21
  -1   8  12    2.08    2.49
  -1   8  11   52.91    5.09
  -1  -8  11   63.65    6.65
  -1  -8  10  101.18    8.18
  -1   8  10   99.40    7.15
  -1   8  10   95.65    6.56
  -1   8   9   98.00    7.07
  -1   8   9   94.49    6.31
  -1   8   8   21.48    3.76
  -1  -8   8   20.67    4.18
  -1   8   8   18.56    3.03
  -1   8   7   14.96    2.52
  -1  -8   7   21.05    3.90
  -1   8   7   17.40    3.25
  -1   8   6  487.20   16.49
  -1   8   6  470.15   14.29
   1  -8  -6  456.86   14.91
  -1  -8   6  478.66   16.90
  -1   8   5  134.13    7.51
  -1   8   5  138.08    6.27
  -1  -8   5  139.66    7.95
  -1   8   4  440.58   14.61
  -1   8   4  417.51   14.44
  -1  -8   4  431.38   14.72
  -1  -8   3   11.57    2.34
  -1   8   3   11.28    2.23
  -1   8   3   10.85    2.34
  -1   8   2   16.09    2.68
  -1  -8   2   11.58    2.58
  -1   8   1   56.54    4.20
   1   8  -1   46.60    5.25
  -1  -8   1   58.81    5.58
   1   8   0   40.89    5.27
  -1  -8   0   44.42    5.19
  -1   8   0   41.49    5.34
   1   8   0   46.87    3.85
   1  -8   0   43.70    5.16
   1  -8   1   52.78    5.38
   1   8   1   50.43    4.12
  -1  -8  -1   46.49    5.60
  -1   8  -1   44.03    5.28
  -1   8  -2 1292.82   35.51
   1   8   2 1317.56   31.90
   1   8   2 1280.70   31.28
   1  -8   2 1308.82   34.77
   1   8   3   24.53    3.15
   1   8   3   29.05    3.35
   1  -8   3   30.47    3.32
   1  -8   4  175.73    8.45
   1   8   4  171.77    8.37
   1  -8   4  165.08    8.33
   1   8   5   13.16    1.96
   1   8   5   20.29    3.12
   1   8   5   17.16    2.96
   1  -8   5   15.66    2.69
   1  -8   5   14.20    2.94
   1   8   6  233.98    8.91
   1  -8   6  238.26   11.21
   1  -8   6  234.23    9.95
   1   8   6  237.17   10.61
   1   8   7   33.19    3.40
   1   8   7   33.13    4.21
   1   8   7   36.51    4.30
   1  -8   7   28.62    3.36
   1  -8   7   33.61    4.65
   1   8   8   25.04    3.30
   1   8   8   30.79    4.27
   1   8   8   25.72    3.85
   1  -8   8   25.20    4.47
   1   8   9   43.21    4.65
   1   8   9   38.00    4.08
   1   8  10   64.68    5.29
   1   8  10   71.61    5.85
   1   8  11   19.53    3.29
   1   8  11   23.16    3.48
   1  -8  11   28.67    4.85
   1   8  12    2.05    2.08
   1  -8  12    0.40    2.77
   1   8  13   -0.12    2.15
   1  -8  13    3.83    2.86
   1  -8  14   84.42    5.90
   1   8  14   83.45    5.04
   1  -8  15    4.99    1.68
   1   8  15    3.78    1.63
   1   8  15    7.97    1.75
   1   8  16   24.65    1.88
   1   8  16   56.80    2.48
  -1   9  15   70.62    3.20
  -1  -9  15   79.34    4.10
  -1  -9  14    0.83    1.90
  -1   9  14   -0.07    1.56
  -1   9  13  116.25    5.89
  -1   9  13  123.16    6.11
  -1  -9  13  129.52    7.84
  -1  -9  12   17.62    3.95
  -1   9  12   15.54    2.88
  -1   9  11   39.89    4.25
  -1   9  10  108.65    6.71
  -1   9  10  110.17    7.50
  -1   9   9   23.38    3.35
  -1  -9   9   28.04    4.88
  -1   9   9   26.50    4.03
  -1   9   8  201.40   10.45
  -1  -9   8  205.49   11.33
  -1   9   8  192.87    8.82
  -1  -9   7  536.67   19.06
  -1  -9   7  496.35   16.34
  -1   9   7  501.08   15.58
  -1   9   7  526.32   18.28
  -1   9   6   -0.21    1.32
  -1  -9   6   -0.15    1.54
  -1  -9   6    0.56    2.40
   1  -9  -6    0.14    1.42
  -1   9   5  755.85   22.37
   1  -9  -5  732.98   21.58
  -1  -9   5  722.89   22.49
  -1  -9   4  247.64   10.87
   1   9  -4  234.53    9.25
  -1   9   4  245.79   10.74
  -1   9   4  243.79   10.78
  -1  -9   3  323.05   12.14
  -1   9   3  306.69   11.86
   1   9  -3  298.78   10.99
  -1   9   3  321.29   12.34
  -1  -9   2  161.06    7.74
  -1   9   2  160.84    8.09
  -1   9   2  158.06    7.73
   1   9  -2  158.20    7.59
  -1   9   1  307.74   10.93
   1   9  -1  282.43   10.22
  -1   9   1  291.27   11.24
   1   9  -1  301.31   11.25
  -1   9   0    0.12    1.30
  -1   9   0   -0.42    1.25
   1   9   0    0.92    1.46
   1   9   0    0.11    1.26
   1   9   1   25.07    3.33
  -1   9  -1   19.25    2.59
   1   9   1   24.91    3.07
   1   9   2   16.37    2.73
   1  -9   2   16.12    2.61
   1   9   2   14.32    2.76
  -1   9  -2   12.43    2.15
   1  -9   3  647.53   19.12
   1   9   3  592.07   18.79
   1   9   3  635.75   19.47
   1  -9   4   13.02    2.82
   1   9   4   12.47    2.79
   1  -9   4   14.30    2.94
   1   9   5  401.45   14.96
   1  -9   5  411.05   15.29
   1  -9   5  380.60   14.49
   1   9   5  383.48   14.68
   1   9   6   38.14    4.40
   1  -9   6   35.43    4.63
   1  -9   6   32.97    3.91
   1   9   6   31.14    3.04
   1   9   7  640.10   20.67
   1  -9   7  605.19   18.90
   1  -9   7  667.63   21.82
   1   9   7  609.00   17.69
   1   9   8   84.64    6.61
   1  -9   8   88.71    7.43
   1   9   8   83.43    6.80
   1   9   8   82.31    5.44
   1  -9   9  214.26   11.86
   1   9   9  191.28   10.01
   1   9   9  186.91    8.74
   1   9  10    4.48    2.11
   1   9  10    4.25    2.29
   1   9  11    7.77    2.39
   1   9  11    5.45    2.46
   1  -9  12    0.74    2.70
   1   9  12   -1.37    2.13
   1   9  13   48.91    3.85
   1  -9  13   56.95    5.22
   1  -9  14    0.34    1.79
   1   9  14   -2.42    1.55
   1  -9  15   93.41    4.42
   1   9  15  106.17    3.77
  -1 -10  14   23.42    2.70
  -1  10  14   37.57    3.15
  -1 -10  13   16.15    3.15
  -1  10  13    9.39    1.72
  -1  10  12  106.07    5.30
  -1  10  12  128.12    5.79
  -1  10  11   58.66    4.35
  -1  10  11   47.95    3.84
  -1 -10  10   39.98    5.39
  -1  10  10   35.49    4.38
  -1  10  10   35.06    3.57
  -1 -10   9   88.60    7.53
  -1  10   9   81.23    6.54
  -1  10   9   68.06    4.82
  -1  10   8   15.19    3.56
  -1  10   8   10.50    2.16
  -1 -10   8   16.16    4.13
  -1  10   7    0.21    1.47
  -1 -10   7    1.20    1.75
   1 -10  -7   -0.14    1.52
  -1  10   7    0.93    2.51
  -1 -10   7    1.44    2.81
  -1 -10   6   47.80    5.34
  -1 -10   6   50.31    4.83
   1 -10  -6   42.46    4.34
   1 -10  -5   51.72    5.00
  -1  10   5   51.52    5.30
  -1 -10   5   55.48    5.45
   1 -10  -4   33.55    4.23
  -1 -10   4   31.43    4.07
  -1  10   4   40.19    4.60
  -1  10   4   33.14    4.21
   1  10  -4   29.34    3.27
  -1  10   3    7.76    2.52
  -1  10   3    8.72    2.59
   1  10  -3    5.80    1.84
  -1 -10   3    6.35    2.34
   1  10  -2  282.86   11.32
  -1 -10   2  305.68   11.59
  -1  10   2  294.92   12.09
  -1  10   2  302.26   11.75
   1  10  -1   16.70    2.81
  -1  10   1   17.30    3.00
  -1  10   1   17.38    2.75
  -1  10   0   76.78    5.50
  -1  10   0   85.64    5.25
   1  10   0   89.37    5.61
   1  10   0   81.81    5.92
  -1  10  -1   37.89    3.79
   1  10   1   38.75    3.96
   1  10   1   37.05    4.18
  -1  10  -2   24.16    2.98
   1  10   2   28.08    3.67
   1  10   2   29.38    3.95
   1 -10   2   29.06    4.15
   1 -10   2   23.63    3.15
   1 -10   3  134.84    8.30
   1  10   3  139.16    8.18
   1  10   3  130.39    7.72
   1 -10   3  122.74    7.30
   1 -10   4  100.99    6.93
   1 -10   4   88.00    6.73
   1  10   4   89.60    6.61
   1  10   5   12.60    3.07
   1 -10   5   14.70    3.19
   1 -10   5   14.86    3.37
   1 -10   6   81.79    6.91
   1  10   6   79.13    6.54
   1 -10   6   74.28    5.99
   1  10   6   79.98    6.55
   1 -10   7   88.68    6.15
   1 -10   7   99.59    7.77
  -1 -10  -7   85.68    5.83
   1  10   7   92.36    7.12
   1 -10   8   18.02    4.25
   1  10   8   17.73    3.73
   1  10   8   11.14    2.29
   1  10   9    6.87    2.80
   1 -10   9    6.74    3.48
   1  10   9    4.58    1.85
   1  10  10  107.29    5.97
   1  10  10  119.08    7.37
   1 -10  10  122.31    8.58
   1  10  11   25.69    3.08
   1  10  11   36.46    3.83
   1  10  12    8.26    2.00
   1 -10  13    2.98    2.17
   1  10  13   -0.33    1.55
   1  10  14   20.62    1.68
   1 -10  14   29.98    2.89
  -1  11  12   33.43    2.96
  -1  11  11   59.97    3.55
  -1 -11  11   53.16    5.22
  -1  11  10    3.89    1.48
  -1  11  10    4.70    2.41
  -1 -11  10    5.37    3.10
  -1  11   9   14.21    1.98
  -1  11   9   18.18    3.52
  -1 -11   9   20.11    4.14
  -1  11   8   40.36    4.94
  -1 -11   8   39.27    5.26
  -1 -11   7  129.44    8.58
   1 -11  -7  116.18    6.66
  -1 -11   7  108.87    6.80
  -1 -11   6    0.58    2.63
   1 -11  -6    3.65    2.14
  -1 -11   6    1.87    2.02
  -1  11   5  331.14   13.93
   1 -11  -5  300.90   12.97
  -1 -11   5  327.42   13.79
  -1 -11   5  306.86   13.35
  -1 -11   4   35.76    4.39
   1  11  -4   34.09    3.52
   1 -11  -4   36.59    4.73
  -1  11   4   43.06    5.07
  -1  11   3   44.13    4.92
  -1 -11   3   48.62    4.66
   1 -11  -3   47.47    5.30
   1  11  -3   45.45    4.18
  -1 -11   2    0.28    1.51
  -1  11   2   -0.66    1.91
   1 -11  -2    0.19    2.32
   1  11  -2    0.58    1.55
  -1  11   1  473.62   16.36
   1  11  -1  455.33   14.62
   1 -11  -1  501.80   18.12
   1  11  -1  468.56   16.18
   1  11   0    1.94    1.86
  -1  11   0    0.74    1.67
   1  11   0    1.47    1.55
   1  11   1  226.69   10.77
   1  11   1  225.23   10.11
  -1  11  -1  230.30    9.95
   1 -11   1  242.25   12.00
   1 -11   2   43.62    5.20
   1  11   2   43.18    4.77
  -1  11  -2   40.25    3.84
   1  11   2   49.63    4.73
   1 -11   3  200.62    9.53
   1 -11   3  205.60   10.94
   1  11   3  198.91   10.07
   1  11   3  206.86   10.51
   1 -11   4   97.66    6.85
   1  11   4   99.06    7.22
   1 -11   4   96.19    7.39
   1  11   4   91.75    6.98
   1 -11   5   72.75    6.25
   1  11   5   67.11    6.13
   1 -11   5   74.19    6.27
   1  11   6    1.31    2.69
   1 -11   6    3.24    2.61
   1 -11   6    1.20    2.06
  -1 -11  -6    2.40    1.97
   1  11   6    2.75    2.54
   1  11   7  218.39   11.01
  -1 -11  -7  200.11    9.23
   1 -11   7  207.65    9.70
   1 -11   8   12.11    3.55
   1  11   8   10.07    3.19
   1 -11   9  307.74   13.45
   1  11   9  289.41   12.21
   1  11  10    1.10    2.00
   1 -11  10    1.04    2.46
   1  11  10    2.11    1.13
   1 -11  11   87.35    6.31
   1  11  11   74.80    3.66
   1 -11  12   14.30    2.79
   1  11  12    4.83    1.21
  -1 -12  12   51.73    3.75
  -1 -12  11    2.24    1.91
  -1 -12  10   46.49    4.57
  -1  12   9   62.29    5.28
  -1 -12   9   72.99    5.95
  -1  12   8   19.03    3.62
  -1 -12   8   22.11    3.87
  -1 -12   7    7.01    2.08
  -1 -12   7    7.77    2.97
   1 -12  -7    8.11    2.04
  -1  12   6   42.58    5.12
  -1 -12   6   35.69    4.32
   1 -12  -6   37.13    4.13
  -1 -12   6   43.48    4.95
  -1 -12   5   10.42    3.03
   1 -12  -5    6.95    2.59
  -1 -12   5    9.47    2.94
  -1  12   5   10.20    3.34
  -1 -12   4  112.69    7.95
  -1  12   4  112.49    7.70
  -1 -12   4  116.70    7.28
   1 -12  -4  115.23    7.82
  -1  12   3   24.04    3.95
  -1 -12   3   26.50    3.47
   1  12  -3   27.52    3.34
  -1 -12   3   27.16    4.36
   1 -12  -3   25.55    4.12
   1  12  -2  157.00    8.22
  -1  12   2  171.11    9.19
   1 -12  -2  177.52   10.27
   1  12  -1   -0.47    1.93
   1 -12  -1    0.61    2.49
  -1  12   1   -0.96    1.86
   1  12   0  194.01    8.82
  -1  12   0  213.11    9.79
   1  12   0  203.86   10.06
   1  12   1  138.85    8.34
   1 -12   1  150.75    9.48
   1  12   1  130.02    7.37
  -1  12  -1  129.70    7.24
   1  12   2  140.13    8.05
   1 -12   2  156.18    9.70
   1  12   2  146.91    8.72
  -1  12  -2  125.31    6.78
   1  12   3  251.90   11.34
   1  12   3  254.21   11.88
   1 -12   3  254.70   12.40
   1 -12   4    8.09    3.10
   1  12   4    8.77    3.41
  -1 -12  -4    7.01    2.80
   1 -12   4    6.80    2.41
   1  12   4    7.28    2.83
  -1 -12  -5    4.60    2.26
   1 -12   5    5.69    2.49
   1 -12   5    5.23    2.60
   1 -12   6    5.99    2.39
  -1 -12  -6    3.60    2.08
   1 -12   6    4.73    2.56
   1 -12   7   19.54    3.60
   1  12   7   15.16    3.56
  -1 -12  -7   15.65    2.56
   1 -12   8   48.73    5.04
   1  12   8   43.54    4.74
   1 -12   9   10.42    2.93
   1  12   9   11.41    2.57
   1  12  10  145.54    7.05
   1 -12  10  147.11    7.75
   1 -12  11    3.45    1.98
   1 -12  12   20.90    2.43
  -1 -13  11   16.49    1.98
  -1 -13  10   16.00    2.42
  -1 -13   9   29.13    3.39
  -1 -13   8   27.53    3.48
  -1 -13   7    2.63    1.55
  -1 -13   7    4.08    2.21
  -1  13   6   56.13    5.22
  -1 -13   6   58.19    4.81
  -1 -13   6   60.04    4.94
   1 -13  -6   54.20    4.38
   1 -13  -5  212.30    9.95
  -1 -13   5  213.09   10.20
  -1  13   5  214.93   10.29
  -1 -13   5  209.52    9.39
  -1  13   4   36.83    4.46
  -1 -13   4   37.69    4.65
   1 -13  -4   40.43    4.66
  -1 -13   4   32.89    3.53
  -1  13   3    1.45    2.24
  -1 -13   3   -0.38    2.55
   1 -13  -3    0.73    2.42
   1  13  -3    0.33    1.32
  -1 -13   2    2.16    2.86
   1 -13  -2    1.92    2.75
   1  13  -2    3.12    1.75
  -1  13   2    0.94    1.99
   1  13  -1   -0.57    1.81
  -1  13   1    0.30    1.87
   1 -13  -1   -0.99    2.80
  -1 -13   1   -1.20    2.99
  -1  13   0    3.20    1.93
   1  13   0    5.07    2.34
   1  13   1  333.91   13.22
  -1 -13  -1  353.75   14.81
   1 -13   1  344.08   14.63
  -1  13  -1  308.44   11.62
  -1 -13  -2    4.22    2.86
   1  13   2    1.33    2.25
   1 -13   2    3.34    2.90
   1 -13   3  121.03    8.32
   1  13   3  122.51    7.80
  -1 -13  -3  123.05    8.06
   1  13   4    2.51    2.62
  -1 -13  -4    4.07    2.32
   1 -13   4    7.11    2.88
   1 -13   5   13.89    2.54
   1 -13   5   11.75    2.91
   1  13   5   13.53    3.25
  -1 -13  -5   10.89    2.67
  -1 -13  -6    5.55    1.91
   1 -13   6    5.58    2.18
  -1 -13  -7   16.20    2.20
   1 -13   7   21.99    3.15
   1  13   7   24.13    3.71
   1 -13   8   22.07    3.00
   1  13   8   22.46    3.26
   1  13   9  146.47    6.91
   1 -13   9  142.60    6.84
   1 -13  10   26.48    2.80
   1 -13  11   33.95    2.50
  -1 -14   9    9.31    1.38
  -1 -14   8   26.17    2.35
  -1  14   7   11.92    2.40
  -1 -14   7    7.76    1.66
  -1  14   6    6.42    2.30
  -1 -14   6    4.75    1.68
  -1  14   5    0.52    1.93
   1 -14  -5    0.12    1.53
  -1 -14   5    0.13    1.75
  -1 -14   4   29.88    3.83
  -1  14   4   29.79    3.61
   1 -14  -4   30.32    3.75
  -1  14   3    1.60    1.81
  -1 -14   3    4.86    2.46
   1 -14  -3    5.27    2.43
  -1  14   2   49.56    4.42
   1  14  -2   43.85    3.55
   1 -14  -2   54.36    5.25
  -1 -14   2   51.94    5.39
   1  14  -1    9.61    2.16
  -1 -14   1   14.57    3.42
   1 -14  -1   12.64    3.27
  -1  14   1   12.66    2.53
  -1  14   0   23.45    2.91
   1  14   0   25.66    3.31
   1  14   1    4.61    2.05
  -1  14  -1    3.23    1.44
   1 -14   1    5.08    2.83
  -1 -14  -1    5.38    2.84
   1  14   2  144.16    7.75
  -1 -14  -2  141.03    8.40
   1 -14   2  135.90    8.31
   1  14   3    0.42    1.97
   1 -14   3    0.97    2.29
  -1 -14  -3    2.18    2.19
  -1 -14  -4   10.06    2.50
   1 -14   4   11.77    2.85
   1  14   4    9.66    2.78
  -1 -14  -5    5.43    1.97
   1  14   5    6.59    2.41
  -1 -14  -6   12.10    1.99
   1 -14   7    5.41    1.29
   1 -14   8   10.24    1.47
   1  14   8   17.00    2.34
  -1  15   5   20.21    2.46
  -1 -15   4   10.06    2.18
  -1  15   4    8.42    1.93
  -1 -15   3   16.54    2.79
  -1  15   3   15.07    2.32
   1 -15  -3   14.57    2.57
  -1  15   2    2.35    1.46
  -1 -15   2    3.69    2.01
   1 -15  -2    2.54    2.00
   1 -15  -1   16.68    3.06
  -1 -15   1   19.78    3.29
  -1  15   1   13.98    2.02
   1  15  -1   14.12    1.85
   1  15   0   40.80    3.20
  -1  15   0   30.94    2.48
   1  15   1  122.44    6.08
  -1 -15  -1  138.27    7.47
   1 -15   1  133.07    7.41
  -1 -15  -2   34.74    3.81
   1 -15   2   33.38    3.73
   1  15   2   27.85    3.06
   1  15   3   15.46    2.48
  -1 -15  -3   22.42    2.96
  -1 -15  -4    1.86    1.50
   1  15   4    0.89    1.50
   1  15   5    0.37    1.48
   1  15   6    0.16    1.26
  -1 -16   2   42.15    3.25
  -1 -16   1    9.00    1.91
   1  16   1    0.26    0.60
  -1 -16  -1    1.32    1.39
   1  16   2   24.16    1.94
  -1 -16  -2   34.28    2.84
   1  16   3    1.09    0.83
   1  16   4    9.42    1.33
  -2   0  16   91.06    5.32
  -2   0  16   81.22    4.54
  -2   0  15   -1.57    2.29
  -2   0  15   -0.66    1.70
  -2   0  14  559.22   17.48
  -2   0  14  527.06   16.62
  -2   0  13    0.54    1.89
  -2   0  13   -1.33    2.55
  -2   0  12  355.61   12.86
  -2   0  11   -0.36    1.47
  -2   0  10  574.46   16.53
   2   0  -9   -0.90    1.18
  -2   0   9   -0.66    1.21
   2   0  -8 1853.35   41.02
   2   0  -8 1950.16   45.02
  -2   0   7    2.33    1.14
   2   0  -7    1.00    1.32
   2   0  -7    2.30    1.06
   2   0  -6  293.49    9.39
   2   0  -6  300.06   10.44
  -2   0   6  296.78    9.68
  -2   0   5    0.65    1.04
   2   0  -5    1.87    1.15
  -2   0   4   37.12    2.67
   2   0  -4   39.78    2.64
  -2   0   3    0.48    0.97
   2   0  -3    1.38    0.99
   2   0  -1    0.35    0.47
  -2   0   1    1.32    1.03
   2   0   0  480.88   10.94
  -2   0   0  479.67   10.95
  -2   0  -1    0.19    0.95
   2   0   3    2.25    1.65
  -2   0  -4  189.90    7.68
  -2   0  -5    1.51    1.67
  -2   0  -5    1.84    1.31
  -2   0  -5    0.93    1.45
  -2   0  -6    6.79    2.28
  -2   0  -6    7.44    2.13
  -2   0  -7   11.31    2.99
  -2   0  -7    5.80    2.25
  -2   0  -7    8.19    2.07
  -2   0  -8  205.86    9.44
  -2   0  -8  209.65   11.76
   2   0   9    0.71    1.30
   2   0  10 2530.30   55.24
   2   0  11    0.13    1.47
   2   0  12  108.92    6.66
   2   0  13   -0.14    1.76
   2   0  14   45.11    4.28
   2   0  15    3.41    1.91
   2   0  16   89.58    4.75
   2   0  16   87.55    4.87
   2   0  17   -0.18    0.87
  -2   1  17  140.08    5.08
  -2   1  17  167.42    6.09
  -2   1  16    6.92    2.52
  -2   1  16   15.49    2.50
  -2   1  15    7.21    2.35
  -2   1  15    9.21    2.81
  -2  -1  15   14.65    2.36
  -2  -1  14   16.93    3.15
  -2  -1  14   16.80    2.68
  -2   1  14   14.77    3.23
  -2   1  14   13.46    2.97
  -2   1  13   12.09    2.82
  -2  -1  13    6.79    2.36
  -2  -1  13    9.99    2.85
  -2  -1  12   13.83    2.90
  -2   1  12   15.63    2.93
  -2  -1  12   15.70    2.55
  -2  -1  11   74.77    4.89
  -2   1  11   72.98    5.25
  -2  -1  10   16.59    2.35
  -2   1  10   16.90    2.62
  -2   1   9   75.75    4.68
   2  -1  -9   74.36    6.28
   2   1  -9   74.35    5.67
   2  -1  -8   55.65    4.41
   2   1  -8   60.04    4.71
  -2   1   8   57.28    4.72
   2  -1  -8   65.82    5.50
  -2   1   7  418.39   14.11
   2  -1  -7  403.01   13.44
   2   1  -7  411.09   13.33
  -2  -1   6   12.07    1.25
   2  -1  -6   11.79    2.14
   2   1  -6   14.08    2.04
  -2  -1   5  602.39   14.00
   2   1  -5  638.15   15.59
   2  -1  -5  603.19   16.64
  -2   1   5  612.22   17.01
   2  -1  -4   79.94    4.42
  -2  -1   4   81.39    3.18
  -2   1   4   75.77    4.41
   2   1  -4   78.01    3.40
  -2   1   3   67.67    3.90
  -2  -1   3   67.60    2.85
   2  -1  -3   70.53    3.94
   2   1  -3   68.42    2.50
   2  -1  -2    3.69    1.36
  -2   1   2    3.87    1.55
   2  -1  -1   32.51    2.15
  -2   1   1   31.42    2.49
  -2   1   0  813.02   18.40
   2  -1   0  831.83   18.44
   2  -1   1    2.97    1.28
  -2   1  -1    2.97    1.37
   2   1   2  878.72   19.99
   2  -1   2  890.90   22.27
  -2  -1  -2  893.58   21.69
   2  -1   3 1879.92   42.98
  -2  -1  -3 1916.16   42.14
  -2   1  -4 1122.40   28.95
  -2   1  -4 1131.59   28.03
  -2  -1  -4 1144.70   27.95
  -2   1  -5  147.13    8.21
  -2   1  -5  136.54    7.48
  -2  -1  -5  140.12    7.29
  -2   1  -5  150.15    6.64
  -2   1  -6  351.94   11.53
  -2  -1  -6  355.88   14.14
  -2   1  -6  358.56   13.92
  -2   1  -6  333.24   14.25
  -2  -1  -7  477.22   16.46
  -2   1  -7  468.76   18.53
  -2   1  -7  482.29   17.80
  -2   1  -7  460.55   14.26
  -2  -1  -7  485.40   18.16
  -2   1  -8   56.26    6.23
  -2   1  -8   62.54    6.20
  -2  -1  -8   56.64    5.17
  -2  -1  -8   60.11    6.25
  -2   1  -8   57.97    4.14
   2   1   9    0.75    1.30
   2  -1   9    2.31    1.41
   2  -1   9    0.25    1.29
   2  -1  10   20.33    3.06
   2   1  10   20.59    2.96
   2  -1  10   17.28    2.57
   2   1  11  139.94    7.49
   2  -1  11  130.36    7.37
   2  -1  11  134.47    6.96
   2  -1  12    7.88    2.42
   2   1  12   10.79    2.90
   2  -1  12    9.24    2.42
   2   1  13   60.80    5.22
   2  -1  13   58.43    4.70
   2   1  14   14.08    2.91
   2  -1  14   10.37    2.29
   2  -1  15  125.38    6.13
   2  -1  15  126.99    6.26
   2   1  15  139.16    7.15
   2   1  16    2.86    1.75
   2   1  16    0.57    1.77
   2  -1  16   -0.49    1.34
   2   1  17    2.43    1.24
   2   1  17    1.38    1.07
  -2   2  18   93.35    4.11
  -2   2  17  125.77    5.64
  -2   2  17  132.47    5.25
  -2   2  16   61.45    4.67
  -2   2  16   60.12    4.31
  -2  -2  16   70.27    5.60
  -2   2  15  112.62    6.76
  -2   2  15  113.83    7.04
  -2   2  14  461.24   15.58
  -2   2  14  456.45   15.70
  -2  -2  14  434.63   14.23
  -2   2  13  115.56    7.16
  -2  -2  13  116.95    6.72
  -2  -2  13  100.39    5.75
  -2   2  12  276.61   11.32
  -2  -2  12  269.37   10.59
  -2  -2  12  243.12    9.57
  -2  -2  12  255.65   10.88
  -2  -2  11   18.87    3.02
  -2  -2  11   13.55    2.61
  -2  -2  11   18.52    2.44
  -2   2  11   16.67    3.01
  -2  -2  10 1040.28   25.47
  -2   2  10 1047.60   26.32
  -2  -2  10  993.09   24.46
  -2  -2  10  979.54   26.47
  -2   2   9    0.54    1.36
  -2  -2   9    1.68    1.53
   2   2  -8  774.17   21.41
  -2   2   8  749.37   23.86
   2  -2  -8  745.93   22.82
  -2   2   7 1016.03   28.77
   2  -2  -7 1063.55   28.34
   2   2  -7 1067.85   26.24
   2   2  -6 2411.60   51.34
   2  -2  -5  623.39   18.06
  -2   2   5  611.81   18.29
   2   2  -5  606.80   15.36
  -2   2   4  553.00   16.45
   2  -2  -4  558.04   16.26
   2   2  -4  565.63   13.49
   2  -2  -3  267.04    9.34
  -2  -2   3  256.69    6.38
  -2  -2   3  249.00    6.49
  -2   2   3  275.91    9.57
  -2  -2   3  258.27    6.88
  -2  -2   2  410.17    9.49
   2  -2  -2  411.59   12.19
  -2  -2   2  424.98   10.38
  -2   2   2  391.57   12.07
  -2  -2   1  422.97   11.20
  -2   2   0 2387.30   49.53
   2  -2   0 2314.30   49.39
  -2  -2   0 2418.84   49.62
   2  -2   0 2366.50   49.48
  -2  -2  -1  897.55   21.94
  -2   2  -1  884.01   20.80
   2  -2   3 1092.41   28.64
   2  -2   3 1101.28   26.86
  -2   2  -3 1097.74   24.92
  -2   2  -3 1075.28   26.68
  -2  -2  -3 1134.15   27.51
  -2   2  -4  487.04   16.62
   2  -2   4  470.39   15.23
  -2   2  -4  478.26   15.05
  -2   2  -5  335.14   12.65
  -2   2  -5  331.68   10.38
  -2   2  -5  322.73   13.86
  -2   2  -6 1089.94   29.93
  -2  -2  -6 1108.90   30.03
  -2   2  -6 1098.57   32.14
  -2   2  -6 1087.35   25.74
  -2  -2  -7  357.49   14.55
  -2   2  -7  354.65   14.84
  -2   2  -7  336.02   16.14
  -2   2  -7  347.93   10.46
  -2   2  -8  490.58   21.08
  -2   2  -8  487.89   19.04
  -2  -2  -8  464.07   17.91
   2   2   8  476.21   14.07
  -2  -2  -9    7.93    2.54
   2  -2   9    8.64    2.30
   2  -2   9    4.73    1.47
   2   2   9    8.15    2.03
   2  -2  10  988.47   26.78
   2   2  10  965.64   25.48
   2  -2  10  968.47   24.28
   2  -2  11   38.79    3.56
   2   2  11   37.19    4.06
   2  -2  11   33.40    4.09
   2  -2  12  567.07   18.81
   2   2  12  594.11   18.57
   2  -2  12  577.54   17.07
   2  -2  13   19.02    2.77
   2   2  13   17.69    3.27
   2  -2  13   16.38    3.12
   2  -2  14  178.25    8.50
   2   2  14  208.36    9.58
   2  -2  14  191.45    7.83
   2  -2  14  199.29    8.14
   2   2  15   36.74    3.89
   2   2  16  114.70    5.99
   2   2  17    3.34    1.38
   2   2  17    2.52    1.40
  -2   3  18   19.81    2.73
  -2   3  17  126.12    5.73
  -2   3  17  156.64    5.81
  -2   3  16    9.52    2.51
  -2   3  16   -1.36    2.27
  -2   3  15    1.70    2.15
  -2   3  15    1.94    2.62
  -2  -3  14    3.93    1.91
  -2   3  14   -0.15    2.37
  -2  -3  13    5.94    2.45
  -2   3  13    5.84    2.69
  -2  -3  12   11.45    2.52
  -2   3  12   13.75    3.10
  -2  -3  12    9.57    2.64
  -2  -3  11   20.88    3.47
  -2   3  11   27.47    3.67
  -2  -3  11   21.06    2.94
  -2  -3  10   23.05    2.87
  -2   3  10   27.34    3.40
  -2  -3  10   29.73    3.70
  -2  -3   9  161.30    8.08
   2  -3  -9  140.75    9.28
  -2  -3   9  150.38    6.55
  -2   3   9  156.37    7.38
  -2   3   8    3.78    1.56
   2  -3  -8    5.76    2.15
  -2   3   8    3.51    1.98
   2   3  -8    6.02    1.62
  -2   3   7   14.05    3.05
   2  -3  -7   14.94    2.96
   2   3  -7   19.54    2.45
   2  -3  -6   60.18    5.32
   2   3  -6   63.84    4.06
   2  -3  -5  519.78   17.25
  -2   3   5  530.90   17.62
  -2   3   4  103.55    6.54
   2  -3  -4  106.78    6.44
  -2  -3   4  100.62    4.57
  -2  -3   3  740.86   17.40
   2  -3  -3  766.47   20.65
  -2  -3   3  726.14   16.21
  -2   3   3  760.21   20.80
  -2  -3   2  262.19    7.79
  -2   3   1  214.77    8.48
   2  -3  -1  210.47    8.33
  -2  -3   1  223.58    7.69
  -2  -3   0  180.25    7.20
   2  -3   0  179.78    7.21
  -2   3   0  170.75    7.11
   2  -3   0  181.32    7.95
  -2   3  -1   56.14    3.74
   2  -3   1   48.77    3.53
  -2  -3  -1   54.55    4.16
   2  -3   1   49.46    4.54
   2  -3   2 1608.89   38.16
  -2   3  -2 1587.45   34.34
  -2   3  -3 1401.36   33.82
   2  -3   3 1413.87   34.13
  -2   3  -3 1435.07   31.53
  -2   3  -4   41.75    2.95
   2  -3   4   41.23    4.14
  -2   3  -4   41.19    4.06
  -2   3  -5   10.59    1.54
  -2   3  -5   13.47    2.84
   2  -3   5    8.90    2.53
  -2   3  -5    8.49    2.81
  -2  -3  -5    9.87    2.64
  -2  -3  -6  138.10    8.69
  -2   3  -6  129.22    9.52
  -2   3  -6  143.72    8.57
  -2   3  -6  128.84    5.05
  -2   3  -6  133.40    5.35
  -2   3  -7    9.08    3.12
  -2   3  -7    4.16    0.83
  -2  -3  -7    8.70    2.64
  -2   3  -7    4.87    0.86
  -2   3  -7    5.97    2.37
   2  -3   8   65.63    5.01
  -2  -3  -8   62.59    6.28
   2   3   9   57.26    4.09
   2  -3   9   58.35    5.12
   2   3  10   63.49    4.97
   2  -3  10   58.32    3.97
   2  -3  10   58.91    5.38
   2   3  11   20.57    3.45
   2  -3  11   19.57    3.70
   2  -3  11   20.15    2.56
   2  -3  12  187.17   10.04
   2   3  12  186.51    9.36
   2  -3  13   31.82    4.18
   2   3  13   35.01    4.23
   2   3  14  190.38    9.14
   2  -3  14  162.23    8.49
   2   3  15   29.40    3.66
   2   3  16   27.75    3.15
   2   3  17    1.01    1.23
   2   3  17    0.46    1.31
  -2   4  17   50.47    3.63
  -2   4  17   96.24    4.36
  -2   4  16   23.99    3.24
  -2   4  16   39.44    3.64
  -2   4  15   46.91    4.39
  -2  -4  15   33.66    3.30
  -2   4  15   41.94    4.44
  -2  -4  14  223.62   10.24
  -2   4  14  250.32   10.77
  -2   4  13   -1.44    2.85
  -2  -4  13    0.18    2.10
  -2  -4  12  231.12   11.33
  -2   4  12  229.65   10.66
  -2   4  11   31.57    3.99
  -2  -4  11   35.96    4.50
  -2  -4  10  640.90   20.43
  -2   4   9   35.86    3.72
  -2  -4   9   41.14    4.37
  -2  -4   8  845.67   23.53
  -2   4   8  839.11   22.20
  -2   4   8  890.52   22.97
  -2   4   7  507.00   20.09
   2  -4  -7  508.75   19.37
   2  -4  -6 3121.26   71.55
   2  -4  -5   45.74    4.86
  -2  -4   5   42.77    3.41
   2  -4  -4  676.82   20.61
  -2   4   4  629.76   20.54
  -2  -4   4  627.95   16.87
  -2  -4   3  126.86    4.72
  -2  -4   3  124.21    5.61
  -2  -4   2 3240.29   66.20
  -2  -4   2 3160.45   65.72
   2  -4  -1 1852.04   41.98
  -2  -4   1 1785.52   40.34
   2  -4  -1 1848.33   41.98
  -2   4   1 1822.05   42.16
   2  -4   0 2547.71   55.51
   2  -4   0 2604.34   56.93
  -2   4   0 2578.05   55.72
  -2  -4   0 2489.99   55.36
  -2  -4  -1  428.62   14.29
   2  -4   1  456.02   15.51
   2   4   1  415.00   11.02
   2  -4   1  425.43   13.28
   2   4   1  437.61   14.43
  -2   4  -1  425.91   13.42
   2  -4   2 4649.45   97.74
  -2  -4  -2 4762.60   98.44
   2  -4   2 4803.96  100.53
  -2   4  -2 4677.84   95.71
   2   4   2 4584.70   98.47
  -2   4  -3  117.93    5.68
  -2   4  -3  121.02    7.01
   2  -4   3  119.28    7.06
   2  -4   4 1670.04   41.02
  -2   4  -4 1632.76   36.67
  -2   4  -4 1694.28   40.94
  -2  -4  -4 1713.40   42.19
  -2  -4  -5   66.66    6.08
   2  -4   5   61.37    5.59
  -2   4  -5   60.10    5.44
  -2   4  -5   52.65    3.25
  -2   4  -6 1552.73   42.79
  -2  -4  -6 1580.00   40.06
  -2   4  -6 1615.96   39.03
  -2   4  -6 1383.16   29.80
  -2   4  -6 1345.94   29.43
  -2  -4  -7   30.99    4.73
   2  -4   7   28.63    3.34
   2   4   7   27.87    2.82
  -2   4  -7   24.99    3.99
   2  -4   8  256.91   10.99
   2   4   8  249.64    9.65
   2   4   8  266.45    9.91
   2   4   9   78.14    5.31
   2  -4   9   78.72    6.15
   2   4   9   67.81    4.85
   2  -4  10  307.85   13.34
   2  -4  11    6.16    2.84
   2  -4  12  292.51   13.28
   2  -4  13   32.47    4.39
   2   4  13   32.86    4.27
   2  -4  14  158.23    8.62
   2   4  14  178.22    8.79
   2  -4  15   71.04    4.94
   2   4  15   87.53    5.71
   2   4  16  176.13    7.48
   2   4  17   22.02    2.22
   2   4  17   22.76    2.22
  -2   5  17  123.58    4.92
  -2   5  16   43.98    3.80
  -2  -5  15  126.59    6.56
  -2   5  15  137.56    7.11
  -2  -5  14   12.51    2.90
  -2   5  14    9.83    3.01
  -2  -5  13   18.64    3.73
  -2  -5  12   -0.20    2.55
  -2  -5  11   35.12    4.76
  -2   5  10   42.79    4.39
  -2  -5  10   49.41    5.24
  -2   5   9   21.38    3.12
  -2  -5   9   18.22    3.50
  -2   5   9   21.71    3.15
  -2   5   8    1.71    1.53
  -2   5   8    2.77    1.59
  -2  -5   8    0.91    1.74
  -2   5   7   72.72    4.99
  -2   5   7   67.24    4.46
  -2   5   6   53.21    6.12
   2  -5  -6   47.68    5.64
   2   5  -6   40.97    6.21
  -2  -5   5   19.40    2.55
   2  -5  -5   16.10    3.45
  -2  -5   4    2.19    0.43
  -2   5   4    4.00    2.24
  -2  -5   4    3.49    1.44
   2  -5  -4    3.55    2.01
   2  -5  -3  411.09   13.58
  -2  -5   3  423.25   13.31
  -2  -5   3  408.95   11.58
  -2  -5   2   19.61    2.62
   2  -5  -2   13.55    2.54
  -2  -5   2   15.35    2.23
  -2   5   2   13.66    2.99
   2  -5  -2   17.43    3.27
   2  -5  -1   71.22    5.44
   2   5  -1   71.15    5.36
   2  -5  -1   73.46    5.57
  -2   5   1   77.91    5.93
  -2  -5   1   71.17    4.94
   2   5   0  830.76   21.90
  -2  -5   0  864.28   23.53
   2  -5   0  863.33   23.65
   2  -5   0  862.40   24.72
   2   5   0  842.03   23.71
  -2   5   0  852.44   23.79
   2   5   1    6.55    2.29
  -2   5  -1    6.19    1.94
  -2  -5  -1    4.24    2.07
   2  -5   1    7.30    2.27
   2   5   1    4.46    1.22
   2  -5   1    5.81    2.08
   2  -5   1    5.45    2.39
   2  -5   2  528.98   17.88
  -2  -5  -2  539.93   18.42
   2   5   2  534.71   18.54
   2  -5   2  568.49   16.57
  -2   5  -2  533.76   16.31
  -2  -5  -3  785.66   24.34
   2  -5   3  787.47   23.73
  -2   5  -3  772.94   20.76
   2   5   3  784.21   24.69
  -2   5  -4    4.91    1.45
   2  -5   4    6.32    2.38
   2  -5   5 1173.88   32.93
  -2  -5  -5 1185.25   34.12
  -2   5  -5 1118.32   26.11
  -2   5  -6 1075.79   31.81
   2  -5   6 1058.86   32.14
  -2  -5  -6 1060.76   33.13
   2   5   7   75.92    5.09
   2  -5   7   68.69    5.47
   2   5   7   72.43    4.58
   2   5   8    8.05    2.11
   2  -5   8    7.05    2.69
   2   5   8    6.73    1.88
   2   5   8    4.91    1.90
   2   5   9   38.69    3.71
   2   5   9   40.69    4.12
   2   5   9   40.80    4.09
   2  -5   9   39.55    4.95
   2  -5  10   34.42    4.87
   2   5  10   34.27    3.49
   2   5  10   31.93    3.93
   2  -5  11   27.69    4.58
   2   5  11   28.91    4.01
   2   5  12  233.66   10.81
   2  -5  12  245.64   12.20
   2  -5  13    1.52    2.58
   2  -5  14   35.54    4.28
   2  -5  15   10.07    2.39
   2   5  16    4.50    1.88
   2   5  17   50.97    2.90
   2   5  17   49.57    2.91
  -2   6  17   84.77    3.48
  -2   6  17   55.19    4.05
  -2   6  16  111.48    5.56
  -2   6  16  163.83    6.33
  -2   6  15   14.04    2.82
  -2  -6  15   13.38    2.39
  -2   6  14  301.97   11.58
  -2  -6  14  297.10   12.34
  -2   6  13   17.43    3.50
  -2  -6  13   17.87    3.73
  -2   6  12  326.59   12.96
  -2  -6  12  309.07   14.08
  -2  -6  11   87.93    7.38
  -2   6  11   86.93    6.31
  -2   6  10  579.12   19.08
  -2  -6  10  601.16   20.76
  -2   6  10  595.43   18.71
  -2   6   9    8.91    2.48
  -2  -6   9    6.90    2.80
  -2   6   9    9.75    2.53
  -2   6   8  219.26    9.35
  -2   6   8  229.85   10.19
  -2  -6   8  218.78   10.68
  -2   6   7    2.08    1.54
  -2   6   7    0.54    1.48
  -2   6   6  441.62   14.38
  -2   6   6  434.13   13.19
   2   6  -5  135.95   10.71
  -2  -6   5  143.49    7.58
   2  -6  -5  121.75    5.76
   2  -6  -4  712.89   19.95
   2   6  -4  797.76   27.16
  -2  -6   4  730.50   16.64
  -2  -6   4  808.51   22.03
   2  -6  -3   53.15    5.57
   2   6  -3   49.97    5.68
  -2  -6   3   54.58    3.75
  -2  -6   3   49.91    4.44
   2  -6  -3   55.55    4.44
   2  -6  -2 1884.18   44.64
   2  -6  -2 1876.22   47.06
  -2  -6   2 1922.13   43.39
  -2  -6   2 1912.34   44.70
   2   6  -2 1854.47   46.99
  -2   6   2 1895.48   47.89
  -2  -6   1   97.12    6.26
   2  -6  -1  102.13    7.11
   2  -6  -1   96.80    6.72
  -2  -6   1   98.86    6.45
   2   6  -1   91.80    6.39
  -2   6   1  100.83    7.32
   2   6   0 1028.47   28.53
  -2  -6   0 1041.15   28.22
   2  -6   0  985.59   28.04
   2  -6   0 1006.53   29.03
   2   6   0 1012.30   25.91
  -2   6   0 1011.73   28.62
   2  -6   1  984.07   26.91
  -2  -6  -1  976.17   28.09
  -2   6  -1  963.08   27.13
   2  -6   1  982.95   28.51
   2   6   1  963.31   28.41
   2  -6   2   61.54    4.91
   2   6   2   61.77    5.96
   2  -6   2   57.74    5.65
  -2   6  -2   57.43    4.84
  -2  -6  -2   57.35    5.68
  -2  -6  -3  267.74   13.26
  -2   6  -3  270.93   10.81
   2   6   3  285.16   13.98
   2  -6   3  265.48   12.84
  -2   6  -4 2052.41   46.49
   2   6   4 2054.80   53.91
   2  -6   4 2164.77   52.61
  -2  -6  -4 2052.90   53.15
   2  -6   5  108.92    6.33
   2   6   5  105.43    5.93
   2   6   6  938.74   24.02
   2   6   6  908.92   24.13
   2  -6   6  919.95   25.21
   2   6   6  884.00   22.41
   2   6   7   19.86    2.79
   2   6   7   17.07    2.46
   2   6   7   16.16    2.74
   2   6   8  663.37   20.14
   2   6   8  687.32   19.75
   2   6   8  654.88   18.99
   2  -6   9   53.09    5.69
   2   6   9   42.77    4.50
   2   6   9   45.54    4.24
   2   6   9   45.51    4.34
   2   6  10  611.29   18.74
   2  -6  10  659.34   22.13
   2   6  10  629.97   19.45
   2  -6  11    0.21    2.74
   2   6  11    1.15    1.57
   2   6  11    0.78    2.09
   2  -6  12    5.23    3.11
   2   6  12    6.23    2.75
   2  -6  13   51.93    5.64
   2   6  13   58.46    5.19
   2  -6  14  125.63    7.68
   2   6  14  134.36    7.27
   2  -6  15   11.21    2.43
   2  -6  16  128.17    4.87
   2   6  17    0.82    0.80
  -2   7  16   32.74    2.61
  -2  -7  15    2.33    1.75
  -2   7  15    2.06    1.89
  -2   7  14   22.20    3.22
  -2   7  14   27.84    3.47
  -2  -7  14   17.12    3.28
  -2  -7  13   12.30    3.47
  -2   7  13   10.54    2.97
  -2  -7  12    1.03    2.68
  -2   7  12    0.15    2.45
  -2  -7  11  114.64    8.53
  -2   7  11  100.16    6.99
  -2   7  10    3.29    2.47
  -2   7  10   -0.15    2.87
  -2  -7  10    1.48    2.68
  -2  -7   9   17.35    3.81
  -2   7   9   16.44    3.30
  -2   7   9   14.79    3.11
  -2   7   8  118.62    7.57
  -2   7   8  118.47    6.79
  -2   7   7   97.90    6.54
  -2   7   7   91.75    5.67
  -2   7   6  106.37    6.63
  -2   7   6  106.01    5.74
  -2  -7   6  110.11    7.06
  -2   7   5   38.51    3.25
  -2   7   4   20.05    2.78
  -2   7   4   20.83    2.86
   2   7  -4   23.10    4.54
  -2  -7   4   22.00    3.38
  -2  -7   3   26.25    2.90
  -2  -7   3   25.76    3.60
   2   7  -3   20.83    4.18
  -2  -7   2   24.57    3.54
   2  -7  -2   20.21    3.69
   2   7  -2   18.80    3.69
  -2  -7   2   22.42    3.01
  -2  -7   1   34.42    4.32
   2  -7  -1   35.69    4.60
  -2  -7   1   33.71    4.09
   2   7  -1   35.80    4.25
   2  -7   0   46.49    5.40
   2  -7   0   39.59    4.72
  -2   7   0   39.16    4.76
  -2  -7   0   37.91    4.50
   2  -7   1  197.08   10.32
   2  -7   1  224.49   12.08
   2   7   1  207.10   11.59
  -2   7  -1  202.06   10.72
  -2  -7  -1  196.33   11.03
  -2  -7  -2  123.35    8.92
   2  -7   2  117.55    7.48
   2  -7   2  125.00    8.96
   2   7   2  130.88    9.39
  -2   7  -2  115.54    7.63
   2   7   3   13.52    2.40
   2   7   3   12.50    2.26
   2   7   4    8.93    2.05
   2  -7   4    9.79    2.27
   2  -7   5   37.80    3.63
   2   7   5   37.90    3.88
   2  -7   5   37.13    4.08
   2  -7   6   99.90    5.86
   2  -7   6  106.07    7.01
   2   7   6  107.80    5.53
   2   7   6  103.32    6.38
   2   7   7  199.36    8.53
   2  -7   7  213.66   10.73
   2   7   7  202.13    9.80
   2   7   7  219.52    9.83
   2   7   8   67.33    5.44
   2   7   8   62.45    5.56
   2   7   8   58.44    4.71
   2   7   9   10.63    2.80
   2   7   9    8.39    2.61
   2   7   9   10.29    3.15
   2  -7  10   63.80    6.56
   2   7  10   65.52    5.30
   2   7  10   58.84    5.19
   2  -7  11   96.10    8.06
   2   7  11   92.56    5.99
   2   7  11   97.56    6.62
   2  -7  12   53.74    5.97
   2   7  12   46.95    4.66
   2  -7  13  212.76   10.85
   2   7  13  199.43    9.15
   2   7  14    3.95    2.00
   2  -7  14    2.38    2.27
   2  -7  15   16.21    2.56
   2   7  15   17.46    2.53
   2   7  16    3.27    1.29
   2   7  16    0.66    1.20
  -2   8  16   32.32    3.34
  -2   8  16   44.81    2.24
  -2   8  15    1.96    1.48
  -2  -8  15    0.54    1.34
  -2  -8  14   84.59    5.88
  -2   8  14   74.83    4.78
  -2  -8  13   15.34    3.50
  -2   8  13    8.87    2.50
  -2   8  13   17.85    3.13
  -2  -8  12  221.85   11.54
  -2   8  12  200.76    9.36
  -2  -8  11   48.08    5.93
  -2   8  11   38.50    4.43
  -2   8  10  216.66   10.84
  -2  -8  10  216.17   12.00
  -2   8  10  207.12    9.84
  -2   8   9   30.98    3.95
  -2   8   9   43.82    4.91
  -2   8   8    0.53    2.25
  -2   8   8   -0.53    1.97
  -2  -8   7  239.48   11.61
  -2   8   7  232.78    9.65
  -2   8   7  229.98   10.92
  -2  -8   6 1581.04   39.11
   2  -8  -6 1509.80   36.38
  -2   8   6 1513.13   35.52
  -2   8   5  211.17    8.20
   2  -8  -5  208.36    9.20
  -2  -8   5  216.09   10.18
  -2   8   4  825.31   22.96
   2  -8  -4  822.66   22.75
  -2   8   3   85.07    5.59
   2   8  -3   72.30    7.51
  -2   8   3   77.22    5.19
   2  -8  -3   79.90    5.50
  -2  -8   3   80.07    6.79
   2   8  -2  685.71   24.43
  -2  -8   2  737.12   24.11
  -2   8   2  708.80   19.42
  -2   8   2  711.11   19.78
  -2  -8   1    9.50    2.50
  -2   8   1    7.14    1.76
  -2  -8   0  130.33    9.08
   2  -8   0  141.80    9.52
   2   8   1  483.04   15.29
   2  -8   1  477.00   18.50
   2   8   1  481.24   14.76
   2  -8   2  512.76   16.45
   2   8   2  509.93   16.05
   2   8   2  503.97   15.62
   2  -8   3  225.73    9.86
   2   8   3  215.27    9.39
   2  -8   3  224.49    9.47
   2  -8   4  388.60   13.95
   2   8   4  388.37   13.77
   2   8   4  391.14   13.93
   2  -8   4  371.93   13.66
   2   8   5    4.62    2.10
   2  -8   5    5.13    2.25
   2  -8   5    5.83    2.01
   2  -8   6  686.15   20.15
   2   8   6  658.87   18.32
   2   8   6  675.22   20.99
   2  -8   6  723.72   22.14
   2   8   6  687.74   20.99
   2  -8   7   24.77    4.11
   2   8   7   29.58    3.88
   2   8   7   21.47    3.61
   2  -8   7   23.97    3.11
   2   8   7   27.15    3.07
   2   8   8  338.04   13.51
   2  -8   8  340.22   14.95
   2   8   8  332.07   12.14
   2   8   8  345.33   14.07
   2   8   9   36.36    4.66
   2   8   9   34.08    3.83
   2   8   9   34.43    4.21
   2   8  10   64.10    5.36
   2   8  10   55.99    4.97
   2  -8  11   68.02    6.92
   2   8  11   63.21    5.01
   2   8  11   60.37    5.07
   2  -8  12   12.04    3.83
   2   8  12    9.69    2.54
   2   8  13   13.47    2.57
   2  -8  13   10.45    3.26
   2   8  14  118.48    5.92
   2  -8  14  126.17    7.03
   2   8  15   -0.46    1.26
   2  -8  15    0.26    1.26
  -2   9  15   31.03    1.86
  -2   9  15   26.49    3.45
  -2  -9  14    3.46    2.09
  -2   9  14    3.87    1.66
  -2  -9  13   25.54    3.91
  -2   9  13   18.98    2.66
  -2  -9  12  136.30    8.67
  -2   9  12  132.45    6.78
  -2   9  12  117.80    6.31
  -2   9  11   13.28    3.03
  -2  -9  11   17.10    4.27
  -2   9  10   61.45    5.72
  -2   9  10   54.65    4.86
  -2   9   9  214.94    9.61
  -2  -9   9  240.40   12.56
  -2   9   9  235.08   11.40
  -2   9   8   52.95    5.50
  -2  -9   8   57.80    6.10
  -2   9   8   41.93    4.10
  -2   9   7    3.89    1.85
  -2  -9   7    3.11    1.83
  -2  -9   7    5.03    3.05
  -2   9   7    3.78    2.57
  -2   9   6   18.51    2.57
   2  -9  -6   19.69    3.04
  -2  -9   6   20.02    3.78
  -2  -9   5  132.49    8.25
  -2   9   5  137.02    8.10
   2  -9  -5  130.07    7.53
  -2   9   5  125.43    5.94
  -2  -9   4   83.27    6.15
   2  -9  -4   74.41    5.73
  -2   9   4   77.01    5.84
  -2  -9   3   60.69    5.01
  -2   9   3   62.57    5.09
   2  -9  -3   65.53    5.33
   2  -9  -2   24.52    3.48
  -2   9   2   24.13    3.17
  -2  -9   2   23.33    3.06
  -2   9   1   49.12    4.28
  -2  -9   1   50.94    4.08
   2   9  -1   44.11    3.75
   2   9  -1   49.88    4.40
   2  -9  -1   54.79    4.95
   2   9   0   27.45    3.45
   2   9   0   24.83    3.06
  -2   9   0   24.19    2.96
  -2   9  -1   11.34    2.09
   2   9   1   11.15    2.57
   2   9   1   12.09    2.48
   2  -9   1   14.33    2.96
   2  -9   2   18.97    3.19
   2  -9   2   15.80    2.57
   2   9   2   18.26    3.05
   2   9   2   16.54    2.85
   2   9   3  387.68   14.23
   2  -9   3  406.86   14.96
   2  -9   3  402.63   14.13
   2  -9   4    0.49    1.72
   2   9   4    0.16    1.88
   2  -9   4   -0.32    1.65
   2   9   5  120.67    7.66
   2  -9   5  110.83    7.21
   2  -9   5  124.37    7.88
   2   9   5  116.76    7.64
   2  -9   6   59.43    5.14
   2   9   6   67.98    5.83
   2  -9   6   69.98    6.19
   2   9   6   63.76    4.27
   2   9   7   15.62    3.42
   2  -9   7   16.21    2.84
   2  -9   7   20.63    4.09
   2   9   7   21.07    4.01
   2   9   7   17.87    2.63
   2   9   8  208.32   10.70
   2  -9   8  210.19   11.57
   2   9   8  208.35   10.42
   2   9   8  190.80    8.63
   2   9   9   81.66    6.67
   2   9   9   77.80    6.21
   2  -9   9   82.39    7.42
   2   9   9   80.30    5.51
   2  -9  10  148.77    9.79
   2   9  10  139.53    7.38
   2   9  10  143.32    8.08
   2   9  11    3.68    2.06
   2   9  11    4.53    2.10
   2   9  12   -0.44    2.08
   2  -9  12    3.56    2.83
   2  -9  13   40.17    4.50
   2   9  13   38.97    3.39
   2   9  14    0.20    1.19
   2  -9  14    3.69    1.88
   2  -9  15   36.55    2.58
   2   9  15   32.21    2.11
  -2 -10  14  151.15    6.29
  -2  10  14  121.66    4.93
  -2 -10  13   49.27    4.49
  -2  10  13   47.23    2.90
  -2 -10  12  225.13   10.57
  -2  10  12  234.57    8.16
  -2  10  11   77.81    4.90
  -2  10  11   49.99    3.85
  -2  10  10   58.40    4.43
  -2 -10  10   62.95    6.47
  -2  10  10   52.89    3.95
  -2  10   9    4.18    1.89
  -2  10   9    1.07    1.47
  -2 -10   9    0.64    2.91
  -2  10   9    2.70    2.81
  -2 -10   8   32.34    4.98
  -2  10   8   24.75    3.02
  -2  10   8   33.68    4.65
   2 -10  -7  309.65   11.81
  -2 -10   7  330.82   12.55
  -2 -10   7  327.62   14.37
  -2  10   7  289.86   10.46
   2 -10  -6  772.37   22.70
  -2 -10   6  784.09   24.63
   2 -10  -5   70.12    5.78
  -2  10   5   76.02    6.24
  -2 -10   5   68.88    6.26
   2  10  -5   66.09    4.73
   2 -10  -4   73.77    6.10
  -2  10   4   76.71    6.21
  -2 -10   4   83.28    6.38
   2  10  -4   77.75    5.37
   2  10  -3   11.40    2.49
  -2  10   3   12.51    2.88
   2 -10  -3   14.40    3.09
  -2 -10   3   11.28    2.72
   2  10  -2  492.31   16.51
  -2 -10   2  495.35   16.25
   2 -10  -2  531.14   18.17
  -2  10   2  507.13   16.97
   2  10  -1    6.77    2.27
   2 -10  -1    5.02    2.61
  -2  10   1    7.13    2.15
   2  10  -1    6.04    1.91
   2  10   0  296.16   11.45
   2  10   0  295.90   12.18
  -2  10   0  294.51   11.39
   2 -10   1   20.37    3.74
  -2  10  -1   15.43    2.57
   2  10   1   18.68    3.33
   2  10   1   19.05    3.12
   2 -10   2   79.28    6.42
   2  10   2   75.11    6.04
   2  10   2   71.56    5.68
   2  10   3   22.88    3.68
   2  10   3   27.69    3.73
   2 -10   3   21.02    3.67
   2 -10   3   18.23    3.10
   2 -10   4  321.46   13.51
   2 -10   4  312.91   12.94
   2  10   4  306.69   13.08
   2 -10   5    7.30    2.75
   2  10   5    5.97    2.75
   2 -10   5   11.72    2.98
   2  10   5    5.35    2.77
   2 -10   6  183.64    9.56
   2 -10   6  192.06   10.52
   2  10   6  178.04   10.02
   2  10   6  191.58   10.22
   2 -10   7   11.06    3.38
   2  10   7   11.51    3.25
   2  10   8  396.01   15.64
   2 -10   8  431.78   16.79
   2  10   8  406.87   15.39
   2  10   9   12.42    3.02
   2  10   9   13.31    2.32
   2 -10   9   13.23    3.77
   2  10  10  109.92    6.81
   2  10  10   99.71    5.66
   2 -10  10  119.09    8.39
   2  10  11   13.96    2.46
   2  10  11   21.18    2.88
   2 -10  11   21.86    3.96
   2  10  12   58.39    3.80
   2  10  13    7.73    1.65
   2 -10  13    3.07    2.10
   2 -10  14   55.62    3.64
  -2 -11  13  102.52    5.39
  -2  11  12    6.94    2.35
  -2  11  11   32.50    3.07
  -2 -11  11   22.55    3.78
  -2 -11  10    4.62    2.98
  -2  11  10    4.57    1.72
  -2  11   9   14.85    2.16
  -2  11   9   19.70    3.74
  -2 -11   9   23.18    4.14
  -2 -11   8    0.99    2.75
  -2  11   8    0.18    2.45
  -2 -11   7   31.86    4.78
   2 -11  -7   32.16    3.54
  -2 -11   7   31.81    3.78
  -2 -11   6  479.85   17.86
  -2  11   6  488.31   17.72
   2 -11  -6  470.72   16.35
  -2 -11   6  483.12   16.97
  -2  11   5   43.35    5.29
   2 -11  -5   36.51    4.54
  -2 -11   5   40.08    5.01
  -2 -11   4   21.97    3.62
   2 -11  -4   23.47    3.82
   2  11  -4   21.58    3.06
  -2  11   4   21.78    3.79
  -2  11   3  403.89   15.09
   2  11  -3  378.43   13.88
  -2 -11   3  388.94   14.51
   2 -11  -3  402.56   15.78
  -2  11   2    2.60    2.13
   2 -11  -2    2.72    2.24
  -2 -11   2    2.97    1.87
   2  11  -2    3.55    2.10
  -2  11   1  236.76   10.58
   2  11  -1  234.33   10.74
   2  11  -1  227.18    9.59
   2 -11  -1  243.20   11.95
   2  11   0    9.58    2.86
  -2  11   0    9.44    2.34
   2  11   0    7.31    2.24
   2  11   1   21.84    3.44
   2  11   1   26.61    3.95
  -2  11  -1   19.17    2.94
   2 -11   1   17.96    3.91
   2 -11   2    3.59    2.45
   2  11   2    3.04    2.45
   2  11   2    2.42    2.12
   2 -11   3   11.25    3.49
   2  11   3   11.72    3.33
   2 -11   3    9.19    2.52
   2  11   3   12.06    3.15
   2  11   4   15.40    3.43
   2 -11   4   14.63    3.10
   2 -11   4   19.68    3.66
   2 -11   5   65.85    5.95
   2 -11   5   58.25    5.57
   2  11   5   61.20    5.83
   2 -11   6   67.92    6.08
   2  11   6   65.46    6.07
   2  11   6   67.46    6.17
   2 -11   6   63.44    5.56
  -2 -11  -7    5.63    2.07
   2  11   7    7.37    3.18
   2 -11   7    8.25    3.25
   2 -11   8    1.33    2.31
   2  11   8    2.53    2.50
   2 -11   9  235.50   11.51
   2  11   9  225.91   10.36
   2  11  10   12.09    2.65
   2 -11  10   12.18    3.27
   2 -11  11    3.90    2.38
   2 -11  12    6.17    2.23
   2  11  12   -0.27    1.14
  -2 -12  12   20.32    2.48
  -2 -12  11    1.74    1.84
  -2 -12  10  105.60    6.69
  -2 -12   9   35.73    4.42
  -2 -12   8    0.34    2.44
  -2 -12   7  164.21    9.24
  -2 -12   7  151.25    7.66
  -2  12   6  293.69   12.67
  -2 -12   6  298.53   12.73
  -2 -12   6  289.51   12.07
   2 -12  -6  262.04   11.24
  -2  12   5   96.93    7.10
  -2 -12   5   96.27    6.94
   2 -12  -5   93.47    6.73
  -2 -12   5  105.73    7.35
  -2 -12   4  240.83   10.80
  -2 -12   4  244.17   11.72
  -2  12   4  231.15   11.13
   2  12  -4  211.55    9.22
   2 -12  -4  239.97   11.43
   2  12  -3   20.59    3.09
   2 -12  -3   14.67    3.40
  -2 -12   3   20.00    3.14
  -2  12   3   22.38    3.71
   2  12  -2   64.11    5.34
  -2  12   2   60.06    5.37
   2 -12  -2   64.96    6.30
   2  12  -1    0.65    1.93
   2  12  -1    1.09    1.39
  -2  12   1    1.85    2.13
   2 -12  -1    4.08    2.86
   2  12   0   69.09    5.89
   2  12   0   69.53    5.16
  -2  12   0   71.47    5.38
  -2  12  -1   13.43    2.52
   2  12   1   13.58    3.17
   2 -12   1   17.78    4.10
   2  12   1   15.67    2.99
   2 -12   2  702.62   23.41
   2  12   2  696.26   21.39
   2  12   2  723.81   22.55
   2 -12   3    4.60    2.98
   2  12   3    3.29    2.87
   2  12   3    2.17    2.21
   2 -12   4   14.45    2.88
   2  12   4   14.12    3.59
   2 -12   4   15.36    3.43
   2  12   4   12.35    3.07
   2 -12   5   -0.94    2.01
   2 -12   5    1.25    2.00
   2  12   5    0.52    2.29
   2  12   6   11.20    3.30
  -2 -12  -6   11.16    2.64
   2 -12   6   11.12    2.89
   2 -12   7   15.07    3.23
   2  12   7   14.98    3.36
  -2 -12  -7   14.21    2.49
   2  12   8   37.17    4.22
   2 -12   8   32.65    4.16
   2  12   9    5.80    2.27
   2 -12   9    5.24    2.42
   2  12  10  125.18    6.27
   2 -12  10  134.90    7.19
   2 -12  11   14.26    2.47
   2 -12  12    8.26    1.71
  -2 -13  11   24.13    2.26
  -2 -13  10    1.41    1.50
  -2 -13   9    3.17    1.88
  -2 -13   8    4.47    2.24
  -2 -13   7   53.69    3.95
  -2 -13   7   66.90    5.19
  -2  13   7   64.77    5.37
  -2 -13   6   21.58    3.13
  -2 -13   6   18.73    3.12
  -2  13   6   27.50    3.87
  -2 -13   5   49.27    4.44
  -2 -13   5   50.23    4.94
  -2  13   5   45.75    4.84
   2 -13  -5   50.61    4.70
   2 -13  -4   19.13    3.43
  -2  13   4   21.67    3.55
  -2 -13   4   18.74    2.89
  -2 -13   4   22.97    3.73
  -2  13   3    8.21    2.58
   2  13  -3    7.89    2.08
  -2 -13   3   10.85    3.28
   2 -13  -3    9.01    2.96
   2  13  -2    3.30    1.96
   2 -13  -2    3.60    2.66
  -2  13   2    3.29    2.26
  -2 -13   2    3.11    2.67
   2 -13  -1   38.91    5.14
  -2  13   1   43.25    4.25
   2  13  -1   42.74    4.41
   2  13   0  122.97    7.57
  -2  13   0  128.26    6.97
   2  13   1  214.22    9.36
   2 -13   1  226.73   11.57
   2  13   1  223.47   10.57
  -2  13  -1  202.34    8.55
   2  13   2    5.04    2.70
   2 -13   2    6.60    3.22
   2  13   2    2.98    1.99
   2 -13   3   14.19    3.70
   2  13   3   14.69    3.61
  -2 -13  -3   15.91    3.41
   2  13   4   -0.33    2.61
   2 -13   4   -0.87    2.40
  -2 -13  -4    0.67    2.09
  -2 -13  -5   11.90    2.66
   2 -13   5    7.57    1.98
   2 -13   6    6.55    2.07
  -2 -13  -6    4.69    1.79
   2 -13   7   31.56    3.44
  -2 -13  -7   23.96    2.56
   2  13   7   33.29    4.04
   2  13   8   13.36    2.68
   2 -13   8   10.84    2.32
   2  13   9  109.59    5.71
   2 -13   9  105.94    5.58
   2 -13  10    0.24    1.22
   2 -13  11    4.06    1.03
  -2 -14   8   20.20    2.12
  -2 -14   7    2.64    1.22
  -2  14   6   68.06    4.85
  -2 -14   6   56.87    3.70
  -2 -14   6   60.19    4.12
  -2  14   5   12.23    2.61
  -2 -14   5    9.48    2.37
  -2 -14   4   10.41    2.68
   2 -14  -4    9.32    2.39
  -2  14   4   10.50    2.40
   2  14  -3    8.44    1.73
   2 -14  -3   11.34    2.88
  -2  14   3   11.70    2.49
  -2 -14   3    8.72    2.79
  -2  14   2    6.18    2.13
   2 -14  -2    8.13    2.81
   2  14  -2    6.62    1.86
  -2 -14   2    6.38    2.85
   2 -14  -1    3.39    2.54
  -2 -14   1    2.42    2.71
   2  14  -1    3.03    1.85
  -2  14   1    3.15    1.68
   2  14   0   15.90    2.90
  -2  14   0   13.53    2.11
   2 -14   1    3.61    2.82
   2  14   1    1.79    1.91
  -2 -14  -1    3.07    2.70
   2  14   2  329.05   12.71
  -2 -14  -2  346.07   13.71
   2 -14   2  357.59   14.00
   2 -14   3    1.41    2.34
  -2 -14  -3    1.52    2.03
   2  14   3    1.12    2.03
  -2 -14  -4    1.50    1.86
   2  14   4    2.05    2.15
  -2 -14  -5    5.96    2.02
   2  14   5    5.30    2.23
  -2 -14  -6   -0.25    1.10
   2  14   7    7.87    2.11
   2  14   8    6.37    1.71
  -2 -15   5   31.02    2.68
  -2 -15   4    0.92    1.42
  -2 -15   3    8.97    2.30
  -2 -15   2    1.80    1.89
  -2 -15   1   59.02    4.91
   2  15  -1   46.11    3.26
   2  15   0   15.31    2.25
   2  15   1   77.03    4.77
  -2 -15  -1   83.34    5.70
  -2 -15  -2    9.55    2.43
   2  15   2    7.06    1.94
  -2 -15  -3   15.42    2.64
   2  15   3   14.16    2.49
   2  15   4   24.63    2.87
  -2 -15  -4   22.84    2.65
   2  15   5   55.62    3.87
  -2 -15  -5   41.86    2.86
  -2 -16   2    7.74    1.65
  -2 -16   1    1.55    1.31
  -2 -16  -1    1.68    1.33
   2  16   1    0.19    0.65
   2  16   2   49.07    2.81
  -2 -16  -2   64.14    3.74
   2  16   3    1.96    0.93
  -2 -16  -3    1.16    0.90
   2  16   4    1.47    0.81
  -3   0  17   26.10    5.11
  -3   0  16  103.80    5.11
  -3   0  16  131.07    6.17
  -3   0  15   20.58    3.48
  -3   0  15   22.16    3.08
  -3   0  14   44.46    4.58
  -3   0  14   37.53    3.94
  -3   0  13   -1.33    2.10
  -3   0  13    0.15    2.45
  -3   0  12   23.22    3.37
  -3   0  12   28.43    3.91
  -3   0  11    0.62    1.56
  -3   0  10    4.66    1.72
  -3   0   9    5.17    1.88
   3   0  -8  154.71    7.50
  -3   0   8  149.85    6.79
  -3   0   7    1.73    1.14
   3   0  -7    1.66    1.12
  -3   0   6    1.70    1.21
   3   0  -6    1.50    1.01
  -3   0   5   15.49    2.14
  -3   0   4 2218.58   47.20
  -3   0   3   11.09    1.93
  -3   0   2  553.25   14.35
   3   0  -2  548.57   11.81
  -3   0   1    0.39    0.68
   3   0  -1    0.42    0.69
   3   0   0    9.27    1.38
  -3   0   0   10.05    1.40
  -3   0  -1    5.95    1.65
  -3   0  -2 1416.17   31.99
  -3   0  -3   43.00    3.98
   3   0   3   37.65    3.91
  -3   0  -4    2.67    1.68
   3   0   4    1.18    1.61
  -3   0  -5   25.32    3.53
  -3   0  -6  887.68   24.83
  -3   0  -6  865.74   26.03
  -3   0  -7    9.77    3.00
  -3   0  -8  103.87    7.02
   3   0   9    9.28    2.18
   3   0   9   14.48    2.52
   3   0  10   54.69    4.42
   3   0  10   54.92    4.45
   3   0  11    3.26    1.84
   3   0  11    6.84    2.49
   3   0  12  254.72   10.79
   3   0  13    7.46    2.51
   3   0  14  189.76    8.80
   3   0  15    9.02    2.31
   3   0  16   35.01    2.98
   3   0  16   31.95    2.72
  -3  -1  17  128.66    5.93
  -3   1  17  133.29    5.91
  -3   1  16   76.96    5.30
  -3   1  16   95.10    5.19
  -3   1  15  342.12   12.08
  -3  -1  15  339.79   10.88
  -3  -1  14    4.57    1.83
  -3   1  14   -1.52    2.68
  -3   1  14   -1.08    2.27
  -3  -1  14    7.65    2.82
  -3   1  13  334.11   12.87
  -3  -1  13  300.78   11.32
  -3  -1  13  325.07   12.46
  -3   1  13  326.24   12.46
  -3   1  12   21.61    3.48
  -3  -1  12   24.29    3.23
  -3  -1  12   25.19    3.57
  -3   1  11  692.16   19.91
  -3  -1  11  657.27   18.87
  -3  -1  11  700.87   19.84
  -3  -1  10    4.63    1.59
  -3  -1  10    0.93    2.01
  -3   1  10    4.74    1.88
  -3  -1   9  741.96   19.16
  -3   1   9  750.72   19.90
   3  -1  -8   54.06    4.43
   3  -1  -8   49.51    4.50
   3   1  -8   51.47    3.84
  -3   1   8   56.49    4.78
   3  -1  -7 1644.76   37.30
   3   1  -7 1627.09   34.89
   3   1  -6 1465.29   31.88
   3  -1  -6 1464.01   34.75
  -3   1   6 1476.55   35.38
   3   1  -5 2674.83   53.86
   3  -1  -5 2762.78   57.71
  -3   1   5 2639.14   57.99
  -3  -1   5 2655.83   54.88
   3   1  -4 1597.36   32.24
   3  -1  -4 1663.69   36.75
  -3  -1   4 1631.86   34.69
  -3   1   4 1689.31   37.19
   3  -1  -2 3543.70   71.15
  -3   1   2 3585.59   73.24
   3  -1  -1  226.56    6.79
  -3  -1   1  210.48    5.22
  -3   1   1  218.98    7.84
  -3   1   0    7.08    1.49
  -3  -1   0    8.18    1.27
   3  -1   0    8.77    1.58
  -3   1  -1  756.82   18.88
   3  -1   1  796.75   19.08
   3  -1   2   12.20    2.60
   3  -1   2    8.89    2.00
  -3   1  -2    9.87    1.99
   3  -1   4    2.38    2.10
  -3  -1  -4    4.54    2.00
  -3  -1  -4    6.59    2.20
  -3  -1  -5 2366.94   53.54
  -3   1  -5 2271.82   53.43
  -3   1  -5 2339.31   51.84
  -3  -1  -6 1026.31   28.23
  -3   1  -6 1032.50   26.72
  -3   1  -6 1007.62   28.79
  -3   1  -7  739.53   21.44
  -3  -1  -7  746.44   24.83
  -3   1  -7  731.41   24.37
  -3  -1  -8    5.15    2.03
   3   1   8    6.16    1.71
   3  -1   9 1378.93   33.88
   3   1   9 1405.36   33.00
   3  -1   9 1371.24   32.37
   3  -1  10  142.03    7.74
   3   1  10  146.15    7.47
   3  -1  10  140.11    6.98
   3  -1  11 1170.20   30.59
   3  -1  11 1172.82   29.48
   3   1  11 1160.27   30.03
   3  -1  12   72.04    5.60
   3  -1  12   71.30    5.33
   3   1  12   77.33    5.78
   3   1  13  110.53    6.93
   3  -1  13   97.77    6.24
   3  -1  13  113.59    6.54
   3  -1  14   33.06    3.57
   3   1  14   38.81    4.17
   3   1  15  215.72    8.95
   3  -1  15  200.21    8.04
   3   1  16   22.27    2.60
   3  -1  16   18.17    2.08
   3   1  17   82.01    3.44
   3   1  17  104.87    4.20
  -3   2  17   23.06    4.19
  -3   2  17  113.48    4.93
  -3  -2  16   98.30    6.49
  -3   2  16  101.28    5.92
  -3   2  15   19.07    3.18
  -3   2  15   14.19    3.32
  -3   2  14   -0.43    2.41
  -3   2  14    0.46    2.64
  -3  -2  13  114.14    6.81
  -3   2  13  114.23    7.35
  -3   2  13  123.49    7.41
  -3  -2  12    2.00    2.22
  -3  -2  12    1.75    1.75
  -3   2  12   -0.75    2.69
  -3  -2  12   -0.31    1.84
  -3  -2  11    0.61    1.61
  -3  -2  11    1.89    2.06
  -3   2  11    6.41    2.31
  -3  -2  11    5.32    2.09
  -3  -2  10    0.56    1.71
  -3  -2  10    2.72    1.94
  -3  -2  10    4.17    1.93
  -3   2  10    4.03    2.07
  -3  -2   9   76.48    5.14
  -3  -2   9   67.29    4.56
  -3   2   9   77.37    4.97
  -3   2   8    2.15    1.44
  -3   2   8    2.72    1.50
   3  -2  -8    1.39    1.31
   3   2  -8    2.12    0.96
   3  -2  -7   76.32    5.77
   3   2  -7   71.20    3.89
   3   2  -6  759.17   17.73
   3  -2  -6  757.65   22.05
  -3   2   6  780.28   22.73
   3  -2  -5    1.05    1.52
  -3   2   5    0.42    1.45
  -3  -2   5    1.08    0.54
  -3  -2   4  321.61    8.63
   3  -2  -4  337.79   11.83
  -3   2   4  328.46   11.95
   3  -2  -3  114.71    6.08
  -3   2   3  111.77    6.20
  -3   2   2 2992.76   63.70
   3  -2  -2 3017.75   63.49
   3  -2  -1   40.60    3.10
   3  -2   0  939.21   22.36
  -3   2   0  920.81   22.82
   3  -2   1 1546.22   34.86
  -3   2  -1 1550.01   34.76
  -3   2  -1 1547.23   34.91
  -3  -2  -1 1543.27   35.72
  -3   2  -2  368.77   12.23
   3  -2   2  384.85   12.47
  -3   2  -2  386.48   11.76
   3   2   3 2457.30   51.41
   3  -2   3 2436.20   57.04
  -3   2  -3 2484.55   53.14
  -3  -2  -3 2594.25   56.05
  -3  -2  -4    3.84    2.06
  -3  -2  -5  929.97   26.90
  -3   2  -5  939.26   26.43
  -3   2  -6    9.48    1.91
  -3   2  -6   10.83    2.84
  -3   2  -7   83.25    7.06
  -3  -2  -7   84.72    7.03
  -3  -2  -7   76.95    7.05
  -3   2  -7   72.92    5.01
  -3  -2  -8   19.08    3.60
   3  -2   8   17.16    2.80
   3   2   8   12.38    2.20
   3  -2   9    8.72    1.93
   3  -2   9    7.90    2.44
   3   2   9    9.23    2.37
   3  -2  10   41.65    4.45
   3   2  10   38.45    4.02
   3  -2  10   39.17    3.54
   3   2  11   19.82    3.35
   3  -2  11   14.86    2.67
   3  -2  11   14.84    3.20
   3  -2  12  340.73   12.11
   3  -2  12  333.39   13.55
   3   2  12  337.36   13.07
   3  -2  13   55.10    5.00
   3   2  13   65.37    5.51
   3  -2  13   56.34    4.41
   3  -2  14   38.98    3.91
   3   2  14   51.07    4.79
   3  -2  14   50.26    3.91
   3  -2  15   22.75    2.40
   3   2  15   30.06    3.57
   3   2  16    0.88    1.51
   3   2  17    2.81    1.18
   3   2  17    3.03    1.27
  -3   3  17  219.21    7.35
  -3   3  17  188.96    7.06
  -3   3  16   64.94    4.89
  -3   3  16  119.49    5.83
  -3   3  15    8.28    2.70
  -3   3  15    4.39    2.66
  -3   3  14   16.03    3.31
  -3   3  14   23.50    3.83
  -3  -3  13  504.75   14.83
  -3   3  13  502.15   16.69
  -3  -3  12   93.06    6.66
  -3   3  12   99.40    6.93
  -3  -3  11  352.54   12.22
  -3   3  11  374.96   13.58
  -3  -3  11  353.23   13.79
  -3  -3  10  249.42    9.54
  -3  -3  10  241.88   10.74
  -3   3  10  251.18   10.36
  -3  -3   9  467.69   15.52
  -3  -3   9  460.23   13.88
  -3   3   9  482.18   14.94
  -3   3   8    1.46    1.41
  -3   3   8    2.62    1.72
   3  -3  -8    0.85    1.42
   3  -3  -7  581.31   20.07
  -3   3   6 1962.83   48.11
   3  -3  -6 1933.21   47.19
  -3   3   5 2434.87   56.89
   3  -3  -5 2481.38   56.44
  -3  -3   4   25.35    1.64
   3  -3  -4   25.65    3.33
  -3   3   4   25.06    3.47
  -3  -3   3   39.48    2.07
  -3   3   3   41.97    4.27
   3  -3  -3   39.80    3.97
  -3  -3   3   39.47    2.73
  -3  -3   2 3597.65   72.57
  -3  -3   2 3794.57   75.19
   3  -3  -1 3088.43   66.65
  -3  -3   1 3249.45   66.59
   3  -3   0  290.09   10.57
  -3   3   0  283.43   10.53
   3  -3   0  306.82   10.59
  -3  -3   0  303.40   10.84
   3  -3   1 1580.26   38.36
   3  -3   1 1550.15   36.11
  -3   3  -1 1546.23   35.74
  -3  -3  -1 1531.86   36.74
  -3  -3  -2    4.59    1.93
  -3   3  -2    4.76    1.60
  -3   3  -3 4529.75   92.78
  -3   3  -4 2511.03   57.04
   3  -3   4 2450.02   57.21
  -3   3  -4 2527.06   53.90
  -3   3  -5  951.50   23.68
   3  -3   5  922.68   27.48
  -3   3  -5  940.38   27.23
  -3   3  -6   50.84    3.72
  -3  -3  -6   46.74    5.33
  -3   3  -6   53.27    5.49
  -3   3  -6   49.23    3.87
  -3  -3  -7  713.88   24.62
  -3   3  -7  701.10   18.26
  -3   3  -7  718.29   24.37
  -3   3  -7  666.36   18.52
   3  -3   8   28.11    3.49
   3  -3   9  366.77   13.95
   3  -3   9  350.42   11.22
   3  -3  10   21.27    3.67
   3  -3  10   18.12    2.40
   3  -3  11  934.82   27.01
   3  -3  11  892.97   23.22
   3   3  11  921.53   25.40
   3   3  12    4.59    2.56
   3  -3  12    6.64    2.83
   3  -3  12    6.85    1.86
   3  -3  13  243.44   11.38
   3   3  13  248.06   11.01
   3   3  14    0.88    2.21
   3  -3  14    0.15    1.75
   3  -3  15  110.61    5.82
   3   3  15  138.21    7.10
   3   3  16    1.07    1.61
   3   3  17   95.36    4.15
   3   3  17   97.18    4.33
  -3   4  17  118.41    4.90
  -3   4  17   60.87    5.31
  -3   4  16  109.38    5.50
  -3   4  16   39.20    3.83
  -3   4  15   29.04    3.80
  -3   4  14    8.39    2.97
  -3  -4  14    9.52    2.53
  -3   4  13    9.10    3.13
  -3  -4  13    7.54    2.65
  -3  -4  12    3.64    2.70
  -3   4  12    2.71    2.81
  -3   4  11    6.26    2.60
  -3  -4  11    6.06    2.60
  -3  -4  10   38.82    4.58
  -3  -4  10   62.92    4.23
  -3  -4   9   40.83    4.41
  -3  -4   9   47.29    3.57
  -3   4   8   37.02    3.71
   3  -4  -7   18.94    3.70
  -3   4   7   25.65    3.03
  -3   4   7   24.85    2.82
   3  -4  -6   32.80    4.35
  -3   4   5   58.05    5.69
   3  -4  -5   54.85    5.37
  -3  -4   4  214.92    5.87
  -3  -4   4  211.00    6.95
  -3  -4   4  202.18    5.87
   3  -4  -4  229.96   10.80
  -3   4   4  213.73   10.77
  -3  -4   3    4.13    1.13
  -3   4   3    2.86    1.85
  -3  -4   3    3.41    1.24
   3  -4  -3    3.35    1.93
  -3  -4   2  222.63    7.62
   3  -4  -1  245.41   10.25
   3  -4  -1  247.53   10.42
  -3   4   1  247.74   10.57
  -3  -4   0   42.57    4.03
   3  -4   0   46.05    4.23
   3  -4   0   46.37    4.38
  -3   4   0   46.31    4.33
   3  -4   0   47.61    4.90
  -3   4  -1 1368.93   33.64
   3  -4   1 1411.53   36.58
   3  -4   2   16.72    3.77
  -3   4  -2   19.35    2.93
   3  -4   3   10.80    3.51
   3  -4   3    6.95    2.41
  -3   4  -3    7.12    2.35
  -3   4  -3    7.40    1.88
  -3   4  -4  347.50   14.00
  -3   4  -4  321.95   11.37
   3  -4   4  337.61   13.92
  -3  -4  -5  151.06    9.63
   3  -4   5  153.70    9.43
  -3   4  -5  137.82    6.60
  -3   4  -5  137.44    8.78
  -3  -4  -6  110.89    8.64
  -3   4  -6  108.55    5.48
  -3   4  -6  125.78    8.66
   3  -4   7   49.12    4.51
   3   4   7   48.52    3.73
   3   4   8   21.83    2.84
   3  -4   8   22.19    3.53
   3   4   8   22.36    2.98
   3   4   9   14.41    2.56
   3   4   9   15.05    2.85
   3  -4   9   17.56    3.69
   3   4  10    9.43    2.61
   3  -4  10   13.93    3.46
   3   4  10   11.01    2.30
   3  -4  11   41.78    5.12
   3  -4  12    5.69    3.08
   3  -4  13   57.78    5.70
   3   4  13   54.62    5.26
   3   4  14    1.58    2.38
   3  -4  14    0.93    2.03
   3  -4  15  109.30    6.05
   3   4  15  130.26    6.82
   3   4  16   45.06    3.58
   3   4  17    0.73    1.02
   3   4  17    0.74    1.03
  -3   5  17   56.23    4.63
  -3   5  16  119.67    5.97
  -3  -5  15  139.89    6.80
  -3   5  15  182.28    8.00
  -3   5  14   18.33    3.59
  -3  -5  14   15.69    3.03
  -3   5  14   17.75    3.39
  -3  -5  13   80.96    6.57
  -3  -5  12   -0.78    2.37
  -3  -5  11  973.48   28.64
  -3  -5  10   19.45    3.79
  -3   5  10   16.35    3.24
  -3   5   9  419.70   14.42
  -3  -5   9  420.08   15.73
  -3   5   8    3.33    1.91
  -3   5   8    1.80    1.62
  -3   5   7   26.41    3.21
  -3   5   7   19.95    2.67
  -3   5   6  469.04   14.72
   3  -5  -6  492.84   19.54
   3  -5  -5 1369.50   37.11
  -3   5   5 1396.61   38.08
   3  -5  -4  250.90   12.31
  -3   5   4  254.53   12.74
  -3  -5   4  254.93    8.86
  -3  -5   4  238.58    6.92
  -3  -5   3 3279.94   67.38
  -3  -5   3 3176.69   66.90
   3  -5  -2  728.58   22.06
  -3  -5   2  702.18   19.57
  -3  -5   2  723.77   19.13
   3  -5  -2  709.65   22.32
  -3   5   2  697.56   22.50
   3  -5  -1 1767.95   43.02
  -3  -5   1 1747.62   41.36
   3  -5  -1 1759.19   43.50
   3  -5  -1 1763.42   42.97
  -3   5   1 1741.87   43.09
  -3   5   0  981.33   27.45
   3  -5   0 1005.01   27.28
   3  -5   0 1034.43   29.31
   3  -5   0 1013.03   27.82
  -3  -5   0  959.80   27.01
   3  -5   1   12.09    3.21
   3  -5   1   10.48    2.59
   3   5   1   10.25    1.65
  -3   5  -1    9.73    2.38
   3  -5   2    7.00    2.52
  -3  -5  -2    3.75    2.21
  -3   5  -2    5.16    1.98
   3  -5   2    5.16    2.86
  -3  -5  -3 1799.03   45.77
  -3   5  -3 1762.52   41.89
   3  -5   3 1810.73   45.11
   3  -5   4  663.93   22.81
  -3   5  -4  694.01   19.59
  -3  -5  -5 1688.14   45.96
   3  -5   5 1651.69   44.75
  -3   5  -5 1762.45   45.12
  -3   5  -5 1677.46   38.84
   3   5   6  168.26    7.59
   3   5   7  183.01    7.85
   3   5   7  195.25    8.52
   3   5   7  174.06    7.66
   3   5   8   44.72    3.78
   3   5   8   43.57    3.97
   3  -5   8   46.67    4.99
   3   5   8   45.27    4.12
   3   5   9  851.66   22.81
   3  -5   9  889.68   26.35
   3   5   9  860.48   23.74
   3   5   9  886.22   24.12
   3   5  10   31.05    3.68
   3   5  10   33.21    3.89
   3  -5  10   31.03    4.63
   3  -5  11  650.72   22.05
   3   5  11  629.07   19.90
   3  -5  12    3.06    2.91
   3   5  12    1.90    2.35
   3  -5  13   11.80    3.06
   3  -5  14   11.31    2.95
   3  -5  15  302.15   10.91
   3   5  16   46.01    3.50
   3   5  17   57.45    2.86
   3   5  17   60.96    2.96
  -3   6  17   31.49    3.26
  -3   6  17   56.12    2.97
  -3   6  16   35.35    3.28
  -3   6  16  119.80    5.10
  -3   6  15   59.43    4.47
  -3  -6  15   53.14    4.08
  -3   6  14   15.47    3.22
  -3  -6  14   11.31    3.03
  -3   6  13   11.99    3.11
  -3  -6  13   17.37    3.72
  -3   6  12  106.76    7.18
  -3  -6  12  100.79    7.76
  -3  -6  11   16.43    3.84
  -3   6  11   13.23    3.25
  -3   6  10   83.63    6.37
  -3  -6  10   86.88    7.17
  -3   6   9   11.11    2.86
  -3   6   9    9.71    2.77
  -3  -6   9    8.83    2.85
  -3  -6   8    2.60    2.33
  -3   6   8    5.50    2.30
  -3   6   8    6.11    2.29
  -3   6   7    2.06    1.68
  -3   6   7    3.38    1.89
  -3   6   6    6.01    1.92
  -3   6   6    6.96    2.23
   3  -6  -5   20.55    3.10
  -3  -6   5   22.26    2.65
   3  -6  -4   18.47    3.04
  -3  -6   4   15.23    1.58
  -3  -6   4   18.20    2.51
   3  -6  -3  152.12    8.64
  -3  -6   3  159.73    7.64
   3  -6  -3  140.21    9.32
  -3   6   3  159.06   10.26
  -3  -6   3  154.21    6.97
  -3  -6   2  111.08    6.45
   3   6  -2  106.70    7.73
   3  -6  -2  111.23    8.09
  -3  -6   2  114.47    6.56
   3  -6  -2  117.90    8.21
  -3   6   2  106.18    8.05
   3  -6  -2  117.79    7.80
   3  -6  -1  189.41   10.28
   3  -6  -1  195.97   10.60
   3  -6  -1  172.35   10.09
   3   6  -1  175.53    9.30
  -3  -6   1  185.36    9.25
  -3   6   1  189.15   10.49
  -3  -6   0   78.05    6.25
  -3   6   0   78.34    6.51
   3   6   0   85.74    5.49
   3  -6   0   91.93    6.80
   3  -6   0   78.92    6.95
   3   6   1   24.78    2.29
   3  -6   1   29.21    4.62
   3  -6   1   28.25    3.81
  -3  -6  -1   25.76    3.96
  -3   6  -1   28.36    3.92
   3  -6   2   96.05    7.51
  -3  -6  -2  108.53    8.03
  -3   6  -2  103.23    6.91
   3  -6   3  323.68   14.81
  -3  -6  -3  307.34   14.83
  -3   6  -3  304.42   12.43
  -3  -6  -4  138.06    9.94
  -3   6  -4  141.78    7.58
   3   6   5  658.85   18.93
   3  -6   5  682.66   19.91
   3   6   5  674.13   18.83
   3   6   6   38.80    3.69
   3   6   6   38.30    3.85
   3  -6   6   40.44    4.31
   3   6   6   33.84    3.10
   3   6   7   14.06    2.60
   3   6   7   14.92    2.47
   3  -6   7   17.55    3.52
   3   6   7   14.30    2.76
   3   6   8   16.71    2.78
   3   6   8   15.33    2.76
   3   6   8   17.94    3.15
   3   6   9   13.38    2.62
   3  -6   9   14.53    3.72
   3   6   9   13.38    2.96
   3   6   9   13.55    2.99
   3  -6  10   62.69    6.51
   3   6  10   56.36    4.52
   3   6  10   64.46    5.46
   3   6  10   64.95    5.40
   3  -6  11  110.68    8.61
   3   6  11  113.64    7.27
   3  -6  12   35.57    5.05
   3   6  12   40.54    4.59
   3   6  13   64.05    5.33
   3  -6  13   55.45    5.69
   3  -6  14   63.24    5.39
   3   6  14   59.60    4.76
   3  -6  15    6.09    2.02
   3   6  15   10.05    2.24
  -3   7  16   55.32    3.12
  -3   7  15   84.74    4.89
  -3  -7  15   76.38    4.81
  -3   7  14    1.13    2.20
  -3  -7  14    1.02    1.98
  -3  -7  13  221.79   11.04
  -3   7  13  221.21    9.78
  -3   7  13  230.05    9.72
  -3   7  12   31.22    4.11
  -3  -7  12   40.68    5.27
  -3   7  12   35.15    4.31
  -3  -7  11  318.90   14.39
  -3   7  11  297.80   12.37
  -3   7  10    3.17    2.60
  -3  -7  10    4.23    2.89
  -3  -7   9  246.90   12.33
  -3   7   9  233.69   11.29
  -3   7   9  245.95   10.71
  -3   7   8   19.70    3.13
  -3   7   8   23.02    3.69
  -3   7   7   14.83    2.79
  -3   7   7   17.97    3.20
  -3   7   6  254.37    9.67
  -3   7   5 1145.39   27.35
  -3   7   5 1157.06   29.33
   3  -7  -5 1128.51   28.28
   3  -7  -4   96.44    5.68
  -3   7   4   97.78    5.89
   3  -7  -3  781.96   24.20
   3   7  -3  828.84   27.91
  -3  -7   3  783.22   21.56
  -3  -7   3  800.86   23.14
  -3   7   3  768.11   20.97
  -3  -7   2   49.26    4.69
   3  -7  -2   43.70    4.99
   3  -7  -2   47.86    5.65
  -3  -7   2   46.45    4.46
   3   7  -2   48.48    5.42
   3   7  -1 1213.50   33.55
   3  -7  -1 1252.67   35.86
   3  -7  -1 1253.72   36.00
  -3  -7   1 1314.11   34.05
  -3   7   1 1261.61   36.67
  -3  -7   1 1242.23   33.76
  -3   7   0   34.26    4.73
   3   7   0   33.89    3.50
   3  -7   0   36.66    4.65
  -3  -7   0   38.05    4.69
  -3   7  -1  210.54   11.50
   3  -7   1  226.92   11.60
  -3  -7  -1  235.06   12.36
  -3  -7  -2    1.53    1.96
  -3   7  -2    3.06    1.80
   3  -7   2    1.23    1.49
   3  -7   3  418.56   13.90
  -3   7  -3  402.86   15.73
   3   7   3  433.65   13.93
   3   7   3  408.93   13.53
   3  -7   4  540.34   16.58
   3   7   4  513.93   16.39
   3  -7   4  559.15   17.11
   3   7   5  443.17   14.67
   3   7   5  440.03   14.82
   3  -7   5  459.52   15.61
   3  -7   5  415.91   14.14
   3   7   5  409.78   12.45
   3  -7   6   77.72    5.30
   3  -7   6   85.44    6.51
   3   7   6   77.88    4.77
   3   7   6   90.18    5.98
   3   7   6   84.65    6.03
   3   7   7  819.95   23.86
   3   7   7  830.73   23.41
   3  -7   7  854.34   25.37
   3   7   7  805.01   21.86
   3   7   8   61.24    4.80
   3   7   8   61.43    5.47
   3  -7   8   63.22    6.18
   3   7   8   61.32    5.14
   3   7   9  197.85    9.41
   3   7   9  201.09   10.14
   3   7   9  196.38    9.21
   3   7  10   14.24    2.98
   3   7  10   16.74    2.86
   3  -7  10   17.33    4.22
   3   7  10   15.08    3.33
   3   7  11  129.25    6.87
   3  -7  11  149.64    9.84
   3   7  11  146.98    7.98
   3   7  12    0.72    2.11
   3  -7  12    2.02    3.08
   3  -7  13   28.99    4.31
   3   7  13   30.09    3.62
   3  -7  14    1.98    2.17
   3   7  14    3.17    1.94
   3  -7  15  108.57    5.63
   3   7  15  111.51    5.36
   3   7  16    1.45    1.07
  -3   8  16   29.90    2.87
  -3   8  15   60.97    3.31
  -3   8  15   55.36    5.19
  -3   8  14    3.34    1.93
  -3  -8  14    3.27    2.13
  -3   8  13    0.67    2.05
  -3  -8  13    3.73    2.80
  -3  -8  12   80.26    7.01
  -3   8  12   78.14    5.51
  -3   8  12   89.24    6.03
  -3   8  11   22.88    3.67
  -3   8  11   21.99    3.42
  -3  -8  11   27.42    4.80
  -3  -8  10   85.69    7.57
  -3   8  10   76.32    5.95
  -3   8   9   64.96    5.85
  -3   8   9   56.68    5.05
  -3   8   8  188.92   10.10
  -3   8   8  174.30    8.55
  -3   8   7  134.10    8.22
  -3  -8   7  132.55    8.66
  -3   8   7  132.32    7.03
  -3   8   6   23.09    3.01
   3  -8  -6   20.15    2.95
  -3  -8   6   22.86    3.89
   3  -8  -5    8.97    2.21
  -3   8   5    7.94    2.36
  -3   8   5    6.78    1.81
  -3   8   4   35.36    4.04
   3  -8  -4   31.50    3.72
  -3   8   4   26.65    2.67
  -3   8   3   21.69    3.05
   3  -8  -3   23.22    3.21
  -3   8   2   11.72    2.45
   3  -8  -2   11.72    2.66
  -3  -8   1   39.87    4.89
   3  -8  -1   35.20    3.93
   3   8  -1   39.39    3.41
  -3  -8   1   39.68    4.82
  -3   8   1   33.63    3.30
   3   8   0  882.36   23.08
  -3  -8   0  910.07   28.87
   3   8   1    3.95    1.70
   3  -8   1    3.71    1.93
   3   8   2   23.93    3.15
   3  -8   2   17.35    2.97
   3  -8   2   19.98    2.79
   3  -8   3   11.14    2.52
   3  -8   3   10.11    2.33
   3   8   3   10.98    2.50
   3   8   3   11.81    2.51
   3   8   4   44.78    4.45
   3   8   4   36.38    3.98
   3  -8   4   36.17    4.03
   3  -8   4   34.64    4.00
   3  -8   5  151.42    8.17
   3  -8   5  168.61    9.01
   3   8   5  157.61    8.46
   3  -8   6   68.91    6.01
   3   8   6   60.07    5.55
   3   8   6   66.86    5.61
   3   8   6   61.32    4.24
   3  -8   6   64.16    5.14
   3   8   7   42.16    4.74
   3  -8   7   47.94    5.35
   3   8   7   44.45    3.86
   3   8   8   11.71    2.57
   3  -8   8   14.11    3.92
   3   8   8   15.49    3.22
   3   8   8   12.45    3.17
   3   8   9   46.25    5.13
   3  -8   9   45.68    5.93
   3   8   9   45.58    4.73
   3   8   9   48.26    4.47
   3   8  10    2.20    1.88
   3   8  10    4.87    2.32
   3   8  11   -0.55    2.00
   3   8  11    0.50    1.46
   3  -8  11    1.26    3.38
   3  -8  12    3.04    3.15
   3   8  12    2.92    2.07
   3  -8  13   25.24    3.96
   3   8  13   22.09    2.98
   3  -8  14   53.28    4.53
   3   8  14   50.53    3.72
   3   8  15    3.54    1.26
   3  -8  15    3.91    1.41
  -3   9  15   15.92    2.94
  -3  -9  15    3.41    1.05
  -3   9  14   37.85    2.63
  -3   9  14   47.35    4.93
  -3  -9  13  129.24    7.82
  -3   9  13  189.82    7.50
  -3  -9  12  176.98    9.78
  -3   9  12  199.78    8.29
  -3   9  11  108.55    6.21
  -3  -9  11  121.41    8.56
  -3   9  11  130.86    7.00
  -3   9  10    6.98    2.85
  -3   9  10    0.92    2.10
  -3   9   9   90.37    7.02
  -3   9   9   89.96    5.92
  -3   9   9   85.67    5.37
  -3   9   8   11.41    2.21
  -3  -9   8   13.82    3.89
  -3   9   8   15.28    3.54
  -3   9   8   17.96    2.93
  -3   9   7    1.86    1.86
  -3  -9   7    1.42    2.65
  -3   9   6   12.61    2.33
   3  -9  -6   11.24    2.47
  -3   9   6   13.11    3.28
  -3  -9   6   16.80    3.62
  -3  -9   5  623.79   19.88
  -3   9   5  611.18   19.28
   3  -9  -5  598.05   18.54
   3  -9  -4    3.32    1.97
  -3   9   4    4.20    2.24
  -3   9   3   86.25    6.03
   3  -9  -3   96.91    6.61
  -3   9   2  214.63    9.45
   3  -9  -2  209.68   10.06
   3   9  -2  201.45    8.49
   3   9  -1  331.05   11.96
   3  -9  -1  357.83   13.75
  -3   9   1  349.64   12.39
  -3   9   0   77.57    5.05
   3   9   0   76.24    5.32
  -3   9  -1  240.32    9.25
   3   9   1  242.19   10.65
   3   9   1  250.24   10.38
   3  -9   1  255.85   11.47
   3   9   2    4.03    2.13
   3   9   2    4.76    2.11
   3  -9   2    4.39    1.87
   3  -9   2    4.50    2.34
   3  -9   3  208.52   10.39
   3  -9   3  217.21    9.80
   3   9   3  208.25    9.92
   3   9   4   30.27    4.01
   3  -9   4   25.78    3.64
   3   9   4   25.01    3.74
   3  -9   4   25.61    3.73
   3  -9   5  124.82    7.68
   3  -9   5  119.40    7.85
   3   9   5  115.13    7.60
   3   9   6   33.87    4.40
   3  -9   6   30.41    4.47
   3  -9   6   28.91    3.72
   3   9   7  320.03   13.30
   3  -9   7  339.65   14.53
   3   9   7  316.71   13.61
   3   9   7  291.49   10.78
   3  -9   8   30.29    5.00
   3   9   8   34.17    4.38
   3   9   8   27.66    3.27
   3   9   8   32.78    4.62
   3   9   9  207.67   10.02
   3   9   9  192.79   10.39
   3  -9   9  211.25   11.66
   3   9   9  185.46    8.54
   3   9  10    8.78    2.30
   3   9  10   10.19    2.66
   3  -9  10   12.58    3.88
   3   9  11   98.23    5.75
   3   9  11   95.08    5.74
   3   9  12   22.89    2.86
   3   9  13   41.72    3.35
   3  -9  14    0.50    1.54
   3   9  14    0.18    1.13
  -3 -10  14   58.03    3.67
  -3  10  14   45.40    3.21
  -3  10  13   62.81    2.89
  -3 -10  13   62.79    4.87
  -3  10  12   15.36    2.08
  -3 -10  12   12.43    3.26
  -3  10  11   86.04    4.68
  -3  10  11  115.78    5.92
  -3  10  10   18.42    2.49
  -3  10  10   29.56    3.40
  -3  10   9    2.25    1.79
  -3  10   9    0.18    2.41
  -3 -10   9    0.21    2.94
  -3  10   8  132.95    8.65
  -3 -10   8  153.41    9.61
  -3  10   8  127.27    6.46
  -3 -10   7  117.30    7.03
  -3 -10   7  127.82    8.89
  -3  10   7  117.63    6.04
  -3  10   6  229.10   11.17
  -3 -10   6  224.59   11.44
   3 -10  -6  207.12    9.83
  -3  10   6  190.24    7.93
   3  10  -5   19.80    3.02
  -3  10   5   25.30    4.06
   3 -10  -5   28.13    3.86
  -3 -10   5   23.67    4.06
   3  10  -4   63.09    5.06
  -3  10   4   60.90    5.60
  -3 -10   4   58.02    5.54
   3 -10  -4   58.35    5.47
  -3  10   3   63.25    5.47
  -3 -10   3   70.15    5.67
   3  10  -3   67.37    5.34
   3 -10  -3   67.71    5.98
   3 -10  -2   55.12    5.50
   3  10  -2   68.31    5.48
   3  10  -2   58.15    4.45
  -3  10   2   67.33    5.41
  -3 -10   2   57.62    4.88
   3  10  -1   18.45    2.83
  -3 -10   1   23.99    3.06
   3 -10  -1   24.82    3.96
  -3  10   1   21.47    3.16
   3  10  -1   26.63    3.63
  -3  10   0   39.09    3.92
   3  10   0   50.44    4.57
   3  10   0   49.31    4.93
   3  10   1  177.56    8.93
   3  10   1  178.90    9.37
   3 -10   1  180.26    9.87
  -3  10  -1  161.49    7.64
   3  10   2   27.42    3.98
   3 -10   2   26.24    4.09
   3  10   2   29.34    3.92
   3 -10   3  221.23   11.10
   3 -10   3  224.54   10.14
   3  10   3  220.51   10.69
   3  10   4  142.32    8.72
   3 -10   4  147.31    8.47
   3  10   4  137.90    8.43
   3 -10   4  140.34    8.72
   3  10   5   19.79    3.83
   3 -10   5   19.31    3.44
   3  10   5   16.58    3.47
   3 -10   5   16.03    3.31
   3 -10   6   26.47    3.88
   3 -10   6   28.55    4.36
   3  10   6   31.51    4.47
   3  10   7   23.24    3.98
   3 -10   7   28.12    4.53
   3 -10   8  282.31   13.15
   3  10   8  261.72   11.82
   3  10   8  263.86   12.32
   3  10   8  245.12    9.30
   3 -10   9   88.35    7.32
   3  10   9   90.35    6.43
   3  10   9   81.46    4.97
   3 -10  10    5.85    3.15
   3  10  10    1.86    1.59
   3  10  10    4.47    2.16
   3  10  11   -1.91    1.90
   3 -10  11    2.53    2.77
   3  10  11    1.05    1.41
   3  10  12   19.43    2.26
   3  10  13    7.18    1.38
   3 -10  14    8.18    1.58
  -3 -11  13   41.95    3.36
  -3  11  12   13.02    2.40
  -3  11  11   53.56    3.69
  -3 -11  11   66.42    5.59
  -3 -11  10   51.55    5.37
  -3  11  10   41.69    3.28
  -3  11   9   10.96    2.02
  -3 -11   9   10.17    3.52
  -3 -11   8   21.17    4.04
  -3  11   8   20.10    2.47
  -3  11   7   85.82    6.95
  -3 -11   7   88.94    7.20
  -3 -11   7   71.68    5.43
  -3  11   6  211.16   10.87
   3 -11  -6  216.06   10.02
  -3 -11   6  219.68   11.39
   3 -11  -5  116.00    7.58
  -3 -11   5  117.08    7.92
  -3  11   5  117.59    7.85
   3  11  -5  114.90    6.57
  -3  11   4  237.63   11.23
   3  11  -4  225.69   10.08
   3 -11  -4  226.46   11.29
  -3 -11   4  241.05   11.28
   3  11  -3  591.52   18.86
  -3 -11   3  593.12   19.16
   3 -11  -3  594.90   20.42
  -3  11   3  585.74   19.35
   3 -11  -2    3.34    2.51
   3  11  -2    4.40    1.72
  -3  11   2    6.66    2.34
  -3 -11   2    2.64    1.82
   3  11  -2    5.38    2.34
   3  11  -1   21.17    3.53
   3 -11  -1   22.94    4.19
   3  11  -1   19.34    2.93
  -3  11   1   19.59    3.15
   3  11   0   31.11    4.28
   3  11   0   30.16    3.71
  -3  11   0   28.61    3.39
  -3  11  -1  252.10   10.16
   3 -11   1  282.61   13.21
   3  11   1  288.75   12.59
   3  11   1  270.84   11.69
   3 -11   2   62.48    6.15
   3  11   2   52.38    5.17
   3  11   2   52.48    5.43
   3 -11   3  107.10    6.66
   3  11   3  104.44    7.56
   3  11   3  114.58    7.56
   3 -11   3  110.19    7.96
   3 -11   4    2.13    2.39
   3 -11   4    1.29    1.93
   3  11   4    0.72    2.28
   3 -11   5   35.81    4.59
   3  11   5   34.94    4.73
   3 -11   5   31.78    4.26
   3  11   5   37.84    4.85
   3  11   6    1.10    2.47
   3 -11   6    2.56    2.63
   3  11   6    0.92    2.53
   3  11   7   52.87    5.50
   3 -11   7   64.34    5.99
   3  11   8    0.49    2.18
   3 -11   8    1.10    2.59
   3  11   8    1.54    2.80
   3  11   9  150.54    8.06
   3 -11   9  173.85    9.45
   3  11  10    1.63    1.71
   3 -11  10    2.05    2.35
   3 -11  11  111.04    6.77
   3 -11  12   11.76    2.42
  -3 -12  12   43.84    3.30
  -3 -12  11   12.82    2.53
  -3 -12  10    3.95    2.48
  -3 -12   9    4.79    2.65
  -3 -12   8    0.67    2.34
  -3 -12   7   50.65    4.32
  -3  12   7   53.89    5.37
  -3 -12   7   58.14    5.56
  -3 -12   6  166.25    8.76
  -3 -12   6  180.37    9.64
  -3  12   6  177.51    9.54
   3  12  -5   19.35    2.71
   3 -12  -5   20.52    3.53
  -3 -12   5   22.23    3.74
  -3  12   5   20.53    3.74
  -3 -12   5   19.14    3.55
   3 -12  -4   81.65    6.58
   3  12  -4   80.15    5.56
  -3  12   4   85.71    6.51
  -3 -12   4   87.54    6.37
   3  12  -3    0.30    1.81
  -3  12   3    0.16    2.14
   3 -12  -3   -0.19    2.28
  -3 -12   3    1.19    1.87
  -3  12   2   66.68    5.59
   3 -12  -2   73.84    6.67
   3  12  -2   65.88    5.62
  -3  12   1   21.08    3.23
   3  12  -1   20.77    3.57
   3  12  -1   24.02    3.09
   3 -12  -1   19.15    3.97
   3  12   0  256.76   11.69
   3  12   0  239.43   10.36
  -3  12   0  242.97   10.16
   3  12   1    2.52    2.60
  -3  12  -1    1.29    1.45
   3  12   1    3.85    2.14
   3 -12   1    6.60    3.12
   3  12   2   36.43    4.87
   3 -12   2   37.34    5.19
   3  12   2   34.62    4.38
   3 -12   3  168.66    9.95
   3  12   3  164.08    9.11
   3  12   3  173.98    9.75
   3 -12   4   12.31    2.62
   3 -12   4   12.13    3.23
   3  12   4   14.31    3.29
   3 -12   5    1.79    1.90
   3  12   5    3.28    2.59
   3  12   6   75.43    6.21
  -3 -12  -6   66.96    5.35
   3 -12   6   81.86    6.01
   3  12   6   75.17    6.32
   3  12   7   12.34    3.14
   3 -12   7   13.78    3.04
  -3 -12  -7   12.23    2.27
   3 -12   8   58.40    5.11
   3  12   8   62.53    5.15
   3  12   9    2.73    1.98
   3 -12   9    1.49    2.06
   3  12  10    7.25    1.79
   3 -12  10    6.23    2.13
   3 -12  11   16.07    2.42
   3 -12  12    1.02    0.99
  -3 -13  11   19.77    2.00
  -3 -13  10    0.18    1.34
  -3 -13   9   13.03    2.46
  -3 -13   8    6.48    2.21
  -3 -13   7  145.75    6.61
  -3 -13   7  185.20    8.61
  -3 -13   6    2.33    1.77
  -3  13   6    0.87    2.04
  -3 -13   6    2.33    2.06
  -3 -13   5   55.57    4.65
  -3 -13   5   51.13    4.88
  -3  13   5   53.71    4.93
   3 -13  -4  102.12    6.85
  -3 -13   4   98.31    7.04
   3  13  -4   89.01    5.28
  -3 -13   4   93.50    5.85
  -3  13   4  101.35    6.65
  -3  13   3   30.63    3.81
   3 -13  -3   33.02    4.44
   3  13  -3   31.20    3.53
  -3  13   2    1.96    1.83
   3  13  -2    3.00    2.14
   3 -13  -2    2.79    2.66
  -3  13   1   39.71    3.96
   3  13  -1   45.61    4.57
   3 -13  -1   50.46    5.55
  -3  13   0    3.60    1.72
   3  13   0    3.54    2.33
   3  13   0    4.03    1.83
   3  13   1  326.51   12.23
   3  13   1  329.62   13.38
   3 -13   2    1.90    2.69
   3  13   2    1.18    2.58
   3  13   2    0.14    1.90
   3  13   3   73.20    5.65
   3  13   3   66.80    5.94
   3 -13   3   73.54    6.37
   3  13   4    6.91    2.58
   3  13   4    4.26    2.76
   3 -13   5    3.90    1.63
  -3 -13  -5    2.45    1.97
  -3 -13  -6    0.83    1.48
   3  13   6    1.89    2.31
   3 -13   6    2.32    1.70
   3  13   7   67.77    5.14
   3 -13   7   59.48    4.31
   3 -13   8    0.61    1.45
   3  13   8    3.12    1.88
   3  13   9   50.84    3.65
   3 -13   9   49.53    3.56
   3 -13  10    1.75    1.10
  -3 -14   8   50.60    3.11
  -3 -14   7    1.92    1.15
  -3 -14   6   94.06    4.94
  -3 -14   6   82.68    4.44
  -3 -14   5   30.94    3.39
  -3  14   4    2.23    1.84
  -3 -14   4    1.94    1.94
  -3  14   3    7.87    2.14
   3  14  -3    9.76    1.89
  -3 -14   3   11.17    2.94
   3  14  -2   34.18    3.41
  -3 -14   2   37.19    4.55
  -3  14   2   28.95    3.15
   3 -14  -1   26.34    3.98
  -3  14   1   16.00    2.40
  -3 -14   1   26.77    4.04
   3  14  -1   20.79    2.97
   3  14   0   73.76    5.39
   3  14   1   19.81    3.13
  -3 -14  -1   14.86    3.37
  -3 -14  -2   51.36    5.07
   3  14   2   50.96    4.68
   3  14   3   26.28    3.63
  -3 -14  -3   23.91    3.52
  -3 -14  -4   16.57    2.81
   3  14   4   16.84    3.07
  -3 -14  -5   14.53    2.43
  -3 -14  -6   48.19    3.27
   3  14   7    1.25    1.52
   3  14   8   40.99    3.09
  -3 -15   5   62.88    3.61
  -3 -15   4    7.93    1.86
  -3 -15   3    1.23    1.60
   3  15  -2    5.39    1.27
  -3 -15   2    8.53    2.40
   3  15  -1   20.19    2.33
  -3 -15   1   23.97    3.29
   3  15   0   38.57    3.31
  -3 -15  -1   71.05    5.13
   3  15   1   67.97    4.49
   3  15   2    1.20    1.55
  -3 -15  -2    0.35    1.74
   3  15   3  105.53    5.61
  -3 -15  -3   99.56    5.62
  -3 -15  -4    6.27    1.68
   3  15   4    7.18    1.96
   3  15   5    6.92    1.74
  -3 -15  -5    3.08    1.05
   3  15   7    3.12    1.03
  -3 -16   3    2.70    1.00
  -3 -16   2   23.52    2.28
  -3 -16   1    2.62    1.33
   3  16   1    7.38    1.13
  -3 -16  -1   11.52    1.81
   3  16   2    2.74    0.94
  -3 -16  -2    3.29    1.14
   3  16   3    4.79    1.06
  -3 -16  -3    3.39    0.97
   3  16   4   31.73    2.05
  -4   0  17   33.47    5.20
  -4   0  16  300.31   10.66
  -4   0  16  467.88   12.35
  -4   0  15   92.80    6.00
  -4   0  15   98.94    5.58
  -4   0  14  151.20    7.32
  -4   0  14  144.98    7.95
  -4   0  13    1.52    2.00
  -4   0  13   -0.15    2.57
  -4   0  12  194.85    9.46
  -4   0  12  184.77    8.73
  -4   0  11   -0.84    2.41
  -4   0  10  289.72   11.11
  -4   0  10  282.97   10.64
  -4   0   9   -0.90    2.21
  -4   0   9   -0.71    1.92
  -4   0   8  375.30   11.98
   4   0  -7    2.19    0.98
   4   0  -6 3350.28   68.23
  -4   0   6 3447.44   71.64
  -4   0   5    4.65    1.55
   4   0  -5    3.32    0.84
  -4   0   4 9999.00  197.49
   4   0  -3    4.89    0.74
  -4   0   3    6.32    1.93
  -4   0   2  501.93   14.57
   4   0  -2  503.49   11.37
  -4   0   1    0.84    0.87
   4   0  -1    0.13    0.77
  -4   0   0  127.76    5.12
  -4   0  -1    9.67    1.94
  -4   0  -2 1565.67   35.86
   4   0   3    1.13    1.68
  -4   0  -3    2.10    1.61
   4   0   4 4397.65   93.19
  -4   0  -4 4329.26   92.42
  -4   0  -5   10.64    2.88
  -4   0  -5   18.48    3.44
  -4   0  -6 1263.52   34.18
  -4   0  -7    5.62    2.29
  -4   0  -7    7.91    2.87
   4   0   8  726.05   19.44
   4   0   9   -0.24    1.45
   4   0   9    0.13    1.48
   4   0  10  119.57    6.96
   4   0  10  124.41    6.92
   4   0  11    5.89    2.29
   4   0  11    3.51    1.87
   4   0  12  343.26   12.96
   4   0  13    4.32    2.29
   4   0  14  137.21    7.29
   4   0  15    3.05    1.83
   4   0  16  217.50    7.64
  -4   1  17   16.24    2.68
  -4  -1  17   27.30    3.85
  -4   1  16  156.38    6.94
  -4   1  16  111.51    6.02
  -4   1  15   62.91    5.42
  -4   1  15   96.64    5.81
  -4  -1  14  109.13    6.67
  -4   1  14   44.07    4.84
  -4  -1  14  104.46    5.50
  -4   1  14   55.17    4.84
  -4   1  13    1.80    2.21
  -4   1  13    2.38    2.66
  -4  -1  13    8.43    3.09
  -4  -1  12   17.22    2.92
  -4   1  12   18.72    3.36
  -4  -1  12   13.83    3.17
  -4   1  12   14.68    3.33
  -4  -1  11   51.58    4.74
  -4   1  11   50.20    4.84
  -4  -1  11   47.64    4.12
  -4  -1  10   -1.98    2.02
  -4  -1  10   -1.49    2.50
  -4   1  10   -1.22    2.26
  -4  -1   9   35.51    3.62
  -4  -1   9   32.14    3.10
  -4   1   9   33.13    3.45
  -4  -1   8   73.09    4.64
   4  -1  -8   77.87    5.20
  -4   1   8   81.27    5.96
  -4   1   8   78.03    4.77
  -4   1   7  292.65   11.58
   4   1  -7  241.53    6.75
  -4  -1   6  121.85    5.53
  -4   1   6  129.94    7.24
  -4  -1   5  489.43   13.95
  -4   1   5  506.70   15.99
  -4  -1   4   32.37    2.98
  -4   1   4   31.05    3.51
  -4  -1   3    5.27    1.61
   4  -1  -3    5.54    1.27
  -4   1   3    8.08    2.00
  -4   1   2 3087.40   65.44
   4  -1  -2 3078.34   62.47
  -4  -1   1  199.95    5.52
   4  -1  -1  199.26    6.88
  -4   1   1  191.37    8.09
  -4   1   0  293.63    9.39
  -4  -1   0  298.25    8.62
   4  -1   0  304.06    9.52
  -4  -1  -1  109.70    5.16
   4  -1   1  116.32    5.72
  -4   1  -1  110.98    5.55
  -4  -1  -2 4014.40   82.47
   4  -1   2 4037.60   83.25
  -4   1  -2 3927.44   82.78
   4   1   3   99.87    5.94
  -4   1  -3   97.93    6.06
   4  -1   3  105.87    7.04
  -4  -1  -3   99.77    6.06
  -4   1  -4  129.04    7.59
   4  -1   4  122.41    8.14
  -4  -1  -4  118.84    7.35
   4   1   4  111.99    6.72
  -4  -1  -4  124.27    7.76
  -4  -1  -5  745.74   23.30
  -4  -1  -5  715.57   22.68
  -4  -1  -6   95.84    7.28
  -4   1  -6   87.53    6.48
  -4   1  -7   80.67    7.23
  -4   1  -7   75.98    6.13
   4  -1   8  150.71    6.81
   4  -1   8  155.26    7.79
   4   1   8  152.24    7.10
   4   1   9   18.32    2.86
   4  -1   9   17.91    2.65
   4  -1   9   16.17    2.89
   4   1   9   13.52    2.43
   4   1  10   57.30    4.85
   4  -1  10   56.53    5.10
   4  -1  10   59.40    4.63
   4  -1  11  313.08   12.80
   4   1  11  315.78   12.36
   4  -1  11  318.02   12.00
   4  -1  12    5.25    2.10
   4  -1  12    7.98    2.52
   4   1  12    6.10    2.35
   4   1  13   14.62    2.98
   4  -1  13   12.08    2.58
   4  -1  13   13.97    2.76
   4  -1  14   47.37    4.11
   4   1  14   49.09    4.63
   4  -1  15   24.71    2.74
   4   1  15   27.52    3.26
   4   1  16   16.96    2.11
   4  -1  16   14.89    1.74
   4   1  16   19.28    2.41
   4   1  17    0.89    0.87
  -4   2  17   75.95    6.07
  -4   2  17   55.86    4.36
  -4   2  16  370.23   10.87
  -4   2  16  372.09   11.50
  -4   2  15   24.28    3.90
  -4  -2  15   40.35    7.41
  -4   2  14   58.14    5.49
  -4   2  14   69.59    5.54
  -4   2  13   19.78    3.39
  -4   2  13   24.87    3.90
  -4  -2  12  670.63   19.33
  -4   2  12  664.50   20.13
  -4   2  12  646.45   19.70
  -4  -2  11   71.12    5.39
  -4  -2  11   70.44    4.55
  -4   2  11   75.90    5.76
  -4  -2  11   78.21    5.58
  -4  -2  10  120.79    6.89
  -4  -2  10  128.42    6.86
  -4  -2  10  121.83    5.93
  -4   2  10  126.11    7.07
  -4  -2   9    0.33    1.90
  -4   2   9    1.40    1.89
  -4  -2   8 1424.49   32.62
   4  -2  -8 1374.43   36.91
  -4   2   8 1422.54   33.03
   4  -2  -7  207.12   10.33
  -4   2   7  218.79   10.93
  -4   2   6  862.95   24.34
   4  -2  -6  888.94   24.04
   4  -2  -5 3090.43   67.38
  -4  -2   5 3029.31   62.26
  -4   2   5 3073.98   67.87
   4  -2  -4 2607.23   56.70
  -4  -2   4 2460.29   52.63
  -4   2   4 2546.08   56.80
   4  -2  -3 3475.18   72.94
   4  -2  -3 3341.61   70.05
  -4   2   3 3383.77   72.86
  -4   2   2  283.03   10.95
   4  -2  -2  287.98    9.51
   4  -2  -1   28.40    2.80
  -4  -2   1   25.18    1.72
  -4   2   0  709.82   19.93
   4  -2   0  741.60   19.15
  -4   2  -1    1.04    1.47
  -4   2  -1    0.96    1.50
   4  -2   1    0.54    1.45
   4  -2   2  549.27   18.72
  -4   2  -2  530.32   16.23
   4  -2   2  557.33   16.69
  -4   2  -2  536.04   16.45
   4   2   3  755.72   19.90
   4  -2   3  816.05   24.64
   4  -2   3  761.16   22.22
  -4   2  -3  788.66   21.36
  -4   2  -3  762.30   22.02
  -4  -2  -3  762.02   22.98
   4  -2   4 7516.44  153.53
   4   2   4 7113.12  146.14
  -4  -2  -4 7568.77  151.77
  -4  -2  -5  440.37   16.81
  -4  -2  -5  457.68   17.35
  -4   2  -6  251.36   11.17
  -4   2  -6  252.94   12.61
  -4  -2  -6  247.75   12.73
  -4  -2  -6  258.66   12.94
  -4   2  -7   63.76    5.04
  -4   2  -7   60.68    5.24
   4  -2   8  608.50   16.75
   4  -2   8  625.17   18.91
   4   2   8  604.48   17.42
   4  -2   9  433.35   13.50
   4  -2   9  433.33   15.39
   4   2   9  415.27   14.06
   4  -2  10  803.70   24.18
   4  -2  10  811.03   21.98
   4   2  10  846.91   23.18
   4   2  11    7.38    2.74
   4  -2  11    7.38    2.25
   4  -2  11    7.41    2.65
   4  -2  12  233.34   11.18
   4  -2  12  242.84    9.99
   4   2  12  266.70   11.28
   4   2  13   22.10    3.55
   4  -2  13   20.79    2.87
   4  -2  14  106.42    6.32
   4  -2  14  110.01    5.80
   4   2  14  124.83    7.17
   4  -2  15   21.18    2.22
   4   2  15   25.66    3.21
   4   2  16  181.95    7.29
   4   2  17    1.13    1.01
  -4   3  17   32.22    4.47
  -4   3  17  131.29    5.37
  -4   3  16   82.53    5.35
  -4   3  16  136.98    6.22
  -4  -3  15   43.79    6.19
  -4   3  15   21.05    3.68
  -4   3  14    8.14    2.96
  -4   3  14    0.91    2.86
  -4  -3  13   41.62    4.48
  -4   3  13   49.85    5.04
  -4   3  12   20.30    3.62
  -4  -3  12   17.93    3.30
  -4  -3  11    2.60    2.16
  -4   3  11    2.81    2.37
  -4  -3  10   35.95    4.10
  -4   3  10   39.41    4.34
  -4  -3  10   50.26    4.21
  -4   3   9    8.44    2.48
  -4  -3   9   22.38    3.16
  -4   3   8   -0.22    1.91
   4  -3  -8    1.57    1.62
  -4  -3   8    5.32    1.91
  -4   3   7   10.51    2.77
   4  -3  -7   11.23    2.80
  -4   3   6   37.33    4.56
   4  -3  -6   36.83    4.36
   4  -3  -5  126.65    7.85
  -4  -3   5  118.75    4.06
  -4  -3   5  109.71    4.11
  -4   3   5  127.89    8.12
  -4  -3   4  100.28    4.61
  -4   3   4  109.62    7.29
  -4  -3   4  109.30    4.98
   4  -3  -4  104.96    6.92
   4  -3  -3  536.90   17.50
  -4   3   3  518.67   17.66
   4  -3  -3  537.54   16.09
  -4  -3   3  529.36   15.01
   4  -3  -2  142.05    6.97
  -4   3   2  138.67    7.80
  -4  -3   2  133.89    4.06
  -4  -3   2  143.63    6.80
   4  -3  -1  877.06   23.02
  -4  -3   1  875.74   23.32
   4  -3   0  669.08   19.06
  -4   3   0  656.15   19.56
  -4  -3   0  689.36   19.81
  -4  -3  -1    3.17    1.91
  -4   3  -1    4.68    1.82
   4  -3   1    3.16    2.04
   4  -3   1    3.63    1.73
  -4   3  -2  757.05   21.69
  -4   3  -2  738.55   20.93
   4  -3   2  740.43   21.73
  -4  -3  -2  748.78   22.83
   4  -3   3   11.10    2.58
   4  -3   3    9.21    3.11
  -4   3  -3    8.86    2.43
   4   3   3    9.01    1.50
  -4   3  -3    6.76    1.93
   4  -3   4  649.72   23.27
  -4   3  -4  596.65   18.29
  -4  -3  -4  635.68   21.39
  -4   3  -5  130.27    7.00
  -4   3  -5  117.51    8.14
  -4  -3  -5  120.08    8.64
  -4   3  -6   80.82    5.43
  -4   3  -6   65.74    6.47
   4   3   7    4.62    1.63
  -4   3  -7    3.72    1.43
   4  -3   7    5.68    2.13
   4  -3   8  100.78    6.77
   4   3   8  100.99    5.49
   4   3   8   93.61    5.75
   4  -3   8  100.51    5.23
   4  -3   9  115.07    7.46
   4  -3   9  104.00    5.62
   4  -3  10   29.51    4.40
   4  -3  10   25.60    2.99
   4  -3  11   80.36    6.77
   4   3  11   88.23    6.30
   4  -3  11   86.29    5.30
   4  -3  12   80.01    6.61
   4  -3  12   84.99    5.18
   4   3  12  100.18    6.80
   4  -3  13  116.39    7.56
   4   3  13  121.20    7.41
   4  -3  13  115.09    5.85
   4  -3  14   32.42    3.85
   4   3  14   43.19    4.47
   4   3  15   59.58    4.57
   4  -3  15   44.34    3.58
   4   3  16   21.33    2.60
   4   3  17    1.16    0.84
   4   3  17    2.54    1.10
  -4   4  17   15.63    3.98
  -4   4  17   90.84    4.51
  -4   4  16  212.03    8.09
  -4   4  15  274.12   10.31
  -4  -4  14   51.28    4.56
  -4   4  14   79.87    5.93
  -4   4  13   73.99    5.92
  -4  -4  13   78.52    6.09
  -4  -4  12  483.06   17.55
  -4  -4  12  477.33   15.35
  -4   4  12  530.68   17.39
  -4   4  12  518.36   17.22
  -4  -4  11   85.64    6.70
  -4   4  11   82.35    6.20
  -4  -4  10  591.63   16.51
  -4  -4  10  608.64   19.87
  -4   4  10  589.91   18.55
  -4  -4   9   33.93    3.56
  -4  -4   8  740.15   18.70
  -4   4   7  103.56    5.76
  -4   4   6  242.69   12.99
   4  -4  -6  247.23   12.62
  -4   4   5 1198.38   34.46
   4  -4  -5 1216.46   34.00
   4  -4  -4 2417.11   57.03
  -4   4   4 2391.48   57.52
   4  -4  -3  301.34   13.02
  -4   4   3  329.04   13.77
   4  -4  -3  311.26   12.27
  -4  -4   3  330.60   10.76
  -4  -4   3  293.29    7.84
  -4  -4   2 1276.52   27.79
  -4  -4   2 1275.00   31.07
   4  -4  -2 1242.44   32.14
   4  -4  -1  773.54   23.05
  -4   4   1  777.70   23.28
   4  -4  -1  771.80   22.46
  -4  -4   1  817.13   22.31
  -4   4   0  796.04   23.63
   4  -4   0  835.20   25.64
   4  -4   0  822.38   23.44
  -4  -4   0  836.19   23.66
   4  -4   1   68.59    6.40
   4  -4   1   67.09    5.48
  -4   4  -1   56.97    5.01
  -4  -4  -1   62.48    5.44
   4  -4   2 1068.74   32.06
  -4   4  -2 1068.17   28.26
  -4  -4  -2 1066.67   29.99
   4  -4   2 1050.57   29.25
  -4   4  -3   69.22    5.23
  -4  -4  -3   67.42    6.23
  -4   4  -4 2151.01   49.39
  -4   4  -5 1323.24   32.59
   4  -4   5 1251.71   36.58
  -4   4  -5 1275.51   36.25
  -4   4  -6    1.09    1.17
   4  -4   7  277.68   11.49
   4   4   7  268.33   10.07
   4   4   7  269.28    9.97
   4   4   8  541.93   16.18
   4   4   8  504.33   16.00
   4  -4   8  542.94   18.16
   4   4   9    2.16    2.04
   4  -4   9    0.55    2.20
   4   4   9    1.76    1.50
   4  -4  10  621.47   20.93
   4   4  10  598.38   17.86
   4   4  10  606.09   18.94
   4  -4  11    0.60    2.62
   4  -4  12   95.04    7.38
   4  -4  13   10.11    3.01
   4  -4  14   36.28    4.17
   4   4  14   47.32    4.56
   4   4  15   11.27    2.54
   4  -4  15    9.54    2.15
   4   4  16  222.30    8.03
   4   4  17    2.84    1.00
   4   4  17    3.27    0.93
  -4   5  17   73.96    4.56
  -4   5  16  121.49    6.12
  -4   5  15   30.28    3.71
  -4  -5  15   12.04    2.13
  -4   5  14   -1.24    2.68
  -4  -5  14    0.29    1.80
  -4   5  13   33.97    4.36
  -4  -5  13   30.28    4.25
  -4   5  13   42.00    4.71
  -4   5  12   79.74    6.23
  -4  -5  12   80.00    6.75
  -4  -5  11  149.66    9.18
  -4  -5  10   20.77    3.87
  -4   5   9   -0.14    2.47
  -4  -5   9    3.00    2.56
  -4   5   8   14.27    2.90
  -4   5   7    3.71    1.87
  -4   5   7    5.40    2.05
  -4   5   6  123.14    6.16
  -4   5   6  125.59    6.69
   4  -5  -5  220.44   12.23
  -4  -5   4   68.60    3.28
   4  -5  -4   70.39    6.50
  -4  -5   4   67.49    3.76
  -4   5   4   73.71    6.92
  -4  -5   3   75.00    4.81
   4  -5  -3   67.09    5.89
  -4  -5   3   67.06    3.72
  -4  -5   2   83.65    4.61
   4  -5  -2   76.91    6.47
   4  -5  -2   77.15    6.22
  -4   5   2   81.40    6.73
   4  -5  -1   49.45    5.57
   4  -5  -1   55.11    5.42
   4  -5  -1   51.52    5.19
  -4   5   1   50.12    5.26
   4  -5   0   59.22    6.20
   4  -5   0   68.10    5.88
   4  -5   0   68.99    5.91
  -4   5   0   59.20    5.54
  -4   5  -1   28.14    3.91
   4  -5   1   30.46    4.86
   4  -5   1   27.66    4.11
   4  -5   2   89.36    8.09
  -4   5  -2   88.28    6.35
   4  -5   3  454.49   20.10
  -4   5  -3  437.97   15.79
  -4   5  -4   41.41    4.26
   4  -5   4   39.83    5.14
   4  -5   5   17.07    2.76
  -4   5  -5   17.08    2.80
   4  -5   6  116.36    7.07
   4   5   6  120.76    6.45
   4   5   6  117.51    5.85
   4   5   7   76.78    4.93
   4   5   7   79.96    5.44
   4   5   7   71.21    4.86
   4   5   8   40.85    3.98
   4   5   8   41.15    4.07
   4   5   8   35.70    3.49
   4   5   9  108.70    6.60
   4  -5   9  101.07    7.66
   4   5   9  103.28    6.53
   4   5  10   23.15    3.83
   4  -5  10   28.72    4.93
   4   5  10   19.06    3.16
   4   5  11   15.24    3.35
   4  -5  11   17.21    4.12
   4  -5  12    3.44    2.84
   4   5  12    1.72    2.40
   4  -5  13   -0.91    2.37
   4  -5  14  111.94    7.04
   4  -5  15   69.11    4.62
   4   5  16   32.55    2.81
  -4   6  16  109.42    4.68
  -4   6  16   41.86    5.75
  -4   6  15   44.02    3.82
  -4  -6  15   14.11    2.24
  -4  -6  14  189.08    9.19
  -4   6  14  212.66    9.09
  -4   6  13    3.95    2.59
  -4  -6  13    4.26    2.71
  -4  -6  12  447.15   17.15
  -4   6  12  419.74   15.27
  -4   6  12  449.07   15.35
  -4   6  11    1.55    2.71
  -4   6  11    2.53    2.81
  -4  -6  11    4.90    2.93
  -4  -6  10  474.54   17.70
  -4   6  10  420.72   15.38
  -4   6   9    2.43    2.19
  -4  -6   9    2.31    2.58
  -4   6   8   39.99    4.46
  -4   6   8   32.01    3.85
  -4   6   7  302.76   12.17
  -4   6   7  298.83   11.17
  -4   6   6  390.97   12.68
  -4   6   5  306.45   11.27
  -4   6   5  289.78   10.08
  -4   6   4  871.84   22.84
   4  -6  -3  346.52   15.11
   4  -6  -3  320.09   15.23
  -4  -6   3  327.27   11.02
   4  -6  -3  340.30   15.10
  -4  -6   3  319.28   11.76
  -4  -6   2  662.48   18.69
  -4  -6   2  658.58   20.17
   4  -6  -2  650.56   22.89
   4  -6  -2  646.26   22.85
  -4   6   2  630.49   23.14
   4  -6  -2  654.42   22.50
   4  -6  -1    2.94    2.10
   4  -6  -1    3.93    2.10
  -4   6   1    2.29    1.80
  -4  -6   1    1.96    1.62
   4  -6  -1    3.27    1.93
  -4  -6   0  353.74   15.01
   4  -6   0  362.60   15.67
   4  -6   0  367.49   15.43
   4  -6   0  360.65   16.73
  -4   6   0  358.69   15.45
  -4   6  -1   12.00    2.85
  -4  -6  -1   10.36    2.80
   4  -6   1    9.91    3.20
   4  -6   1    8.14    2.72
   4   6   1    5.74    1.34
  -4  -6  -2 1069.32   33.15
  -4   6  -2 1114.47   31.53
   4  -6   2 1180.21   36.61
  -4  -6  -3   87.10    7.82
  -4   6  -3   81.44    6.44
   4   6   4  460.21   14.61
   4  -6   4  480.55   15.29
  -4   6  -4  457.64   16.67
   4   6   5  438.82   14.28
   4   6   5  439.27   14.53
   4  -6   5  469.69   15.61
   4   6   5  443.56   13.05
   4   6   6 1117.08   28.27
   4   6   6 1084.44   26.92
   4  -6   6 1138.98   30.18
   4   6   6 1130.41   28.87
   4   6   7  165.41    8.45
   4   6   7  164.13    7.96
   4  -6   7  162.67    9.23
   4   6   7  147.51    7.26
   4   6   8  610.54   18.26
   4   6   8  617.49   19.28
   4   6   8  595.71   18.13
   4   6   9    0.71    1.75
   4   6   9    0.39    1.38
   4  -6   9    1.66    2.71
   4   6   9   -0.47    1.97
   4  -6  10  539.07   19.99
   4   6  10  541.81   17.80
   4   6  10  543.87   17.62
   4  -6  11   70.50    6.82
   4   6  11   64.80    5.47
   4  -6  12   96.37    7.62
   4   6  12   98.05    6.67
   4   6  13   79.68    5.75
   4  -6  13   84.31    6.63
   4  -6  14  152.02    8.09
   4   6  15    2.93    1.66
   4  -6  15    0.79    1.53
  -4   7  16   44.46    3.58
  -4   7  15   59.85    3.69
  -4  -7  15    8.58    1.83
  -4   7  14   37.10    3.75
  -4  -7  14   26.22    3.67
  -4  -7  13   76.45    6.30
  -4   7  13   81.00    5.73
  -4   7  12   -2.19    2.77
  -4  -7  12    0.59    2.79
  -4   7  11   22.56    3.78
  -4  -7  11   17.76    4.05
  -4   7  11   14.64    3.23
  -4   7  10   14.43    3.55
  -4  -7  10   14.82    4.03
  -4   7  10   11.86    3.03
  -4   7   9  239.47   10.63
  -4  -7   9  249.34   12.46
  -4   7   8   16.15    3.11
  -4  -7   8   19.51    3.85
  -4   7   8   20.94    3.57
  -4   7   7   18.19    2.93
  -4   7   7   21.75    3.66
   4  -7  -6  112.62    6.18
  -4   7   6  110.90    6.10
  -4   7   5    6.06    1.87
   4  -7  -5    3.10    1.63
  -4   7   5    3.34    2.08
  -4   7   4    5.23    1.56
   4  -7  -4    3.91    1.59
  -4   7   4    4.47    1.89
  -4   7   3   36.44    3.63
   4  -7  -3   33.99    3.52
   4  -7  -3   29.23    4.47
   4   7  -3   26.86    4.79
   4  -7  -2  354.27   12.46
   4   7  -2  336.18   15.56
   4  -7  -2  343.76   16.18
  -4  -7   2  358.51   13.36
  -4  -7   2  329.31   13.61
  -4  -7   1  275.50   11.92
   4  -7  -1  268.70   14.41
   4   7  -1  275.70   12.48
   4  -7  -1  258.19   10.39
  -4  -7   1  256.57   12.43
   4  -7   0    3.42    2.06
   4   7   0    2.64    1.30
  -4  -7   0    2.96    1.85
   4  -7   0    5.06    2.55
  -4  -7  -1   26.98    4.35
   4  -7   1   27.83    3.32
   4   7   1   27.96    3.12
  -4   7  -1   32.72    4.73
   4  -7   2  104.20    6.32
   4   7   2   99.57    5.91
  -4   7  -2   89.79    7.46
   4   7   3   72.29    5.08
   4  -7   3   67.55    4.96
   4  -7   3   67.31    5.10
  -4   7  -3   68.13    6.23
   4  -7   4    8.63    2.25
   4   7   4    9.22    2.28
   4  -7   4    6.34    2.17
   4   7   5    7.13    1.62
   4   7   5    9.19    2.31
   4   7   5    7.50    2.33
   4  -7   5    8.42    2.22
   4  -7   5    9.27    2.61
   4   7   6  124.79    7.23
   4  -7   6  137.11    8.32
   4   7   6  131.04    7.67
   4   7   6  123.77    6.23
   4   7   7    2.65    1.95
   4   7   7    4.63    1.80
   4  -7   7    4.22    2.80
   4   7   7    5.04    2.36
   4   7   8   13.60    2.69
   4   7   8   13.73    2.81
   4  -7   8   14.82    3.78
   4   7   8   13.47    3.14
   4   7   9    6.18    2.53
   4   7   9    4.57    2.04
   4   7   9    5.77    2.54
   4   7  10  176.04    8.32
   4  -7  10  187.92   11.06
   4   7  10  188.91    9.63
   4   7  10  188.35    9.17
   4  -7  11   68.91    6.86
   4   7  11   70.70    5.54
   4  -7  12    6.06    3.41
   4   7  12    8.25    2.52
   4   7  13   14.99    2.76
   4  -7  13   16.63    3.55
   4   7  14    5.53    1.99
   4  -7  14    6.56    2.39
   4  -7  15   33.14    2.91
   4   7  15   31.48    2.79
   4   7  16    7.87    1.11
  -4   8  15   33.36    4.90
  -4  -8  15    1.93    1.14
  -4  -8  14   65.12    4.96
  -4   8  14   89.77    4.69
  -4   8  13   15.65    2.86
  -4  -8  13    9.65    2.99
  -4  -8  12  237.98   11.75
  -4   8  12  209.61    9.19
  -4   8  11    2.28    2.31
  -4  -8  11    4.34    3.32
  -4   8  10  255.66   10.49
  -4  -8  10  279.45   13.43
  -4   8  10  259.75   10.96
  -4   8   9    6.61    2.84
  -4   8   9    1.11    1.80
  -4   8   8  486.16   15.10
  -4   8   8  476.89   15.81
  -4   8   7   76.97    4.85
  -4  -8   7   87.52    7.09
  -4   8   7   81.99    5.48
   4  -8  -6   93.53    5.95
  -4   8   6   90.32    5.46
  -4   8   6   93.58    6.73
  -4   8   5    2.63    1.95
   4  -8  -5    2.98    1.69
  -4   8   5    5.31    1.75
  -4   8   4  271.83   11.15
  -4   8   4  256.95    9.17
   4  -8  -4  275.40   11.26
   4   8  -3    8.58    1.84
  -4   8   3    9.29    2.31
   4  -8  -3   11.74    2.64
  -4   8   2  716.28   19.98
   4  -8  -2  725.48   21.18
   4   8  -2  691.33   19.35
  -4   8   1   66.38    4.56
   4   8  -1   66.03    4.69
   4  -8  -1   63.19    5.22
  -4   8   0 1047.18   25.96
   4   8   0 1081.95   27.22
   4   8   1    2.97    1.80
   4  -8   1    4.39    2.07
   4  -8   2  386.65   14.16
   4   8   2  365.51   13.37
   4  -8   2  379.61   13.00
   4   8   3   19.45    3.14
   4   8   3   18.90    3.14
   4  -8   3   20.52    3.28
   4  -8   3   17.52    2.94
   4   8   4  182.79    9.18
   4  -8   4  192.17    9.38
   4  -8   4  168.81    8.94
   4   8   5   19.72    3.25
   4  -8   5   16.58    3.39
   4  -8   5   15.93    3.06
   4   8   6  252.89   11.43
   4  -8   6  287.61   12.79
   4   8   6  265.31   11.94
   4   8   6  259.06    9.64
   4   8   7   54.25    5.13
   4  -8   7   45.24    5.49
   4   8   7   61.77    5.75
   4   8   7   55.55    4.36
   4   8   8   23.07    3.65
   4  -8   8   34.50    5.06
   4   8   8   25.88    3.29
   4   8   8   24.76    4.02
   4   8   9    2.68    1.79
   4   8   9    2.73    2.01
   4  -8   9    1.96    2.93
   4   8   9    1.95    2.29
   4   8  10  244.72   10.26
   4   8  10  251.17   11.46
   4   8  10  254.38   10.52
   4   8  11    4.84    2.18
   4   8  11    7.17    1.84
   4  -8  12  138.56    8.64
   4   8  12  131.69    6.86
   4   8  13    6.91    2.00
   4  -8  13    6.02    2.67
   4  -8  14   75.76    5.02
   4   8  14   68.92    4.11
   4   8  15    5.94    1.20
   4  -8  15    6.90    1.41
  -4   9  15    7.72    2.35
  -4   9  14   59.23    2.93
  -4   9  14   44.90    4.93
  -4   9  13   86.27    4.41
  -4  -9  13   80.14    5.92
  -4   9  12   20.58    2.88
  -4  -9  12   25.36    4.18
  -4  -9  11   37.84    5.28
  -4   9  11   31.54    3.46
  -4   9  10   41.63    3.88
  -4   9  10   61.60    5.06
  -4   9   9  104.87    6.32
  -4   9   9  116.47    6.12
  -4   9   8    7.12    2.47
  -4   9   8    3.65    1.71
  -4  -9   8    9.15    3.34
  -4   9   7    8.05    2.29
  -4  -9   7    7.63    3.55
  -4   9   6  309.57   12.97
  -4  -9   6  298.97   13.38
  -4   9   5   44.39    4.78
  -4   9   5   36.66    3.36
   4  -9  -5   38.83    4.24
  -4   9   4   78.95    6.02
   4  -9  -4   82.57    6.24
  -4   9   4   76.20    4.68
  -4   9   3   40.36    4.27
   4  -9  -3   39.98    4.58
  -4   9   2   24.59    3.23
   4  -9  -2   24.44    3.58
   4   9  -2   21.79    2.90
  -4   9   1  279.70   10.86
   4   9  -1  284.84   11.06
   4  -9  -1  283.49   12.28
   4   9   0   12.79    2.58
  -4   9   0   11.85    2.19
   4   9   1  181.71    9.01
   4  -9   1  193.07    9.92
   4  -9   2    2.44    2.16
   4  -9   2    2.79    1.65
   4   9   2    1.37    1.91
   4  -9   3    8.77    2.91
   4   9   3   10.17    2.95
   4  -9   3    8.27    2.52
   4   9   3    9.63    2.98
   4   9   4  198.37   10.03
   4  -9   4  199.65   10.22
   4  -9   4  210.28   10.22
   4   9   4  200.29   10.15
   4   9   5   61.63    5.74
   4  -9   5   64.09    5.68
   4  -9   5   62.07    5.86
   4   9   6   91.98    6.85
   4  -9   6   88.57    7.08
   4   9   6   83.64    6.82
   4   9   7   46.38    4.89
   4  -9   7   38.92    5.11
   4   9   7   45.53    5.31
   4   9   7   40.62    3.61
   4   9   8  166.13    9.02
   4  -9   8  170.59   10.35
   4   9   8  163.90    9.47
   4   9   8  153.35    7.42
   4   9   9   10.68    2.36
   4   9   9    8.91    2.54
   4  -9   9   15.83    4.06
   4   9   9    9.55    3.07
   4   9  10    3.76    1.90
   4   9  10    5.55    1.98
   4  -9  10    5.05    3.54
   4   9  11   36.30    3.28
   4   9  11   40.85    3.75
   4   9  12    1.23    1.55
   4  -9  13   20.64    3.23
   4   9  13   19.25    2.31
   4   9  14    8.05    1.34
   4  -9  14   11.34    2.05
  -4  10  14    3.96    1.87
  -4 -10  14   15.32    1.92
  -4  10  13    9.43    3.43
  -4 -10  13    6.65    2.19
  -4  10  12   82.40    5.38
  -4 -10  12   57.13    5.22
  -4  10  11   73.75    4.88
  -4  10  11   53.94    3.29
  -4  10  10  187.53    8.12
  -4  10   9   -0.11    1.66
  -4 -10   9    1.43    2.91
  -4 -10   8  126.70    8.86
  -4  10   8  110.60    6.16
  -4  10   7   39.71    3.71
  -4 -10   7   43.39    5.47
  -4  10   7   35.51    4.89
  -4  10   6   99.63    7.29
  -4 -10   6  103.14    7.88
  -4  10   6   95.77    5.53
   4 -10  -5  633.57   20.29
  -4  10   5  628.15   20.51
  -4 -10   5  629.45   21.23
  -4  10   4 1091.85   29.98
  -4 -10   4 1117.49   30.64
   4 -10  -4 1083.86   30.37
  -4  10   3  285.17   12.06
   4  10  -3  279.95   10.57
   4 -10  -3  290.81   12.85
  -4  10   2   16.29    3.04
   4 -10  -2   16.44    3.61
   4  10  -2   12.45    2.52
  -4  10   1  169.49    8.42
   4 -10  -1  173.39    9.84
   4  10  -1  173.64    8.55
  -4  10   0  117.20    6.55
   4  10   0  115.60    7.53
   4  10   0  118.29    7.17
   4 -10   1   30.77    4.41
   4  10   1   27.92    3.75
   4  10   1   27.81    3.96
   4  10   2  420.03   15.49
   4 -10   2  418.94   16.41
   4 -10   3  142.36    8.94
   4 -10   3  140.29    7.81
   4  10   3  141.83    8.47
   4  10   4  229.66   11.19
   4 -10   4  207.75   10.27
   4  10   4  218.23   10.96
   4 -10   4  211.66   10.96
   4  10   5    5.90    2.72
   4 -10   5    5.64    2.69
   4  10   5    6.68    3.03
   4  10   6   81.46    6.63
   4 -10   6   78.57    6.65
   4  10   7   18.81    3.57
   4 -10   7   20.86    4.01
   4  10   7   23.12    4.28
   4  10   8  155.10    8.66
   4 -10   8  161.17    9.73
   4  10   8  162.29    9.35
   4  10   8  142.76    6.55
   4  10   9  106.00    6.79
   4 -10   9  121.03    8.28
   4  10   9  116.77    7.61
   4  10   9  106.60    5.52
   4  10  10  207.33    8.89
   4  10  10  200.01    7.79
   4  10  11   10.64    1.85
   4 -10  11   12.91    3.31
   4  10  11    8.55    1.91
   4  10  12  120.52    4.88
   4 -10  14    3.15    0.99
  -4 -11  13    9.06    1.74
  -4  11  12   47.02    3.09
  -4  11  11    6.70    2.33
  -4  11  10   -1.26    1.69
  -4  11   9   -0.53    1.32
  -4 -11   9    2.55    3.00
  -4 -11   8  220.64   11.05
  -4  11   8  178.93    7.39
  -4  11   7   33.33    4.62
  -4 -11   7   35.97    4.97
  -4 -11   7   34.06    3.74
  -4  11   6    0.18    2.51
   4  11  -6    0.74    1.45
  -4 -11   6    0.77    2.28
  -4  11   5  202.22   10.34
   4  11  -5  182.62    8.87
  -4 -11   5  204.09   10.62
   4 -11  -4   46.54    5.13
  -4 -11   4   49.33    5.20
  -4  11   4   55.21    5.39
   4  11  -4   50.48    4.84
   4 -11  -3   76.83    6.58
  -4  11   3   70.82    5.93
   4  11  -3   78.66    6.13
  -4 -11   3   81.38    6.25
  -4 -11   2    0.15    1.74
   4 -11  -2    1.39    2.38
   4  11  -2    1.18    1.54
   4  11  -2    0.85    2.22
  -4  11   2    0.93    1.70
  -4 -11   1    6.77    2.03
  -4  11   1    6.31    2.21
   4  11  -1    6.52    2.66
   4 -11  -1    4.64    2.78
   4  11  -1    3.46    1.90
  -4  11   0  202.53    9.02
   4  11   0  210.71    9.92
   4  11   0  208.00   10.60
   4  11   1   51.83    5.36
   4  11   1   50.23    5.05
   4  11   2    0.94    2.61
   4 -11   2    0.20    2.52
   4  11   2    1.89    2.26
   4 -11   3   17.80    2.98
   4 -11   3   20.21    4.05
   4  11   3   17.27    3.63
   4  11   4  169.67    9.76
   4 -11   4  158.30    8.56
   4  11   4  171.35    9.59
   4 -11   4  168.43    9.78
   4  11   5   34.42    4.82
   4  11   5   40.36    5.01
   4 -11   5   39.25    4.52
   4  11   6   84.86    6.85
   4 -11   6   76.72    6.33
   4  11   7  205.99   10.27
   4 -11   7  206.52   10.48
   4  11   8   35.10    4.21
   4 -11   8   38.61    4.73
   4  11   8   32.85    4.55
   4  11   9    1.82    1.90
   4 -11   9    4.89    2.77
   4  11  10    1.52    1.47
   4 -11  10    4.38    2.55
   4 -11  11   18.05    3.00
   4 -11  12   14.16    2.32
   4 -11  13    0.76    0.89
  -4 -12  12   25.74    2.47
  -4 -12  11   93.30    5.47
  -4 -12  10    4.64    2.25
  -4 -12   9    4.14    2.45
  -4 -12   8  108.17    7.14
  -4 -12   7   50.05    4.12
  -4 -12   7   58.63    5.56
  -4  12   6  124.55    7.80
  -4 -12   6  119.77    7.24
  -4 -12   6  131.78    8.02
  -4  12   5   43.92    4.74
   4  12  -5   38.44    3.74
  -4 -12   5   45.74    4.83
   4  12  -4   43.32    4.28
  -4  12   4   46.09    4.79
  -4 -12   4   45.76    4.73
  -4  12   3  154.40    8.41
   4 -12  -3  151.85    9.13
  -4 -12   3  149.68    8.06
   4  12  -3  143.64    8.15
  -4  12   2  254.48   10.97
   4  12  -2  274.94   11.88
   4 -12  -2  276.70   12.89
   4  12  -2  249.51    9.88
  -4 -12   2  272.22   10.75
   4 -12  -1   59.50    6.17
  -4  12   1   63.33    4.98
   4  12  -1   63.78    5.78
   4  12  -1   65.34    4.99
   4  12   0  191.08   10.11
   4  12   0  181.89    8.92
  -4  12   0  170.82    8.01
   4  12   1   23.68    4.08
   4  12   1   27.39    3.80
   4 -12   2   27.58    4.51
   4  12   2   25.91    4.19
   4  12   2   30.16    4.08
   4  12   3    4.41    2.74
   4 -12   4   95.87    5.91
   4  12   4   98.73    7.12
   4  12   5    6.24    2.93
   4 -12   5    4.77    2.07
   4  12   5    5.61    2.73
   4 -12   6   66.11    5.32
   4  12   6   66.66    5.88
   4  12   6   68.90    5.90
  -4 -12  -7    8.38    2.00
   4 -12   7   10.21    2.77
   4  12   7   12.36    2.96
   4 -12   8   59.07    4.93
   4  12   8   56.83    4.71
   4  12   9   15.66    2.46
   4 -12   9   10.85    2.48
   4  12  10   36.99    2.86
   4 -12  10   39.16    3.59
   4 -12  11    1.53    1.30
  -4 -13  11    3.48    1.03
  -4 -13  10    0.41    1.29
  -4 -13   9   27.51    3.07
  -4 -13   8   11.93    2.61
  -4 -13   7   81.44    4.48
  -4 -13   7  104.67    6.22
  -4 -13   6    8.95    2.22
  -4 -13   6    7.27    2.31
  -4 -13   5   28.67    3.76
  -4 -13   5   29.32    3.52
  -4 -13   4    7.77    2.25
  -4  13   4   10.20    2.66
   4  13  -4    6.87    2.06
  -4  13   3   14.43    2.78
   4  13  -3    8.61    2.33
  -4 -13   3    8.64    2.08
  -4  13   2   16.84    2.77
   4  13  -2   17.90    3.12
   4  13  -1  202.89    9.77
   4 -13  -1  219.57   11.02
  -4  13   1  187.66    8.28
   4  13  -1  189.35    8.04
   4  13   0    2.74    2.54
   4  13   0    1.86    1.62
   4  13   1    8.24    3.10
   4  13   1    7.05    2.38
   4  13   2   30.29    4.17
   4  13   2   30.02    3.77
   4  13   3   71.88    5.55
   4  13   3   69.39    5.94
   4  13   4    1.61    2.08
   4  13   5   39.69    4.50
  -4 -13  -5   35.19    3.89
   4  13   5   39.31    4.28
   4  13   6    6.70    2.45
  -4 -13  -6    4.19    1.71
   4 -13   6    5.12    1.72
   4 -13   7  112.72    5.65
   4  13   7  131.41    6.88
   4  13   8    2.19    1.69
   4 -13   8    2.77    1.45
   4  13   9    4.33    1.40
   4 -13   9    3.61    1.33
  -4 -14   8   32.63    2.37
  -4 -14   7    0.84    1.08
  -4 -14   6   34.26    2.84
  -4 -14   6   28.20    2.55
  -4 -14   5    1.09    1.51
   4  14  -4    1.74    1.01
  -4 -14   4    2.34    1.91
  -4 -14   3    4.06    2.15
   4  14  -3    1.24    1.27
   4  14  -2   11.61    2.32
  -4 -14   2   17.30    3.21
   4  14  -1   15.61    2.73
  -4 -14   1   17.08    3.51
   4  14   0   45.08    4.26
   4  14   1    0.13    1.92
   4  14   2   37.85    4.06
  -4 -14  -2   34.07    4.23
   4  14   3    1.84    2.16
  -4 -14  -3    0.83    1.84
  -4 -14  -4   47.68    4.15
  -4 -14  -5    6.07    1.77
   4  14   6   43.31    3.69
  -4 -14  -6   34.03    2.57
   4  14   7    1.11    1.33
   4  14   8   11.70    1.63
  -4 -15   5   22.56    2.01
  -4 -15   4    2.14    1.35
  -4 -15   3   13.28    2.32
  -4 -15   2    1.24    1.70
   4  15  -2   -0.26    0.87
   4  15  -1   70.65    4.09
  -4 -15   1   72.49    5.08
   4  15   0    4.20    1.62
  -4 -15  -1    7.44    2.26
   4  15   1    4.89    1.66
   4  15   2    7.21    1.95
  -4 -15  -2    8.03    2.11
   4  15   3   70.69    4.41
  -4 -15  -3   69.58    4.44
  -4 -15  -4    5.40    1.45
   4  15   4    5.91    1.70
  -4 -15  -5    1.30    0.71
   4  15   6    0.49    0.90
  -4 -16   2   18.43    1.89
  -4 -16   1    7.90    1.49
  -4 -16  -1    1.01    1.01
   4  16   2    3.43    0.87
  -4 -16  -2    2.60    0.94
   4  16   3    1.52    0.75
  -5   0  17   19.89    4.46
  -5   0  16   47.01    7.37
  -5   0  15   26.23    6.24
  -5   0  15  191.79    7.89
  -5   0  14  100.82    6.89
  -5   0  14  107.07    6.18
  -5   0  13   26.06    4.45
  -5   0  13   56.21    4.79
  -5   0  12   10.01    3.17
  -5   0  12   22.00    3.39
  -5   0  11    7.18    2.56
  -5   0  11    5.74    2.89
  -5   0  10   24.61    3.27
  -5   0  10   27.23    3.65
  -5   0   9    0.10    2.12
  -5   0   9   -0.24    2.17
  -5   0   8  761.21   20.15
  -5   0   8  731.97   19.33
  -5   0   7    0.42    1.07
  -5   0   6 1333.09   33.15
  -5   0   5   21.52    3.10
  -5   0   4  172.82    8.23
  -5   0   3    3.89    1.67
  -5   0   2  195.99    8.68
  -5   0   1    2.13    0.98
  -5   0   0  257.00    8.61
  -5   0  -1   13.25    2.33
  -5   0  -2  908.54   23.84
   5   0   3   31.69    4.53
  -5   0  -3   30.94    3.94
   5   0   4 1035.17   29.51
  -5   0  -4  996.23   28.18
  -5   0  -5   18.52    3.59
   5   0   5   17.70    3.58
  -5   0  -5   15.03    3.33
  -5   0  -6  189.02   11.07
  -5   0  -6  194.15   11.14
   5   0   7   30.52    3.26
  -5   0  -7   23.17    4.27
   5   0   8    2.74    1.60
   5   0   8    0.68    1.61
   5   0   9   12.74    2.68
   5   0   9   11.48    2.70
   5   0  10   95.35    6.42
   5   0  10   89.20    6.08
   5   0  11    1.91    2.13
   5   0  11    1.88    1.94
   5   0  12   87.97    6.03
   5   0  12  100.06    6.55
   5   0  13    3.71    2.19
   5   0  14   13.41    2.68
   5   0  15   10.10    2.16
   5   0  16    1.00    1.06
  -5  -1  17  149.58    6.00
  -5   1  17  243.49    8.28
  -5   1  16   19.06    5.19
  -5  -1  16   42.31    6.73
  -5   1  15  291.29   10.44
  -5   1  15  251.48    9.61
  -5   1  14   48.66    5.24
  -5  -1  14   31.04    5.87
  -5  -1  13  126.90    7.33
  -5   1  13   57.31    5.59
  -5   1  13   76.83    5.84
  -5  -1  13  118.07    6.05
  -5   1  12   15.23    3.51
  -5  -1  12   56.62    5.21
  -5  -1  12   52.73    4.41
  -5   1  12   26.79    3.77
  -5   1  11  214.69    9.70
  -5  -1  11  252.15   10.54
  -5   1  11  239.15   10.59
  -5  -1  11  224.83    9.07
  -5  -1  10    2.28    1.99
  -5   1  10   -1.49    2.25
  -5  -1  10    0.53    2.06
  -5   1  10   -0.83    2.64
  -5  -1   9  218.76    9.25
  -5   1   9  226.88    9.51
  -5  -1   9  215.64    8.33
  -5   1   9  207.72    8.86
  -5  -1   8  225.60    8.97
  -5   1   8  235.24    8.96
  -5   1   7  459.28   16.36
  -5  -1   7  446.94   13.47
   5  -1  -7  424.70   12.45
  -5  -1   6  193.63    8.09
   5  -1  -6  176.51    6.52
  -5   1   6  203.25    9.77
   5  -1  -5 3733.41   76.86
  -5   1   5 3949.24   82.85
  -5  -1   5 3902.45   80.20
  -5  -1   4   52.36    4.11
   5  -1  -4   52.75    3.00
  -5   1   4   52.79    4.72
  -5  -1   3 1755.26   40.56
   5  -1  -3 1772.48   37.49
  -5   1   3 1769.90   41.92
  -5   1   2   88.74    5.98
   5  -1  -2   94.09    4.41
  -5  -1   1  293.38    8.16
   5  -1  -1  289.12    9.53
   5  -1   0    1.49    1.13
  -5   1   0    1.20    1.31
  -5  -1   0    0.90    1.05
   5  -1   1   55.98    4.32
  -5   1  -1   53.76    4.19
  -5  -1  -1   53.15    3.88
  -5   1  -2   25.05    3.19
  -5  -1  -2   23.59    2.89
   5   1   3 2349.47   53.49
   5  -1   3 2398.99   56.11
  -5   1  -3 2298.59   53.05
  -5  -1  -3 2276.98   52.60
  -5  -1  -4 1591.99   41.22
  -5   1  -4 1613.07   40.02
   5  -1   4 1643.79   42.54
   5   1   4 1576.64   39.50
  -5  -1  -4 1506.93   39.26
  -5   1  -5 3170.61   72.12
   5  -1   5 3140.92   74.16
  -5  -1  -5 3139.79   71.86
  -5  -1  -5 3145.16   72.90
  -5  -1  -6   42.53    5.20
  -5   1  -6   42.08    5.25
  -5  -1  -6   52.64    5.78
  -5   1  -6   47.87    5.15
   5   1   7  491.94   14.75
   5  -1   7  497.46   14.53
   5  -1   7  485.45   15.73
  -5  -1  -7  501.15   20.20
  -5   1  -7  507.15   19.37
   5   1   8   55.24    4.34
   5  -1   8   59.68    4.32
   5   1   8   50.05    4.29
   5  -1   8   52.80    4.72
   5   1   9  283.81   11.24
   5  -1   9  298.36   12.19
   5   1   9  286.93   11.25
   5  -1   9  284.60   10.90
   5   1  10    5.89    2.34
   5  -1  10    3.62    1.96
   5  -1  10    3.68    2.17
   5   1  10    3.96    2.00
   5  -1  11   36.63    4.38
   5   1  11   39.31    4.38
   5  -1  11   38.68    4.11
   5  -1  12   32.99    4.04
   5   1  12   30.56    3.94
   5  -1  12   31.39    3.74
   5   1  13  370.04   13.53
   5  -1  13  326.71   12.72
   5  -1  13  363.18   12.84
   5   1  14   24.09    3.37
   5  -1  14   24.88    3.09
   5  -1  15  129.86    5.93
   5   1  15  134.41    6.61
   5  -1  16    9.19    1.26
   5   1  16   13.14    1.97
   5   1  16    9.18    1.46
  -5   2  17   34.81    5.57
  -5   2  17    2.82    2.58
  -5   2  16   30.02    5.93
  -5  -2  16   12.40    4.73
  -5   2  15  147.06    7.38
  -5   2  15  147.06    7.49
  -5  -2  14   30.20    8.34
  -5   2  14   20.42    4.03
  -5   2  13   38.79    4.69
  -5   2  13   57.05    5.35
  -5   2  12   60.26    5.63
  -5   2  12   58.51    5.25
  -5   2  11   22.82    3.61
  -5  -2  11   78.35    5.74
  -5  -2  11   25.06    3.45
  -5  -2  11   58.57    4.19
  -5   2  10    2.78    2.18
  -5  -2  10   28.21    3.73
  -5  -2  10    6.63    2.02
  -5  -2  10   22.57    2.84
  -5   2   9   26.53    3.46
  -5  -2   9   30.96    3.01
  -5   2   8   39.23    3.80
  -5  -2   8   46.42    3.91
  -5   2   8   40.04    3.80
  -5   2   7  282.86    9.93
  -5   2   7  296.15   13.54
  -5   2   7  279.59    9.89
  -5   2   6    3.34    1.82
  -5  -2   6    2.35    0.96
  -5  -2   5  113.82    5.68
  -5   2   5  120.82    7.81
   5  -2  -5  115.47    5.81
   5  -2  -4  242.31    8.82
  -5  -2   4  230.41    9.06
  -5  -2   3 1215.36   29.51
  -5   2   3 1189.31   31.70
   5  -2  -3 1210.95   28.44
   5  -2  -2  147.62    6.55
  -5   2   2  137.04    7.85
  -5  -2   1    4.23    0.94
   5  -2  -1    2.43    1.38
  -5  -2   0  168.64    6.40
   5  -2   0  177.70    7.84
  -5   2  -1  226.98    9.59
  -5   2  -1  229.35   10.17
  -5  -2  -1  223.99    8.60
   5  -2   1  228.06    9.62
   5  -2   2   36.15    4.81
  -5   2  -2   31.62    3.76
  -5  -2  -2   29.77    3.35
   5  -2   2   32.42    3.73
  -5   2  -2   31.53    3.68
  -5  -2  -3   13.76    3.23
  -5   2  -3    7.83    2.42
   5   2   3   10.75    2.45
   5  -2   3   12.20    2.80
  -5  -2  -3    9.29    2.42
   5  -2   3   10.75    3.59
   5  -2   4   57.57    6.28
  -5   2  -4   43.03    4.79
  -5   2  -4   42.86    4.41
   5   2   4   47.93    4.23
  -5  -2  -4   47.94    4.82
  -5  -2  -4   44.40    5.21
   5  -2   5  706.15   25.72
  -5   2  -5  687.17   23.19
  -5  -2  -5  683.89   23.04
  -5  -2  -5  702.60   24.25
  -5   2  -6   64.31    5.58
  -5  -2  -6   70.64    6.78
  -5  -2  -6   67.31    6.78
   5  -2   7   34.61    3.16
  -5   2  -7   35.63    4.27
   5  -2   7   36.83    4.06
  -5   2  -7   31.96    4.36
   5  -2   8   56.43    4.19
   5  -2   8   57.67    5.16
   5   2   8   57.05    4.37
   5  -2   9  496.92   17.48
   5   2   9  495.86   16.17
   5  -2   9  518.49   15.69
   5  -2  10  225.81   11.02
   5   2  10  227.76   10.17
   5  -2  10  216.64    9.40
   5  -2  11  151.74    9.01
   5   2  11  164.48    8.71
   5  -2  11  155.26    7.83
   5  -2  12    0.78    1.60
   5  -2  12    1.25    2.37
   5   2  12    2.53    2.45
   5  -2  13  112.23    6.26
   5  -2  13  109.99    7.12
   5   2  13  127.38    7.47
   5  -2  14   -0.20    1.38
   5  -2  14    0.88    1.63
   5   2  14   -1.22    2.19
   5  -2  15   19.92    2.10
   5   2  15   25.21    3.07
   5   2  16   22.28    2.45
  -5   3  17   32.31    3.57
  -5   3  17   59.91    5.37
  -5   3  16  163.75    6.83
  -5   3  16   35.46    6.57
  -5   3  15  421.81   12.67
  -5   3  15  387.94   12.80
  -5  -3  14   99.23    8.57
  -5   3  14  153.30    7.83
  -5  -3  13  153.06    9.69
  -5   3  13  138.43    7.77
  -5  -3  12  103.58    6.94
  -5   3  12  118.99    7.32
  -5   3  11  692.63   21.10
  -5  -3  11  659.91   21.08
  -5  -3  11  727.99   19.67
  -5   3  11  693.11   20.78
  -5   3  10   -0.56    2.46
  -5   3  10   -0.86    2.72
  -5  -3  10    1.43    1.89
  -5  -3   9 1058.05   26.70
  -5   3   9 1129.36   28.44
  -5   3   9 1145.83   28.53
  -5   3   8   -1.04    2.11
  -5   3   8    0.23    1.83
  -5   3   7  372.00   11.93
   5  -3  -7  371.40   16.13
  -5   3   7  375.94   12.09
  -5  -3   7  345.43   10.99
   5  -3  -6  181.16   10.15
  -5  -3   6  119.13    4.01
  -5  -3   6  125.43    4.02
  -5   3   6  179.66   10.46
   5  -3  -5 1204.40   33.10
   5  -3  -5 1179.80   29.87
  -5  -3   5 1170.46   26.87
  -5   3   5 1157.58   33.03
  -5  -3   5 1137.52   27.16
  -5  -3   4  667.83   18.29
   5  -3  -4  639.60   21.27
   5  -3  -4  642.72   18.88
  -5  -3   4  630.80   17.52
  -5   3   4  669.02   21.89
  -5   3   3 6787.70  139.67
   5  -3  -3 6655.92  135.84
   5  -3  -2  406.03   13.76
  -5   3   2  419.89   15.69
  -5  -3   1 2163.56   49.14
  -5  -3   1 2078.72   43.44
   5  -3  -1 2096.09   47.69
   5  -3   0  793.77   22.28
  -5   3   0  769.87   23.15
  -5  -3   0  800.01   23.54
  -5   3  -1  824.49   23.74
   5  -3   1  790.31   23.18
  -5  -3  -1  821.22   24.62
  -5   3  -2  346.61   13.64
  -5   3  -2  347.85   13.55
   5  -3   2  345.72   13.78
  -5  -3  -2  361.54   15.01
  -5   3  -3 1455.11   38.19
   5   3   3 1454.26   34.37
  -5   3  -3 1517.88   37.58
   5  -3   3 1545.41   42.48
   5  -3   3 1488.12   38.68
   5   3   4  161.28    6.92
   5  -3   4  178.30   11.80
  -5   3  -4  163.91    8.81
   5  -3   4  162.77    9.83
  -5   3  -4  147.86    9.23
  -5  -3  -4  173.45   10.58
  -5  -3  -5 3489.53   79.19
  -5   3  -5 3388.16   75.95
  -5  -3  -5 3502.93   80.96
   5   3   6  234.99    8.80
  -5   3  -6  229.62   10.92
   5  -3   6  234.99   10.00
   5  -3   7   37.48    3.20
   5  -3   7   40.31    4.31
   5   3   7   39.52    3.65
   5  -3   8   99.83    5.49
   5  -3   8   99.90    6.93
   5   3   8   96.38    5.49
   5   3   8   99.03    6.08
   5  -3   9  953.42   27.30
   5  -3   9  912.87   23.82
   5  -3  10   25.04    4.16
   5  -3  10   24.71    2.98
   5  -3  11  246.67   12.02
   5  -3  11  243.78    9.72
   5  -3  12   43.78    5.06
   5  -3  12   40.02    3.62
   5   3  12   39.22    4.59
   5  -3  13  201.27   10.15
   5  -3  13  197.69    8.04
   5   3  13  220.99    9.98
   5  -3  14   24.05    3.35
   5   3  14   29.62    3.74
   5  -3  15   39.56    3.20
   5   3  15   60.30    4.40
   5   3  16    1.65    1.39
   5   3  17  106.04    3.81
  -5   4  17    4.69    2.90
  -5   4  17   25.23    4.36
  -5   4  16   53.23    6.56
  -5   4  15  143.56    7.41
  -5  -4  14   -6.22    5.32
  -5  -4  14    2.85    1.78
  -5   4  13    0.93    2.82
  -5  -4  13   36.79    6.73
  -5   4  13   38.96    4.97
  -5  -4  12  198.51    9.83
  -5   4  12  182.67    9.41
  -5   4  12  177.37    9.25
  -5   4  11    6.51    2.89
  -5   4  11    4.64    2.83
  -5  -4  11    4.85    2.64
  -5   4  10   -1.60    2.47
  -5   4  10   -0.72    2.64
  -5  -4  10    2.81    2.37
  -5  -4   9   30.20    4.44
  -5   4   9    7.37    2.46
  -5  -4   8   35.53    3.81
  -5   4   8   27.67    3.48
  -5   4   7   96.33    5.48
  -5  -4   7   94.02    5.19
  -5   4   7   95.15    5.70
  -5   4   6  462.38   13.86
   5  -4  -5   39.37    4.99
  -5  -4   5   39.61    2.60
   5  -4  -5   40.11    4.29
  -5   4   5   39.50    5.18
  -5  -4   4    7.86    1.79
  -5  -4   4    6.03    1.47
  -5   4   4    7.54    2.63
   5  -4  -4    8.91    2.78
   5  -4  -4    8.30    2.11
   5  -4  -3   78.81    5.88
   5  -4  -3   86.14    6.96
  -5   4   3   81.01    6.78
  -5  -4   3   76.86    5.34
   5  -4  -2   60.83    5.24
  -5  -4   2   64.61    5.24
  -5  -4   2   55.86    2.69
   5  -4  -1  100.95    6.76
  -5   4   1  108.74    7.62
  -5  -4   1  114.83    7.41
   5  -4   0  152.79    8.58
  -5   4   0  148.91    8.88
  -5  -4   0  157.60    9.09
   5  -4   1   25.34    3.75
   5  -4   1   32.04    5.05
  -5   4  -1   32.93    4.30
  -5  -4  -1   35.17    4.63
   5  -4   2  894.23   29.83
  -5   4  -2  880.55   25.99
   5  -4   2  878.16   26.64
  -5  -4  -2  917.62   27.90
  -5  -4  -3   27.57    4.40
   5   4   3   23.04    2.12
   5  -4   3   27.99    4.19
  -5   4  -3   26.60    3.78
  -5   4  -3   27.43    4.12
  -5   4  -4   32.06    4.62
   5  -4   4   32.09    5.45
  -5   4  -4   34.33    4.10
   5  -4   4   26.48    4.17
   5  -4   5  964.62   25.62
  -5   4  -5  972.63   27.69
   5   4   6   55.93    4.05
   5   4   6   54.56    4.15
   5  -4   7  161.61    6.80
   5  -4   7  162.31    8.86
   5   4   7  165.49    7.72
   5   4   7  157.92    7.55
   5   4   8    7.42    2.38
   5  -4   8   13.37    3.34
   5  -4   8    7.54    1.81
   5   4   8    7.31    2.05
   5  -4   9  139.34    8.86
   5   4   9  132.50    7.05
   5   4   9  138.51    7.73
   5  -4   9  136.07    6.49
   5   4  10    8.09    2.69
   5  -4  10    5.84    1.75
   5  -4  10    9.69    3.33
   5   4  10    8.21    2.01
   5  -4  11  162.64    9.97
   5  -4  12   51.08    5.54
   5  -4  13    5.09    2.75
   5   4  14   11.66    2.76
   5  -4  14   10.04    2.71
   5  -4  15  119.21    5.85
   5   4  15  140.28    6.60
   5   4  16    0.95    1.22
  -5   5  17   66.05    3.97
  -5   5  17   33.62    2.98
  -5   5  16   30.56    5.98
  -5   5  16  139.61    5.40
  -5   5  15  181.00    7.79
  -5   5  15  111.36    6.14
  -5   5  14  237.06   10.00
  -5  -5  14  198.14    9.39
  -5   5  13  386.83   14.12
  -5  -5  13  374.43   14.67
  -5  -5  12   47.62    5.18
  -5   5  12   48.22    5.03
  -5  -5  11  524.43   16.19
  -5   5  11  578.52   18.32
  -5  -5  11  586.82   19.87
  -5  -5  10    7.06    3.05
  -5  -5  10   12.42    4.61
  -5   5  10    3.78    2.62
  -5   5   9   19.65    3.41
  -5  -5   9   25.14    4.44
  -5   5   9   14.59    2.97
  -5   5   8    9.29    2.51
  -5  -5   8   11.07    3.44
  -5   5   8    8.93    2.32
  -5  -5   7  557.36   15.68
  -5   5   7  590.97   16.74
  -5   5   7  586.95   17.17
  -5   5   6  665.11   17.62
  -5   5   6  639.34   17.99
  -5   5   5  184.71    8.24
   5  -5  -5  175.62   10.23
  -5   5   5  174.54    7.28
  -5  -5   4    1.17    0.99
   5  -5  -4    2.74    1.95
   5  -5  -4    1.61    1.81
   5  -5  -3 3681.73   69.45
  -5  -5   3 2811.23   57.19
   5  -5  -2  144.12    9.44
   5  -5  -2  147.75    8.86
  -5   5   2  144.97    9.63
  -5  -5   2  147.15    5.82
  -5  -5   1   21.13    3.44
   5  -5  -1   15.04    2.95
   5  -5  -1   17.18    3.79
  -5   5   1   14.28    3.22
   5  -5   0  696.81   25.45
   5  -5   0  702.33   23.04
  -5   5   0  709.40   23.67
  -5  -5   0  744.29   23.61
   5  -5   1 2471.71   59.25
   5  -5   1 2501.24   63.23
  -5   5  -1 2445.21   58.94
  -5  -5  -1 2471.88   59.79
   5  -5   2    9.63    3.38
   5  -5   2    7.88    2.48
  -5   5  -2   11.33    2.84
  -5   5  -3  942.28   27.97
   5  -5   4  171.28    8.19
  -5   5  -4  170.29    9.64
   5   5   4  173.94    7.77
   5   5   5  404.40   13.28
   5  -5   5  409.40   14.29
  -5   5  -5  380.68   15.28
   5   5   5  382.95   12.09
   5   5   6  600.65   18.07
   5  -5   6  630.91   19.85
   5   5   6  627.68   17.62
   5   5   6  601.11   17.18
   5   5   7  556.52   16.63
   5   5   7  578.51   17.71
   5   5   7  586.63   17.24
   5  -5   8   34.31    4.75
   5   5   8   36.62    3.89
   5   5   8   34.57    3.80
   5  -5   9  836.58   25.72
   5   5   9  809.19   23.04
   5   5   9  794.09   22.93
   5  -5  10   26.17    4.61
   5   5  10   24.35    3.78
   5   5  10   23.14    3.20
   5  -5  11   33.68    4.94
   5   5  11   31.08    4.06
   5   5  12   -0.61    2.17
   5  -5  12   -0.20    2.61
   5  -5  13  344.97   14.09
   5   5  13  363.25   13.18
   5  -5  14  140.05    7.65
   5  -5  15   61.55    4.12
  -5   6  16   14.14    4.55
  -5   6  16   16.45    4.45
  -5   6  15   36.16    6.64
  -5  -6  15    1.51    1.18
  -5   6  14   66.73    4.86
  -5  -6  14   26.57    3.50
  -5  -6  13    2.19    2.49
  -5   6  13    7.64    2.92
  -5  -6  12    5.53    2.92
  -5   6  12    3.20    2.78
  -5   6  11   16.72    3.54
  -5  -6  11   24.31    4.35
  -5   6  10   41.79    4.59
  -5  -6  10   47.71    5.51
  -5   6  10   48.23    5.05
  -5   6   9    9.66    3.07
  -5   6   9   10.35    2.65
  -5   6   8    2.91    2.33
  -5   6   8    2.45    1.85
  -5   6   7    1.09    1.94
  -5   6   7    0.44    1.56
  -5   6   6    5.35    2.08
  -5   6   6    3.89    1.52
  -5   6   5   81.62    5.61
  -5   6   5   78.97    4.82
  -5   6   4   33.32    3.50
  -5   6   4   29.61    2.84
  -5  -6   3  166.71    8.47
   5  -6  -3  160.23   10.80
  -5   6   3  160.38    7.32
  -5  -6   2    4.72    1.37
   5  -6  -2    5.56    2.81
  -5  -6   2    5.94    2.13
  -5  -6   1   30.34    4.12
   5  -6  -1   25.14    4.63
  -5   6   0   20.07    3.91
   5  -6   0   23.01    4.74
  -5   6  -1   31.44    4.69
   5  -6   2  196.04    8.71
  -5   6  -2  211.75   11.60
  -5  -6  -2  188.68    8.52
   5  -6   3  229.33    9.59
  -5  -6  -3  226.23    9.48
  -5   6  -3  227.12   11.93
   5   6   3  221.11    9.29
   5  -6   4  133.18    7.37
   5   6   4  132.13    7.04
  -5   6  -4  123.43    8.44
   5   6   5    7.88    2.35
   5   6   5    7.94    1.86
   5   6   5    6.35    1.99
   5  -6   5    7.69    2.74
   5   6   6    0.66    1.36
   5   6   6    1.18    1.50
   5  -6   6    2.25    2.32
   5   6   6    1.44    1.78
   5   6   7   10.32    2.29
   5  -6   7   12.04    3.22
   5   6   7   10.68    2.31
   5   6   7   14.44    2.78
   5   6   8   74.09    5.22
   5   6   8   77.50    5.96
   5   6   8   77.14    5.52
   5   6   9  223.82   10.37
   5   6   9  204.64    9.68
   5  -6  10   19.92    4.41
   5   6  10   20.97    3.57
   5   6  10   16.75    3.13
   5   6  11    7.70    2.62
   5  -6  11   10.37    3.58
   5  -6  12   31.72    4.78
   5   6  12   31.77    3.88
   5  -6  13   18.24    3.72
   5   6  13   25.88    3.48
   5   6  14    1.92    1.78
   5  -6  14    1.58    2.05
   5   6  15    3.53    1.50
   5  -6  15    3.40    1.46
   5   6  16   38.99    2.41
  -5   7  16   20.09    2.83
  -5  -7  15   25.54    2.48
  -5   7  15  130.84    4.75
  -5   7  14   72.31    4.44
  -5   7  14   58.55    7.08
  -5   7  13  211.27    9.00
  -5  -7  13  200.49   10.12
  -5   7  12    2.22    2.47
  -5  -7  12    0.19    2.54
  -5   7  11  286.62   11.55
  -5  -7  11  289.03   13.67
  -5   7  11  314.74   12.23
  -5   7  10   48.69    4.73
  -5  -7  10   57.47    6.09
  -5   7  10   64.54    5.73
  -5   7   9  282.35   11.18
  -5  -7   9  316.39   14.25
  -5   7   9  287.53   11.68
  -5   7   8  237.93    9.69
  -5   7   8  232.14   10.13
  -5   7   7  128.95    6.53
  -5   7   7  129.91    7.03
  -5   7   6   27.53    3.82
  -5   7   6   22.40    2.66
  -5   7   6   27.02    3.26
  -5   7   5  107.22    6.70
  -5   7   5   97.19    5.52
  -5   7   4  156.37    7.95
   5  -7  -4  159.53    7.93
   5   7  -4  152.62    7.03
  -5   7   4  145.60    6.65
   5  -7  -3  909.62   24.20
  -5   7   3  884.36   23.46
   5   7  -3  850.38   22.59
  -5   7   3  866.77   21.89
  -5   7   2    9.50    2.06
   5  -7  -2    9.65    2.40
   5   7  -2   11.15    2.19
  -5  -7   1  815.98   26.43
   5  -7  -1  813.42   22.75
   5   7  -1  803.75   21.72
   5  -7   0  123.51    7.09
   5   7   0  129.46    6.77
   5   7   1 1439.45   34.65
   5  -7   1 1432.75   35.37
   5   7   2    3.42    1.90
   5  -7   2    1.87    1.71
   5  -7   2    3.49    1.67
   5  -7   3  177.14    8.86
   5  -7   3  187.12    8.83
   5   7   4  292.44   11.55
   5  -7   4  285.14   11.88
   5   7   4  280.13   11.53
   5   7   5  504.16   16.41
   5  -7   5  494.00   17.25
   5   7   5  472.34   14.14
   5   7   5  479.30   16.49
   5   7   6  167.84    8.57
   5  -7   6  166.55    9.54
   5   7   6  159.84    8.75
   5   7   6  163.53    7.46
   5   7   7   64.90    5.22
   5  -7   7   73.74    6.51
   5   7   7   69.54    5.86
   5   7   7   62.55    4.77
   5   7   8    2.90    1.88
   5  -7   8    2.31    2.61
   5   7   8    1.20    1.74
   5   7   8    3.08    2.45
   5   7   9  174.37    8.45
   5   7   9  180.71    9.52
   5   7   9  183.53    8.88
   5   7  10   16.24    3.06
   5   7  10   17.98    3.28
   5  -7  11  371.14   15.77
   5   7  11  359.80   13.21
   5  -7  12   12.47    3.57
   5   7  12   17.62    3.02
   5  -7  13  122.83    7.62
   5   7  13  120.57    6.34
   5  -7  14   14.63    2.77
   5   7  14   14.00    2.22
   5  -7  15   39.62    2.87
   5   7  15   47.28    2.99
  -5   8  15    3.26    3.74
  -5  -8  15    0.71    0.84
  -5   8  14   30.54    5.80
  -5  -8  14    4.03    1.97
  -5   8  13   41.65    3.56
  -5   8  13   53.45    6.27
  -5   8  12   56.91    4.59
  -5  -8  12   50.79    5.56
  -5   8  11    1.67    2.34
  -5  -8  11    1.40    3.01
  -5   8  10   57.23    4.80
  -5  -8  10   59.32    6.43
  -5   8   9    7.40    3.10
  -5   8   9   -0.49    1.90
  -5  -8   9    0.43    2.93
  -5   8   8   45.43    3.93
  -5   8   8   40.19    4.20
  -5   8   7   24.12    2.82
  -5   8   7   25.95    3.38
  -5   8   6    2.53    1.92
  -5   8   6    3.24    2.42
  -5   8   5    4.25    1.80
  -5   8   5    2.72    1.89
   5   8  -4    9.53    2.17
  -5   8   4    6.21    1.87
  -5   8   4   10.56    2.58
   5  -8  -4    6.58    2.32
  -5   8   3  100.60    6.29
   5  -8  -3   90.81    6.32
   5   8  -3   94.35    5.69
  -5   8   3   88.56    5.07
  -5   8   2  147.35    7.45
   5  -8  -2  144.61    8.11
   5   8  -2  149.02    7.44
  -5   8   1   41.89    3.70
   5   8  -1   46.84    4.19
   5  -8  -1   45.55    4.59
   5   8   0    6.38    2.28
   5  -8   0    6.73    2.47
  -5   8   0    6.50    1.75
   5   8   1    5.78    2.18
   5  -8   1    5.34    2.35
   5  -8   2   53.38    4.50
   5   8   2   53.21    4.76
   5  -8   2   51.67    4.96
   5  -8   3  282.66   12.16
   5  -8   3  304.31   11.95
   5   8   3  273.45   11.74
   5   8   4    9.42    2.74
   5  -8   4    8.70    2.68
   5   8   5  286.80   12.01
   5   8   5  282.58   12.18
   5  -8   5  285.32   12.58
   5   8   5  247.38    9.21
   5   8   6   44.92    4.74
   5  -8   6   52.46    5.55
   5   8   6   56.47    5.52
   5   8   6   48.38    3.88
   5   8   7  126.75    7.81
   5   8   7  125.26    6.65
   5  -8   7  140.68    9.15
   5   8   7  130.03    8.23
   5   8   8    2.55    1.90
   5   8   8    2.95    2.11
   5  -8   8    2.56    2.99
   5   8   8    3.42    2.67
   5   8   9   23.14    3.26
   5  -8   9   28.61    4.84
   5   8   9   29.06    3.55
   5   8   9   27.73    4.09
   5   8  10   17.53    2.70
   5   8  10   25.84    3.35
   5   8  10   21.50    3.57
   5   8  11   38.67    3.86
   5   8  12   17.16    2.72
   5  -8  12   18.12    3.81
   5   8  13    4.87    1.75
   5  -8  13    7.00    2.66
   5   8  14   -0.59    1.36
   5  -8  14    1.87    1.66
  -5   9  14    3.03    3.63
  -5  -9  14    5.46    1.64
  -5  -9  13   76.85    5.45
  -5   9  13   75.65    4.21
  -5   9  13   88.81    6.36
  -5   9  12   28.32    2.85
  -5   9  12   47.07    5.38
  -5   9  11  300.75   10.81
  -5  -9  11  279.07   12.69
  -5   9  10   18.50    2.68
  -5  -9  10   15.85    4.25
  -5   9   9  419.21   13.05
  -5   9   9  449.07   14.65
  -5  -9   8  188.49   10.96
  -5   9   8  173.88    8.32
  -5  -9   7  245.07   12.48
  -5   9   7  234.91    9.80
  -5   9   6   86.18    6.73
  -5   9   6   87.99    5.67
  -5   9   5    0.81    1.50
  -5   9   5    1.71    2.04
  -5   9   4  140.20    8.15
  -5   9   4  126.57    6.44
   5   9  -4  129.02    6.67
   5  -9  -4  137.27    8.18
  -5   9   3  990.05   26.93
   5  -9  -3 1006.64   28.02
   5   9  -3  962.33   25.58
  -5   9   2  218.01    9.66
   5  -9  -2  223.14   10.85
   5   9  -2  204.56    9.30
  -5   9   1  672.48   19.61
   5  -9  -1  712.45   22.16
   5   9  -1  684.66   20.42
  -5   9   0   78.64    5.04
   5   9   0   79.23    5.86
   5  -9   1  622.88   20.99
   5   9   1  666.12   20.30
   5   9   2    5.99    2.47
   5  -9   2   10.59    3.12
   5  -9   2    9.91    2.33
   5  -9   3  354.33   14.51
   5  -9   3  353.09   13.51
   5   9   3  356.98   14.08
   5   9   3  358.77   14.21
   5   9   4  165.11    9.23
   5   9   4  159.76    9.10
   5  -9   4  162.47    9.00
   5  -9   5  318.25   13.65
   5   9   5  316.97   13.38
   5   9   6   11.39    3.16
   5  -9   6   13.73    3.51
   5   9   6   15.81    3.63
   5   9   7    6.05    1.84
   5   9   7    9.49    2.96
   5  -9   7    6.34    3.07
   5   9   7    6.70    3.05
   5   9   8   43.24    4.63
   5  -9   8   49.61    5.87
   5   9   8   42.23    4.92
   5   9   8   38.87    3.61
   5   9   9  263.29   10.96
   5  -9   9  288.90   13.39
   5   9   9  277.50   12.12
   5   9   9  254.50    9.97
   5   9  10   79.93    5.14
   5  -9  10   96.67    7.46
   5   9  10   95.00    6.48
   5   9  10   81.72    5.10
   5   9  11  187.34    7.69
   5   9  12    0.99    1.31
   5  -9  13  149.04    7.06
   5   9  13  119.92    5.00
   5  -9  14    2.68    1.27
  -5 -10  14    0.73    0.80
  -5  10  13   -4.13    3.01
  -5 -10  13    6.15    1.99
  -5 -10  12   65.11    5.35
  -5  10  12   64.23    4.94
  -5  10  11   13.14    3.19
  -5  10  10   48.23    4.19
  -5  10   9    7.92    2.24
  -5 -10   9    9.51    3.47
  -5  10   8    5.31    2.07
  -5 -10   8    6.16    3.31
  -5 -10   7   76.02    6.96
  -5  10   7   60.89    4.58
  -5  10   6  252.12   11.79
  -5 -10   6  237.68   12.06
  -5  10   6  231.15    9.31
  -5  10   5   11.83    2.23
  -5  10   5   10.40    3.12
  -5 -10   5   12.84    3.34
  -5  10   4  140.56    8.31
  -5  10   3   86.85    6.36
   5 -10  -3   88.33    7.02
   5  10  -3   83.90    5.58
  -5  10   2   76.85    5.73
   5 -10  -2   74.84    6.54
   5  10  -2   83.16    5.80
   5 -10  -1   47.82    5.36
  -5  10   1   45.45    4.22
   5  10  -1   51.96    4.77
   5  10   0  257.41   11.23
  -5  10   0  243.29    9.80
   5  10   1   23.76    3.94
   5  10   1   24.86    3.82
   5 -10   2   68.31    6.35
   5  10   2   64.40    5.73
   5  10   3  178.13    9.89
   5 -10   3  159.66    8.46
   5  10   3  170.29    9.47
   5 -10   4   12.90    3.04
   5  10   4   10.97    3.44
   5  10   4   13.31    3.41
   5 -10   5  159.65    9.17
   5  10   5  169.82    9.63
   5 -10   6  419.48   16.33
   5  10   6  430.98   16.10
   5  10   7  245.48   11.38
   5 -10   7  243.98   12.04
   5  10   7  253.07   12.03
   5  10   8   29.82    3.84
   5  10   8   39.07    4.78
   5 -10   8   34.32    4.76
   5  10   9   10.06    1.88
   5 -10   9   10.01    3.28
   5  10   9   13.11    3.17
   5  10   9   13.31    2.70
   5  10  10   15.27    2.03
   5  10  10   18.24    2.49
   5 -10  10   20.42    3.65
   5  10  11    1.15    1.38
   5 -10  11    5.31    2.58
   5  10  12    6.96    1.21
   5 -10  12   16.61    2.79
  -5 -11  13    2.41    1.11
   5 -11 -12   34.39    2.04
  -5  11  11   47.73    3.46
  -5 -11  10    0.94    2.39
  -5 -11   9  160.79    9.07
  -5  11   9  126.94    5.91
  -5  11   8    4.90    1.62
  -5 -11   8    9.02    3.32
   5  11  -7   47.86    3.80
  -5  11   7   45.45    3.49
   5  11  -6   44.93    4.15
  -5 -11   6   50.80    5.55
  -5  11   5   72.01    6.07
   5  11  -5   76.25    5.71
  -5 -11   5   78.79    6.57
  -5  11   4  314.09   13.16
   5  11  -4  324.16   13.03
  -5 -11   4  330.85   13.69
  -5  11   3  304.53   12.53
  -5 -11   3  302.01   12.69
   5  11  -3  315.37   12.97
   5  11  -3  286.82   10.93
  -5  11   2  369.67   13.77
   5  11  -2  387.97   14.97
   5 -11  -2  393.98   15.75
  -5 -11   2  363.55   13.86
   5  11  -2  373.88   13.38
  -5  11   1  113.18    6.73
   5  11  -1  126.94    8.22
   5 -11  -1  124.69    8.63
  -5 -11   1  116.73    6.93
   5  11  -1  119.70    7.22
  -5  11   0  219.66    9.27
   5  11   0  230.15   10.71
   5  11   0  250.88   11.73
   5  11   1  166.73    9.60
   5  11   1  154.17    8.80
   5  11   2    3.34    2.34
   5 -11   3   73.77    5.31
   5  11   3   85.17    6.78
   5  11   4   17.73    3.76
   5 -11   4   19.89    3.26
   5  11   4   19.20    3.91
   5  11   5  166.27    9.42
   5 -11   5  159.65    8.70
   5  11   5  157.96    9.36
   5  11   6   31.37    4.30
   5 -11   6   25.37    4.00
   5  11   7   18.45    3.46
   5 -11   7   18.98    3.55
   5  11   8    3.19    2.10
   5 -11   8    2.10    2.24
   5  11   8    4.68    2.66
   5  11   9   90.45    5.50
   5 -11   9   88.59    6.31
   5  11  10   34.07    2.90
   5 -11  10   42.20    4.16
   5 -11  11   37.27    3.58
   5 -11  12    0.47    1.15
  -5 -12  12   12.46    1.60
  -5 -12  11    2.04    1.58
  -5 -12  10   19.26    2.98
  -5 -12   9    6.49    2.42
  -5 -12   8   99.48    6.75
  -5 -12   7    1.09    1.32
  -5 -12   7    0.64    2.17
   5  12  -6  152.96    7.00
  -5 -12   6  173.73    9.13
   5  12  -5   18.84    2.90
  -5 -12   5   19.60    3.60
  -5 -12   4   32.75    4.13
   5  12  -4   32.13    3.83
   5  12  -3    3.01    2.22
  -5 -12   3    2.68    2.05
   5  12  -2  108.96    6.14
   5  12  -2  109.53    7.23
  -5 -12   2  105.25    6.35
   5  12  -1    1.75    2.32
   5  12  -1    0.55    1.66
   5  12   0   28.90    3.76
   5  12   0   24.19    4.15
   5  12   1   15.79    3.58
   5  12   1   18.23    3.35
   5  12   2   21.45    3.93
   5  12   2   20.59    3.49
   5  12   3   76.28    6.20
   5  12   4   74.68    6.34
   5  12   4   71.26    6.07
   5 -12   5   56.03    4.59
   5  12   5   70.42    5.87
   5  12   5   69.27    5.88
   5  12   6   87.67    6.31
   5 -12   6   75.93    5.41
   5  12   6   77.85    6.16
   5  12   7   15.53    2.89
  -5 -12  -7   11.20    2.05
   5 -12   7   12.87    2.72
   5 -12   8    1.71    1.76
   5  12   8    2.41    1.79
   5  12   9    7.90    1.80
   5 -12   9    7.12    2.13
   5 -12  10    1.06    1.43
   5 -12  11    1.76    1.03
  -5 -13  10   22.13    2.26
  -5 -13   9   91.94    5.05
  -5 -13   8   34.39    3.44
  -5 -13   7   38.36    3.83
  -5 -13   6   25.44    2.97
  -5 -13   6   30.34    3.50
   5  13  -5   24.33    2.71
  -5 -13   5   32.82    3.57
  -5 -13   5   25.73    3.47
   5  13  -4   44.38    3.92
  -5 -13   4   46.27    4.04
   5  13  -3   22.66    3.23
  -5 -13   3   17.74    2.56
   5  13  -2   32.67    3.92
   5  13  -1  235.68   10.54
   5  13  -1  227.38    8.99
   5  13   0    6.65    2.81
   5  13   0    6.92    2.10
   5  13   1    2.73    2.36
   5  13   1    2.67    1.89
   5  13   2   13.59    3.23
   5  13   2   12.27    2.86
   5  13   3   44.78    4.49
   5  13   4    5.75    2.46
   5  13   5  119.07    7.06
   5  13   5  115.25    6.87
   5  13   6    1.87    1.96
  -5 -13  -6    1.19    1.30
   5  13   6    3.15    2.23
   5  13   7   45.97    3.83
   5 -13   7   30.55    2.66
   5 -13   8    2.50    1.08
   5  13   8    1.01    1.33
   5  13   9    1.57    0.87
   5 -13   9    0.51    0.70
  -5 -14   7    1.30    0.93
  -5 -14   6    2.08    1.01
  -5 -14   6    1.69    1.04
  -5 -14   5    1.46    1.40
   5  14  -4    2.20    1.10
  -5 -14   4    3.68    1.85
   5  14  -3    6.78    1.72
  -5 -14   3    5.62    2.21
   5  14  -2   40.34    3.64
   5  14  -1   10.92    2.42
   5  14   0    4.50    2.17
   5  14   1    0.38    1.90
   5  14   1    0.76    1.31
   5  14   2   11.92    2.67
   5  14   2   10.15    2.16
   5  14   3    6.38    2.28
  -5 -14  -3    7.65    2.34
   5  14   3    8.01    2.07
  -5 -14  -4   32.62    3.36
   5  14   5    4.06    1.89
  -5 -14  -5    3.05    1.34
   5  14   6   33.53    3.06
  -5 -14  -6   19.18    1.73
   5  14   7    0.28    1.08
   5  14   8   25.94    1.83
  -5 -15   4    1.44    1.03
  -5 -15   3   36.78    3.18
   5  15  -2   31.77    2.41
  -5 -15   2   37.97    3.43
   5  15  -1   35.33    2.84
  -5 -15   1   39.32    3.64
   5  15   0    6.56    1.68
   5  15   1   13.86    2.19
  -5 -15  -1   15.14    2.44
   5  15   2   16.14    2.26
  -5 -15  -2   16.88    2.48
  -5 -15  -3   22.01    2.47
   5  15   3   20.61    2.41
  -5 -15  -4    3.75    1.12
   5  15   6   12.36    1.38
  -5 -16   1    5.87    1.14
  -5 -16  -1    0.69    0.73
  -6   0  17   -4.90    3.87
  -6   0  16  247.73   10.41
  -6   0  15    7.65    4.82
  -6   0  15   33.34    8.71
  -6   0  14  177.23   10.26
  -6   0  14  371.36   11.91
  -6   0  13  133.03    7.77
  -6   0  13   99.89    7.04
  -6   0  12   76.12    6.16
  -6   0  12   83.18    5.87
  -6   0  11   24.12    4.17
  -6   0  11   41.81    4.34
  -6   0  10  560.37   17.29
  -6   0  10  508.06   15.81
  -6   0   9   11.56    2.86
  -6   0   9    2.95    2.53
  -6   0   8  908.67   23.38
  -6   0   8  862.20   22.10
  -6   0   7    2.25    1.85
  -6   0   7   -0.17    0.86
  -6   0   6 6884.54  141.84
  -6   0   5    0.66    1.25
  -6   0   4 1108.15   29.81
  -6   0   3    0.95    1.39
  -6   0   2  151.50    8.31
  -6   0   1    1.60    1.87
  -6   0   0 1224.06   28.89
  -6   0  -1    0.93    1.42
  -6   0  -2  192.45    8.98
   6   0   3   12.34    3.50
  -6   0  -3   11.83    2.80
  -6   0  -4 2819.94   66.08
   6   0   4 2937.07   68.41
  -6   0  -5    3.22    2.15
   6   0   5    1.74    1.83
  -6   0  -5    5.40    2.47
   6   0   6 2266.03   49.33
   6   0   6 2253.23   50.82
  -6   0  -6 2263.08   57.79
   6   0   7    2.41    1.88
   6   0   7    3.32    1.73
   6   0   8  511.16   15.95
   6   0   8  499.51   16.91
   6   0   9    0.14    1.72
   6   0   9    0.97    1.78
   6   0  10  122.08    7.68
   6   0  10  134.93    7.63
   6   0  11   -0.30    2.05
   6   0  11   -0.50    2.01
   6   0  12  147.16    8.06
   6   0  12  170.59    8.64
   6   0  13   -0.28    1.86
   6   0  14  336.42   11.84
   6   0  15   -0.63    1.36
   6   0  16  164.50    5.59
  -6   1  17   28.54    4.75
  -6   1  16   39.84    7.24
  -6  -1  16   33.67    6.30
  -6   1  15   30.37    6.35
  -6  -1  15   48.90    8.36
  -6  -1  14   17.88    5.22
  -6   1  14   26.06    7.18
  -6   1  13  150.22    8.39
  -6   1  13  159.28    8.07
  -6   1  12  189.44    9.65
  -6  -1  12  164.37    9.04
  -6  -1  11  197.98    9.20
  -6   1  11  142.94    8.35
  -6  -1  11  180.49    7.99
  -6   1  11  154.02    8.17
  -6  -1  10  171.43    8.43
  -6  -1  10  162.10    7.44
  -6  -1   9   28.14    3.91
  -6  -1   9   28.34    3.21
  -6  -1   8  230.61    9.20
  -6   1   8  221.74    8.83
  -6  -1   8  220.57    8.23
  -6  -1   7  166.46    7.20
  -6   1   7  164.26    7.03
  -6   1   7  157.06    9.39
   6  -1  -6   76.51    2.80
  -6  -1   6  107.89    6.34
  -6   1   6  118.68    7.77
   6  -1  -6   73.03    2.74
  -6  -1   5   45.30    4.18
  -6   1   5   38.22    4.38
   6  -1  -5   34.58    2.03
  -6  -1   4   76.45    5.52
  -6   1   4   72.37    6.00
   6  -1  -4   70.91    3.40
   6  -1  -3  121.01    5.01
  -6  -1   3  119.10    7.14
  -6   1   3  120.56    7.58
  -6  -1   2  991.64   27.41
  -6   1   2 1032.34   28.28
   6  -1  -2 1014.21   23.83
  -6   1   1  681.35   21.29
  -6  -1   1  691.11   16.46
   6  -1  -1  685.21   18.28
  -6   1   0   15.96    2.45
   6  -1   0   16.98    2.49
  -6  -1   0   13.67    2.03
  -6  -1  -1  747.68   20.23
  -6   1  -1  750.55   22.95
  -6   1  -1  748.79   21.10
  -6   1  -2  129.98    7.55
  -6  -1  -2  135.46    7.31
   6   1   3  637.87   21.43
   6  -1   3  675.39   23.67
  -6   1  -3  644.98   20.76
  -6  -1  -3  651.97   20.46
  -6  -1  -4  400.25   17.16
   6   1   4  390.57   15.86
   6  -1   4  391.16   17.64
  -6   1  -4  399.94   15.94
  -6  -1  -4  375.85   15.44
  -6   1  -5  433.40   17.68
   6  -1   5  438.76   19.40
   6   1   5  433.12   17.23
  -6  -1  -5  442.07   17.80
  -6  -1  -5  439.99   18.74
   6  -1   6   36.14    4.07
  -6   1  -6   30.47    4.93
   6   1   7    1.09    1.57
   6  -1   7    2.23    1.92
   6  -1   7    2.13    1.52
   6   1   7    2.34    1.68
   6   1   8   68.43    5.25
   6  -1   8   71.19    5.22
   6   1   8   64.39    5.31
   6  -1   8   64.89    5.65
   6   1   9   49.81    4.65
   6  -1   9   55.39    5.32
   6   1   9   51.24    4.63
   6  -1   9   50.03    4.47
   6   1  10  116.29    7.15
   6  -1  10  117.33    7.83
   6   1  10  132.51    7.71
   6  -1  10  121.56    7.25
   6   1  11   11.11    2.61
   6   1  11   15.17    3.18
   6  -1  11   12.97    2.74
   6  -1  11   13.05    3.25
   6  -1  12   65.15    5.68
   6   1  12   77.64    5.88
   6  -1  12   76.67    5.63
   6   1  13    8.22    2.74
   6  -1  13    5.81    2.18
   6  -1  13    6.09    2.14
   6  -1  14   55.07    4.23
   6   1  14   62.02    4.77
   6  -1  15    7.47    1.61
   6   1  15   10.02    2.13
   6   1  16    8.07    1.49
  -6   2  17   34.24    4.67
  -6   2  16  179.11    9.14
  -6   2  16  142.15    7.18
  -6   2  15   46.79    7.49
  -6  -2  15   47.08    7.58
  -6   2  14  469.41   14.98
  -6   2  14  446.89   14.56
  -6  -2  13   72.61    9.76
  -6   2  13   83.96    6.66
  -6  -2  12  112.68    9.05
  -6   2  12   85.91    6.44
  -6  -2  11   23.63    4.77
  -6   2  11   33.86    4.60
  -6  -2  10  530.32   16.06
  -6  -2  10  492.14   14.88
  -6   2  10  492.14   16.04
  -6  -2   9   64.04    4.73
  -6   2   9   62.41    5.03
  -6   2   9   55.71    5.06
  -6  -2   8  936.75   24.09
  -6   2   8  992.33   25.44
  -6  -2   8  975.52   23.48
  -6   2   8  963.70   24.66
  -6  -2   7   65.37    4.39
  -6   2   7   51.77    4.22
  -6   2   7   56.29    4.20
  -6   2   7   58.44    6.08
  -6   2   6 1265.63   28.65
   6  -2  -6 1133.12   27.98
  -6  -2   6 1214.60   29.46
  -6   2   6 1163.12   27.98
  -6   2   6 1268.99   34.53
  -6   2   5  215.09   11.38
   6  -2  -5  207.71    8.00
  -6  -2   5  211.81    9.15
   6  -2  -4 2091.73   45.61
  -6   2   4 2098.50   51.28
  -6  -2   4 2083.23   47.98
   6  -2  -3 1374.20   32.04
  -6  -2   3 1376.96   34.53
  -6   2   3 1394.40   36.76
  -6   2   2 2850.14   65.22
   6  -2  -2 2850.66   61.01
  -6   2   1   58.20    5.46
  -6  -2   1   57.53    2.93
   6  -2  -1   58.33    4.42
   6  -2   0  426.70   14.28
  -6  -2   0  414.27   12.27
  -6   2  -1    1.77    1.49
  -6   2  -1    1.26    1.66
  -6  -2  -1    0.78    1.25
   6  -2   1    0.90    1.51
   6  -2   2 2608.01   64.92
  -6   2  -2 2631.72   61.37
   6  -2   2 2723.85   61.07
  -6  -2  -2 2624.90   58.99
  -6   2  -2 2692.34   60.64
   6  -2   3  519.64   20.98
  -6  -2  -3  491.92   17.20
  -6   2  -3  525.22   18.36
  -6   2  -3  505.03   18.30
   6   2   4 2281.88   53.24
  -6   2  -4 2205.32   54.47
  -6   2  -4 2211.15   55.19
  -6  -2  -4 2241.94   54.43
   6  -2   4 2400.86   60.17
  -6  -2  -4 2354.39   58.05
   6  -2   5  278.39   15.68
  -6   2  -5  263.54   13.56
  -6  -2  -5  265.33   13.32
  -6   2  -5  270.58   12.89
  -6  -2  -5  275.65   14.80
   6   2   6 3163.93   67.34
  -6   2  -6 3135.97   73.10
   6  -2   6 3178.89   66.99
   6  -2   6 3248.21   69.54
   6  -2   7    4.96    1.75
   6   2   7    5.25    1.91
   6  -2   7    2.81    2.01
   6  -2   8 1183.94   29.17
   6   2   8 1158.99   29.89
   6  -2   8 1177.18   31.65
   6   2   9    7.25    2.59
   6  -2   9    8.77    2.28
   6  -2   9   10.01    3.06
   6   2   9    6.34    2.15
   6  -2  10  282.99   12.99
   6   2  10  295.04   12.14
   6  -2  10  293.70   11.48
   6   2  11   23.10    3.78
   6  -2  11   20.23    3.16
   6  -2  11   14.08    3.46
   6  -2  12  303.26   13.14
   6   2  12  324.59   12.68
   6  -2  12  301.51   11.50
   6  -2  13   15.44    2.53
   6   2  13   22.39    3.56
   6  -2  13   15.09    3.08
   6  -2  14  281.99   10.70
   6  -2  14  295.86   10.03
   6   2  15   14.03    2.41
   6   2  16   15.90    1.92
  -6   3  17   26.94    4.28
  -6   3  16   20.31    5.38
  -6   3  16   28.04    7.00
  -6   3  15   37.96    7.49
  -6  -3  15  -12.83    5.81
  -6   3  14  153.89    7.73
  -6  -3  14   18.59    7.32
  -6  -3  13   45.02    8.25
  -6  -3  13    3.19    1.82
  -6  -3  12   37.34    7.98
  -6   3  12   64.13    5.79
  -6   3  11  166.97    9.07
  -6  -3  11  160.05    8.89
  -6  -3  11  215.35   10.67
  -6   3  11  196.42    9.40
  -6   3  10   10.91    3.05
  -6   3  10   23.80    3.79
  -6   3   9   10.10    2.85
  -6   3   9    3.98    2.57
  -6   3   8   17.76    3.06
  -6   3   8   14.38    2.85
  -6   3   7  112.80    6.15
  -6   3   7  104.63    5.98
  -6  -3   7  107.50    5.84
  -6  -3   6   86.78    4.98
  -6   3   6   88.05    5.12
  -6  -3   5  880.47   22.89
   6  -3  -5  865.87   23.68
  -6   3   5  872.00   28.16
  -6  -3   5  854.88   23.23
  -6  -3   4  104.15    6.19
   6  -3  -4   99.12    6.08
  -6   3   4  107.76    8.19
   6  -3  -3   88.46    5.74
  -6   3   3   81.13    6.90
   6  -3  -2  158.94    7.98
  -6   3   2  153.02    9.37
   6  -3  -1   82.50    5.75
  -6  -3   1   76.27    3.56
  -6  -3   0   15.45    3.32
  -6  -3   0   11.12    1.77
  -6   3   0   11.92    2.91
   6  -3   0   15.01    2.78
  -6   3  -1   61.00    5.79
  -6  -3  -1   65.60    4.67
   6  -3   1   63.32    5.49
  -6  -3  -1   72.84    6.60
   6  -3   2   73.93    6.30
   6  -3   2   78.62    7.79
  -6   3  -2   72.37    6.25
  -6   3  -2   56.73    5.49
  -6  -3  -2   66.66    5.32
  -6  -3  -2   71.30    6.72
  -6   3  -3    3.60    2.04
   6   3   3    3.31    1.52
   6  -3   3    4.25    2.56
  -6   3  -3    2.70    1.86
   6  -3   3    4.52    2.27
  -6  -3  -3    5.00    2.08
   6  -3   4  329.35   17.46
  -6   3  -4  328.01   14.28
   6   3   4  321.06   11.96
  -6  -3  -4  326.74   14.44
  -6  -3  -4  313.84   15.95
  -6   3  -4  330.00   15.07
  -6   3  -5    9.75    2.67
   6   3   5   10.87    2.04
   6   3   6  480.22   14.73
   6  -3   6  490.75   14.42
   6  -3   6  492.42   16.50
  -6   3  -6  455.43   18.07
   6   3   6  488.64   14.64
   6   3   7  422.13   13.96
   6  -3   7  427.24   13.42
   6   3   7  424.22   13.97
   6  -3   7  425.59   15.57
   6   3   7  421.45   13.45
   6  -3   8  237.64    9.42
   6   3   8  218.75    9.04
   6  -3   8  227.68   11.29
   6   3   8  229.36   10.07
   6  -3   9  152.66    9.30
   6  -3   9  150.28    7.48
   6  -3  10  363.23   15.32
   6  -3  10  369.36   12.88
   6  -3  11   51.29    5.62
   6  -3  11   53.71    4.38
   6  -3  12   11.85    3.28
   6  -3  12   14.26    2.51
   6   3  12   13.81    3.22
   6  -3  13   10.92    2.02
   6  -3  13   11.30    3.01
   6   3  13   13.05    3.12
   6   3  14   36.34    3.93
   6  -3  14   24.96    3.34
   6   3  15    8.28    2.10
   6   3  16   34.31    2.59
  -6   4  16   62.60    5.78
  -6   4  15   24.69    7.21
  -6   4  14  336.19   11.22
  -6   4  14  398.69   12.12
  -6  -4  13   96.05    8.37
  -6  -4  13  111.80    7.05
  -6  -4  12  210.37   10.56
  -6   4  12  244.67   10.90
  -6  -4  12  217.23   11.07
  -6  -4  11   88.21    8.09
  -6   4  11   64.41    5.94
  -6   4  11   97.35    7.11
  -6  -4  11   63.24    5.84
  -6   4  10  209.05    9.94
  -6   4  10  203.31    9.75
  -6  -4  10  219.36   10.22
  -6  -4   9   58.17    5.69
  -6   4   9   21.54    3.42
  -6  -4   8  358.55   12.27
  -6   4   8  385.44   13.18
   6   4  -7    9.98    1.96
  -6  -4   7   12.28    2.87
  -6   4   7   10.08    2.39
  -6  -4   6  722.68   18.95
  -6   4   6  740.18   19.45
  -6   4   6  694.62   19.20
   6   4  -6  743.25   19.45
  -6   4   5   27.91    2.96
   6  -4  -5   27.61    3.64
  -6  -4   4 2131.09   48.87
   6  -4  -4 2156.91   51.00
  -6  -4   4 2186.25   49.79
   6  -4  -3  836.51   24.45
  -6   4   3  819.28   27.27
  -6  -4   3  825.96   24.40
   6  -4  -2  438.76   16.23
  -6  -4   2  484.55   17.35
   6  -4  -1   87.58    6.48
  -6   4   1   81.03    7.04
  -6  -4   1   88.39    4.22
  -6  -4   1   94.51    7.21
  -6   4   0  851.04   27.42
  -6  -4   0  886.09   22.79
   6  -4   0  891.91   26.56
   6  -4   1  128.96   10.19
  -6   4  -1  143.75    9.16
   6  -4   1  150.26    9.12
  -6  -4  -1  149.13    9.93
  -6   4  -2  521.65   19.38
   6  -4   2  506.01   19.22
  -6  -4  -2  541.35   21.02
  -6  -4  -3    3.86    2.32
   6   4   3    2.99    1.24
  -6   4  -3    2.58    1.75
  -6   4  -3    4.69    2.20
   6  -4   4  185.85    8.64
  -6   4  -4  169.12   10.12
  -6  -4  -4  166.92   10.28
   6   4   5    2.68    1.58
  -6   4  -5    3.51    1.88
   6   4   5    3.46    1.56
   6  -4   5    5.15    2.33
   6   4   6 1279.27   30.91
   6  -4   6 1287.44   30.23
  -6  -4  -6 1247.32   30.79
   6   4   6 1305.68   31.42
   6  -4   7  266.33    9.75
   6   4   7  265.10   10.52
   6  -4   7  267.17   12.09
   6   4   7  261.61   10.46
   6  -4   8  626.24   17.76
   6  -4   8  633.37   21.17
   6   4   8  627.22   18.68
   6   4   8  643.73   19.24
   6   4   9    5.54    2.42
   6  -4   9    2.96    1.56
   6  -4   9    5.25    3.00
   6   4   9    4.81    1.84
   6  -4  10  117.57    8.37
   6   4  10  111.06    7.22
   6  -4  10  118.28    6.23
   6  -4  11   88.38    7.34
   6   4  11   87.66    6.43
   6  -4  11   84.13    5.05
   6  -4  12  268.44   12.54
   6  -4  13   35.35    4.37
   6  -4  14  294.06   11.28
   6  -4  15   51.83    3.46
   6   4  15   73.08    4.41
   6   4  16   22.94    2.06
  -6   5  16    8.28    4.57
  -6   5  16   37.28    5.38
  -6   5  15   32.87    7.30
  -6   5  15  160.49    6.64
  -6  -5  14   24.70    3.10
  -6   5  14   66.78    8.41
  -6   5  13  118.44    7.06
  -6  -5  13   71.26    5.88
  -6   5  12   32.55    4.44
  -6  -5  12   26.49    4.06
  -6  -5  11   21.38    3.92
  -6   5  11   21.17    3.73
  -6   5  10    3.11    2.71
  -6  -5  10    2.52    2.71
  -6  -5   9   -7.88    4.89
  -6   5   9    4.74    2.62
  -6   5   8   71.05    5.28
  -6   5   8   72.55    5.54
  -6  -5   7   83.94    5.69
  -6   5   7   93.78    5.91
   6   5  -6    6.27    1.71
  -6   5   6    9.23    2.51
  -6   5   6    4.92    1.89
  -6   5   5   41.09    3.30
  -6   5   5   37.22    3.47
   6   5  -5   42.16    3.53
   6  -5  -4  117.49    8.17
  -6   5   4  117.23    5.82
   6  -5  -3  103.27    7.61
  -6  -5   3  117.54    7.43
   6  -5  -2   27.23    3.93
  -6  -5   2   17.74    1.38
  -6  -5   2   17.97    1.39
  -6  -5   2   25.25    3.71
  -6  -5   1   23.96    3.95
   6  -5  -1   24.43    3.88
   6  -5   0  802.55   29.29
   6  -5   0  802.30   25.88
  -6   5   0  804.22   26.85
  -6  -5   0  787.41   26.28
  -6   5  -1  672.94   23.88
  -6  -5  -1  702.37   24.80
   6  -5   1  679.45   23.71
  -6   5  -2  188.54   11.13
   6   5   2  190.01    8.23
  -6   5  -3   15.84    3.56
   6   5   3   16.51    2.72
   6  -5   3   18.05    3.02
  -6  -5  -3   16.85    2.85
   6   5   4   16.41    2.34
   6   5   4   17.53    2.76
   6  -5   4   17.67    3.10
  -6  -5  -4   17.83    2.86
   6   5   5    7.21    2.16
   6  -5   5    5.95    1.53
   6  -5   5    8.83    2.78
  -6  -5  -5    7.41    2.04
   6   5   5    7.41    1.86
   6   5   6  374.10   12.62
   6  -5   6  379.14   14.69
  -6  -5  -6  360.08   12.77
   6   5   6  360.93   13.23
   6   5   6  383.30   12.73
   6   5   7  275.80   11.25
   6   5   7  268.18   10.68
   6   5   8  138.21    7.70
   6   5   8  134.28    7.53
   6  -5   9   59.98    6.28
   6   5   9   62.44    5.13
   6   5   9   61.01    5.16
   6  -5  10   46.03    5.65
   6   5  10   37.61    3.88
   6   5  10   38.07    4.34
   6   5  11   27.53    3.97
   6  -5  11   25.05    4.49
   6  -5  12   18.06    4.18
   6   5  12   28.31    3.91
   6  -5  13   63.50    5.66
   6   5  13   74.55    5.42
   6  -5  14    9.30    2.50
   6  -5  15    2.88    1.28
  -6   6  16   27.64    3.87
  -6   6  16   62.46    4.27
  -6   6  15   80.00    6.43
  -6   6  15   83.24    7.08
  -6   6  14  237.45    8.31
  -6  -6  14  127.17    6.93
  -6   6  13   61.64    4.91
  -6  -6  13   11.54    3.01
  -6   6  12  198.64    9.17
  -6  -6  12  186.82   10.11
  -6   6  11   99.88    6.75
  -6  -6  11   97.64    7.67
  -6   6  10   93.98    6.59
  -6  -6  10  106.47    8.09
  -6   6   9   33.40    4.02
  -6   6   9   45.54    5.05
  -6   6   8  224.89    9.59
  -6   6   8  217.15    9.65
  -6   6   7   65.56    4.69
  -6   6   7   69.73    5.21
  -6   6   6  204.45    8.16
   6   6  -6  201.48    8.36
  -6   6   6  190.09    8.42
  -6   6   5   18.65    2.77
   6   6  -5   13.06    2.30
  -6   6   5   15.45    2.13
  -6   6   4  127.32    6.41
   6   6  -4  125.71    6.46
  -6   6   3    5.59    1.77
   6   6  -3    5.03    1.72
  -6  -6   3    6.31    2.21
   6   6  -2  255.60    9.94
  -6  -6   2  272.17   10.87
  -6   6   2  264.71    9.38
  -6  -6   1   46.55    4.35
   6   6  -1   47.32    3.95
   6   6   0  680.76   19.23
   6   6   1  163.98    7.86
  -6  -6  -1  165.70    8.29
   6  -6   2  384.93   13.30
  -6  -6  -2  400.15   13.96
   6   6   3    3.76    1.94
   6  -6   3    4.07    1.97
  -6  -6  -3    3.08    1.89
   6  -6   4  419.16   15.00
  -6  -6  -4  411.93   14.38
   6   6   4  412.17   14.37
   6   6   4  399.18   12.38
   6  -6   5  222.43   10.64
   6   6   5  218.12    9.86
   6   6   5  217.47    9.45
   6   6   5  207.34    8.51
   6   6   6  220.99    9.63
   6   6   6  216.53   10.14
   6  -6   6  215.93   10.98
   6   6   6  218.86    9.13
   6   6   7   48.63    4.32
   6  -6   7   55.49    5.79
   6   6   7   48.51    4.30
   6   6   8  381.17   13.14
   6   6   8  403.11   14.75
   6   6   8  380.46   13.73
   6   6   9   76.08    5.85
   6   6   9   75.51    5.71
   6  -6  10  102.94    8.22
   6   6  10  113.49    6.80
   6   6  10  108.06    6.92
   6  -6  11   53.83    6.07
   6   6  11   59.17    5.07
   6  -6  12  349.14   14.53
   6   6  12  350.90   12.76
   6   6  13   11.29    2.53
   6  -6  13   10.74    2.96
   6  -6  14   43.78    3.95
   6   6  14   44.29    3.60
   6  -6  15   13.62    1.77
   6   6  15   19.12    2.06
  -6   7  15   43.60    4.49
  -6   7  14   20.27    6.46
  -6  -7  14    1.84    1.71
  -6   7  13   89.13    5.13
  -6   7  13   79.42    7.73
  -6   7  12   31.88    3.95
  -6  -7  12   -0.18    2.44
  -6   7  11   73.77    5.60
  -6  -7  11   66.45    6.50
  -6   7  10    2.22    2.37
  -6  -7  10    1.67    3.08
  -6   7   9    5.66    2.47
  -6  -7   9    3.16    2.90
  -6   7   8    5.72    2.82
  -6   7   8    1.45    1.78
  -6   7   7    4.72    2.34
  -6   7   7    4.18    1.71
  -6   7   6   10.71    2.62
  -6   7   6   10.79    1.99
  -6   7   5    3.45    1.90
   6   7  -5    2.73    1.54
  -6   7   4    5.76    1.95
   6   7  -4    6.24    1.91
  -6   7   4    4.99    2.11
  -6   7   3  157.70    7.93
   6   7  -3  165.40    7.89
  -6   7   3  164.08    7.39
  -6   7   2   38.77    3.66
   6   7  -2   38.38    3.84
  -6   7   2   37.50    3.33
   6  -7  -1   37.74    3.20
   6   7  -1   40.92    4.00
   6  -7   0  134.23    6.02
   6   7   0  131.23    7.27
   6  -7   1   46.19    4.02
   6   7   1   52.84    4.66
   6  -7   2  231.35    9.85
   6   7   2  226.41   10.09
   6  -7   3   42.74    4.31
   6   7   4    3.42    2.14
   6   7   4    3.95    1.48
   6  -7   4    4.77    2.37
   6   7   5    0.65    1.81
   6   7   5    1.90    1.38
   6   7   5    2.12    1.82
   6  -7   5    3.58    2.35
   6   7   6   51.75    4.77
   6  -7   6   50.35    5.53
   6   7   6   51.94    5.09
   6   7   7   65.15    5.21
   6  -7   7   62.09    6.24
   6   7   7   57.51    5.42
   6   7   7   60.06    4.71
   6   7   8   59.34    4.89
   6  -7   8   68.35    6.62
   6   7   8   64.72    5.78
   6   7   8   65.04    5.06
   6   7   9   14.42    2.56
   6   7   9   13.72    2.86
   6   7   9   13.41    3.00
   6   7  10   79.53    5.90
   6   7  10   77.91    5.75
   6   7  11   13.77    2.88
   6  -7  11   15.00    4.01
   6   7  12   11.18    2.63
   6  -7  12   11.79    3.58
   6   7  13    2.09    1.65
   6  -7  13    2.82    2.18
   6  -7  14   28.53    3.12
   6   7  14   28.75    2.61
   6   7  15   13.83    1.51
  -6   8  15   10.00    3.06
  -6   8  14   28.75    5.04
  -6  -8  14   29.90    2.96
  -6   8  13   12.89    5.90
  -6  -8  13    2.56    2.18
  -6  -8  12  200.72   10.27
  -6   8  12  193.86    7.88
  -6   8  11   26.49    3.45
  -6  -8  11   16.80    4.12
  -6   8  10  249.59    9.81
  -6  -8  10  278.04   13.38
  -6   8   9  340.64   11.82
  -6   8   9  355.14   13.10
  -6   8   8  358.77   12.05
  -6   8   8  401.28   13.95
  -6   8   7   34.09    3.11
  -6   8   7   38.13    4.14
  -6   8   6    2.25    1.89
   6   8  -5   19.05    2.73
  -6   8   5   19.54    2.95
  -6   8   4  292.95   12.06
   6   8  -4  277.57   10.91
  -6   8   4  289.24   10.77
  -6   8   3   11.74    2.28
   6   8  -3   12.01    2.47
  -6   8   3   12.61    2.73
  -6   8   2 1143.42   29.21
   6  -8  -2 1142.98   27.58
   6   8  -2 1149.59   29.61
  -6   8   1  528.87   16.33
   6  -8  -1  554.23   15.45
   6   8  -1  561.88   17.62
   6   8   0  529.85   17.35
   6   8   1   68.08    5.50
   6  -8   2  376.36   13.55
   6   8   2  366.59   14.03
   6  -8   3   19.51    3.26
   6   8   4  347.01   13.81
   6  -8   4  363.23   14.27
   6   8   5    3.90    1.49
   6   8   5    4.17    2.24
   6  -8   5    2.42    2.44
   6   8   5    3.70    2.51
   6  -8   6   37.82    4.95
   6   8   6   41.10    4.89
   6   8   6   33.14    4.14
   6   8   6   31.64    3.25
   6   8   7    8.73    2.57
   6   8   7    8.74    2.07
   6  -8   7    6.84    3.14
   6   8   7    8.37    2.99
   6   8   8   66.34    5.28
   6  -8   8   79.01    7.20
   6   8   8   63.77    5.89
   6   8   8   62.48    4.79
   6   8   9   67.53    4.94
   6  -8   9   74.49    6.92
   6   8   9   76.34    6.06
   6   8   9   68.03    5.02
   6   8  10  330.26   12.64
   6   8  10  303.66   11.41
   6   8  11   31.68    3.42
   6  -8  12  197.17    9.66
   6   8  12  193.85    7.84
   6  -8  13   21.03    3.12
   6   8  13   17.57    2.18
   6  -8  14   41.05    3.16
   6   8  14   36.71    2.43
  -6  -9  14    1.66    1.07
  -6   9  13   -6.18    4.34
  -6  -9  13    1.71    1.71
  -6   9  12    6.95    4.18
  -6   9  12   13.61    2.73
  -6  -9  12    3.41    2.46
  -6   9  11   72.08    4.14
  -6  -9  11   80.60    6.68
  -6   9  10   16.21    3.35
  -6   9  10    7.32    1.86
  -6  -9  10    8.38    3.49
  -6   9   9    9.67    2.74
  -6   9   9    7.64    1.69
  -6   9   8   20.85    3.26
  -6  -9   8   29.39    4.80
  -6   9   7    3.19    2.01
  -6   9   6   22.62    3.15
  -6   9   5    7.01    2.06
   6   9  -4    2.50    1.70
  -6   9   4    0.12    1.43
  -6   9   3  158.66    8.49
   6  -9  -3  153.83    7.06
   6   9  -2    9.60    2.65
  -6   9   2    6.08    2.16
   6   9  -1   37.24    4.31
   6   9   0   18.84    3.21
   6   9   1   13.53    3.20
   6   9   2   14.01    3.13
   6  -9   2   13.01    2.60
   6   9   3   27.23    4.08
   6   9   3   24.50    3.89
   6  -9   3   32.79    3.95
   6   9   4  350.74   14.43
   6  -9   4  361.99   14.30
   6   9   5   20.61    3.85
   6  -9   5   19.38    3.71
   6   9   5   23.40    4.19
   6   9   6  206.77   10.33
   6  -9   6  193.53   10.70
   6   9   6  212.94   10.85
   6   9   7   37.27    4.27
   6  -9   7   41.47    5.20
   6   9   7   42.31    5.05
   6   9   7   34.02    3.25
   6   9   8    6.75    1.91
   6   9   8    6.79    2.48
   6  -9   8    8.65    3.54
   6   9   8    8.77    3.05
   6   9   9   19.31    2.84
   6  -9   9   20.93    4.23
   6   9   9   21.70    2.75
   6   9   9   18.26    3.50
   6   9  10    3.21    1.41
   6   9  10    5.40    1.79
   6  -9  10    4.66    3.02
   6   9  10    3.86    2.09
   6   9  11    7.55    1.77
   6  -9  11    9.28    3.07
   6   9  12    3.27    1.27
   6   9  13    0.13    0.93
   6  -9  13    3.41    1.72
  -6 -10  13    2.22    1.39
  -6  10  12   39.76    4.16
  -6 -10  12   70.60    5.07
  -6  10  11   -4.05    3.17
  -6 -10  11    3.62    2.61
  -6  10  10   53.69    4.23
  -6  10   9   81.15    5.31
  -6 -10   9   89.35    7.20
  -6 -10   8   39.92    5.27
  -6  10   8   34.74    3.64
  -6  10   7    2.96    1.89
  -6 -10   7    9.74    3.40
  -6 -10   6  229.73   11.69
  -6  10   6  211.32    8.94
  -6  10   5    2.47    1.53
   6  10  -4   90.59    5.69
   6 -10  -4  100.02    5.44
   6  10  -3   41.94    4.18
   6  10  -2  254.99   10.95
   6  10  -1  694.45   21.19
   6  10   0  470.86   16.77
   6  10   1   32.14    4.18
   6  10   2   35.94    4.82
   6  10   2   42.33    4.93
   6  10   3   34.02    4.74
   6 -10   3   30.51    3.76
   6  10   3   30.59    4.36
   6  10   4  140.39    8.73
   6 -10   4  133.72    8.04
   6  10   4  148.29    9.02
   6 -10   5   82.21    6.44
   6  10   5   72.73    6.35
   6 -10   6  197.98   10.56
   6  10   6  221.68   11.04
   6  10   6  218.55   10.61
   6  10   7   64.71    5.53
   6 -10   7   64.25    6.04
   6  10   7   70.31    6.17
   6  10   8   54.91    4.75
   6 -10   8   55.98    5.56
   6  10   8   59.34    5.53
   6  10   9   45.88    3.90
   6 -10   9   50.45    5.22
   6  10   9   53.13    4.87
   6  10  10   88.67    4.49
   6 -10  10  106.35    6.87
   6 -10  11    3.42    2.18
   6 -10  12   77.57    4.81
  -6 -11  12   57.97    3.92
   6 -11 -11   13.80    1.54
  -6 -11  10    8.74    2.84
  -6 -11   9    5.80    2.86
  -6 -11   8    4.55    2.87
   6  11  -7  235.80    9.38
   6 -11  -7  241.28    8.69
   6  11  -6    2.84    1.84
   6 -11  -6    1.96    1.29
  -6 -11   6    3.33    2.74
  -6 -11   5  109.83    7.67
  -6 -11   4   97.76    7.17
   6  11  -3   16.24    2.61
   6  11  -2  305.96   12.00
   6  11  -1    9.93    3.21
   6  11  -1    9.14    2.69
   6  11   0   69.31    6.24
   6  11   0   68.16    5.74
   6  11   1   95.99    7.30
   6  11   1  102.37    7.11
   6  11   2   16.08    3.30
   6  11   3   17.34    3.75
   6  11   3   18.57    3.77
   6  11   4    1.82    2.62
   6 -11   4   -0.29    1.74
   6  11   4    1.81    2.78
   6  11   5  163.81    9.22
   6 -11   5  155.38    8.44
   6  11   5  165.02    9.47
   6  11   6   16.21    3.36
   6 -11   6   19.44    3.40
   6  11   7   10.64    2.66
   6 -11   7   11.30    2.98
   6  11   7   10.54    3.15
   6  11   8    5.71    2.04
   6 -11   8    6.02    2.42
   6  11   8    8.47    2.79
   6  11   9    2.88    1.42
   6 -11   9    2.26    2.15
   6 -11  10    1.02    1.75
   6 -11  11    4.64    1.69
   6 -11  12   12.65    1.58
  -6 -12  11    1.10    1.27
  -6 -12  10  128.12    6.43
  -6 -12   9   39.43    4.04
  -6 -12   8  169.29    8.55
  -6 -12   7   70.98    4.41
  -6 -12   7   95.82    6.47
   6  12  -6   25.61    2.96
  -6 -12   6   27.69    3.82
   6  12  -5   25.25    3.27
  -6 -12   5   26.44    3.80
   6  12  -4   95.95    6.37
  -6 -12   4   98.63    6.61
   6  12  -3   66.87    5.63
  -6 -12   3   72.53    5.47
  -6 -12   2  179.70    8.52
   6  12  -2  184.41    8.33
   6  12  -2  192.29    9.81
   6  12  -1  306.55   12.84
   6  12  -1  287.29   11.47
   6  12   0    2.29    2.70
   6  12   0    1.20    1.88
   6  12   1   13.85    3.44
   6  12   1   10.67    2.79
   6  12   2   14.53    3.23
   6  12   3    8.16    2.83
   6  12   4  223.03   10.69
   6  12   4  224.50   10.60
   6  12   5    6.91    2.70
   6 -12   5    7.00    1.96
   6  12   5    9.51    3.03
   6  12   6   36.70    4.08
   6 -12   6   36.41    3.54
   6  12   7    3.00    1.89
  -6 -12  -7    2.48    1.21
   6 -12   7    1.58    1.62
   6  12   8   22.37    2.67
   6 -12   8   22.99    2.86
   6  12   9    1.24    0.97
   6 -12   9    1.77    1.37
   6 -12  10    2.52    1.19
  -6 -13  10    8.55    1.30
  -6 -13   9   84.12    4.42
  -6 -13   8    9.12    1.98
  -6 -13   7    6.40    2.01
  -6 -13   6    3.60    1.52
  -6 -13   6    5.32    1.95
  -6 -13   5   88.23    5.61
  -6 -13   5   90.29    5.48
   6  13  -5   82.49    4.74
   6  13  -4   32.01    3.40
  -6 -13   4   37.59    3.57
   6  13  -3   18.80    3.06
  -6 -13   3   14.67    2.35
   6  13  -2    6.16    2.38
   6  13  -1    4.13    2.35
   6  13  -1    5.53    1.86
   6  13   0    1.21    2.24
   6  13   0    0.60    1.60
   6  13   1    9.33    2.88
   6  13   1    9.61    2.40
   6  13   2   -0.30    2.32
   6  13   2   -0.80    1.81
   6  13   3   76.24    5.49
   6  13   4   23.27    3.49
   6  13   4   20.39    3.21
   6  13   5   45.35    4.23
   6  13   5   43.07    4.14
   6  13   6   20.19    2.79
  -6 -13  -6   18.69    2.25
   6  13   6   22.17    2.99
   6  13   7    9.18    1.94
   6  13   8    7.38    1.39
  -6 -14   5    7.54    1.61
   6  14  -4   23.94    2.23
  -6 -14   4   26.53    3.01
   6  14  -3    7.55    1.78
  -6 -14   3    7.90    2.21
   6  14  -2  113.44    5.93
   6  14  -1   26.53    3.16
   6  14   0   49.87    4.20
   6  14   0   39.22    2.94
   6  14   1    5.17    2.21
   6  14   1    4.09    1.47
   6  14   2   22.09    3.09
   6  14   2   21.63    2.60
   6  14   3   38.41    3.32
  -6 -14  -4  135.11    6.34
   6  14   5    9.21    1.99
  -6 -14  -5    8.05    1.56
   6  14   6   79.81    4.20
   6  14   7    0.15    0.73
  -6 -15   4   -0.11    0.73
  -6 -15   3   37.68    2.86
   6  15  -2    2.99    1.04
  -6 -15   2    3.93    1.47
   6  15  -1    2.99    1.13
  -6 -15   1    1.37    1.49
   6  15   0   14.50    1.95
  -6 -15  -1   67.47    4.25
   6  15   1   65.00    3.82
   6  15   2    0.60    1.17
  -6 -15  -2   -0.08    1.17
   6  15   3    5.83    1.38
  -6 -15  -3    4.44    1.25
   6  15   5   10.04    1.24
  -7   0  16   20.32    5.98
  -7   0  15   46.78    8.72
  -7   0  14    9.75    5.69
  -7   0  13   16.45    6.50
  -7   0  13   57.19    9.48
  -7   0  12  216.21    9.58
  -7   0  12   69.35    8.16
  -7   0  11  104.06    7.02
  -7   0  11   37.17    6.16
  -7   0  10   66.86    5.92
  -7   0  10   43.25    5.53
  -7   0   9   52.71    5.23
  -7   0   9   33.74    4.39
  -7   0   8  388.33   13.13
  -7   0   8  399.48   12.92
  -7   0   7   21.72    3.32
  -7   0   6  468.96   17.73
  -7   0   6  478.91   14.10
  -7   0   5    1.40    1.48
  -7   0   4  159.06    9.33
  -7   0   3    3.50    1.96
  -7   0   2    1.55    1.57
  -7   0   1   21.05    3.59
  -7   0   0  996.81   25.27
  -7   0  -1    7.35    2.01
  -7   0  -2   79.60    5.92
   7   0   3   20.43    4.09
  -7   0  -3   21.60    3.65
   7   0   4  298.81   15.24
  -7   0  -4  284.04   13.57
   7   0   5    7.85    3.04
   7   0   5   12.65    2.38
   7   0   5   14.11    2.95
   7   0   6    2.40    1.93
   7   0   7   42.91    4.39
   7   0   7   39.80    4.73
   7   0   8    8.71    2.50
   7   0   8    5.61    2.53
   7   0   9    3.70    2.35
   7   0   9    4.42    2.60
   7   0  10   20.25    3.36
   7   0  10   19.42    3.56
   7   0  11    4.80    2.47
   7   0  11    4.43    2.50
   7   0  12   31.20    3.77
   7   0  12   42.52    4.41
   7   0  13   21.12    3.35
   7   0  14   95.02    5.50
   7   0  15   10.28    1.83
  -7   1  17   93.89    4.82
  -7   1  16   30.69    6.60
  -7  -1  16  -10.14    5.07
  -7  -1  15  201.59   10.44
  -7   1  15  224.83   11.42
  -7   1  14   39.02    7.12
  -7   1  14   50.68    9.96
  -7  -1  13  151.15   11.26
  -7   1  13  137.59   10.01
  -7  -1  12   64.22    9.62
  -7  -1  12   50.63    6.65
  -7   1  11   66.99    6.14
  -7   1  11   85.05    6.29
  -7  -1  10   62.80    6.12
  -7   1  10   90.42    6.28
  -7  -1   9 1412.69   33.14
  -7  -1   9 1381.57   33.37
  -7   1   9 1349.58   33.17
  -7  -1   8  136.81    7.05
  -7  -1   8  134.26    6.84
  -7   1   8  131.27    6.84
  -7   1   7 1745.28   39.63
  -7  -1   7 1823.42   39.24
  -7   1   7 1748.20   39.26
  -7  -1   6  743.15   19.50
  -7   1   6  712.65   19.38
  -7   1   6  772.25   19.88
  -7   1   6  806.07   25.62
  -7  -1   5  144.12    6.42
  -7   1   5  135.62    6.15
  -7  -1   5  155.20    8.83
  -7   1   5  162.94    9.88
  -7  -1   4  132.22    8.12
  -7   1   4  124.12    8.50
   7  -1  -3  266.10    8.41
  -7   1   3  280.78   13.09
  -7  -1   3  264.53   12.20
  -7  -1   2    9.45    2.53
  -7   1   2    9.22    2.70
   7  -1  -2   10.19    1.68
  -7   1   1 1232.10   34.12
  -7  -1   1 1224.53   27.49
  -7   1   0   82.13    5.48
  -7   1   0   84.66    6.92
  -7  -1   0   88.20    4.99
  -7   1  -1  407.68   14.67
  -7  -1  -1  415.23   13.87
  -7   1  -2   18.71    3.12
  -7  -1  -2   15.21    2.67
  -7  -1  -3  841.45   25.51
   7   1   3  875.82   27.77
   7  -1   3  845.10   29.24
  -7   1  -3  823.41   25.78
  -7  -1  -4    2.57    2.19
   7   1   4    1.22    1.76
   7  -1   4    0.31    1.70
  -7  -1  -4    1.52    1.70
  -7   1  -4    3.19    2.01
   7   1   5  776.00   26.94
   7   1   5  839.46   23.11
   7  -1   5  839.34   21.73
   7  -1   5  826.79   23.34
   7  -1   6   19.10    2.77
   7  -1   6   16.40    3.01
   7   1   6   16.84    2.90
   7   1   7 1068.42   27.66
   7  -1   7 1100.92   27.69
   7   1   7 1075.76   28.92
   7  -1   7 1058.66   29.35
   7   1   8   75.25    5.56
   7  -1   8   67.63    5.21
   7   1   8   70.98    5.75
   7  -1   8   65.71    5.87
   7  -1   9   78.41    5.73
   7   1   9   70.39    5.81
   7  -1   9   71.77    6.31
   7   1   9   67.84    5.47
   7   1  10    7.60    2.82
   7  -1  10    7.47    2.52
   7   1  10    6.44    2.56
   7  -1  10    3.78    2.65
   7   1  11  122.33    7.34
   7  -1  11  125.66    8.17
   7   1  11  131.37    7.80
   7  -1  11  134.85    7.60
   7  -1  12   35.93    4.28
   7   1  12   35.67    4.20
   7  -1  12   34.05    3.86
   7  -1  13  244.04   10.32
   7  -1  13  273.54   10.42
   7   1  13  276.12   10.94
   7  -1  14   10.68    2.08
   7   1  14   11.97    2.42
   7  -1  15  180.35    6.41
   7   1  15  196.48    7.33
   7   1  16    0.09    0.71
  -7   2  17   10.93    3.37
  -7   2  16   34.31    6.46
  -7   2  15    4.20    5.71
  -7  -2  15  -16.56    6.90
  -7   2  14   36.76    8.07
  -7  -2  14   32.43    8.43
  -7  -2  13   52.01    9.43
  -7   2  13   55.88    8.52
  -7  -2  12   45.78    9.49
  -7   2  12  104.59    7.89
  -7  -2  11   57.31    8.16
  -7   2  11   98.55    6.96
  -7  -2  10  123.16    7.66
  -7   2  10   82.61    6.29
  -7  -2   9   12.76    3.91
  -7   2   9   16.41    3.83
  -7  -2   8    5.71    2.82
  -7   2   8    6.02    2.67
  -7  -2   7    7.29    2.45
  -7  -2   7   19.83    3.39
  -7   2   7   11.86    2.79
  -7   2   7   17.49    3.04
  -7  -2   6  178.33    7.60
  -7   2   6  160.13    7.20
  -7   2   6  165.24    7.46
  -7  -2   5  241.40    8.95
  -7   2   5  236.29    8.66
  -7  -2   5  259.67   11.30
  -7   2   5  264.89    9.51
  -7   2   4   26.83    4.24
  -7  -2   4   25.60    3.50
   7  -2  -4   24.99    2.54
  -7  -2   3   17.39    3.10
  -7   2   3   18.07    3.48
   7  -2  -3   20.88    2.52
  -7   2   2  329.10   14.76
   7  -2  -2  330.03   11.72
  -7  -2   1  333.40    9.27
  -7   2   1  346.70   15.14
   7  -2  -1  351.47   12.64
  -7  -2   0   11.31    1.77
   7  -2   0   10.63    2.39
  -7  -2  -1   26.25    3.14
  -7   2  -1   22.60    3.93
   7  -2   1   24.50    3.59
  -7   2  -1   24.71    3.58
   7  -2   2   83.77    8.19
  -7   2  -2   79.53    6.45
  -7   2  -2   79.38    6.85
  -7  -2  -2   82.33    5.87
   7  -2   3   56.36    7.00
  -7   2  -3   50.13    5.60
  -7  -2  -3   49.60    5.12
  -7   2  -3   48.37    5.32
   7   2   4   18.19    3.40
  -7  -2  -4   16.71    3.41
   7  -2   4   18.57    2.41
   7   2   4   20.36    2.55
   7  -2   5   30.32    4.00
   7   2   5   26.86    3.60
   7  -2   5   26.31    3.08
   7   2   6   26.02    3.14
   7  -2   6   27.89    3.22
   7  -2   6   27.21    3.82
   7   2   6   26.51    2.85
   7   2   6   25.67    3.40
   7  -2   7   76.29    5.42
   7   2   7   72.45    5.71
   7  -2   7   82.55    6.70
   7  -2   8   23.42    3.26
   7   2   8   25.84    3.53
   7  -2   8   24.32    3.92
   7  -2   9  191.06    9.01
   7  -2   9  184.26   10.31
   7   2   9  176.51    9.01
   7   2  10   58.24    4.96
   7  -2  10   60.09    6.05
   7   2  10   61.63    5.50
   7  -2  10   63.09    5.10
   7   2  11   22.74    3.83
   7  -2  11   18.76    3.19
   7  -2  11   19.87    4.09
   7   2  12    9.46    2.92
   7  -2  12    7.53    2.25
   7  -2  12    4.94    2.65
   7  -2  13   10.76    2.35
   7   2  13   13.45    3.01
   7  -2  13   11.42    2.83
   7  -2  14    1.30    1.20
   7   2  14    1.14    1.87
   7  -2  14    2.14    1.50
   7   2  15   20.38    2.50
   7   2  16    0.45    0.80
  -7   3  17   51.42    3.63
  -7   3  16   39.72    6.42
  -7   3  15  124.65    8.32
  -7   3  14   24.68    7.65
  -7  -3  13  208.38   11.61
  -7   3  13  251.89   12.24
  -7  -3  12  189.55   11.61
  -7   3  12  248.62   10.63
  -7  -3  12  151.73    8.53
  -7   3  12  281.62   11.32
  -7  -3  11  287.23   12.99
  -7   3  11  310.10   12.45
  -7  -3  10   71.34    7.32
  -7   3  10   65.94    5.89
  -7  -3   9  404.21   13.61
  -7   3   9  373.97   13.72
  -7   3   9  366.69   13.27
  -7   3   8    4.49    2.54
  -7   3   8   12.98    3.29
  -7  -3   7  366.09   12.26
  -7   3   7  365.64   12.51
  -7   3   7  352.71   12.19
  -7  -3   6  246.44    9.27
  -7   3   6  239.43    9.09
  -7   3   6  227.19    9.18
  -7  -3   5 1635.15   36.10
  -7   3   5 1530.71   35.27
   7  -3  -4  202.88    9.07
  -7  -3   4  195.52    7.89
  -7  -3   4  203.57    9.93
   7  -3  -3   89.89    5.92
  -7  -3   3   85.86    6.50
  -7   3   2  787.08   26.25
   7  -3  -2  771.82   22.57
  -7  -3   1 1704.28   36.16
   7  -3  -1 1876.66   43.18
  -7  -3   0    0.48    1.62
   7  -3   0    2.68    1.69
  -7   3   0    2.81    1.87
  -7  -3   0    4.30    1.27
  -7   3  -1  442.29   17.95
   7  -3   1  433.86   16.68
  -7  -3  -1  428.43   14.37
  -7  -3  -1  427.36   18.47
  -7  -3  -2    0.55    1.75
  -7  -3  -2    0.32    1.12
  -7   3  -2    0.24    1.41
  -7   3  -2    0.43    1.32
   7  -3   2   -0.44    1.48
   7   3   3  557.07   19.13
  -7   3  -3  571.35   21.14
   7  -3   3  560.56   17.28
  -7  -3  -3  562.19   19.53
   7   3   4    3.45    1.55
  -7  -3  -4    2.28    1.65
   7  -3   4    3.36    1.57
   7   3   4    3.01    1.79
   7  -3   4    4.30    2.13
   7   3   5  155.43    7.37
   7  -3   5  160.81    7.34
   7   3   5  170.22    8.25
  -7  -3  -5  158.99    7.73
   7   3   5  157.18    7.44
   7   3   6   44.94    4.10
   7  -3   6   45.71    3.91
   7  -3   6   49.94    5.03
   7   3   6   46.20    4.32
   7   3   6   44.36    3.86
  -7  -3  -6   46.03    4.06
   7   3   7 1926.91   44.91
   7  -3   7 1976.16   44.35
   7   3   7 1926.69   45.38
   7  -3   7 1973.36   47.63
   7   3   7 1915.85   44.03
   7   3   8   16.62    3.06
   7   3   8   15.47    2.85
   7  -3   8   16.52    3.55
   7  -3   8   14.04    2.61
   7   3   8   14.53    2.42
   7  -3   9   62.68    4.97
   7  -3   9   67.46    6.48
   7   3   9   57.10    5.30
   7  -3  10   54.60    5.91
   7  -3  10   51.72    4.52
   7  -3  11  166.40    9.81
   7  -3  11  155.59    7.69
   7  -3  12    1.34    1.49
   7  -3  12    1.64    2.41
   7  -3  13  266.79   11.25
   7  -3  13  243.74    8.77
   7   3  13  256.14   10.51
   7   3  14    5.46    2.06
   7  -3  14    5.53    2.00
   7   3  15  203.43    7.55
   7   3  16    0.78    0.79
  -7   4  15    1.28    5.83
  -7   4  15   36.71    7.22
  -7   4  14   39.92    8.33
  -7   4  14  208.95    8.40
  -7  -4  13   28.91    3.66
  -7   4  13  101.42    9.30
  -7  -4  12  -17.21    7.98
  -7  -4  12    4.54    2.37
  -7  -4  11    2.89    7.05
  -7  -4  11   22.16    3.86
  -7   4  10   54.58    5.43
  -7  -4  10   35.76    6.96
   7   4  -9    3.64    1.64
  -7   4   9   10.05    3.30
  -7  -4   9    0.12    5.14
   7   4  -8    9.24    2.11
  -7  -4   8   13.53    3.94
  -7   4   8   12.53    2.95
  -7   4   7   47.30    4.27
  -7  -4   7   39.74    4.31
   7   4  -7   47.78    4.05
  -7  -4   6   27.29    3.57
  -7   4   6   35.54    3.43
  -7   4   6   42.35    4.19
   7   4  -6   38.93    3.68
  -7  -4   5   53.26    4.35
  -7  -4   5   58.09    4.44
  -7   4   5   62.14    4.77
   7   4  -5   64.13    4.61
  -7   4   5   55.85    3.92
  -7   4   4    2.96    1.78
   7   4  -4    5.67    1.68
   7  -4  -4    4.06    1.78
   7  -4  -3   45.18    4.67
  -7   4   3   39.11    3.52
   7   4  -3   43.68    3.74
  -7  -4   3   40.64    4.81
   7  -4  -2  702.34   22.56
  -7  -4   2  723.72   24.26
  -7  -4   1   69.33    3.36
   7  -4  -1   82.68    6.58
  -7  -4   1   75.52    6.97
  -7  -4   0    2.88    2.21
  -7  -4   0    3.45    1.20
   7  -4   0    2.97    1.79
  -7  -4  -1  152.61    7.88
  -7  -4  -1  158.52    7.78
   7  -4   1  167.93   10.15
   7   4   1  159.48    7.39
  -7  -4  -1  178.11   11.57
  -7  -4  -2  132.39    8.08
  -7  -4  -2  143.72    7.41
   7   4   2  144.24    7.07
   7  -4   3  157.83    6.88
   7  -4   3  151.41    7.89
  -7  -4  -3  152.56    9.35
  -7  -4  -3  154.93    7.78
   7   4   3  153.18    7.42
   7   4   4  124.57    6.22
   7  -4   4  130.96    6.34
   7   4   4  129.77    7.07
   7  -4   4  129.71    7.59
  -7  -4  -4  131.35    7.12
   7   4   4  129.83    6.87
   7   4   5   22.06    2.95
   7  -4   5   22.76    2.94
   7   4   5   24.17    3.33
  -7  -4  -5   24.02    3.29
   7  -4   5   23.93    3.81
   7   4   5   24.22    3.30
   7   4   6    7.81    2.21
   7   4   6    6.61    2.12
   7  -4   6    6.07    1.80
   7   4   6    8.20    2.30
  -7  -4  -6    6.62    2.22
   7   4   7  619.26   18.90
   7  -4   7  659.99   18.50
  -7  -4  -7  630.09   18.65
   7   4   7  637.70   19.07
   7   4   7  652.33   19.37
   7  -4   8   37.92    3.63
   7  -4   8   37.09    4.93
   7   4   8   39.53    3.90
   7   4   8   34.93    4.05
   7  -4   9  760.69   24.71
   7   4   9  737.62   21.04
   7   4   9  770.54   22.62
   7  -4   9  767.96   20.99
   7  -4  10  124.69    8.86
   7   4  10  123.33    7.61
   7  -4  10  122.82    6.49
   7  -4  11   71.63    6.66
   7   4  11   74.74    5.91
   7  -4  11   70.02    4.64
   7  -4  12    8.29    3.04
   7  -4  13   23.04    3.71
   7  -4  14   10.45    2.33
   7   4  15   11.33    1.93
   7  -4  15    4.89    1.13
   7   4  16    1.41    0.69
  -7   5  16   25.20    4.14
  -7   5  15  236.36    9.46
  -7   5  15  190.55    9.22
  -7   5  14   58.24    8.07
  -7  -5  14   39.08    3.43
  -7   5  13  274.18   10.07
  -7   5  13  241.70   11.84
  -7   5  12  143.80    7.84
  -7  -5  12   79.00    6.50
  -7   5  11   94.25    6.64
  -7  -5  11   57.31    5.80
  -7   5  10   28.48    4.30
  -7   5   9  526.59   16.73
  -7  -5   9  494.03   16.38
  -7   5   8   39.85    4.13
  -7   5   8   52.35    4.89
   7   5  -8   41.87    3.71
  -7   5   7  159.14    7.59
  -7   5   7  163.09    8.23
   7   5  -7  173.17    7.94
  -7   5   6   31.04    3.17
  -7   5   6   34.60    3.89
   7   5  -6   28.84    3.23
  -7  -5   5  529.19   16.07
  -7   5   5  519.79   15.83
   7   5  -5  509.30   15.64
  -7  -5   4  172.07    8.21
  -7   5   4  147.20    6.22
  -7   5   4  165.86    7.66
   7   5  -4  176.91    7.98
  -7  -5   3   75.34    5.37
  -7   5   3   64.92    4.60
   7   5  -3   75.14    5.00
  -7  -5   2  365.35   13.18
  -7   5   2  371.50   12.03
   7   5  -2  363.04   12.55
  -7  -5   2  354.99   15.86
   7  -5  -1 1470.02   34.38
  -7  -5   1 1526.11   36.70
   7   5  -1 1544.20   36.00
  -7  -5   1 1534.22   42.30
   7  -5   0   61.15    4.07
   7   5   0   63.56    4.72
   7  -5   1  530.10   14.90
  -7  -5  -1  501.04   17.04
  -7  -5  -1  519.71   16.70
   7   5   2   10.56    2.30
   7  -5   2   11.56    1.99
   7  -5   2   11.24    2.44
  -7  -5  -2    9.16    2.49
  -7  -5  -2    8.14    2.22
   7   5   3  103.16    5.32
   7  -5   3  106.45    6.70
  -7  -5  -3  104.28    6.55
   7   5   3  101.40    6.32
   7  -5   3  100.39    5.41
   7   5   4   87.16    5.11
   7  -5   4   80.77    4.93
   7  -5   4   84.90    6.25
  -7  -5  -4   82.50    5.85
   7   5   4   87.23    5.91
   7   5   5  544.04   16.28
   7  -5   5  571.16   18.93
  -7  -5  -5  535.21   17.36
   7   5   5  533.76   17.38
   7  -5   5  562.66   16.13
   7   5   6   15.27    2.96
   7   5   6   13.77    2.57
   7   5   6   13.61    2.41
   7  -5   6   18.28    3.53
  -7  -5  -6   14.97    2.81
   7  -5   7  720.31   19.50
   7   5   7  704.54   21.30
   7   5   7  710.29   20.77
   7  -5   8   88.00    5.24
   7   5   8   86.52    6.07
   7   5   8   81.27    5.96
   7   5   9   14.65    3.17
   7  -5   9   12.15    2.15
   7  -5   9   11.21    3.60
   7   5   9   12.49    2.67
   7   5  10   11.68    3.06
   7  -5  10   16.05    4.03
   7   5  10   13.51    2.51
   7  -5  11  354.65   15.08
   7   5  11  343.57   13.11
   7   5  12   20.13    3.32
   7  -5  12   17.54    3.84
   7  -5  13  159.73    8.49
   7   5  13  165.17    7.76
   7   5  14    2.25    1.66
   7  -5  14    3.34    1.93
   7  -5  15   19.57    1.77
   7  -6 -16   10.43    1.18
  -7   6  15    4.45    5.02
  -7   6  15   48.35    4.96
  -7   6  14   21.28    6.74
  -7  -6  14   19.73    2.59
  -7   6  13  114.43    5.89
  -7  -6  13    6.29    2.46
  -7   6  12  132.22    6.83
  -7  -6  12   62.67    5.84
  -7   6  11   30.27    4.30
  -7  -6  11    1.14    2.64
  -7   6  10   30.66    4.19
  -7  -6  10   20.00    4.20
  -7   6   9   19.32    3.44
  -7   6   9   36.91    4.76
  -7   6   8    9.22    2.99
  -7   6   8    7.55    2.41
  -7   6   7    5.91    2.50
   7   6  -7    2.20    1.52
  -7   6   6   85.65    5.01
  -7   6   6  100.00    6.44
   7   6  -6  100.73    5.97
  -7   6   5    9.74    2.59
   7   6  -5   11.07    2.49
  -7   6   5    8.54    1.79
  -7   6   4   11.48    2.40
   7   6  -4   12.18    2.49
  -7   6   3    0.23    1.48
   7   6  -3    1.04    1.53
  -7  -6   3    1.49    1.89
  -7  -6   2  231.21   10.44
  -7   6   2  233.43    9.24
   7   6  -2  236.11    9.95
  -7  -6   1   34.86    4.22
   7  -6  -1   35.76    3.27
   7   6  -1   34.18    3.75
   7  -6   0   71.69    4.48
   7   6   0   67.27    5.11
   7  -6   1  114.87    5.82
   7  -6   1  118.58    6.63
  -7  -6  -1  115.01    7.24
   7  -6   2   12.93    2.11
   7  -6   2   14.40    2.81
  -7  -6  -2   13.48    2.95
   7   6   3   91.67    5.03
   7  -6   3   97.30    6.60
  -7  -6  -3  100.01    6.73
   7   6   3   95.83    6.45
   7  -6   3  108.48    5.58
   7   6   4    5.20    2.31
   7  -6   4    6.25    1.66
   7  -6   4    6.06    2.54
  -7  -6  -4    5.63    2.37
   7   6   4    6.57    1.73
   7  -6   5  104.74    7.53
  -7  -6  -5  100.79    6.83
   7  -6   5  106.54    5.65
   7   6   5  102.79    6.94
   7   6   5  101.20    6.39
   7   6   5  107.28    6.02
   7   6   6  234.35   10.12
   7  -6   6  239.15   11.87
   7   6   6  246.82   11.05
   7   6   6  242.97    9.94
   7   6   7   21.46    3.12
   7  -6   7   25.39    4.74
   7   6   7   25.00    3.57
   7   6   7   24.56    3.85
   7   6   8   94.15    6.63
   7   6   8   95.23    6.35
   7   6   9   84.52    6.12
   7   6   9   86.44    6.07
   7  -6  10    1.90    3.25
   7   6  10    0.58    2.00
   7   6  10    1.76    1.71
   7   6  11   12.40    2.87
   7  -6  11    8.64    3.70
   7  -6  12   25.08    4.06
   7   6  12   31.47    3.58
   7  -6  13   82.61    5.90
   7   6  13   89.96    5.26
   7  -6  14   13.06    2.32
   7   6  14   17.08    2.18
   7   6  15   11.65    1.45
  -7   7  15   36.31    3.16
  -7  -7  14    0.70    1.19
  -7   7  13  149.34    7.23
  -7  -7  13  134.22    7.34
  -7   7  13  136.97    8.75
  -7   7  12   56.34    4.38
  -7   7  12   58.33    6.33
  -7  -7  11  237.51   11.79
  -7   7  11  230.17    9.43
  -7   7  10   25.74    3.50
  -7  -7  10   16.09    4.00
  -7   7   9  515.85   16.11
  -7   7   9  607.12   18.54
  -7   7   8  141.24    8.11
  -7   7   8  126.83    6.52
  -7   7   7    7.57    2.81
  -7   7   7    7.15    1.92
  -7   7   6    0.69    2.08
   7   7  -6    0.26    1.41
  -7   7   6    0.46    1.21
   7   7  -5  408.79   13.97
  -7   7   5  398.54   13.91
  -7   7   4    5.03    2.00
   7   7  -4    6.61    2.08
  -7   7   3  334.50   11.80
   7   7  -3  306.90   12.15
   7  -7  -2  121.46    6.36
   7   7  -2  125.32    7.27
   7  -7  -1 1466.85   34.18
   7   7  -1 1476.17   36.47
   7  -7   0  452.73   13.82
   7   7   0  458.02   15.74
   7  -7   1  236.02    9.97
  -7  -7  -1  243.53   11.22
   7  -7   1  231.62    8.85
   7   7   1  233.77   10.53
   7  -7   2   30.26    2.97
   7  -7   2   33.42    3.88
   7  -7   3  800.83   23.48
   7   7   3  771.50   23.18
   7  -7   4   64.17    5.81
   7   7   4   60.74    5.49
   7   7   4   59.96    4.17
   7   7   5   31.65    4.03
   7  -7   5   30.78    4.53
   7   7   5   32.80    4.26
   7   7   5   26.24    2.97
   7   7   6   63.27    5.27
   7  -7   6   62.20    6.17
   7   7   6   62.02    5.69
   7   7   6   59.66    4.55
   7   7   7  255.52   10.77
   7  -7   7  260.71   12.96
   7   7   7  255.73   11.72
   7   7   7  249.99   10.28
   7   7   8   10.64    2.47
   7   7   8   11.78    2.29
   7  -7   8   11.37    3.78
   7   7   8   12.09    3.04
   7   7   9  164.13    8.79
   7   7   9  165.05    8.25
   7   7  10   38.30    4.00
   7   7  10   35.18    3.88
   7  -7  11  204.75   10.72
   7   7  11  193.12    8.60
   7  -7  12   35.25    4.41
   7   7  12   36.79    3.53
   7  -7  13  124.33    6.77
   7   7  13  121.48    5.63
   7   7  14    1.36    1.00
   7  -7  14    1.22    1.33
  -7   8  14   16.24    2.42
  -7  -8  14    6.12    1.44
  -7   8  13   33.51    3.98
  -7  -8  13   18.68    2.87
  -7   8  12   54.61    4.43
  -7  -8  12   45.54    4.74
  -7   8  12   46.78    5.99
  -7   8  11   22.93    3.09
  -7  -8  11    9.10    3.14
  -7   8  10   15.41    2.52
  -7  -8  10   12.39    3.75
  -7   8   9   15.66    3.38
  -7   8   9   13.69    2.33
  -7  -8   9   14.58    4.04
  -7   8   8   10.16    3.05
  -7   8   8   11.19    1.98
  -7   8   7   13.02    2.90
   7   8  -6   13.33    2.41
  -7   8   6   16.82    3.13
   7   8  -5   90.01    5.90
  -7   8   5   94.05    6.08
   7   8  -4  291.65   11.65
  -7   8   4  288.80   11.15
   7   8  -3    6.40    2.33
   7  -8  -3   15.46    2.84
   7  -8  -2  176.71    7.80
   7   8  -2  168.30    8.86
   7   8  -1    8.50    2.65
   7  -8  -1    7.81    1.94
   7  -8   0  145.49    6.75
   7   8   0  163.52    8.79
   7  -8   1   29.38    3.48
   7   8   1   37.88    4.39
   7   8   2    9.38    2.82
   7  -8   2   10.58    2.66
   7  -8   3  104.56    7.03
   7   8   4    3.57    2.52
   7   8   4    3.93    2.32
   7  -8   4    3.05    2.41
   7   8   5   49.48    5.26
   7  -8   5   46.33    5.26
   7   8   5   51.41    5.12
   7   8   5   48.15    3.73
   7   8   6    9.37    2.12
   7   8   6    8.30    2.58
   7  -8   6    8.44    3.22
   7   8   6    6.21    2.91
   7   8   7   28.66    3.66
   7  -8   7   27.30    4.66
   7   8   7   26.56    3.14
   7   8   7   28.00    4.28
   7   8   8   39.43    3.87
   7  -8   8   38.75    5.23
   7   8   8   35.36    4.48
   7   8   8   37.93    3.72
   7   8   9   11.29    2.51
   7   8   9   13.91    2.32
   7  -8   9   17.06    4.14
   7   8   9   13.57    2.95
   7   8  10    0.89    1.57
   7  -8  10    0.19    2.84
   7   8  10    0.13    1.75
   7   8  11    9.53    2.13
   7  -8  12    4.07    2.41
   7   8  12    4.25    1.53
   7   8  13    3.51    1.16
   7  -8  13    3.74    1.91
   7  -8  14   12.03    1.52
   7  -9 -14    0.56    0.66
  -7   9  13   40.68    4.49
  -7  -9  13   85.96    4.80
  -7  -9  12   -0.53    1.94
  -7  -9  11  243.08   11.03
  -7   9  11  226.41    9.57
  -7  -9  10   81.15    6.81
  -7   9  10   67.62    5.13
  -7   9   9   73.00    5.46
  -7   9   8    0.13    2.03
  -7   9   7   44.50    4.36
  -7   9   6   85.35    5.76
   7   9  -5  130.28    6.96
  -7   9   5  127.02    7.07
   7  -9  -4    7.34    2.36
   7   9  -4   -0.14    1.55
   7   9  -3   53.13    4.90
   7  -9  -3   55.82    4.29
   7   9  -2   14.63    2.99
   7  -9  -2   15.45    2.43
   7   9  -1  896.49   25.81
   7   9   0  221.81   10.72
   7   9   1  249.56   11.61
   7   9   2    3.22    2.58
   7  -9   2    2.80    1.89
   7   9   3  177.09    9.76
   7  -9   3  166.28    8.97
   7   9   3  175.73    9.75
   7   9   4   12.28    3.08
   7  -9   4   13.90    3.24
   7   9   5   23.84    3.87
   7  -9   5   25.14    4.21
   7   9   5   24.29    4.28
   7   9   6   33.10    4.13
   7  -9   6   31.64    4.64
   7   9   6   30.78    4.54
   7   9   7  392.45   14.20
   7  -9   7  399.92   15.82
   7   9   7  409.28   15.40
   7   9   7  358.29   11.80
   7   9   8   83.12    5.57
   7   9   8   87.68    6.54
   7   9   9   65.63    4.37
   7  -9   9   69.15    6.15
   7   9   9   73.06    5.59
   7   9   9   67.10    4.26
   7  -9  10   53.76    5.29
   7   9  10   46.98    4.14
   7   9  10   47.69    3.46
   7  -9  11  154.20    8.01
   7   9  11  132.56    5.48
   7   9  12    6.28    1.16
   7  -9  13   37.21    2.87
  -7 -10  13    4.63    1.25
   7 -10 -12    5.64    1.36
  -7 -10  12    1.87    1.74
  -7  10  11   43.65    4.37
  -7 -10  11   89.18    5.94
  -7  10  10    1.97    2.57
  -7  10   9   -0.53    2.25
  -7 -10   8   75.91    6.69
  -7  10   8   65.67    4.75
  -7  10   7    4.43    1.96
  -7 -10   7    5.10    3.08
   7 -10  -6   55.67    4.40
   7 -10  -5    1.23    1.57
   7  10  -4    3.18    1.85
   7 -10  -4    3.10    1.59
   7  10  -3   24.99    3.44
   7  10  -2  292.46   12.13
   7  10  -1   45.03    4.90
   7  10   0   93.35    6.93
   7  10   1   85.93    6.69
   7  10   2   53.52    5.69
   7  10   2   49.89    5.34
   7  10   3   23.34    4.09
   7 -10   3   21.67    3.28
   7  10   3   17.00    3.74
   7  10   4  185.64    9.94
   7 -10   4  174.56    9.13
   7  10   5    9.71    2.95
   7 -10   5    9.00    2.87
   7  10   6   33.92    4.19
   7 -10   6   32.97    4.44
   7  10   6   31.45    4.57
   7  10   7    2.86    2.20
   7 -10   7    5.84    2.92
   7  10   7    4.84    2.90
   7  10   8   45.18    4.01
   7 -10   8   45.19    4.86
   7  10   8   49.91    4.85
   7  10   9    0.44    1.12
   7 -10   9    1.21    2.17
   7  10   9    1.42    1.91
   7 -10  10   27.16    3.55
   7 -10  11    8.73    2.26
   7 -10  12    1.37    1.23
  -7 -11  12   59.93    3.49
   7 -11 -11    3.60    0.80
   7 -11 -10   37.89    2.53
  -7 -11  10   45.93    4.32
   7 -11  -9   60.06    3.53
  -7 -11   9   68.70    5.56
  -7 -11   8  133.24    8.02
   7 -11  -8  122.81    5.50
   7 -11  -7  271.95    9.28
   7  11  -7  284.38   10.43
   7 -11  -6   10.75    1.88
  -7 -11   6   10.95    3.25
  -7 -11   5   11.88    3.27
   7  11  -4   20.59    2.73
   7  11  -3    3.55    1.83
   7  11  -2   18.93    3.12
   7  11  -1  217.33   10.84
   7  11  -1  202.60    9.85
   7  11   0   46.63    5.28
   7  11   0   44.77    4.79
   7  11   1   46.03    4.97
   7  11   2   87.14    7.06
   7  11   2   80.22    6.52
   7  11   3  113.34    7.75
   7  11   3  100.87    7.38
   7  11   4   11.36    3.14
   7 -11   4   11.33    2.48
   7  11   4   14.66    3.40
   7  11   5  166.03    8.93
   7 -11   5  159.67    8.13
   7  11   6    7.26    2.59
   7 -11   6    5.38    2.21
   7  11   7   53.50    4.44
   7 -11   7   52.02    4.66
   7  11   7   53.06    4.89
   7  11   8   80.08    4.84
   7 -11   8   80.69    5.56
   7  11   8   83.39    5.63
   7  11   9    0.79    0.89
   7 -11   9    1.02    1.72
   7 -11  10    0.46    1.43
   7 -11  11   16.60    1.97
  -7 -12  11    7.64    1.34
  -7 -12  10   68.35    4.26
  -7 -12   9   21.69    2.92
  -7 -12   8   42.33    4.11
  -7 -12   7   13.46    2.84
   7  12  -7    9.82    1.67
   7  12  -6   51.42    3.95
  -7 -12   6   68.16    5.37
   7  12  -5   18.37    2.89
  -7 -12   5   18.50    3.23
   7  12  -4  227.23   10.05
  -7 -12   4  235.50   10.24
   7  12  -3   18.65    3.30
  -7 -12   3   16.96    2.95
   7  12  -3   14.93    2.34
   7  12  -2   89.73    6.59
  -7 -12   2   82.85    5.48
   7  12  -2   78.45    5.29
   7  12  -1   19.85    3.68
   7  12  -1   22.76    3.21
  -7 -12   1   18.07    2.60
   7  12   0   49.66    5.10
   7  12   0   52.26    4.80
   7  12   1    1.82    2.23
   7  12   2   80.51    6.03
   7  12   3    0.16    2.41
   7  12   3    0.15    2.20
   7  12   4   66.47    5.64
   7  12   4   61.89    5.38
   7  12   5   18.06    3.22
   7  12   5   15.50    3.21
   7  12   6    7.15    2.35
   7 -12   6    4.36    1.65
   7  12   7    5.09    1.82
   7 -12   7    4.27    1.60
   7  12   7    5.05    2.15
   7  12   8   23.94    2.33
   7 -12   8   24.71    2.52
   7 -12   9   -0.39    1.02
  -7 -13   9  132.09    5.09
  -7 -13   8   92.64    4.68
  -7 -13   7   16.07    2.31
   7  13  -6    0.88    0.78
  -7 -13   6    0.60    0.93
  -7 -13   6    0.49    1.43
   7  13  -5   29.97    2.81
  -7 -13   5   29.41    3.02
   7  13  -4    5.85    1.92
  -7 -13   4    7.62    1.84
   7  13  -3   88.44    5.61
  -7 -13   3   79.46    4.54
   7  13  -2   60.26    3.77
   7  13  -2   74.20    5.35
   7  13  -1   24.93    3.53
   7  13  -1   24.66    2.81
   7  13   0  127.32    7.39
   7  13   0  126.36    6.48
   7  13   1   13.96    3.08
   7  13   1   15.00    2.67
   7  13   2    3.42    1.99
   7  13   3  277.75   11.02
   7  13   3  273.62   10.60
   7  13   4   53.92    4.51
   7  13   4   51.90    4.31
   7  13   5   81.50    5.10
   7  13   5   80.32    5.19
   7  13   6    2.61    1.52
  -7 -13  -6    1.11    0.96
   7  13   6    2.56    1.66
   7  13   7   16.60    1.92
  -7 -14   5    3.30    1.06
   7  14  -4   43.10    2.77
  -7 -14   4   51.29    3.59
   7  14  -3    1.35    1.35
  -7 -14   3    1.33    1.49
   7  14  -2    6.60    1.89
   7  14  -1    2.29    1.66
   7  14   0   21.80    2.09
   7  14   0   31.15    3.23
   7  14   1    6.03    1.99
   7  14   1    7.03    1.53
   7  14   2   54.06    3.59
   7  14   3    1.78    1.35
   7  14   4   20.19    2.42
  -7 -14  -4   15.56    2.02
   7  14   5    4.62    1.34
  -7 -14  -5    2.78    0.87
   7  14   6   38.28    2.41
  -7 -15   3    9.07    1.28
  -7 -15   2   -0.07    0.87
   7  15  -1   12.30    1.47
  -7 -15   1   12.37    1.77
   7  15   0    7.50    1.38
   7  15   1   45.64    2.87
  -7 -15  -1   45.06    3.07
   7  15   2    4.05    1.16
  -7 -15  -2    3.91    1.16
  -8   0  16   31.94    5.23
  -8   0  15   -0.46    7.31
  -8   0  14   38.61    5.40
  -8   0  14  120.57   10.46
  -8   0  13   -9.12    6.14
  -8   0  13   34.80   10.20
  -8   0  12   33.52    6.74
  -8   0  12  118.15   10.51
  -8   0  11    6.83    5.80
  -8   0  11  134.22    8.69
  -8   0  10   97.98    7.04
  -8   0  10   24.43    5.50
  -8   0   9   12.59    4.13
  -8   0   9   46.68    5.43
  -8   0   8 2398.62   53.25
  -8   0   7    1.16    2.47
  -8   0   6  445.97   14.09
  -8   0   5    8.76    2.35
  -8   0   5    5.41    2.28
  -8   0   4   46.15    3.87
  -8   0   4   48.76    3.82
  -8   0   3    0.47    1.58
  -8   0   3    3.85    1.69
  -8   0   2  644.18   22.84
  -8   0   1    3.33    2.13
  -8   0   0 1064.71   27.47
  -8   0  -1    1.86    1.31
   8   0   2  276.91    9.84
  -8   0  -2  274.37   12.37
  -8   0  -3    1.07    1.40
   8   0   3    1.44    1.86
   8   0   4  296.25   12.06
   8   0   5    1.98    1.69
   8   0   5    1.93    2.15
   8   0   6  431.93   15.92
   8   0   7    0.90    2.10
   8   0   7    0.28    1.74
   8   0   8  233.70   10.40
   8   0   8  227.55   11.34
   8   0   9   10.61    3.13
   8   0   9    7.38    2.94
   8   0  10    7.12    2.73
   8   0  10    4.62    2.62
   8   0  11    0.15    2.07
   8   0  11    0.34    1.94
   8   0  12  515.20   16.92
   8   0  12  560.96   17.28
   8   0  13    2.51    1.95
   8   0  14  205.72    7.97
   8   0  15    1.25    1.00
  -8   1  16   -8.60    5.72
  -8   1  15   24.04    7.90
   8  -1 -15    1.36    1.14
  -8   1  14   -8.91    6.12
  -8  -1  14    5.54    8.40
  -8  -1  13   39.29    9.84
  -8   1  13   49.33   10.42
  -8  -1  12    4.99    5.45
  -8   1  12   38.32    7.63
  -8   1  12  106.38    9.80
  -8  -1  12   72.70   10.06
  -8  -1  11   47.45    6.47
  -8   1  11   76.33    7.65
  -8  -1  10  126.67    8.32
  -8   1  10  166.98    9.37
  -8  -1   9  552.79   17.34
  -8  -1   9  525.73   16.71
  -8   1   9  573.00   17.68
  -8   1   8   40.11    4.58
  -8  -1   8   43.72    5.02
  -8   1   8   29.69    4.36
  -8  -1   7   16.55    3.17
  -8   1   7   22.91    3.62
  -8  -1   7   27.49    3.80
  -8   1   7   24.80    3.51
  -8  -1   6  313.02   11.28
  -8   1   6  309.87   11.09
  -8  -1   6  331.44   11.33
  -8   1   6  339.63   11.79
  -8   1   5  422.06   13.50
  -8  -1   5  462.12   18.07
  -8  -1   5  466.95   13.93
  -8   1   5  476.85   14.44
  -8   1   4   25.03    3.10
  -8  -1   4   23.00    3.81
  -8   1   4   29.99    3.04
  -8   1   3    6.23    1.96
  -8  -1   3    5.87    2.14
  -8  -1   2   10.54    2.76
  -8  -1   1  116.83    8.58
  -8  -1   0   28.77    2.99
  -8  -1  -1    0.29    0.97
  -8   1  -1    0.52    1.09
  -8   1  -2   46.10    5.00
  -8  -1  -2   45.25    4.72
   8   1   2   51.64    4.60
   8  -1   2   53.50    4.76
   8   1   2   53.26    3.97
   8   1   3  102.27    8.76
  -8  -1  -3   97.57    7.32
   8   1   3   98.41    5.54
   8  -1   3  102.68    5.67
   8   1   3   97.34    6.39
  -8   1  -3   96.28    7.66
   8   1   4   37.34    3.70
   8   1   4   34.90    5.40
   8  -1   4   44.89    4.06
   8  -1   4   44.28    4.70
   8   1   4   42.20    4.55
   8   1   5  171.54    8.17
   8  -1   5  190.54    8.55
   8   1   5  189.38    9.43
   8  -1   5  188.75    9.63
   8   1   6   42.03    4.78
   8  -1   6   40.56    4.16
   8  -1   6   39.32    4.93
   8  -1   7   24.51    3.40
   8   1   7   23.32    3.75
   8  -1   7   24.79    3.99
   8   1   8    7.74    2.68
   8  -1   8    9.27    2.75
   8   1   8    6.98    2.88
   8  -1   8    8.70    3.22
   8  -1   9  261.18   11.18
   8   1   9  241.29   11.56
   8  -1   9  258.59   12.41
   8   1   9  253.60   11.25
   8  -1  10   96.22    7.38
   8   1  10   97.58    6.86
   8   1  10   97.78    6.81
   8  -1  10   98.73    6.64
   8   1  11    5.47    2.62
   8  -1  11    1.76    2.00
   8   1  11    1.84    1.96
   8  -1  11    3.83    2.48
   8   1  12   20.23    3.58
   8  -1  12   22.22    3.34
   8   1  12   13.03    2.53
   8  -1  12   14.04    3.19
   8   1  13   23.69    3.18
   8  -1  13   20.35    2.93
   8  -1  13   25.64    3.05
   8  -1  14    8.51    1.90
   8   1  14   13.31    2.36
   8  -1  15   10.74    1.29
   8   1  15   15.29    1.89
  -8   2  15   37.26    7.70
  -8  -2  14   61.31    8.53
  -8   2  14   77.97    7.86
  -8   2  13   41.60    8.07
  -8  -2  13   27.42    9.10
  -8  -2  12  203.95   12.31
  -8   2  12  200.92   11.45
  -8  -2  11  251.94   12.86
  -8  -2  11  204.13    9.67
  -8  -2  10  104.79    7.79
  -8   2  10   94.36    6.93
  -8   2  10   99.23    7.57
  -8  -2   9  101.09    6.81
  -8   2   9   81.93    6.07
  -8   2   9   88.43    6.65
  -8  -2   8  656.26   19.05
  -8  -2   8  642.02   18.21
  -8   2   8  691.64   19.84
  -8  -2   7   78.90    5.64
  -8   2   7   84.28    5.52
  -8  -2   7   68.64    5.06
  -8   2   7   85.84    6.01
  -8  -2   6 1005.99   25.87
   8   2  -6 1044.32   24.75
  -8   2   6  960.27   25.17
  -8   2   6 1078.82   26.61
  -8  -2   5   25.49    3.33
  -8   2   5   29.79    3.15
   8   2  -5   32.68    2.86
  -8   2   5   33.35    3.70
  -8  -2   4  524.66   15.35
  -8  -2   4  526.79   19.33
  -8   2   4  495.42   14.56
  -8   2   4  527.64   15.66
  -8  -2   3   43.17    5.08
  -8   2   3   43.71    3.86
  -8  -2   2  391.72   16.65
   8  -2  -2  380.32   13.35
   8  -2  -1  262.99   11.16
   8  -2   0 2292.53   49.65
  -8  -2   0 2298.37   49.94
  -8  -2  -1   78.16    5.40
   8  -2   1   78.99    4.79
   8   2   1   79.57    5.62
  -8  -2  -2  766.19   23.34
   8   2   2  759.16   20.10
   8  -2   2  789.86   20.53
  -8   2  -2  756.97   24.99
   8   2   2  782.34   22.23
   8  -2   2  789.75   22.17
  -8  -2  -3  219.43   11.50
   8   2   3  239.71   13.14
   8   2   3  234.05    9.09
   8  -2   3  239.90    9.31
   8  -2   3  236.36   10.46
   8   2   3  238.72   10.41
   8   2   3  243.70    9.36
   8  -2   4  582.23   17.14
   8   2   4  610.60   18.76
   8   2   4  573.16   16.87
   8   2   4  573.30   16.97
   8  -2   5   83.66    5.46
   8   2   5   83.44    6.10
   8   2   5   83.78    5.23
   8   2   6 1047.65   27.49
   8  -2   6 1060.79   27.43
   8   2   6 1086.44   29.06
   8  -2   6 1090.21   29.94
   8   2   6 1016.03   26.37
   8   2   7   12.27    2.71
   8  -2   7   13.29    2.69
   8   2   7   11.42    2.90
   8  -2   7   15.30    3.48
  -8  -2  -7   14.02    2.64
   8  -2   8  429.87   14.78
   8   2   8  402.97   15.33
   8  -2   8  415.11   16.50
   8  -2   9   17.74    3.07
   8   2   9   17.96    3.33
   8  -2   9   19.47    4.09
   8  -2  10  214.24   11.37
   8   2  10  194.49    9.55
   8   2  10  207.08   10.14
   8  -2  10  224.55    9.91
   8   2  11    8.95    3.05
   8  -2  11    8.78    2.49
   8  -2  11    8.58    3.09
   8  -2  12  173.13    9.22
   8   2  12  172.46    8.62
   8  -2  12  169.38    7.93
   8  -2  13    3.60    1.61
   8  -2  13    3.55    1.98
   8   2  13    5.85    2.34
   8  -2  14   99.77    5.00
   8   2  14  138.95    6.28
   8   2  15    1.36    1.18
   8  -3 -16    2.40    0.76
  -8   3  14  -13.45    7.14
  -8   3  13   36.54    7.74
  -8   3  13   59.85    9.36
  -8  -3  12  -12.07    8.71
  -8  -3  12    3.57    1.99
  -8  -3  11  -15.15    8.52
  -8   3  11   81.29    6.34
  -8   3  11   67.63    6.51
  -8   3  10   40.12    4.88
  -8  -3  10   -4.42    6.99
  -8   3  10   56.12    6.28
  -8   3   9   88.67    6.38
  -8  -3   9   87.99    7.13
  -8   3   9  101.49    6.91
  -8   3   8   23.83    4.23
  -8  -3   8   22.70    3.92
  -8   3   8   22.41    3.77
  -8   3   7   87.87    5.69
  -8  -3   7   91.35    6.07
  -8   3   7   91.49    6.44
  -8   3   6    9.52    2.81
  -8  -3   6    3.71    2.44
  -8   3   6   11.70    2.55
  -8   3   5   15.13    2.47
  -8  -3   5   17.67    2.78
  -8  -3   5   10.35    2.68
  -8   3   4   25.50    2.78
  -8  -3   4   25.04    3.20
  -8   3   3    0.55    1.81
  -8  -3   3    2.44    1.63
  -8   3   3    1.93    1.25
   8  -3  -2  141.21    6.65
   8  -3  -2  131.89    7.83
   8   3  -2  145.32    7.15
   8  -3  -1   76.62    4.71
   8  -3  -1   65.38    5.63
   8  -3   0  256.34    9.38
   8  -3   0  234.23   11.83
   8   3   0  259.98    9.97
  -8  -3  -1  108.18    6.44
   8  -3   1  114.29    5.90
   8  -3   1  112.15    6.58
   8  -3   1  109.70    8.12
   8   3   1  102.46    5.91
   8  -3   2   78.66    4.95
   8  -3   2   76.41    5.69
   8   3   2   70.06    4.53
   8   3   2   79.19    5.87
   8   3   2   80.93    5.31
  -8  -3  -2   71.36    5.84
   8   3   3    5.87    1.99
   8   3   3    5.76    1.86
   8  -3   3    6.79    1.93
   8   3   3    5.80    2.28
  -8  -3  -3    4.05    1.86
   8  -3   3    6.56    2.49
   8   3   4   25.75    3.66
   8  -3   4   28.74    3.32
   8  -3   4   24.66    3.82
   8   3   4   24.73    3.24
   8   3   5   60.49    4.78
   8  -3   5   67.78    4.95
  -8  -3  -5   64.38    5.22
   8   3   5   63.64    5.46
   8   3   5   69.34    5.06
   8   3   6  103.12    6.62
   8  -3   6   95.51    6.13
   8   3   6   97.31    6.71
  -8  -3  -6   92.13    6.21
   8   3   6   87.28    5.77
   8   3   7  213.21    9.70
   8  -3   7  213.83    9.42
   8   3   7  212.29   10.08
   8  -3   7  216.11   11.20
  -8  -3  -7  186.60    8.89
   8   3   7  201.69    8.89
   8  -3   8   89.31    6.06
   8   3   8   87.50    6.29
   8  -3   8   95.43    7.66
   8   3   8   91.47    6.54
   8  -3   9   37.99    3.99
   8   3   9   37.44    4.12
   8  -3   9   42.44    5.33
   8   3   9   39.81    4.51
   8  -3  10   61.74    6.31
   8  -3  10   77.24    5.48
   8  -3  11    6.27    2.07
   8  -3  11    5.27    2.83
   8  -3  12   33.38    4.51
   8  -3  12   33.10    3.30
   8  -3  13    2.85    1.24
   8   3  13    0.97    2.02
   8  -3  13    3.41    2.16
   8  -3  14    7.64    1.89
   8   3  14    9.82    2.24
   8   3  15    3.53    1.30
  -8   4  16   72.12    4.89
   8  -4 -16   62.01    2.73
  -8   4  15   38.80    6.26
  -8   4  14  261.43   11.33
  -8   4  14  212.42   10.89
  -8  -4  13  108.34    6.11
  -8   4  13  130.66    9.74
  -8   4  12  198.05    8.62
  -8   4  12  154.45    9.41
  -8   4  11  109.80    7.71
  -8   4  11   97.77    6.39
  -8   4  10  320.42   12.29
  -8   4  10  384.28   14.05
  -8   4   9   91.78    6.25
   8   4  -9   84.01    5.54
  -8  -4   8  447.39   15.55
  -8   4   8  442.91   14.85
  -8  -4   7  130.77    7.56
  -8   4   7  128.34    6.82
   8   4  -7  148.15    7.69
  -8  -4   6  887.72   23.52
   8   4  -6  907.98   24.14
  -8   4   5    5.32    2.35
   8   4  -5    4.55    1.89
  -8   4   5    5.69    1.85
  -8  -4   5    4.20    1.97
  -8  -4   4  374.28   13.33
  -8   4   4  370.91   12.78
   8   4  -4  396.73   13.35
  -8  -4   3  159.01    8.04
  -8   4   3  140.76    6.21
  -8   4   3  145.87    7.33
   8   4  -3  159.25    7.76
  -8  -4   3  141.37    9.81
   8  -4  -2 1254.31   29.87
  -8  -4   2 1244.78   31.55
   8  -4  -2 1190.97   33.98
   8   4  -2 1235.34   30.76
  -8  -4   1  612.87   18.71
   8  -4  -1  603.79   17.04
   8   4  -1  591.18   17.82
   8  -4   0 1044.96   25.89
   8  -4   0 1043.48   27.00
   8  -4   1   41.35    3.59
   8  -4   1   47.39    4.38
   8   4   1   46.69    3.49
  -8  -4  -1   43.89    4.38
   8   4   1   44.53    4.12
   8  -4   2  633.69   17.96
   8   4   2  627.90   17.29
   8  -4   2  655.44   19.71
  -8  -4  -2  630.26   19.51
   8   4   2  634.85   18.85
   8  -4   3   48.65    4.01
   8  -4   3   46.67    4.75
  -8  -4  -3   54.21    4.89
   8   4   3   53.61    4.60
   8   4   4  249.01    9.72
   8  -4   4  244.12    9.75
   8  -4   4  243.16   11.30
  -8  -4  -4  247.72   10.82
   8   4   4  240.79   10.34
   8   4   5    2.40    1.79
   8   4   5    1.77    1.80
   8  -4   5    3.22    1.79
   8  -4   5    1.63    2.32
  -8  -4  -5    2.42    2.12
   8   4   6  647.33   19.23
   8  -4   6  653.34   18.95
  -8  -4  -6  617.97   19.44
   8   4   6  642.94   19.43
   8   4   7   70.62    5.52
   8  -4   7   69.49    5.05
  -8  -4  -7   60.65    4.95
   8   4   7   59.78    4.92
   8  -4   8  195.67    8.84
   8  -4   8  198.67   11.19
   8   4   8  191.20    8.93
   8   4   8  208.56    9.91
   8   4   9    8.38    2.77
   8  -4   9    6.99    2.14
   8  -4   9   10.12    3.68
   8   4   9    6.86    1.94
   8  -4  10  197.68   11.13
   8   4  10  193.68    9.62
   8  -4  10  189.70    8.35
   8  -4  11   50.45    5.75
   8   4  11   58.47    5.19
   8  -4  11   55.89    4.06
   8  -4  12  297.87   12.47
   8  -4  12  257.38    8.80
   8   4  12  289.53   11.17
   8  -4  13    0.95    2.01
   8  -4  14  108.15    5.43
   8   4  15    4.24    1.25
  -8   5  15   -1.36    5.01
  -8   5  15   56.56    5.57
  -8   5  14  -15.81    6.84
  -8   5  14   37.17    6.69
  -8   5  13    1.22    7.09
  -8  -5  13    1.09    1.72
  -8   5  12   97.74    6.97
  -8   5  12   90.29    8.24
  -8   5  11   76.99    5.58
  -8  -5  11   31.07    4.44
  -8   5  10   56.58    5.14
  -8   5   9   52.56    4.83
   8   5  -9   55.89    4.36
  -8   5   8   58.42    4.76
  -8   5   8   62.26    5.72
   8   5  -8   63.12    4.87
  -8   5   7    8.08    2.99
   8   5  -7    6.59    2.21
  -8   5   7    7.57    2.29
  -8   5   6   12.30    3.07
   8   5  -6   14.60    2.79
  -8   5   6   13.87    2.38
  -8   5   5   21.77    3.45
  -8   5   5   19.43    2.56
  -8  -5   5   21.69    3.31
   8   5  -5   23.46    3.28
  -8   5   4   81.51    4.69
  -8  -5   4   97.47    6.49
  -8   5   4   90.59    5.98
   8   5  -4   96.81    6.19
  -8  -5   3   72.46    5.69
  -8   5   3   72.73    5.22
   8   5  -3   77.38    5.57
   8   5  -2    6.29    2.23
   8  -5  -2    9.88    2.35
  -8  -5   2    9.09    2.62
   8  -5  -1  671.56   18.68
   8  -5  -1  651.66   18.89
  -8  -5   1  673.87   20.59
   8   5  -1  676.32   19.85
   8  -5   0  223.70    9.62
   8  -5   0  224.34    9.03
   8  -5   1   53.06    4.16
   8  -5   1   52.18    4.66
  -8  -5  -1   51.43    5.03
   8   5   1   51.67    4.73
   8   5   2  139.56    6.46
   8  -5   2  146.34    7.10
   8  -5   2  156.43    8.35
  -8  -5  -2  152.24    8.39
   8   5   2  145.80    7.89
   8   5   3  180.40    7.76
   8  -5   3  178.48    8.01
   8  -5   3  187.18    9.59
  -8  -5  -3  188.95    9.52
   8   5   3  175.06    8.88
   8   5   4   19.38    2.79
   8   5   4   18.05    3.35
   8  -5   4   20.29    3.72
   8  -5   4   18.10    2.85
  -8  -5  -4   15.80    3.26
   8   5   5  635.57   18.66
   8  -5   5  651.22   18.63
  -8  -5  -5  649.36   20.22
   8  -5   5  637.33   21.32
   8   5   5  628.22   19.85
   8   5   6   99.93    6.46
   8   5   6   99.94    6.01
   8  -5   6   97.50    5.95
   8  -5   6  103.82    7.86
   8   5   6  105.41    6.95
   8   5   7   12.10    2.79
   8   5   7    9.82    2.73
   8  -5   7   11.14    3.71
   8  -5   7   10.09    2.28
   8  -5   8   36.17    3.50
   8   5   8   39.33    4.15
   8   5   8   39.36    4.42
   8  -5   9  104.79    8.20
   8   5   9  106.62    6.44
   8   5   9   99.18    6.71
   8  -5   9  107.88    5.83
   8  -5  10  137.27    9.20
   8   5  10  129.28    7.59
   8   5  11    4.87    2.51
   8  -5  11    6.88    3.39
   8   5  12   11.36    2.65
   8  -5  12    8.72    3.10
   8  -5  13    0.26    2.00
   8   5  13    0.20    1.67
   8   5  14    5.13    1.63
   8  -5  14    3.24    1.48
   8   5  15    2.39    0.88
  -8   6  15   -2.44    3.04
  -8   6  14   46.98    6.24
  -8  -6  14   48.97    3.20
  -8   6  13   30.38    5.75
  -8  -6  13    1.79    1.76
  -8   6  12   63.82    5.80
  -8  -6  12   30.10    4.01
  -8   6  11  213.46    9.12
  -8  -6  11  208.13   10.62
  -8   6  10  260.86   10.35
  -8   6  10  300.43   12.31
  -8   6   9   26.06    4.06
  -8   6   9   21.50    3.23
  -8   6   8   66.27    4.81
  -8   6   8   66.96    5.67
   8   6  -8   72.47    5.03
  -8   6   7    2.41    2.46
   8   6  -7    3.95    1.91
  -8   6   7    3.71    1.76
  -8   6   6  196.03    9.41
   8   6  -6  194.72    9.05
  -8   6   5   98.76    5.25
  -8   6   5  104.38    6.62
   8   6  -5  103.94    6.71
  -8  -6   4  166.06    8.95
  -8   6   4  178.57    8.57
   8   6  -4  159.12    8.41
  -8  -6   3   90.63    6.59
  -8   6   3   82.73    5.69
   8   6  -3   84.29    5.98
   8  -6  -2  736.81   20.36
  -8  -6   2  745.81   22.53
   8   6  -2  728.05   21.66
  -8  -6   1  286.53   12.40
   8   6  -1  283.25   11.66
   8  -6  -1  276.73   10.46
   8  -6   0 1310.90   31.64
   8  -6   0 1294.31   32.43
   8   6   0 1334.29   33.60
   8  -6   1   61.08    4.47
   8  -6   1   52.86    4.71
  -8  -6  -1   60.45    5.60
   8   6   2  146.41    6.57
   8  -6   2  159.16    7.41
   8  -6   2  149.46    8.25
  -8  -6  -2  157.26    8.91
   8   6   2  147.91    8.30
   8   6   3  117.85    5.99
   8  -6   3  120.15    6.32
   8  -6   3  111.04    7.42
  -8  -6  -3  116.89    7.74
   8   6   3  119.69    7.48
   8   6   4  302.52   10.90
   8  -6   4  309.99   11.13
   8  -6   4  307.48   13.26
  -8  -6  -4  286.98   12.64
   8   6   4  309.65   12.77
   8   6   5   93.95    6.19
   8  -6   5   93.15    5.57
   8  -6   5   92.99    7.22
  -8  -6  -5   87.04    6.59
   8   6   5   92.57    6.77
   8   6   5   96.09    5.84
   8  -6   6  532.13   15.80
   8   6   6  534.41   17.00
   8  -6   6  560.95   19.86
   8   6   6  535.33   18.18
   8   6   6  544.58   16.89
   8   6   7   73.86    5.07
   8  -6   7   69.03    6.73
   8   6   7   69.74    5.85
   8   6   7   69.40    5.35
   8  -6   8  355.64   15.52
   8   6   8  335.85   13.32
   8   6   8  334.15   12.73
   8   6   9  287.92   11.57
   8   6   9  283.31   11.52
   8  -6  10   65.56    6.52
   8   6  10   62.12    4.61
   8   6  10   65.08    5.15
   8  -6  11   15.96    3.90
   8   6  11   14.07    2.76
   8  -6  12  235.68   10.69
   8   6  12  235.57    9.17
   8   6  13    1.47    1.45
   8  -6  13    1.88    1.81
   8  -6  14   50.82    3.37
   8   6  14   59.53    3.27
  -8   7  14    0.31    3.14
  -8  -7  14    2.73    1.05
  -8   7  13   59.31    4.93
  -8  -7  13   37.96    3.59
  -8   7  12   -1.41    6.20
  -8  -7  12    5.26    2.41
  -8   7  11   17.50    4.54
  -8   7  11   20.32    3.30
  -8   7  10   21.51    2.97
  -8  -7  10   27.74    4.57
  -8   7  10   34.98    4.48
  -8   7   9   29.54    4.33
  -8   7   9   27.49    3.12
  -8   7   8    0.91    2.58
  -8   7   8    2.32    1.58
  -8   7   7    1.66    2.41
   8   7  -7    4.55    1.87
  -8   7   7    2.84    1.50
  -8   7   6   30.46    2.97
  -8   7   6   37.72    4.26
   8   7  -6   38.76    3.99
  -8   7   5   -1.29    2.04
   8   7  -5    1.03    1.67
  -8   7   4   23.44    3.53
   8   7  -4   24.04    3.60
   8  -7  -3  134.79    7.15
   8   7  -3  131.71    7.77
   8   7  -2   19.78    3.32
   8  -7  -2   18.12    2.77
   8  -7  -1   78.28    5.23
  -8  -7   1   86.53    6.83
   8   7  -1   90.53    6.47
   8  -7   0  163.87    7.62
   8   7   0  169.86    9.09
   8  -7   1   96.63    5.70
   8  -7   1  105.43    6.59
  -8  -7  -1  108.59    7.67
   8   7   1   98.93    6.98
   8  -7   2  147.03    7.07
   8  -7   2  151.84    8.44
  -8  -7  -2  156.91    9.27
   8   7   3   13.57    3.22
   8  -7   3    9.60    2.10
   8  -7   3   10.25    2.95
   8  -7   4   66.99    6.03
   8  -7   4   64.72    4.45
   8   7   4   67.83    6.00
   8   7   4   66.57    4.52
   8   7   5   70.12    5.65
   8  -7   5   69.40    6.40
   8   7   5   66.18    5.92
   8   7   5   66.20    4.70
   8   7   6   70.85    5.58
   8   7   6   73.03    6.27
   8  -7   6   75.98    6.94
   8   7   6   75.31    5.24
   8   7   7    9.04    2.40
   8   7   7    6.77    2.26
   8  -7   7    6.54    3.44
   8   7   7    6.06    2.68
   8   7   8   18.69    3.02
   8  -7   8   23.17    4.69
   8   7   8   18.82    3.43
   8  -7   9  191.46   10.78
   8   7   9  175.05    8.36
   8   7  10    4.93    2.08
   8   7  10    6.22    2.05
   8   7  11   45.71    3.83
   8   7  12   48.66    3.64
   8  -7  13   45.81    3.75
   8   7  13   40.96    2.89
   8  -7  14   13.68    1.56
   8  -8 -14   71.82    3.39
  -8  -8  13    0.66    1.44
  -8   8  12  145.24    6.05
  -8   8  12  137.50    8.16
  -8   8  11  105.42    5.22
  -8  -8  11  120.19    7.58
  -8   8  11  105.71    7.09
  -8  -8  10  339.95   13.84
  -8   8  10  323.34   11.88
  -8   8   9    5.18    2.58
  -8   8   9    3.90    1.58
  -8  -8   9    4.39    3.41
  -8   8   8    8.70    2.87
  -8   8   8   10.33    1.90
  -8   8   7   48.10    4.77
   8   8  -6  307.34   11.71
  -8   8   6  311.46   12.31
  -8   8   5    4.39    2.09
   8   8  -5    4.99    2.12
   8  -8  -4  560.31   17.15
   8   8  -4  535.21   17.82
   8   8  -3    4.51    2.34
   8  -8  -3    3.93    1.95
   8  -8  -2  381.37   12.98
   8   8  -2  372.69   14.46
   8   8  -1    9.86    2.89
   8  -8  -1    5.57    1.96
   8  -8   0  678.45   19.05
   8   8   0  702.33   21.81
   8  -8   1  452.28   14.08
   8  -8   1  442.08   15.20
   8   8   1  486.43   17.17
   8  -8   2  303.46   12.44
   8  -8   3    4.83    2.49
   8   8   4    6.07    3.00
   8   8   4    4.48    2.42
   8  -8   4    5.34    2.68
   8   8   5   26.91    4.19
   8   8   5   31.92    4.16
   8  -8   5   29.85    4.50
   8   8   5   24.85    2.84
   8   8   6  249.45   10.84
   8  -8   6  241.26   12.01
   8   8   6  235.42   11.44
   8   8   6  227.60    9.07
   8   8   7   13.41    2.35
   8   8   7   16.24    2.87
   8  -8   7   18.55    4.01
   8   8   7   15.02    3.43
   8   8   8  401.24   13.35
   8  -8   8  458.76   17.22
   8   8   8  457.32   15.88
   8   8   8  415.49   13.52
   8  -8   9   45.50    5.35
   8   8   9   44.03    4.38
   8   8   9   45.77    3.81
   8  -8  10   78.15    6.39
   8   8  10   77.63    5.01
   8   8  10   73.31    4.57
   8   8  11   20.13    2.38
   8   8  12   63.65    3.45
   8  -8  13   10.28    1.84
   8  -9 -13   23.07    1.95
  -8  -9  13   21.64    2.23
   8  -9 -12   19.85    2.39
  -8  -9  12   12.30    2.52
  -8  -9  11    6.18    2.65
  -8   9  10   28.41    3.80
  -8  -9  10   47.19    5.11
  -8   9   9    7.81    2.54
  -8   9   8   -0.91    2.48
  -8   9   7    3.07    2.17
   8   9  -6    1.19    1.41
   8  -9  -5   80.06    5.47
   8   9  -5   74.60    5.34
   8  -9  -4   34.75    3.64
   8   9  -4   39.51    4.14
   8  -9  -3   32.82    3.45
   8   9  -3   29.43    3.97
   8   9  -2    5.02    2.32
   8  -9  -2    5.31    1.81
   8  -9  -1  130.07    6.49
   8   9  -1  132.39    8.24
   8   9   0  154.93    9.08
   8   9   1   66.32    6.16
   8  -9   2  200.73    9.46
   8   9   2  216.99   10.96
   8  -9   3   36.57    4.26
   8   9   3   40.49    4.92
   8   9   4   73.35    6.19
   8  -9   4   71.52    5.99
   8   9   5   22.17    3.63
   8  -9   5   26.53    4.12
   8   9   5   25.77    4.15
   8   9   6   25.78    3.57
   8  -9   6   26.10    4.19
   8   9   6   29.10    4.27
   8   9   7   46.06    4.25
   8  -9   7   46.75    5.23
   8   9   7   50.39    5.20
   8   9   8   32.18    3.23
   8  -9   8   33.72    4.54
   8   9   8   34.02    4.13
   8   9   8   28.68    2.71
   8   9   9   23.72    3.26
   8  -9   9   22.30    3.85
   8   9   9   18.83    2.20
   8  -9  10   16.01    3.27
   8   9  10   15.56    1.85
   8   9  11    1.55    0.84
   8  -9  11    3.14    1.97
  -8 -10  12   13.50    2.06
   8 -10 -12    8.69    1.20
   8 -10 -11    7.06    1.48
  -8 -10  11   10.87    2.45
   8 -10 -10   52.45    3.59
   8 -10  -9   41.44    3.46
   8 -10  -8  187.18    7.89
  -8 -10   8  204.56   10.51
   8 -10  -7   40.89    3.68
  -8 -10   7   38.14    5.04
   8 -10  -6   81.15    5.11
   8 -10  -5  130.21    6.47
   8  10  -5  114.68    6.29
   8 -10  -4  104.28    5.74
   8  10  -4  105.53    6.40
   8  10  -3    7.76    2.48
   8 -10  -3    7.34    1.89
   8  10  -2  257.61   11.31
   8  10  -1   16.95    3.37
   8  10   0  151.77    8.87
   8  10   1   55.38    5.57
   8  10   2  216.03   11.06
   8  10   2  217.91   10.94
   8  10   3   90.52    6.99
   8 -10   3   74.65    5.44
   8  10   3   81.96    6.71
   8  10   4  112.75    7.61
   8 -10   4  107.51    6.84
   8  10   5   40.04    4.53
   8 -10   5   46.61    4.74
   8  10   5   45.65    5.28
   8  10   6  205.65    9.49
   8 -10   6  192.19    9.73
   8  10   6  211.87   10.36
   8  10   7    2.57    1.82
   8 -10   7    0.93    2.09
   8  10   7    3.95    2.50
   8  10   8  119.30    5.86
   8 -10   8  136.75    7.69
   8  10   8  137.85    7.38
   8 -10   9   28.30    3.59
   8  10   9   26.93    3.12
   8 -10  10   22.33    3.01
   8 -10  11   -0.33    1.29
   8 -11 -10    1.48    0.76
   8 -11  -9   70.84    3.58
  -8 -11   9   94.12    5.95
   8  11  -8    6.40    1.51
   8 -11  -8    6.70    1.44
   8  11  -7   69.68    4.63
   8 -11  -7   64.78    3.81
  -8 -11   7   79.29    6.18
   8 -11  -6    0.79    1.18
  -8 -11   6    1.64    2.39
  -8 -11   5   20.17    3.64
   8  11  -4   35.81    3.43
   8  11  -3   24.46    3.22
   8  11  -2  147.71    7.99
   8  11  -1   19.73    4.01
   8  11  -1   19.65    3.38
   8  11   0   27.68    3.89
   8  11   1   21.03    3.65
   8  11   2    2.44    2.62
   8  11   2    4.86    2.58
   8  11   3  133.87    8.22
   8  11   3  139.39    8.34
   8  11   4    1.89    2.22
   8 -11   4    1.94    1.58
   8  11   4    3.11    2.72
   8  11   5   12.20    2.83
   8 -11   5   10.15    2.34
   8  11   6   12.39    2.61
   8 -11   6   12.01    2.52
   8  11   6   17.43    3.24
   8  11   7    4.59    1.81
   8 -11   7    3.71    1.88
   8  11   7    3.58    2.26
   8  11   8   16.80    1.99
   8 -11   8   22.68    2.91
   8  11   8   23.94    3.03
   8 -11   9    9.14    1.94
   8 -11  10    2.86    1.19
  -8 -12  10    9.68    1.63
  -8 -12   9  151.96    6.57
  -8 -12   8  189.97    8.08
   8  12  -7    6.85    1.38
  -8 -12   7   11.98    2.56
   8  12  -6  149.36    6.70
  -8 -12   6  163.29    7.94
   8  12  -5    7.79    2.19
  -8 -12   5    8.49    2.49
   8  12  -4   28.33    3.53
  -8 -12   4   25.08    3.38
   8  12  -3   27.66    3.72
  -8 -12   3   28.15    3.41
   8  12  -3   24.99    2.77
   8  12  -2    2.57    2.48
  -8 -12   2    4.86    1.94
   8  12  -2    2.76    1.65
   8  12  -1   33.86    4.30
  -8 -12   1   23.08    2.73
   8  12  -1   28.84    3.43
   8  12   0  137.38    8.08
   8  12   0  129.43    7.28
   8  12   1   77.12    5.74
   8  12   2   91.68    6.50
   8  12   2   90.24    6.19
   8  12   3   79.09    5.95
   8  12   3   79.61    5.90
   8  12   4   82.93    5.73
   8  12   4   84.23    5.90
   8  12   5    0.71    1.69
   8  12   5    3.56    2.29
   8  12   6   24.34    2.84
   8  12   7    6.79    1.51
   8 -12   7    3.22    1.09
   8  12   7    6.20    1.92
  -8 -13   8    1.18    0.84
  -8 -13   7    7.27    1.50
   8  13  -6    1.97    0.83
  -8 -13   6    2.86    1.27
   8  13  -5   42.39    3.12
  -8 -13   5   47.76    3.41
  -8 -13   5   49.18    3.43
   8  13  -4   13.59    2.23
  -8 -13   4    9.82    1.81
   8  13  -3    0.11    1.50
  -8 -13   3    0.44    0.97
   8  13  -2   16.41    2.76
   8  13  -2   13.35    1.83
   8  13  -1   32.32    3.70
   8  13  -1   36.29    3.04
   8  13   0    9.33    2.47
   8  13   0    8.08    1.98
   8  13   1   96.24    5.50
   8  13   2   28.02    3.17
   8  13   3   84.11    5.34
   8  13   3   86.91    5.25
   8  13   4    1.32    1.61
   8  13   4    1.52    1.66
   8  13   5    2.58    1.49
   8  13   5    2.86    1.61
   8  13   6    3.44    1.19
   8  14  -4   26.96    1.93
  -8 -14   4   33.13    2.47
   8  14  -3    2.95    1.16
  -8 -14   3    2.03    1.30
   8  14  -2    2.78    1.32
   8  14  -1    1.94    1.37
   8  14   0   32.10    2.97
   8  14   0   20.09    1.73
   8  14   1  101.69    5.10
   8  14   1   75.49    3.73
   8  14   2   67.38    3.58
   8  14   3    1.74    1.31
  -8 -14  -3    1.35    1.18
   8  14   3    2.17    1.15
   8  14   4   29.55    2.38
  -8 -14  -4   24.95    1.99
   8  14   5    0.66    0.71
  -8 -15   1    1.88    0.80
  -9   0  14   -3.07    8.61
   9   0 -13    3.64    1.56
  -9   0  13    3.87    9.38
  -9   0  12  181.98   12.37
  -9   0  12  118.72    8.53
  -9   0  11   38.24    8.22
  -9   0  10  338.61   12.75
  -9   0  10  244.22   11.66
  -9   0   9   -6.00    4.92
  -9   0   8 1050.31   27.65
  -9   0   7    8.25    3.24
  -9   0   6  311.27   11.80
  -9   0   6  330.80   12.00
   9   0  -5   11.70    2.43
  -9   0   5   11.80    2.80
  -9   0   4   76.35    5.18
   9   0  -4   78.69    4.94
   9   0  -3    3.47    1.61
  -9   0   3    0.78    1.81
   9   0  -2   98.64    5.45
   9   0  -1    5.69    1.96
   9   0  -1    6.56    2.38
   9   0   0 1371.27   32.56
   9   0   0 1393.15   34.93
   9   0   1   35.16    3.65
   9   0   1   35.69    4.48
   9   0   1   35.25    3.64
   9   0   2 1340.67   31.94
   9   0   2 1330.20   31.47
  -9   0  -2 1251.40   35.19
   9   0   3   14.20    2.47
   9   0   3   17.66    2.93
   9   0   3   13.53    3.31
   9   0   4  410.84   15.36
   9   0   4  382.41   12.49
   9   0   5   28.48    4.53
   9   0   6   29.49    4.46
   9   0   7   10.42    2.94
   9   0   7    8.64    3.22
   9   0   8  168.56    8.95
   9   0   8  171.49   10.00
   9   0   9    5.13    2.54
   9   0   9    7.45    3.19
   9   0  10   19.47    3.49
   9   0  10   21.59    3.85
   9   0  11   35.43    4.64
   9   0  11   40.18    4.55
   9   0  12  125.40    6.94
   9   0  12  147.42    7.41
   9   0  13   22.15    2.95
   9   0  14   27.56    2.58
  -9   1  15   84.62    7.64
   9  -1 -14    5.98    1.57
  -9   1  14    6.67    8.05
  -9   1  13   29.27    6.58
  -9  -1  13   62.96    9.72
   9   1 -12    5.36    1.61
  -9  -1  12  -13.78    9.69
  -9  -1  11  303.58   14.02
   9   1 -11  285.52   10.33
  -9   1  11  281.27   12.87
  -9  -1  10  126.54    8.56
  -9   1  10  167.73    9.86
  -9   1   9  216.06   10.28
  -9  -1   9  237.31   10.33
  -9  -1   8  236.60   10.34
  -9   1   8  222.65   10.09
  -9  -1   8  215.79    9.85
  -9   1   8  239.53   10.60
  -9  -1   7 1274.69   31.43
  -9   1   7 1214.98   30.99
   9   1  -7 1218.85   30.21
  -9   1   7 1298.01   31.85
  -9   1   6   -1.30    2.92
   9   1  -6    2.51    1.60
  -9   1   6    2.69    2.46
  -9   1   5  288.06   10.85
   9   1  -5  292.27   10.45
  -9   1   5  299.33   11.40
  -9   1   4   25.36    3.14
   9  -1  -4   24.82    3.01
   9   1  -4   28.14    2.97
  -9   1   3  230.24    9.18
   9   1  -3  236.62    8.96
   9  -1  -3  234.80    9.20
   9   1  -2   56.09    4.04
   9  -1  -2   54.51    4.15
   9   1  -1  433.64   13.28
   9  -1  -1  420.36   13.41
   9  -1  -1  423.97   14.83
   9   1   0   22.98    2.76
   9  -1   0   26.24    3.08
   9  -1   0   26.54    3.61
   9   1   0   23.16    3.67
   9   1   0   29.41    3.23
   9   1   1 2602.27   56.13
   9  -1   1 2614.40   58.65
   9   1   1 2559.82   56.47
   9   1   2   51.13    4.17
   9   1   2   47.08    4.88
   9  -1   2   53.19    5.11
   9   1   2   51.66    4.23
   9  -1   2   48.95    3.85
   9  -1   3  298.12   11.23
   9   1   3  309.24   12.73
   9   1   3  292.90   10.87
   9  -1   3  286.85   10.13
   9   1   3  295.53   11.13
   9   1   4  100.52    6.19
   9   1   4  102.36    7.21
   9   1   4   97.37    5.74
   9  -1   4   98.83    6.20
   9   1   5  857.01   23.60
   9  -1   5  857.82   23.59
   9  -1   5  858.57   25.69
   9   1   5  845.44   25.32
   9   1   5  822.81   22.21
   9  -1   6   14.79    2.98
   9   1   6   20.29    3.82
   9  -1   6   20.02    3.92
   9  -1   7  262.70   11.17
   9   1   7  259.66   12.32
   9  -1   7  250.98   12.45
   9   1   8   28.96    3.93
   9  -1   8   27.27    3.72
   9   1   8   24.44    4.13
   9  -1   8   26.55    4.37
   9  -1   9  322.97   12.90
   9   1   9  323.22   13.79
   9  -1   9  331.23   14.56
   9   1   9  322.79   13.11
   9   1  10  100.03    7.02
   9  -1  10   93.77    7.31
   9   1  10  106.08    7.08
   9  -1  10  101.28    6.72
   9   1  11  217.83   10.00
   9  -1  11  234.16   11.11
   9   1  11  235.83   10.40
   9  -1  11  245.45   10.33
   9   1  12    1.18    2.05
   9  -1  12    1.69    1.89
   9   1  12   -0.11    1.34
   9  -1  12   -0.14    1.91
   9  -1  13  306.70   10.16
   9   1  13  300.93   10.53
   9  -1  14    1.61    1.13
   9   1  14    1.51    1.41
   9   1  15   19.54    1.64
  -9   2  15  -12.48    6.50
   9  -2 -15    6.10    1.16
  -9   2  12  -11.63    8.10
  -9   2  11   77.14    8.06
  -9  -2  11   83.20    5.65
   9   2 -11   89.78    5.77
  -9   2  10   22.98    5.38
  -9   2  10   64.96    5.98
  -9   2   9   19.15    3.98
   9   2  -9    9.93    2.03
  -9   2   9   20.12    3.92
  -9   2   8   22.71    4.05
   9   2  -8   21.25    2.66
  -9  -2   8   31.52    4.22
  -9   2   8   25.94    3.94
  -9   2   7   18.78    4.03
  -9   2   7   24.73    3.72
   9   2  -7   21.74    2.81
  -9  -2   7   19.97    3.89
  -9   2   6   -1.49    2.65
   9   2  -6    0.71    1.27
  -9  -2   6   -2.51    2.93
  -9   2   6    4.46    2.29
  -9  -2   6    1.44    1.59
  -9   2   5   10.57    3.10
   9   2  -5   13.71    2.23
  -9  -2   5   10.32    3.02
  -9   2   5   15.11    2.83
  -9   2   4   27.48    3.64
  -9   2   4   28.52    3.25
   9   2  -4   33.17    3.05
  -9   2   3  142.95    6.92
   9   2  -3  150.28    6.70
   9  -2  -3  148.35    7.24
   9   2  -2   35.09    3.19
   9  -2  -2   35.46    3.81
   9   2  -1   40.61    3.53
   9  -2  -1   45.37    4.45
   9   2  -1   46.20    4.33
   9   2   0    1.52    1.65
   9   2   0    2.69    1.48
   9  -2   0    1.04    1.80
   9   2   1   91.51    5.50
   9  -2   1   94.16    5.85
   9   2   1  103.78    7.12
   9  -2   1  103.39    6.92
   9   2   1   98.70    6.10
   9   2   2   39.21    3.71
   9  -2   2   40.92    3.85
   9   2   2   35.47    4.30
   9  -2   2   40.67    4.46
   9   2   2   39.31    3.83
   9   2   3   47.22    4.22
   9  -2   3   52.42    4.58
   9   2   3   46.06    4.96
   9  -2   3   50.93    5.23
   9   2   3   45.11    4.20
   9  -2   4   83.29    5.71
   9   2   4   80.89    5.52
   9   2   4   80.24    6.33
   9   2   4   78.00    5.36
   9  -2   5   94.18    6.35
   9   2   5   87.27    6.89
   9   2   5   78.04    5.43
   9   2   6   13.22    2.86
   9   2   6    9.03    2.09
   9  -2   6    8.60    2.52
   9   2   6   12.01    3.09
   9  -2   6   10.54    3.27
   9   2   7   25.86    3.89
   9  -2   7   24.51    3.80
   9   2   7   22.06    4.17
   9  -2   7   30.18    4.71
  -9  -2  -7   19.76    3.37
   9  -2   8   11.52    2.76
   9   2   8   10.70    2.88
   9  -2   8    9.71    3.46
   9  -2   9  105.08    6.81
   9   2   9  103.86    7.14
   9  -2   9   94.62    7.74
   9   2  10  112.78    7.06
   9  -2  10  122.99    8.44
   9  -2  10  127.02    7.24
   9   2  11   34.28    3.70
   9  -2  11   36.17    4.87
   9  -2  11   41.93    4.14
   9   2  12   14.60    2.93
   9  -2  12   10.75    2.19
   9  -2  12    9.96    2.80
   9  -2  13   18.53    2.83
   9  -2  13   17.09    2.31
   9  -2  14    3.16    0.88
   9   2  14    4.97    1.58
   9   2  15    2.13    0.87
   9  -3 -15  108.06    4.46
  -9   3  14   28.01    7.66
  -9   3  13   73.61    8.54
  -9   3  13  150.78   10.26
  -9   3  12   36.40    7.43
  -9  -3  12   52.05    4.27
  -9  -3  11  117.30    7.09
  -9   3  11  121.80    9.13
   9   3 -11  113.83    6.21
  -9   3  10  159.88    8.27
   9   3 -10  143.47    7.54
  -9   3   9  335.13   12.61
  -9   3   9  353.97   13.57
   9   3  -9  347.99   13.00
  -9  -3   8  105.86    7.31
  -9   3   8  118.22    7.00
  -9   3   8  127.60    7.79
  -9  -3   7  912.78   24.34
  -9   3   7  910.07   24.64
  -9   3   6   10.60    3.16
  -9  -3   6    5.42    3.26
  -9   3   6   15.30    2.83
  -9  -3   6   12.92    2.55
  -9   3   5  512.02   15.94
  -9  -3   5  591.50   17.85
   9   3  -4   -0.29    1.65
   9   3  -4    0.28    1.08
  -9   3   4   -0.22    1.69
  -9  -3   4   -0.30    1.78
  -9   3   3  277.73   10.10
   9   3  -3  278.78    9.66
   9   3  -3  298.12   11.64
   9   3  -2  543.02   15.24
   9  -3  -2  522.71   16.10
   9  -3  -2  551.93   17.01
   9   3  -1 1110.34   27.03
   9  -3  -1 1138.45   28.25
   9  -3  -1 1165.81   29.50
   9   3  -1 1108.87   28.92
   9   3   0  303.61   10.63
   9  -3   0  315.30   11.40
   9  -3   0  331.64   12.63
   9   3   0  315.78   12.00
   9   3   1 1093.83   27.01
   9  -3   1 1085.72   27.68
   9  -3   1 1111.54   29.58
   9   3   1 1107.10   28.50
   9   3   2    3.27    1.94
   9   3   2    3.76    1.79
   9  -3   2    3.46    1.86
   9  -3   2    4.61    2.39
   9   3   3  581.85   17.39
   9  -3   3  594.48   17.86
   9   3   3  607.23   19.69
   9  -3   3  586.69   19.56
   9   3   3  580.18   18.08
   9   3   4   17.87    2.89
   9  -3   4   16.78    2.82
   9   3   4   15.67    3.33
   9  -3   4   18.00    3.71
   9   3   5  576.31   17.88
   9  -3   5  579.67   18.02
   9   3   5  593.83   19.61
   9  -3   5  562.12   19.79
  -9  -3  -5  543.91   18.47
   9   3   5  575.98   17.89
   9   3   6    0.69    1.57
   9   3   6   -0.59    1.98
   9  -3   6    0.86    1.85
   9   3   6   -0.18    2.12
  -9  -3  -6   -0.16    2.04
   9   3   7  538.18   17.40
   9  -3   7  538.23   17.08
   9   3   7  508.57   17.93
   9  -3   7  536.12   19.54
  -9  -3  -7  477.19   16.48
   9   3   7  500.83   16.04
   9   3   8   13.71    3.16
   9  -3   8    9.85    2.44
   9   3   8   13.07    2.96
   9  -3   8   13.57    3.73
   9  -3   9  279.35   11.16
   9   3   9  248.47   11.09
   9  -3   9  273.25   13.32
   9   3   9  272.16   11.63
   9  -3  10   18.49    4.11
   9  -3  10   26.10    3.38
   9  -3  11  438.16   16.41
   9  -3  11  427.53   13.72
   9  -3  12    7.98    2.59
   9  -3  12    6.66    1.78
   9  -3  13   87.07    5.36
   9   3  13   89.93    5.23
   9   3  14    0.23    1.26
   9  -3  14    0.81    0.88
   9   3  15   33.82    2.08
   9  -4 -15    1.39    0.98
  -9   4  14   23.47    6.66
  -9   4  13   23.16    7.31
  -9   4  12   13.69    6.64
  -9  -4  12   29.17    3.51
  -9   4  11   21.90    5.45
  -9  -4  11   12.33    3.08
  -9   4  10    9.79    3.78
   9   4 -10    2.10    1.55
  -9   4  10   11.09    3.10
  -9   4   9   65.68    5.34
  -9   4   9   71.32    6.05
   9   4  -9   70.31    5.28
  -9   4   8    3.12    2.96
   9   4  -8    3.72    2.06
  -9   4   8    6.33    2.39
   9   4  -7   64.53    5.36
  -9   4   7   67.01    5.10
   9   4  -6   11.42    2.77
  -9   4   6    7.40    2.21
  -9  -4   6    9.25    2.44
  -9   4   5   47.47    3.99
  -9  -4   5   55.92    4.95
  -9   4   5   51.18    5.06
   9   4  -5   52.21    4.86
  -9   4   4  109.42    5.88
  -9  -4   4  113.47    7.14
  -9   4   4  112.60    6.87
   9   4  -4  111.39    6.96
  -9   4   3  101.12    5.50
  -9  -4   3  109.39    7.04
   9  -4  -3  110.50    6.40
   9   4  -3  104.61    6.66
   9   4  -2   22.72    3.28
   9  -4  -2   22.86    3.02
   9  -4  -2   20.28    2.92
  -9  -4   2   27.48    3.88
   9   4  -1   36.67    3.17
   9  -4  -1   37.68    3.84
   9  -4  -1   34.50    3.79
  -9  -4   1   36.27    4.37
   9   4   0    8.24    2.37
   9   4   0    6.44    1.66
   9  -4   0    7.58    2.16
   9  -4   0    9.86    2.59
   9  -4   1  137.53    7.24
   9  -4   1  144.22    8.19
   9   4   1  143.10    6.81
  -9  -4  -1  153.98    8.78
   9   4   1  144.74    7.90
   9   4   2  263.17    9.86
   9  -4   2  256.69   10.31
   9  -4   2  248.13   11.47
  -9  -4  -2  257.64   11.59
   9   4   2  252.53   10.94
   9  -4   3   31.08    3.57
   9  -4   3   28.08    4.19
  -9  -4  -3   31.29    4.29
   9   4   3   27.58    3.82
   9   4   4    9.88    2.70
   9  -4   4   13.73    2.66
   9   4   4   13.25    2.72
   9  -4   4   15.24    3.61
  -9  -4  -4   13.69    3.28
   9   4   5   69.43    5.48
   9  -4   5   70.97    5.48
   9  -4   5   79.78    6.93
  -9  -4  -5   71.13    6.08
   9   4   5   74.89    5.81
   9   4   6   27.90    3.72
   9  -4   6   24.43    3.41
   9  -4   6   25.17    4.52
   9   4   6   27.13    3.72
  -9  -4  -6   22.06    3.61
   9   4   7  117.74    7.27
   9  -4   7  119.98    6.95
  -9  -4  -7  104.51    6.76
   9   4   7  110.27    6.78
   9  -4   8  110.89    6.52
   9  -4   8  118.73    8.80
   9   4   8  102.86    6.27
   9   4   8  110.91    7.15
   9  -4   9   35.11    5.49
   9   4   9   36.38    4.41
   9  -4   9   33.17    3.67
   9   4  10   17.14    3.39
   9  -4  10   19.27    2.76
   9  -4  10   18.60    4.14
   9   4  11   37.59    4.27
   9  -4  11   28.53    2.92
   9   4  12    4.50    2.12
   9  -4  12    4.07    2.37
   9  -4  13   20.80    2.98
   9  -4  14    4.29    1.19
   9  -5 -15   38.11    2.36
  -9   5  15   10.70    3.35
  -9   5  14    1.27    4.95
  -9   5  13   24.91    6.30
  -9  -5  13    2.02    1.45
  -9   5  12   52.52    7.65
  -9  -5  12   72.99    5.39
  -9   5  11  387.24   13.08
  -9  -5  11  370.60   14.41
  -9   5  11  394.37   14.45
  -9   5  10  132.77    7.16
  -9   5   9  117.77    6.78
   9   5  -9  132.42    6.98
  -9   5   8   49.37    4.44
   9   5  -8   57.55    4.84
  -9   5   7  451.47   15.72
   9   5  -7  448.47   15.33
  -9   5   6   38.91    3.69
  -9   5   6   39.36    4.61
   9   5  -6   43.04    4.46
  -9   5   5    9.75    2.76
   9   5  -5   17.95    3.06
  -9   5   5   13.37    2.39
  -9  -5   5   11.80    2.77
  -9   5   4    3.00    2.31
   9   5  -4    5.11    2.38
  -9   5   4    3.30    1.51
  -9  -5   4    4.15    2.42
   9  -5  -3  548.26   17.01
  -9  -5   3  544.04   18.45
   9   5  -3  543.76   17.91
   9  -5  -2  154.18    7.78
  -9  -5   2  158.52    9.01
   9   5  -2  153.80    8.43
   9  -5  -1  368.90   13.25
  -9  -5   1  375.65   14.73
   9  -5  -1  370.72   12.95
   9   5  -1  369.84   13.98
   9  -5   0  193.09    8.70
   9  -5   0  187.91    9.19
   9  -5   1  345.52   12.47
   9  -5   1  350.32   13.60
  -9  -5  -1  336.81   13.99
   9   5   1  367.12   13.81
   9   5   2  116.56    6.10
   9  -5   2  114.65    6.60
   9  -5   2  117.27    7.61
  -9  -5  -2  118.20    7.83
   9   5   2  114.76    7.31
   9   5   3  122.91    6.59
   9  -5   3  124.63    6.98
   9  -5   3  133.68    8.40
  -9  -5  -3  138.16    8.49
   9   5   3  132.74    7.95
   9   5   4   26.18    3.26
   9   5   4   24.90    3.81
   9  -5   4   24.00    3.28
   9  -5   4   24.43    4.02
  -9  -5  -4   23.94    3.82
   9   5   5  416.22   14.30
   9  -5   5  418.27   14.35
   9  -5   5  439.54   17.11
  -9  -5  -5  413.68   15.69
   9   5   5  418.38   15.37
   9   5   6    1.61    2.03
   9   5   6    3.41    2.06
   9  -5   6    2.53    3.23
  -9  -5  -6    0.83    2.09
   9   5   7   14.93    2.98
   9  -5   7   11.16    2.39
   9  -5   7   15.15    3.95
   9   5   7   13.70    2.88
   9  -5   8  113.34    6.27
   9   5   8  112.30    6.81
   9   5   8  121.45    7.32
   9  -5   9  609.77   21.45
   9   5   9  602.03   17.91
   9   5   9  640.46   19.28
   9  -5   9  603.33   17.22
   9  -5  10   48.36    5.74
   9   5  10   48.05    4.56
   9  -5  10   37.51    3.14
   9  -5  11   66.18    6.10
   9   5  11   68.50    5.07
   9  -5  12   69.72    5.52
   9   5  12   78.64    4.96
   9  -5  13   79.44    5.00
   9   5  13   88.30    4.67
   9   5  14    0.84    0.97
   9  -5  14    0.56    0.81
   9  -6 -15    1.98    0.74
   9  -6 -14    9.10    1.75
  -9   6  13    6.99    4.66
  -9  -6  13    3.30    1.58
  -9   6  12   20.50    4.80
  -9  -6  12    3.47    2.09
  -9   6  11   43.84    4.28
  -9  -6  11   21.04    3.60
  -9   6  10   35.54    4.65
  -9   6  10   26.58    3.50
  -9   6   9   38.43    3.80
  -9   6   9   49.25    5.08
  -9   6   8    2.68    2.60
   9   6  -8    3.47    1.86
  -9   6   8    3.37    1.89
  -9   6   7   10.54    3.33
   9   6  -7   17.28    3.07
  -9   6   7   14.28    2.65
  -9   6   6   43.64    3.75
  -9   6   6   41.06    4.84
   9   6  -6   44.40    4.62
  -9   6   5   19.34    3.49
   9   6  -5   23.94    3.54
  -9   6   5   22.45    2.72
   9  -6  -4   59.30    5.06
  -9  -6   4   50.09    5.18
   9   6  -4   47.15    4.78
   9  -6  -3   38.24    4.07
  -9  -6   3   36.34    4.72
   9   6  -3   34.76    4.32
   9  -6  -2  372.58   13.21
  -9  -6   2  365.69   14.90
   9   6  -2  379.66   14.41
   9  -6  -1  112.05    6.59
  -9  -6   1  114.16    7.94
   9   6  -1  116.69    7.45
   9  -6   0   87.94    5.77
   9  -6   0   97.29    6.31
   9   6   0   93.32    6.73
   9  -6   1   94.78    5.92
   9  -6   1   89.54    6.42
  -9  -6  -1   91.60    7.14
   9   6   2  250.18    9.35
   9  -6   2  253.70   10.27
   9  -6   2  256.47   11.67
  -9  -6  -2  256.81   12.14
   9   6   2  258.46   11.72
   9   6   3   43.56    3.72
   9  -6   3   42.71    4.04
   9  -6   3   45.39    5.12
  -9  -6  -3   45.11    5.25
   9   6   3   39.22    4.66
   9   6   4  231.56    9.61
   9  -6   4  248.67   12.07
  -9  -6  -4  250.80   11.85
   9  -6   4  242.04    9.99
   9   6   4  248.64   11.57
   9   6   5   46.91    4.54
   9  -6   5   46.04    4.15
   9  -6   5   48.32    5.55
  -9  -6  -5   53.20    5.45
   9   6   5   46.77    5.05
   9   6   5   52.30    4.47
   9   6   6   26.02    3.96
   9  -6   6   22.42    2.99
   9   6   6   22.21    3.13
   9   6   6   21.81    3.30
   9  -6   6   22.57    4.58
   9  -6   7   20.65    2.76
   9   6   7   23.51    3.44
   9  -6   7   14.56    4.01
   9   6   7   20.24    3.54
   9  -6   8   96.73    8.02
   9   6   8   94.57    6.39
   9   6   8   93.08    6.15
   9   6   9   20.71    3.13
   9   6   9   15.76    2.72
   9   6  10   50.20    3.76
   9   6  10   57.44    4.61
   9  -6  11  106.20    7.20
   9   6  11   98.72    5.69
   9   6  12   10.17    2.03
   9  -6  12   12.45    2.84
   9   6  13    4.61    1.42
   9  -6  13    3.95    1.69
  -9   7  13   35.39    3.75
  -9  -7  13   59.95    3.80
  -9   7  12   67.13    4.83
  -9  -7  12   78.87    5.34
  -9   7  11  212.49    8.21
  -9  -7  11  226.85   10.40
  -9   7  11  206.95   10.17
  -9   7  10  138.50    6.59
  -9  -7  10  164.74    9.38
  -9   7  10  163.07    8.43
  -9   7   9   29.24    4.12
  -9   7   9   23.99    2.90
  -9   7   8   37.83    3.48
   9   7  -8   45.11    3.89
  -9   7   8   44.77    4.87
   9   7  -7  140.24    7.39
  -9   7   7  144.33    8.15
  -9   7   6   -0.15    2.47
   9   7  -6    1.65    1.82
   9  -7  -5  128.09    7.39
   9   7  -5  112.07    7.21
   9  -7  -4  171.87    8.60
   9   7  -4  165.84    9.00
   9  -7  -3  410.96   14.30
   9   7  -3  404.21   15.26
   9  -7  -2   88.18    5.91
   9   7  -2   93.66    6.84
   9  -7  -1   45.68    4.24
  -9  -7   1   42.87    5.23
   9   7  -1   41.17    4.75
   9  -7   0  117.30    6.69
   9   7   0  114.92    7.64
   9  -7   0  110.77    6.70
   9  -7   1 1101.61   27.82
   9  -7   1 1074.81   29.06
  -9  -7  -1 1058.34   30.83
   9  -7   2  244.52    9.96
   9  -7   2  240.34   11.30
  -9  -7  -2  258.34   12.38
   9  -7   3   58.74    4.57
   9  -7   3   59.67    5.62
   9   7   3   63.04    5.91
   9  -7   4   49.10    4.10
   9  -7   4   52.04    5.62
   9   7   4   54.63    5.51
   9   7   4   52.34    4.02
   9   7   5  104.90    6.80
   9  -7   5  104.65    5.81
   9  -7   5  108.38    7.90
   9   7   5  111.12    7.59
   9   7   5   98.83    5.83
   9   7   6   21.20    2.94
   9   7   6   18.36    2.97
   9  -7   6   15.21    3.76
   9   7   6   18.23    3.61
   9   7   7  404.56   13.59
   9  -7   7  451.17   17.33
   9   7   7  439.73   15.83
   9   7   7  434.43   14.16
   9  -7   8   95.13    7.76
   9   7   8   98.51    6.58
   9   7   8  105.25    6.12
   9  -7   9  205.01   10.82
   9   7   9  187.79    8.62
   9   7   9  194.22    8.42
   9   7  10   64.43    4.18
   9   7  10   67.75    4.58
   9   7  11    9.50    2.01
   9   7  12    7.58    1.55
   9  -7  12    5.23    2.16
   9  -7  13   95.71    4.58
   9   7  13   85.33    3.48
   9  -8 -13   -0.06    1.04
  -9  -8  13    0.67    0.97
   9  -8 -12   21.16    2.54
  -9  -8  12   19.05    2.76
  -9   8  11   -3.38    2.25
  -9  -8  11    9.82    2.80
  -9  -8  10    2.15    2.59
  -9   8   9   -1.99    2.54
  -9  -8   9    0.74    2.70
  -9   8   8    5.20    2.67
  -9   8   7   28.79    4.06
   9   8  -7   27.28    3.16
   9  -8  -6   42.31    4.42
   9   8  -6   31.99    3.69
   9   8  -5    9.20    2.64
   9  -8  -5   10.16    2.65
   9  -8  -4   46.87    4.43
   9   8  -4   46.61    4.82
   9   8  -3   11.39    3.01
   9  -8  -3   10.69    2.54
   9   8  -2    0.88    2.19
   9  -8  -2    0.91    1.72
   9   8  -1   13.09    3.13
   9  -8  -1   15.01    2.67
   9  -8   0  220.32    9.30
   9   8   0  223.59   11.14
   9  -8   1   36.58    3.59
   9  -8   1   38.47    4.08
   9   8   1   43.31    5.14
   9  -8   2  375.78   12.48
   9  -8   2  361.03   14.04
   9   8   3    6.15    2.85
   9  -8   3    6.63    2.63
   9   8   4    2.59    2.51
   9   8   4    1.18    2.19
   9  -8   4    1.29    2.25
   9   8   5    6.17    3.04
   9   8   5    8.22    1.90
   9   8   5    9.31    2.73
   9  -8   5    7.24    3.17
   9   8   6    1.63    1.40
   9   8   6    1.84    1.95
   9  -8   6    2.51    2.72
   9   8   6   -0.17    2.30
   9   8   7   29.53    3.33
   9  -8   7   31.74    4.69
   9   8   7   28.84    3.09
   9   8   7   27.98    4.07
   9  -8   8   59.53    5.90
   9   8   8   56.51    4.96
   9   8   8   57.38    4.09
   9   8   9    6.38    1.82
   9  -8   9    6.83    3.05
   9   8   9    5.71    2.05
   9   8  10    5.20    1.53
   9  -8  10    7.58    2.73
   9   8  10    6.11    1.61
   9   8  11    2.28    1.09
   9   8  12    2.56    0.77
   9  -9 -12   26.99    2.24
  -9  -9  12   28.71    2.85
   9  -9 -11   20.99    2.42
  -9  -9  11   28.80    3.45
   9  -9 -10    3.38    1.76
  -9  -9  10    2.03    2.41
   9  -9  -9   96.24    5.58
  -9  -9   9   94.17    7.03
   9  -9  -8   61.76    4.70
   9  -9  -7   46.50    4.14
   9  -9  -6  130.06    7.00
   9   9  -6  125.92    6.61
   9  -9  -5  185.66    8.57
   9   9  -5  187.60    8.84
   9  -9  -4   65.46    4.94
   9   9  -4   74.95    5.77
   9  -9  -3  274.83   10.63
   9   9  -3  286.10   12.10
   9   9  -2    8.06    2.78
   9  -9  -2    9.78    2.22
   9  -9  -1  126.17    6.53
   9   9  -1  133.91    8.30
   9  -9   0   65.45    4.48
   9   9   0   71.99    6.24
   9   9   1  104.75    7.53
   9  -9   2  310.29   12.08
   9   9   2  330.65   13.89
   9   9   3  117.15    7.88
   9  -9   3  116.31    7.23
   9   9   4   61.32    5.60
   9  -9   4   55.32    5.28
   9   9   4   65.92    6.00
   9   9   5  150.92    8.32
   9  -9   5  145.21    8.59
   9   9   5  169.99    9.36
   9   9   6   56.10    4.75
   9  -9   6   55.92    5.40
   9   9   6   55.84    5.43
   9   9   7  256.35    9.77
   9  -9   7  267.95   11.86
   9   9   7  263.44   11.25
   9  -9   8    5.42    2.77
   9   9   8    8.09    2.44
   9  -9   9  145.67    7.81
   9   9   9  139.02    6.66
   9  -9  10   73.11    5.10
   9  -9  11    7.11    1.84
   9  -9  12    0.73    0.85
  -9 -10  12    1.32    0.85
   9 -10 -11   25.41    1.95
   9 -10 -10   25.19    2.32
   9 -10  -9    0.40    1.24
   9 -10  -8    2.25    1.54
  -9 -10   8    3.75    2.56
   9 -10  -7    6.05    1.88
  -9 -10   7    8.29    3.11
   9 -10  -6   -0.82    1.54
   9  10  -5    1.25    1.46
   9 -10  -5    2.71    1.59
   9 -10  -4   51.31    3.95
   9  10  -4   52.22    4.52
   9 -10  -3   63.08    4.31
   9  10  -3   65.89    5.30
   9 -10  -2   30.23    2.95
   9  10  -2   37.37    4.35
   9  10  -1   80.89    6.27
   9  10   0   64.95    5.84
   9  10   1    1.92    2.44
   9  10   2   25.77    4.05
   9  10   2   31.15    4.41
   9  10   3   23.08    3.86
   9 -10   3   20.83    2.98
   9  10   4    7.86    2.65
   9 -10   4    5.43    2.13
   9  10   5    1.28    1.87
   9 -10   5    1.12    1.79
   9  10   5    1.45    2.50
   9  10   6   15.42    2.69
   9 -10   6   14.18    2.92
   9  10   6   15.62    3.34
   9  10   7   42.42    3.47
   9 -10   7   54.68    4.69
   9  10   7   53.42    4.71
   9 -10   8   32.05    3.59
   9  10   8   34.06    3.48
   9 -10   9   14.28    2.47
   9  10   9   12.09    2.01
   9 -10  10    2.68    1.37
   9 -10  11    0.57    0.73
   9 -11  -9   71.78    3.14
  -9 -11   9  118.58    6.02
   9  11  -8    8.71    1.49
   9 -11  -8    9.69    1.44
   9  11  -7   48.09    3.66
   9 -11  -7   38.73    2.72
  -9 -11   7   44.98    4.46
   9 -11  -6   80.31    4.05
  -9 -11   6  104.69    6.70
  -9 -11   5   63.78    5.39
   9  11  -4  194.44    7.99
   9  11  -3   36.25    3.66
   9  11  -2   79.00    5.60
   9  11  -1   11.48    3.29
   9  11  -1   12.06    2.86
   9  11   0    7.59    2.76
   9  11   1  199.58    9.81
   9  11   1  207.93   10.28
   9  11   2   93.83    6.72
   9  11   2   95.47    6.71
   9  11   3  122.52    7.50
   9  11   3  122.47    7.53
   9  11   4   29.35    3.70
   9  11   5   45.10    4.03
   9 -11   5   37.86    3.30
   9 -11   6   19.77    2.49
   9  11   6   21.61    3.26
   9  11   7   11.19    1.77
   9 -11   7   11.07    1.99
   9  11   7   15.11    2.57
   9 -11   8    1.83    1.26
   9  11   8    1.18    1.31
   9 -11   9   32.44    2.33
  -9 -12   9    4.87    1.30
  -9 -12   8   59.90    3.90
   9  12  -7    0.27    0.75
  -9 -12   7    0.97    1.47
   9  12  -6   24.68    2.56
  -9 -12   6   26.78    3.05
   9  12  -5   -0.41    1.51
  -9 -12   5    0.45    1.60
   9  12  -4   -0.59    1.73
  -9 -12   4    0.45    1.53
   9  12  -3   15.20    2.82
  -9 -12   3   10.30    2.21
   9  12  -3   12.14    1.94
   9  12  -2   11.58    2.85
  -9 -12   2    8.70    1.97
   9  12  -2    8.55    1.98
   9  12  -1   50.35    4.69
  -9 -12   1   42.37    3.28
   9  12  -1   46.56    4.03
   9  12   0   22.23    3.10
   9  12   1   40.15    4.31
   9  12   1   42.99    4.14
   9  12   2   22.83    3.43
   9  12   2   20.48    3.15
   9  12   3   17.03    2.87
   9  12   3   17.50    2.97
   9  12   4   30.12    3.30
   9  12   4   23.53    3.18
   9  12   5   -1.31    1.44
   9  12   6   -0.07    1.00
   9  12   6    0.94    1.42
   9  12   7   25.92    2.50
   9  13  -5  103.32    4.38
  -9 -13   5   88.95    4.01
  -9 -13   5   98.52    4.21
   9  13  -4    4.52    1.52
  -9 -13   4    2.57    0.97
   9  13  -3    8.12    1.89
   9  13  -2    5.65    1.89
   9  13  -2    3.16    0.97
   9  13  -1    2.43    1.76
   9  13  -1    1.39    1.08
   9  13   0   12.33    2.46
   9  13   0    8.09    1.81
   9  13   1  281.04    9.53
   9  13   2   85.49    5.08
   9  13   2   81.84    4.70
   9  13   3   36.74    3.23
   9  13   3   35.92    3.14
   9  13   4    0.46    1.15
   9  13   4    1.47    1.33
   9  13   5   18.66    1.88
   9  13   5   22.64    2.27
   9  14  -3    0.28    0.64
  -9 -14   3    1.09    0.81
   9  14  -2    2.87    1.07
  -9 -14   2    3.89    1.21
   9  14  -1    2.48    1.07
   9  14   0    3.65    1.26
   9  14   2   58.13    3.26
   9  14   3    9.08    1.30
  -9 -14  -3    7.35    1.11
 -10   0  14   59.77    7.50
  10   0 -13    0.34    1.13
  10   0 -13    0.28    1.00
 -10   0  12  177.73   12.29
  10   0 -12  211.68    8.14
  10   0 -11    0.79    1.57
  10   0 -10 1065.75   27.23
  10   0  -9    0.91    1.88
  10   0  -8   81.94    5.64
  10   0  -7    1.30    1.91
 -10   0   6 1167.77   30.31
  10   0  -6 1173.83   29.58
  10   0  -5    0.75    1.66
 -10   0   5    0.14    2.69
  10   0  -4  669.87   19.23
  10   0  -3    1.45    1.64
  10   0  -2   64.41    4.76
  10   0  -1    7.70    2.17
  10   0   0  418.29   14.00
  10   0   0  427.82   15.87
  10   0   1   -0.26    1.36
  10   0   1    0.51    1.68
  10   0   1    1.79    2.21
  10   0   2 1138.27   29.06
  10   0   2 1118.56   28.50
  10   0   3   13.39    2.56
  10   0   3   15.99    3.20
  10   0   4  108.86    7.86
  10   0   4   97.01    5.74
  10   0   5   -0.20    2.44
  10   0   6  111.97    7.12
  10   0   6  104.80    8.05
  10   0   7    4.36    2.62
  10   0   7    3.33    3.03
  10   0   8    2.59    2.53
  10   0   8    2.25    2.71
 -10   0  -8    2.59    1.79
  10   0   9    2.85    2.46
  10   0   9    0.39    2.54
  10   0  10  499.78   17.73
  10   0  10  516.27   16.83
  10   0  11    0.29    1.99
  10   0  12  169.01    7.71
  10   0  12  219.67    8.63
  10   0  13    1.69    1.41
  10   0  14   57.72    3.00
  10  -1 -14    1.04    0.86
  10  -1 -13   10.07    1.89
  10  -1 -12   69.02    4.67
  10   1 -12   62.55    4.47
  10   1 -11    5.96    1.70
  10   1 -10    4.54    1.88
  10   1  -9   14.50    2.48
 -10  -1   9   24.53    4.19
 -10   1   9   21.65    3.97
 -10  -1   8  263.90   11.19
 -10   1   8  246.12   10.91
  10   1  -8  257.42   10.08
 -10   1   8  243.75   11.16
 -10   1   7  124.74    7.52
  10   1  -7  145.43    7.25
 -10   1   6   99.52    6.69
  10   1  -6  102.74    6.13
  10  -1  -6  110.33    6.65
  10   1  -5    7.11    2.01
  10  -1  -5    7.18    2.21
 -10   1   5    3.35    2.34
 -10   1   4   12.90    2.88
  10   1  -4   15.61    2.69
  10  -1  -4   11.60    2.55
  10   1  -3   51.04    4.14
  10  -1  -3   50.52    4.37
  10  -1  -2   19.40    3.06
  10   1  -2   16.66    2.75
  10   1  -1  119.87    6.52
  10  -1  -1  128.74    6.88
  10  -1  -1  119.34    7.69
  10   1   0  278.85   10.73
  10  -1   0  278.55   10.95
  10  -1   0  286.14   12.50
  10   1   0  286.35   11.36
  10  -1   1    7.84    2.10
  10   1   1    6.83    2.14
  10  -1   1    9.19    2.94
  10   1   1    5.28    2.03
  10   1   2  207.93    9.33
  10  -1   2  211.63   10.77
  10   1   2  212.88    9.35
  10  -1   2  195.87    8.62
  10   1   3  394.63   13.86
  10   1   3  413.93   15.91
  10  -1   3  355.88   15.12
  10   1   3  385.44   13.45
  10  -1   3  384.69   12.78
  10   1   4   45.40    4.74
  10  -1   4   42.40    4.73
  10   1   4   41.44    5.53
  10   1   4   37.43    3.98
  10   1   5  101.60    6.71
  10   1   5   90.72    7.23
  10  -1   5  106.98    7.88
  10  -1   5   99.64    6.68
  10   1   5   89.33    5.62
  10   1   6   46.05    5.50
  10  -1   6   42.89    5.62
  10  -1   7   14.52    3.10
  10   1   7   14.33    3.40
  10  -1   7   18.32    4.02
 -10  -1  -7   17.32    3.15
  10  -1   8   97.66    6.69
  10   1   8   99.85    7.61
  10  -1   8   96.65    7.79
 -10  -1  -8   82.06    5.65
  10   1   9    4.48    2.60
  10  -1   9    1.08    2.08
  10   1   9    4.61    2.67
  10  -1   9    3.03    2.71
  10   1  10   31.33    4.32
  10  -1  10   26.37    4.45
  10   1  10   39.48    4.65
  10  -1  10   38.51    4.42
  10   1  11    7.98    2.47
  10  -1  11    7.75    2.36
  10   1  11    6.06    2.12
  10  -1  11    5.99    2.54
  10  -1  12   20.98    3.10
  10   1  12   25.20    3.37
  10  -1  12   25.91    3.05
  10  -1  13   69.59    3.88
  10   1  13   69.48    4.22
  10  -1  14    2.84    0.80
  10   1  14    5.35    1.28
  10  -2 -14   77.25    3.64
  10  -2 -13    0.64    1.49
 -10   2  12  208.64   11.61
  10   2 -12  191.46    7.51
 -10   2  11   -0.97    8.04
  10   2 -11   40.84    3.91
 -10   2  10   73.60    5.75
  10   2 -10   53.20    4.76
 -10   2   9    6.46    3.43
  10   2  -9    8.73    1.88
 -10   2   9   12.19    3.26
 -10  -2   8  146.49    8.48
 -10   2   8  144.48    8.06
  10   2  -8  163.35    7.28
 -10   2   8  159.07    8.74
 -10   2   7   13.73    3.54
  10   2  -7   16.96    2.55
 -10  -2   7   11.04    3.15
 -10   2   7   13.54    3.11
 -10   2   6  549.57   17.34
  10   2  -6  553.72   16.32
 -10  -2   6  569.00   17.84
 -10   2   5   41.57    4.24
  10   2  -5   42.62    3.70
  10  -2  -5   43.62    4.39
 -10  -2   5   47.56    4.65
  10   2  -4  143.94    6.93
  10  -2  -4  149.13    7.67
 -10   2   4  130.04    7.18
  10   2  -3    5.26    1.71
  10  -2  -3    8.08    2.35
  10   2  -2  509.59   15.50
  10  -2  -2  507.31   16.15
  10   2  -2  524.43   17.09
  10   2  -1   95.23    5.65
  10  -2  -1  101.27    6.85
  10   2  -1   89.40    6.20
  10   2   0  700.49   19.91
  10  -2   0  732.02   22.37
  10   2   0  725.33   21.18
  10   2   1    3.43    1.88
  10   2   1    2.12    1.70
  10  -2   1    3.35    2.04
  10  -2   1    2.11    2.17
  10   2   2  836.37   23.10
  10  -2   2  860.75   23.58
  10   2   2  867.59   25.91
  10  -2   2  854.23   25.57
  10   2   2  840.09   23.62
  10  -2   2  819.83   22.08
  10   2   3    8.67    2.37
  10   2   3   10.14    2.54
  10  -2   3   10.01    2.55
  10   2   3    9.17    3.18
  10  -2   3   10.15    3.10
  10   2   4  563.15   17.87
  10  -2   4  580.09   18.24
  10   2   4  548.67   19.66
  10  -2   4  578.07   20.13
  10   2   4  550.64   17.52
  10   2   5   34.11    3.98
  10  -2   5   30.05    3.87
  10   2   5   26.57    4.33
  10   2   5   29.90    3.49
  10   2   6  167.72    8.84
  10  -2   6  166.29    8.85
  10   2   6  159.69    9.69
  10  -2   6  158.05   10.01
 -10  -2  -6  156.02    8.83
  10   2   6  157.97    7.76
  10   2   7    4.99    2.56
  10  -2   7    1.72    2.16
  10   2   7    2.33    2.43
  10  -2   7    4.34    3.20
 -10  -2  -7    2.49    2.12
  10  -2   8  100.28    6.74
  10   2   8  101.19    7.38
  10  -2   8   98.49    7.98
 -10  -2  -8   85.41    5.73
  10  -2   9   43.94    4.48
  10   2   9   43.71    4.75
  10  -2   9   41.07    5.44
  10   2  10  202.39    9.56
  10  -2  10  212.37   11.07
  10  -2  10  227.71    9.73
  10   2  11   25.51    3.58
  10  -2  11   26.90    3.99
  10  -2  11   28.20    3.31
  10  -2  12  139.99    7.38
  10   2  12  150.22    7.21
  10  -2  12  149.54    6.53
  10  -2  13    5.30    1.27
  10   2  13    7.36    1.86
  10  -2  13    6.10    1.60
  10   2  14   19.54    1.93
  10  -3 -14    5.98    1.54
  10  -3 -13    7.07    2.05
 -10   3  12   -6.81    7.49
 -10  -3  11   42.83    4.07
  10   3 -11   44.66    3.79
  10   3 -10   16.75    2.83
 -10   3  10   22.82    3.81
 -10   3   9    0.31    3.06
  10   3  -9   -0.46    1.87
 -10   3   9    0.28    2.49
 -10   3   8  122.04    7.35
 -10   3   8  133.75    8.20
  10   3  -8  133.52    7.98
 -10   3   7   33.43    4.53
 -10   3   7   30.56    3.89
  10   3  -7   33.38    4.19
 -10   3   6   13.11    3.58
  10   3  -6   13.23    3.05
 -10   3   6   16.50    3.20
 -10  -3   6   16.23    3.22
 -10   3   5   41.13    4.06
  10   3  -5   43.80    3.59
  10  -3  -5   46.65    4.63
 -10  -3   5   45.78    4.72
  10   3  -5   43.15    4.69
  10   3  -4   24.09    3.76
  10   3  -4   20.60    2.67
 -10   3   4   16.99    2.99
 -10  -3   4   22.30    3.66
  10   3  -3   14.20    2.93
  10   3  -3    8.79    1.88
 -10  -3   3   11.10    2.98
  10   3  -2   13.77    2.37
  10  -3  -2   17.42    3.31
  10   3  -1   16.39    3.06
  10   3  -1   12.33    2.24
  10  -3  -1   16.29    3.04
  10   3   0   34.32    3.52
  10  -3   0   34.36    3.99
  10  -3   0   37.40    4.57
  10   3   0   35.03    4.25
  10   3   1  303.24   11.28
  10  -3   1  317.16   12.01
  10  -3   1  304.16   13.00
  10   3   1  309.16   12.44
  10   3   2  180.07    8.51
  10  -3   2  194.01    9.11
  10  -3   2  176.51   10.01
  10   3   2  186.53    9.37
  10   3   3   14.47    2.86
  10   3   3   14.55    2.80
  10  -3   3   16.91    3.11
  10  -3   3   12.58    3.18
  10  -3   4   41.23    4.55
  10  -3   4   40.83    5.27
 -10  -3  -4   44.56    5.14
  10   3   4   42.82    4.54
  10   3   5   13.06    2.78
  10   3   5   12.66    2.82
  10  -3   5   14.45    3.07
  10   3   5   13.17    3.57
  10  -3   5   12.60    3.81
 -10  -3  -5   12.19    3.29
  10   3   6  243.72   10.91
  10  -3   6  247.69   10.97
  10   3   6  241.11   11.92
 -10  -3  -6  253.17   11.44
  10   3   6  234.63   10.19
  10   3   7   57.39    5.28
  10  -3   7   60.57    5.18
  10   3   7   53.47    5.54
  10  -3   7   55.63    6.36
 -10  -3  -7   53.58    5.03
  10   3   7   53.48    4.45
  10   3   8   24.49    4.08
  10  -3   8   22.93    3.55
  10  -3   8   23.39    4.87
 -10  -3  -8   18.90    3.12
  10  -3   9   40.39    4.13
  10  -3   9   29.87    4.81
  10   3   9   33.51    4.19
  10  -3  10   28.10    4.78
  10   3  10   31.97    4.22
  10  -3  10   28.18    3.49
  10  -3  11    4.04    1.64
  10  -3  11    4.26    2.64
  10  -3  12   40.85    4.17
  10  -3  12   41.94    3.02
  10  -3  13    4.86    1.67
  10   3  14   19.67    1.87
  10  -4 -14   44.18    2.98
 -10   4  14    0.07    5.73
  10  -4 -13   33.27    3.24
 -10   4  13    0.09    6.46
 -10   4  12  151.36    9.10
 -10  -4  12  144.99    6.81
 -10   4  11  176.73    8.86
 -10  -4  11  164.67    8.29
 -10   4  10  177.74    8.60
 -10   4  10  176.07    9.44
  10   4 -10  179.36    8.19
 -10   4   9   -1.11    2.92
  10   4  -9    0.43    1.69
 -10   4   9   -0.54    2.37
 -10   4   8  274.67   11.13
 -10   4   8  298.18   12.48
  10   4  -8  286.58   11.98
  10   4  -7   17.74    3.26
 -10   4   7   16.13    3.01
 -10   4   6   66.92    5.18
 -10  -4   6   76.88    5.78
  10   4  -6   83.98    6.28
 -10   4   5   27.06    3.35
 -10  -4   5   35.87    4.28
  10   4  -5   38.18    4.41
 -10   4   4  396.79   13.45
  10  -4  -4  411.67   14.50
 -10  -4   4  429.28   15.77
  10   4  -4  422.13   15.45
  10   4  -3    2.45    2.03
  10  -4  -3    4.35    2.22
 -10  -4   3    3.01    2.31
  10   4  -2  226.29    8.79
  10  -4  -2  243.31   10.35
  10  -4  -2  231.89   10.30
 -10  -4   2  239.27   11.52
  10   4  -2  231.60   10.80
  10   4  -1  263.46    9.74
  10  -4  -1  282.27   11.19
  10  -4  -1  259.17   11.34
 -10  -4   1  259.20   12.24
  10   4   0  422.39   13.62
  10  -4   0  449.86   15.02
  10  -4   0  437.27   15.90
 -10  -4   0  425.37   16.48
  10   4   0  439.42   15.84
  10   4   1  264.66   10.17
  10  -4   1  266.93   10.97
  10  -4   1  269.98   12.10
  10   4   1  260.36   11.58
  10   4   2  325.74   11.92
  10  -4   2  346.53   12.84
  10  -4   2  332.97   14.10
 -10  -4  -2  332.83   14.16
  10   4   2  336.86   13.43
  10  -4   3   43.10    4.38
  10  -4   3   50.35    5.59
 -10  -4  -3   46.27    5.23
  10   4   3   46.59    4.85
  10   4   4  122.56    7.15
  10  -4   4  121.91    7.31
  10  -4   4  130.33    8.77
 -10  -4  -4  124.46    8.23
  10   4   4  131.61    7.92
  10   4   5    0.80    1.73
  10   4   5    2.48    2.00
  10  -4   5    2.68    2.10
  10  -4   5    3.18    2.93
 -10  -4  -5    4.32    2.52
  10   4   6   37.23    4.21
  10  -4   6   41.25    5.42
 -10  -4  -6   42.92    4.75
  10   4   6   43.51    4.42
  10   4   7    5.93    2.13
  10   4   7    7.53    2.61
  10  -4   7    6.93    2.37
 -10  -4  -7    5.88    2.43
  10  -4   8  248.90   10.26
  10   4   8  230.00    9.60
  10   4   8  261.33   11.10
  10  -4   9  125.98    8.85
  10   4   9  126.13    7.42
  10  -4   9  117.51    6.53
  10  -4  10  314.68   13.55
  10   4  10  323.58   12.03
  10  -4  10  287.99   10.42
  10   4  11    7.74    2.38
  10  -4  11    4.34    1.38
  10  -4  11    6.21    2.64
  10  -4  12   67.06    5.11
  10   4  12   73.06    4.63
  10   4  13    3.12    1.44
  10  -4  13    2.94    1.45
  10  -5 -14   -0.06    1.01
  10  -5 -13    3.09    1.69
 -10   5  12    1.07    5.43
 -10  -5  12   16.16    2.62
 -10   5  11    7.72    4.16
 -10  -5  11    4.65    2.36
 -10   5  10   27.11    3.64
  10   5 -10   24.21    2.83
  10   5  -9   16.20    2.73
 -10   5   9   14.33    2.83
  10   5  -8    5.77    2.29
 -10   5   8    6.32    2.43
 -10   5   7    3.08    2.71
  10   5  -7    6.67    2.48
 -10   5   7    3.62    2.17
 -10   5   6   43.90    4.10
  10   5  -6   47.82    4.86
 -10   5   5   29.42    3.36
  10  -5  -5   32.98    4.21
 -10  -5   5   31.97    4.17
  10   5  -5   28.91    3.95
  10   5  -4    5.77    2.71
  10  -5  -4    3.23    2.19
 -10  -5   4    5.74    2.86
  10  -5  -3  105.84    6.75
 -10  -5   3  113.34    7.84
  10   5  -3  110.56    7.44
  10  -5  -2  128.01    7.43
 -10  -5   2  141.46    8.85
  10   5  -2  132.29    8.21
  10  -5  -1    2.83    1.97
  10  -5  -1    1.98    1.75
 -10  -5   1    3.25    2.73
  10   5   0   98.55    5.43
  10  -5   0  108.11    6.68
  10  -5   0   99.78    6.84
  10   5   1    7.23    2.63
  10  -5   1    8.62    2.49
  10  -5   1    6.31    2.56
  10  -5   2  100.60    6.47
  10  -5   2   95.82    7.30
 -10  -5  -2  108.71    7.94
  10   5   2  105.67    7.30
  10   5   3   28.95    3.33
  10  -5   3   30.07    3.75
  10  -5   3   32.84    4.64
  10   5   3   31.62    4.23
 -10  -5  -3   27.98    4.45
  10   5   4  102.46    6.43
  10  -5   4  108.60    6.81
  10  -5   4  109.04    8.13
 -10  -5  -4  102.21    7.66
  10   5   4  111.46    7.52
  10   5   5   16.66    3.23
  10   5   5   15.22    2.87
  10   5   5   13.01    2.45
  10  -5   5   13.28    2.90
  10  -5   5   14.16    3.87
 -10  -5  -5   14.08    3.45
  10  -5   6  155.26    7.87
  10  -5   6  168.27   10.15
 -10  -5  -6  157.11    8.85
  10   5   6  152.27    8.46
  10   5   6  154.25    8.11
  10  -5   7   73.10    5.15
  10  -5   7   74.33    6.97
  10   5   7   66.55    5.33
  10   5   7   75.90    5.70
  10  -5   8   29.08    3.22
  10   5   8   28.79    3.85
  10   5   8   21.63    3.14
  10   5   9   50.48    3.86
  10   5   9   49.97    4.57
  10  -5   9   52.34    3.87
  10  -5  10   58.05    6.00
  10   5  10   52.47    4.51
  10  -5  10   42.41    3.11
  10   5  11    9.26    2.26
  10  -5  11    9.29    2.86
  10  -5  12   23.00    3.13
  10   5  12   21.16    2.50
  10   5  13    3.07    1.16
  10  -5  13    1.43    1.23
  10  -6 -14    9.72    1.35
  10  -6 -13   54.93    3.52
 -10  -6  13   38.51    2.62
 -10   6  12  171.60    7.72
 -10  -6  12  208.97    8.34
 -10   6  11  101.71    6.21
 -10  -6  11  118.96    7.02
 -10   6  10  135.68    6.82
 -10   6   9    3.43    2.95
  10   6  -9    7.94    1.98
 -10   6   9    3.44    1.98
 -10   6   8  148.38    7.32
 -10   6   8  169.21    8.95
  10   6  -8  169.87    8.25
  10   6  -7   14.22    2.95
 -10   6   7   12.41    2.41
 -10   6   6   73.36    4.94
  10  -6  -6   87.76    6.38
  10   6  -6   82.45    6.24
  10  -6  -5   43.65    4.60
  10   6  -5   40.58    4.67
  10  -6  -4  199.14    9.64
 -10  -6   4  192.19   10.34
  10   6  -4  211.39   10.51
  10  -6  -3   31.09    4.03
 -10  -6   3   35.98    4.82
  10   6  -3   34.20    4.48
  10  -6  -2  760.96   22.00
 -10  -6   2  768.54   24.30
  10   6  -2  745.36   23.18
  10   6  -1    7.32    3.12
  10  -6  -1    4.71    2.32
  10  -6  -1    5.84    2.13
 -10  -6   1    4.78    3.03
  10  -6   0  217.49    9.82
  10  -6   0  210.20   10.02
  10  -6   1  358.96   13.26
  10  -6   1  352.94   14.12
  10   6   1  363.25   14.69
  10   6   2  682.11   19.04
  10  -6   2  687.46   20.44
  10  -6   2  694.94   22.28
 -10  -6  -2  718.58   23.24
  10   6   2  724.42   22.50
  10   6   3   11.97    3.28
  10   6   3    9.39    2.11
  10  -6   3   11.39    2.53
  10  -6   3    9.26    3.10
 -10  -6  -3    9.68    3.36
  10   6   4   34.14    3.59
  10  -6   4   42.14    4.18
  10  -6   4   37.63    5.12
 -10  -6  -4   37.82    4.98
  10   6   4   37.87    4.64
  10   6   5   50.69    4.53
  10  -6   5   53.20    6.02
 -10  -6  -5   50.98    5.42
  10   6   5   52.79    5.30
  10  -6   5   55.22    4.56
  10   6   5   55.38    4.57
  10  -6   6   77.80    5.16
  10  -6   6   85.51    7.40
  10   6   6   86.79    6.44
  10   6   6   89.49    5.88
  10  -6   7  136.47    6.69
  10  -6   7  157.77    9.86
  10   6   7  153.28    8.31
  10   6   7  148.79    7.71
  10  -6   8  170.74   10.06
  10   6   8  162.40    8.05
  10   6   8  167.03    8.01
  10  -6   8  147.76    6.49
  10   6   9   20.85    2.98
  10   6   9   20.90    2.68
  10   6  10  312.25   10.88
  10   6  11    2.05    1.49
  10  -6  11    3.65    2.43
  10   6  12    4.44    1.40
  10  -6  12    5.80    1.94
  10  -6  13   14.84    1.72
  10   6  13   15.49    1.42
 -10  -7  12    0.87    1.51
  10  -7 -11   15.05    2.72
 -10  -7  11   11.53    2.66
  10  -7 -10   11.95    2.96
 -10  -7  10    3.17    2.51
 -10   7   9   40.27    3.45
  10  -7  -9   59.48    5.13
 -10   7   8   46.17    3.66
  10   7  -8   47.44    4.00
  10   7  -7   11.18    2.55
 -10   7   7   11.67    2.12
  10  -7  -6   67.61    5.55
  10   7  -6   71.47    5.64
  10   7  -5    2.79    2.31
  10  -7  -5    3.67    2.33
  10   7  -4   13.05    3.05
  10  -7  -4   10.91    2.68
  10   7  -3    9.19    3.01
  10  -7  -3    7.78    2.40
  10   7  -2    5.24    2.67
  10  -7  -2    4.69    2.23
  10  -7  -1  119.60    7.06
 -10  -7   1  120.87    8.66
  10   7  -1  126.50    8.29
  10   7   0    8.55    3.20
  10  -7   0    5.79    2.20
  10  -7   0    3.77    2.03
  10  -7   1   60.72    4.87
  10  -7   1   56.70    5.19
  10   7   2   27.11    4.42
  10  -7   2   28.61    3.42
  10  -7   2   26.51    4.08
 -10  -7  -2   29.14    4.97
  10  -7   3  142.96    7.32
  10  -7   3  140.12    8.72
  10   7   3  145.63    9.00
  10   7   3  137.76    6.51
  10   7   4   65.11    5.47
  10  -7   4   61.69    4.62
  10  -7   4   61.27    6.10
  10   7   4   68.85    6.18
  10   7   4   59.37    4.30
  10   7   5    8.26    3.17
  10   7   5    4.99    1.87
  10   7   5    6.14    2.20
  10  -7   5    5.62    1.74
  10  -7   5    5.72    3.14
  10   7   6   35.00    3.59
  10  -7   6   41.49    5.36
  10   7   6   44.39    4.86
  10   7   6   36.80    3.63
  10  -7   7   49.18    5.56
  10   7   7   44.36    4.57
  10   7   7   45.72    3.92
  10   7   8    6.46    2.08
  10  -7   8    4.38    3.22
  10   7   8    4.98    2.10
  10   7   9   11.40    2.17
  10  -7   9   11.94    3.30
  10   7   9    7.56    1.92
  10   7  10   13.78    2.16
  10   7  11   65.75    3.63
  10  -7  12   15.25    2.17
  10   7  12   11.22    1.30
  10  -8 -13   12.99    1.33
  10  -8 -12   95.87    4.45
 -10  -8  12   95.11    4.82
  10  -8 -11   10.67    2.02
 -10  -8  11   10.10    2.40
  10  -8 -10    1.81    1.68
 -10  -8  10    1.28    2.21
  10  -8  -9   61.58    4.63
 -10  -8   9   58.81    5.60
  10  -8  -8  310.57   11.51
  10   8  -7    1.17    1.48
  10  -8  -7    1.44    2.00
  10  -8  -6  160.73    8.09
  10   8  -6  146.21    7.77
  10  -8  -5   79.72    5.75
  10   8  -5   75.91    5.85
  10  -8  -4  262.88   10.92
  10   8  -4  278.41   11.93
  10  -8  -3   40.50    4.20
  10   8  -3   43.80    4.80
  10  -8  -2  194.56    9.00
  10   8  -2  205.85   10.42
  10   8  -1    3.29    2.73
  10  -8  -1    2.76    1.94
  10  -8   0  251.72   10.25
  10   8   0  272.98   12.53
  10   8   1    3.74    2.79
  10  -8   1    2.83    1.67
  10  -8   1    1.00    1.59
  10  -8   2   11.25    2.28
  10  -8   2   11.53    2.82
  10  -8   3  200.33    8.37
  10  -8   3  218.20   10.47
  10   8   3  226.18   11.15
  10   8   4  154.19    8.56
  10  -8   4  158.88    9.14
  10   8   4  170.48    9.50
  10   8   5    5.81    2.29
  10  -8   5    8.81    3.03
  10   8   5    7.38    2.91
  10   8   6  219.75    9.16
  10  -8   6  230.53   11.12
  10   8   6  244.16   10.88
  10   8   6  211.02    8.03
  10  -8   7   30.67    4.33
  10   8   7   24.34    2.57
  10   8   7   26.35    3.60
  10  -8   8  211.25   10.13
  10   8   8  202.57    8.74
  10   8   8  185.34    7.15
  10   8   9   19.47    2.47
  10  -8   9   20.19    3.42
  10   8   9   19.22    2.10
  10  -8  10  113.47    6.30
  10   8  10   95.37    4.11
  10  -8  11   42.47    3.52
  10  -9 -12    6.61    1.03
 -10  -9  12    9.09    1.37
  10  -9 -11    1.04    1.04
 -10  -9  11    1.56    1.49
  10  -9 -10    7.25    1.79
 -10  -9  10    6.86    2.31
  10  -9  -9   17.83    2.49
 -10  -9   9   17.00    3.28
  10  -9  -8   -0.72    1.58
  10  -9  -7   15.82    2.71
  10   9  -6    0.34    1.42
  10  -9  -6   -0.82    1.76
  10  -9  -5   38.17    3.84
  10   9  -5   40.21    4.03
  10   9  -3    8.67    2.77
  10  -9  -3    4.10    1.90
  10  -9  -2   83.24    5.35
  10   9  -2   85.29    6.48
  10  -9  -1   68.94    4.70
  10   9  -1   68.08    6.09
  10  -9   0  117.66    6.10
  10   9   0  128.72    8.16
  10   9   1   23.25    4.05
  10  -9   1   21.76    2.62
  10  -9   2  113.88    6.50
  10   9   3   11.43    2.96
  10  -9   3   11.71    2.68
  10   9   4   46.62    4.65
  10  -9   4   42.09    4.35
  10   9   4   43.42    5.02
  10   9   5    1.20    1.81
  10  -9   5    2.44    2.33
  10   9   5    1.28    2.40
  10   9   6    5.70    1.93
  10  -9   6    8.55    2.76
  10   9   6    6.63    2.68
  10   9   7   22.42    2.33
  10  -9   7   28.83    3.71
  10   9   7   29.23    3.54
  10   9   8   20.41    2.77
  10  -9   8   22.53    3.32
  10  -9   9   12.27    2.48
  10   9   9   12.98    1.88
  10  -9  10    3.58    1.69
  10  -9  11   21.54    1.96
 -10 -10  11    1.55    0.97
  10 -10 -10   61.51    3.08
 -10 -10  10   81.32    4.65
  10  10  -9   16.92    1.73
  10 -10  -9   29.27    2.36
  10 -10  -8    5.45    1.55
 -10 -10   8   12.40    2.87
  10 -10  -7   68.45    4.20
 -10 -10   7   78.98    5.98
  10 -10  -6   66.48    4.27
  10 -10  -5  240.57    8.91
  10  10  -5  249.50    9.31
  10 -10  -4  222.43    8.49
  10  10  -4  235.38    9.64
  10  10  -3    3.05    2.13
  10 -10  -3    1.31    1.26
  10  10  -2    5.66    2.37
  10 -10  -2    5.28    1.38
  10  10  -1   29.43    4.02
  10  10   0  109.92    7.29
  10  10   1   73.63    6.21
  10  10   1   71.02    6.04
  10  10   2  274.24   11.82
  10  10   2  278.07   12.12
  10  10   3  252.44   10.99
  10  10   4   55.39    4.78
  10 -10   4   54.48    4.21
  10  10   5   43.66    3.92
  10 -10   5   40.23    3.77
  10  10   5   47.61    4.72
  10  10   6  110.66    5.56
  10 -10   6  110.83    6.13
  10 -10   7    8.65    2.14
  10  10   7   10.11    2.25
  10 -10   8   40.49    3.34
  10  10   8   42.93    3.29
  10 -10   9    2.66    1.24
 -10 -11   9   17.37    2.21
  10  11  -8    1.92    0.79
 -10 -11   8    3.59    1.75
  10  11  -7    3.46    1.40
  10 -11  -7    2.84    0.85
 -10 -11   7    4.43    2.01
  10  11  -6    4.92    1.80
 -10 -11   6    8.07    2.44
 -10 -11   5    0.52    1.98
  10  11  -4    7.53    1.75
  10  11  -3    8.06    2.04
  10  11  -2    0.59    2.31
  10  11  -2    0.73    1.77
  10  11  -1   31.49    3.69
  10  11   0   22.90    3.60
  10  11   0   17.65    3.10
  10  11   1   80.68    5.91
  10  11   1   80.68    5.87
  10  11   2    3.86    2.31
  10  11   2    4.29    2.43
  10  11   3    4.32    2.11
  10  11   3    4.71    2.33
  10  11   4    6.85    2.06
  10  11   5   25.60    2.77
  10  11   5   33.02    3.53
  10  11   6   51.21    3.13
  10  11   6   60.81    4.21
  10 -11   7    1.34    0.81
  10  11   7    3.08    1.42
 -10 -12   8    7.47    1.31
 -10 -12   7   28.90    2.55
  10  12  -6  122.82    5.19
 -10 -12   6  162.19    6.36
  10  12  -5   72.16    4.32
 -10 -12   5   77.80    4.51
  10  12  -4   11.81    2.28
 -10 -12   4    7.97    1.86
  10  12  -3    0.11    1.72
 -10 -12   3    0.78    1.30
  10  12  -3   -0.07    0.92
  10  12  -2   22.81    3.09
 -10 -12   2   18.67    2.21
  10  12  -2   21.41    2.41
  10  12  -1   11.70    2.19
  10  12   0   30.93    3.21
  10  12   1   32.17    3.37
  10  12   2  160.92    7.44
  10  12   2  162.71    7.40
  10  12   3    5.68    1.84
  10  12   3    6.89    1.99
  10  12   4    8.24    1.77
  10  12   4   10.09    2.09
  10  12   5    7.62    1.41
  10  12   6   15.59    1.93
  10  13  -4    1.00    0.92
 -10 -13   4    2.40    0.88
  10  13  -3    3.80    1.32
  10  13  -2    0.72    1.23
  10  13  -1   40.54    3.20
  10  13  -1   25.87    1.99
  10  13   0   12.47    1.69
  10  13   1   18.66    2.29
  10  13   1   17.69    1.99
  10  13   2   21.18    2.29
  10  13   2   19.84    2.08
  10  13   3   25.76    2.24
  10  13   3   26.51    2.29
  10  13   4    0.71    0.70
  10  13   4    0.57    0.86
  11   0 -13    2.43    1.19
  11   0 -12   75.88    4.16
  11   0 -12   77.99    4.95
  11   0 -11    4.47    1.79
  11   0 -10   10.02    2.28
  11   0  -9    0.13    1.56
  11   0  -8  633.22   18.85
  11   0  -7    0.67    1.86
  11   0  -6  647.50   19.40
  11   0  -5   14.98    3.06
  11   0  -4  104.93    6.45
  11   0  -3   11.02    2.74
  11   0  -2   91.27    6.07
  11   0  -1   11.35    2.82
  11   0   0   23.05    3.38
  11   0   0   22.83    3.34
  11   0   1   12.99    2.88
  11   0   1   12.74    2.95
  11   0   1   10.62    3.63
  11   0   2   48.05    4.65
  11   0   2   46.41    5.57
  11   0   2   48.39    4.49
  11   0   3   22.57    3.74
  11   0   3   20.92    3.22
  11   0   4   12.70    2.42
  11   0   4   14.45    3.62
  11   0   5    6.02    3.46
  11   0   6    4.41    2.66
  11   0   6    3.44    3.01
  11   0   7    3.76    2.65
  11   0   7    5.48    3.11
  11   0   8    3.33    2.54
  11   0   8    0.60    2.62
 -11   0  -8    0.53    1.56
  11   0   9   21.84    4.20
  11   0   9   30.43    4.12
  11   0  10    2.43    2.16
  11   0  10    3.32    2.39
  11   0  11   21.27    3.20
  11   0  11   27.15    3.40
  11   0  12   11.99    2.12
  11   0  13    3.68    1.25
  11  -1 -13   86.64    4.12
  11  -1 -13   90.18    4.58
  11   1 -12    7.45    1.87
  11  -1 -12   11.47    2.06
  11   1 -11  246.43    8.60
  11  -1 -11  263.25    9.88
  11   1 -11  260.05   10.42
  11   1 -10   53.91    3.91
  11  -1 -10   52.16    4.41
 -11   1   9   60.15    5.55
  11   1  -9   60.03    4.49
  11  -1  -9   63.28    5.09
  11   1  -8    4.86    1.92
  11  -1  -8    5.32    2.43
 -11   1   8    1.38    2.89
  11   1  -7    7.94    2.13
  11  -1  -7    6.26    2.39
 -11   1   7    5.68    3.05
  11   1  -6   10.89    2.36
  11  -1  -6   10.40    2.70
 -11   1   6    7.07    2.95
 -11  -1   6   13.35    2.86
  11   1  -5  615.60   18.54
  11  -1  -5  636.61   19.19
  11   1  -4   61.07    4.84
  11  -1  -4   61.85    5.12
  11   1  -3  395.93   13.69
  11  -1  -3  388.74   13.92
  11   1  -2   12.47    3.05
  11   1  -2   11.77    2.61
  11  -1  -2   11.99    2.72
  11   1  -1  201.99    9.34
  11  -1  -1  205.03    9.53
  11   1  -1  211.05   10.04
  11   1   0    5.86    2.33
  11   1   0    4.12    2.17
  11  -1   0    3.46    2.23
  11  -1   0    3.67    2.55
  11   1   1  371.38   13.56
  11  -1   1  371.55   13.71
  11  -1   1  389.11   15.72
  11   1   1  376.55   13.93
  11  -1   1  361.02   13.22
  11   1   2  126.23    7.33
  11  -1   2  127.12    8.71
  11   1   2  120.75    7.20
  11  -1   2  115.94    6.67
  11   1   3  945.16   26.07
  11   1   3  960.98   28.69
  11  -1   3  982.89   28.87
  11   1   3  932.93   25.62
  11  -1   3  902.14   24.41
  11   1   4    7.15    2.12
  11   1   4    6.45    2.42
  11  -1   4    7.05    2.65
  11   1   4    4.23    3.00
  11  -1   5   62.97    5.58
  11   1   5   59.35    6.23
  11  -1   5   56.65    6.38
  11   1   5   54.40    4.41
  11  -1   6    9.25    3.02
  11   1   6    8.23    3.42
  11  -1   6   12.87    3.97
  11  -1   7   51.90    5.00
  11   1   7   45.91    5.38
  11  -1   7   42.98    5.70
 -11  -1  -7   42.55    4.52
  11  -1   8   42.74    4.54
  11   1   8   41.49    5.05
  11  -1   8   39.74    5.31
 -11  -1  -8   39.29    3.90
  11  -1   9  329.77   12.53
  11   1   9  308.29   13.15
  11  -1   9  303.03   13.64
  11   1   9  333.14   12.72
  11   1  10    1.36    2.27
  11  -1  10    1.82    2.16
  11   1  10    2.04    2.11
  11  -1  10    3.48    2.42
  11  -1  11  217.97    9.76
  11   1  11  248.20    9.61
  11  -1  11  240.49    9.26
  11   1  12    1.56    1.61
  11  -1  12    1.90    1.41
  11  -1  13   20.03    1.85
  11   1  13   25.10    2.26
  11  -2 -14   20.75    1.58
  11  -2 -13   36.12    2.83
  11   2 -12    2.74    1.31
  11  -2 -12    2.79    1.65
  11   2 -11   14.48    2.57
  11  -2 -11   15.97    2.83
  11  -2 -10   34.92    3.87
 -11   2  10   23.32    4.89
  11   2 -10   30.62    3.84
 -11   2   9   47.56    4.91
  11   2  -9   48.86    3.64
  11  -2  -9   53.54    4.83
  11   2  -9   47.99    4.88
  11   2  -8    4.08    2.42
  11   2  -8    3.11    1.53
  11  -2  -8    4.08    2.27
 -11   2   8   -1.79    2.96
 -11   2   7   68.07    5.79
  11   2  -7   71.31    4.85
  11  -2  -7   74.95    5.76
 -11   2   6   61.45    5.42
  11   2  -6   65.34    4.68
  11  -2  -6   68.95    5.56
 -11  -2   6   69.76    5.50
  11   2  -5  123.58    6.78
  11  -2  -5  132.18    7.66
 -11  -2   5  138.38    8.27
  11   2  -4   21.56    3.60
  11   2  -4   27.00    3.25
  11  -2  -4   28.73    3.77
  11   2  -3   43.23    4.00
  11  -2  -3   38.59    4.38
  11   2  -2   13.11    3.11
  11   2  -2   11.81    2.47
  11  -2  -2   13.49    2.87
  11   2  -1   34.74    3.87
  11  -2  -1   34.46    4.74
  11   2  -1   37.38    4.58
  11   2   0   61.09    4.90
  11  -2   0   58.93    5.77
  11   2   0   60.02    5.33
  11   2   1   47.98    4.62
  11  -2   1   43.02    5.27
  11   2   1   41.10    4.59
  11  -2   1   46.38    4.27
  11   2   2    0.94    2.01
  11  -2   2    1.99    1.54
  11   2   2   -0.14    1.77
  11  -2   2    1.69    2.08
  11  -2   2    5.86    2.86
  11   2   3   61.09    5.44
  11  -2   3   65.72    5.79
  11  -2   3   63.12    6.37
  11   2   3   60.02    5.36
  11   2   4  192.88    9.57
  11  -2   4  203.86    9.95
  11   2   4  207.97   11.32
  11  -2   4  205.24   11.40
  11   2   4  197.71    9.43
  11   2   5   28.96    4.33
  11  -2   5   26.61    4.13
  11   2   5   29.51    4.63
  11   2   5   25.33    3.44
  11   2   6    2.39    1.67
  11   2   6    3.06    2.47
  11   2   6    2.87    2.94
  11  -2   6    2.20    3.16
 -11  -2  -6    0.17    2.16
  11   2   7  103.28    6.91
  11  -2   7  102.93    6.84
  11   2   7   91.78    7.30
  11  -2   7  113.57    8.56
 -11  -2  -7   93.59    6.52
  11   2   8    6.73    2.82
  11  -2   8    4.33    2.42
  11   2   8    5.63    2.77
  11  -2   8    7.71    3.45
 -11  -2  -8    6.45    2.11
  11  -2   9   27.87    4.95
  11  -2   9   31.19    3.95
  11  -2  10   23.44    3.93
  11  -2  10   26.28    3.25
  11  -2  11   18.63    2.70
  11  -2  11   18.05    3.21
  11   2  12   17.12    2.42
  11  -2  12   15.64    2.45
  11  -2  12   15.18    1.93
  11   2  13   35.57    2.64
  11  -3 -14    0.54    0.76
  11  -3 -13  133.83    5.48
 -11   3  13   55.21    6.91
  11  -3 -12   34.54    3.35
  11  -3 -11  118.82    6.47
 -11  -3  11  101.05    5.68
  11   3 -11  108.85    5.69
  11  -3 -10    3.97    2.29
 -11   3  10   -2.93    3.83
  11   3 -10    1.31    1.75
 -11   3   9  113.45    7.01
  11  -3  -9  118.37    7.17
  11   3  -9  116.02    7.14
 -11   3   8   47.96    4.83
  11  -3  -8   53.15    4.96
  11   3  -8   50.88    5.00
 -11   3   7  103.98    6.83
  11  -3  -7  100.58    6.76
  11   3  -7  112.23    7.44
  11   3  -6    1.05    2.36
  11   3  -6    2.18    1.37
  11  -3  -6    2.28    2.09
 -11   3   6    1.41    2.32
 -11  -3   6    1.25    1.85
  11   3  -5  560.34   16.56
  11  -3  -5  594.58   18.76
 -11  -3   5  596.24   19.42
  11   3  -5  597.31   19.71
  11   3  -4   29.58    3.15
  11  -3  -4   28.79    3.81
 -11  -3   4   33.54    4.47
  11   3  -4   30.97    4.29
  11   3  -3  113.21    6.21
 -11  -3   3  111.04    7.82
  11   3  -2   17.09    2.69
 -11  -3   2   17.22    3.71
  11   3  -1  488.54   15.56
  11  -3  -1  507.26   16.69
  11  -3  -1  483.83   17.54
  11   3  -1  499.70   17.37
  11   3   0  157.13    7.84
  11  -3   0  157.60    8.43
  11  -3   0  149.34    9.07
  11   3   0  157.75    8.86
  11   3   1  334.56   12.44
  11  -3   1  359.29   13.39
  11  -3   1  324.18   14.22
  11   3   1  327.21   13.44
  11   3   2   13.74    3.14
  11   3   2   16.34    2.92
  11  -3   2   14.21    2.95
  11  -3   2   12.85    3.57
  11   3   3  378.20   13.72
  11  -3   3  376.06   14.18
  11  -3   3  371.02   15.77
 -11  -3  -3  380.54   15.45
  11   3   3  360.89   14.12
  11   3   4    0.95    1.94
  11   3   4    1.05    2.14
  11  -3   4    0.16    2.03
  11  -3   4    1.29    2.95
 -11  -3  -4    1.54    2.70
  11   3   5  173.82    8.87
  11  -3   5  160.93    8.80
  11  -3   5  166.63   10.40
 -11  -3  -5  157.15    9.29
  11   3   5  158.01    8.44
  11   3   6   37.79    4.32
 -11  -3  -6   32.25    4.38
  11   3   6   31.10    3.66
  11   3   7  214.81   10.00
  11  -3   7  209.41    9.72
 -11  -3  -7  196.08    9.54
  11   3   7  188.23    8.36
  11   3   8    3.93    2.52
  11  -3   8    3.35    2.22
  11  -3   8    3.73    3.52
 -11  -3  -8    1.99    1.73
  11  -3   9  300.03   13.48
  11   3   9  296.00   11.82
  11  -3   9  300.65   11.26
  11   3  10   22.86    3.30
  11  -3  10   24.92    3.94
  11  -3  10   22.08    2.83
  11  -3  11  111.77    6.74
  11  -3  11   98.04    4.95
  11  -3  12    2.43    0.89
  11  -3  12    3.00    1.76
  11  -4 -14    8.89    1.18
  11  -4 -13    2.54    1.44
  11  -4 -12   -0.10    1.46
  11  -4 -11   24.67    3.28
 -11  -4  11   21.70    3.00
  11   4 -10    1.86    1.67
  11  -4 -10    3.92    2.31
  11   4  -9    1.26    1.84
  11  -4  -9    6.11    2.80
 -11   4   9   -1.04    2.70
  11   4  -8    3.90    2.33
  11  -4  -8    5.68    2.82
 -11   4   8    2.69    2.25
  11   4  -7   24.67    3.84
  11  -4  -7   24.20    3.94
 -11   4   7   22.11    3.47
 -11   4   6   49.65    4.57
 -11  -4   6   53.80    4.93
  11   4  -6   59.17    5.48
  11   4  -5   15.14    3.53
 -11  -4   5   12.67    3.19
  11   4  -4   17.01    3.42
 -11  -4   4   17.67    3.82
  11   4  -3   32.64    3.16
  11  -4  -3   34.88    4.12
 -11  -4   3   28.26    4.37
  11   4  -3   39.03    4.73
  11   4  -2    4.20    1.66
  11  -4  -2    3.34    2.25
 -11  -4   2    3.32    2.59
  11   4  -1   13.59    3.43
  11   4  -1   10.68    2.27
  11  -4  -1   11.83    3.07
  11  -4  -1    8.04    2.75
 -11  -4   1   14.69    3.84
  11   4   0  130.38    6.85
  11  -4   0  137.01    7.84
  11  -4   0  136.19    8.44
 -11  -4   0  128.01    8.79
  11   4   0  139.26    8.49
  11   4   1   64.83    4.89
  11  -4   1   65.19    5.47
  11  -4   1   59.83    5.95
  11   4   1   61.03    5.77
  11  -4   2   82.89    6.13
  11  -4   2   82.96    6.91
 -11  -4  -2   83.79    7.17
  11   4   2   84.92    6.54
  11   4   3   15.14    3.41
  11   4   3   12.15    2.82
  11  -4   3   15.28    3.26
  11  -4   3   11.35    3.66
 -11  -4  -3   14.12    4.08
  11   4   4    4.52    2.40
  11   4   4    6.23    2.35
  11  -4   4    4.68    2.36
  11  -4   4    8.29    3.55
 -11  -4  -4    4.08    2.88
  11   4   5   85.42    6.10
  11  -4   5   77.58    5.97
  11  -4   5   80.78    7.28
 -11  -4  -5   78.54    6.65
  11   4   5   82.34    6.19
  11   4   6    9.38    2.48
  11   4   6    7.17    2.53
  11  -4   6   10.17    2.72
  11  -4   6    8.03    3.45
 -11  -4  -6    4.29    2.48
  11  -4   7   55.59    4.78
 -11  -4  -7   54.91    4.94
  11   4   7   51.97    4.43
  11   4   7   57.28    5.12
  11   4   8    3.57    2.22
  11  -4   8    0.50    1.67
  11  -4   9   41.65    5.57
  11   4   9   47.24    4.52
  11  -4   9   41.10    3.73
  11   4  10   19.82    2.90
  11  -4  10   17.41    3.59
  11  -4  10   18.86    2.35
  11   4  11   14.36    2.44
  11  -4  11    8.15    1.40
  11  -4  11   11.65    2.95
  11   4  12    4.84    1.51
  11  -4  12    5.03    1.86
  11   4  13   11.45    1.42
  11  -5 -14    0.15    0.57
  11  -5 -13  164.58    6.13
  11  -5 -12  146.45    6.38
 -11  -5  12  122.63    5.54
  11  -5 -11   81.45    5.17
 -11  -5  11   85.12    5.34
  11   5 -10    3.14    1.44
  11  -5 -10    4.38    2.46
 -11   5   9  255.24   10.15
  11   5  -9  270.73   10.47
  11   5  -8   12.81    2.86
 -11   5   8   14.41    2.90
 -11   5   7   84.62    5.61
  11   5  -7   92.02    6.52
  11   5  -6   12.21    2.99
  11  -5  -6   10.92    2.91
  11  -5  -5  299.63   12.41
 -11  -5   5  299.85   12.86
  11   5  -5  323.34   13.30
  11  -5  -4   41.13    4.50
 -11  -5   4   42.73    5.08
  11   5  -4   44.79    5.02
  11  -5  -3  365.95   13.88
 -11  -5   3  395.51   15.72
  11   5  -3  378.92   15.01
  11   5  -2   11.47    3.22
  11  -5  -2   10.86    2.93
 -11  -5   2    9.63    3.34
  11  -5  -1  253.16   11.10
  11  -5  -1  254.49   11.28
 -11  -5   1  258.24   12.69
  11  -5   0  237.08   10.57
  11  -5   0  209.36   10.54
 -11  -5   0  214.24   11.66
  11   5   0  232.50   11.36
  11   5   1  489.66   15.44
  11  -5   1  513.36   17.01
  11  -5   1  509.53   18.18
  11   5   1  519.92   18.26
  11   5   2   21.24    3.95
  11   5   2   21.29    3.05
  11  -5   2   21.14    3.55
  11  -5   2   13.95    3.64
 -11  -5  -2   18.43    4.29
  11   5   3  489.60   15.81
  11  -5   3  508.28   16.83
  11  -5   3  488.82   18.52
 -11  -5  -3  514.88   18.81
  11   5   3  491.06   17.69
  11   5   4   39.65    4.03
  11  -5   4   39.06    4.33
  11  -5   4   35.76    5.15
 -11  -5  -4   40.69    5.25
  11   5   4   37.47    4.67
  11   5   5   13.36    2.98
  11   5   5   10.51    2.65
  11  -5   5   10.54    2.67
  11  -5   5   12.66    3.84
 -11  -5  -5   10.83    3.14
  11  -5   6   38.50    3.91
  11  -5   6   41.39    5.63
 -11  -5  -6   32.53    4.34
  11   5   6   34.39    4.05
  11   5   6   36.13    3.94
  11  -5   7  271.47   10.48
  11   5   7  263.79   10.83
  11   5   7  278.34   11.13
  11  -5   8   37.83    3.45
  11   5   8   39.64    3.58
  11   5   8   45.56    4.26
  11   5   9  403.22   13.00
  11  -5   9  357.87   11.23
  11  -5  10   54.94    5.13
  11   5  10   50.83    3.97
  11  -5  11   90.53    5.76
  11   5  11   87.97    4.70
  11   5  12    0.80    1.07
  11  -5  12    1.95    1.43
  11  -6 -13    1.84    1.06
  11  -6 -12   -0.63    1.42
 -11  -6  12    0.83    1.04
 -11  -6  11    2.73    1.79
 -11  -6  10   49.06    4.69
  11   6  -9    1.86    1.45
  11  -6  -8   37.36    4.27
  11   6  -8   35.50    3.76
  11   6  -7    9.67    2.62
  11  -6  -7   10.77    2.91
  11   6  -6   25.79    3.81
  11  -6  -6   22.74    3.46
  11  -6  -5   33.91    4.18
  11   6  -5   40.16    4.64
  11   6  -4    0.36    2.23
  11  -6  -4   -0.30    2.13
 -11  -6   4    0.93    2.50
  11  -6  -3   27.66    3.78
 -11  -6   3   30.01    4.48
  11   6  -3   35.53    4.72
  11   6  -2    4.06    2.62
  11  -6  -2    3.03    2.25
 -11  -6   2    1.42    2.61
  11   6  -1   31.47    4.47
  11  -6  -1   32.63    4.04
  11  -6  -1   31.63    3.76
 -11  -6   1   30.75    5.07
  11  -6   0    6.71    2.53
  11  -6   0    6.76    2.48
  11   6   1  114.92    5.97
  11  -6   1  114.35    7.09
  11  -6   1  119.95    7.81
  11   6   1  120.41    8.25
  11   6   2  551.34   16.52
  11  -6   2  590.55   18.34
  11  -6   2  595.98   20.00
 -11  -6  -2  576.68   20.56
  11   6   2  611.15   20.15
  11   6   3   83.94    5.33
  11  -6   3   95.54    6.29
  11  -6   3   87.11    7.12
 -11  -6  -3   88.08    7.44
  11   6   3   89.21    7.03
  11  -6   4  455.35   15.23
  11  -6   4  450.28   17.39
 -11  -6  -4  451.12   17.15
  11   6   4  461.41   16.76
  11   6   4  448.62   14.50
  11   6   5   14.28    3.36
  11   6   5   12.88    2.52
  11   6   5   11.02    2.32
  11  -6   5   14.09    2.68
  11  -6   5   13.24    3.80
  11  -6   6  119.94    6.29
  11  -6   6  132.60    8.80
  11   6   6  115.35    7.22
  11   6   6  119.86    6.66
  11   6   7    5.61    2.15
  11  -6   7    4.09    1.60
  11  -6   7    7.25    3.37
  11   6   7    5.14    2.24
  11   6   8   11.90    2.38
  11  -6   8   12.47    1.85
  11  -6   8   14.20    3.70
  11   6   8    9.67    2.07
  11   6   9   47.11    3.84
  11   6  10   33.21    2.96
  11  -6  11   17.31    2.70
  11   6  11   16.08    1.95
  11   6  12    3.63    0.87
  11  -6  12    3.03    1.21
 -11  -7  12   11.51    1.63
  11  -7 -11   17.08    2.35
 -11  -7  11   15.91    2.55
  11  -7 -10    1.52    1.82
 -11  -7  10   -0.66    1.94
  11  -7  -9  247.42    9.81
  11   7  -8    3.43    1.64
  11  -7  -8    2.79    2.17
  11  -7  -7  197.91    9.17
  11   7  -7  187.78    8.74
  11  -7  -6   25.40    3.69
  11  -7  -5  155.57    8.33
  11   7  -5  164.19    8.86
  11  -7  -4   28.93    3.75
  11   7  -4   33.13    4.35
  11  -7  -3  165.00    8.58
  11   7  -3  176.69    9.62
  11   7  -2   23.25    3.97
  11  -7  -2   24.60    3.56
  11  -7  -1  362.22   13.45
  11   7  -1  373.31   15.00
  11  -7   0   23.07    3.36
  11  -7   0   21.28    3.17
  11  -7   1   25.22    3.44
  11  -7   1   16.60    3.15
  11  -7   2   33.14    3.69
  11  -7   2   34.61    4.32
  11   7   2   36.27    4.81
  11  -7   3  271.17   10.65
  11  -7   3  260.85   12.11
  11   7   3  286.51   12.63
  11   7   4   23.87    3.96
  11   7   4   17.88    2.96
  11  -7   4   20.39    2.83
  11  -7   4   21.22    3.88
  11   7   4   21.67    2.66
  11   7   5  281.69   10.65
  11  -7   5  267.38    9.69
  11  -7   5  300.45   13.07
  11   7   5  289.67   12.31
  11   7   5  268.30    9.82
  11  -7   6   39.97    4.88
  11   7   6   41.58    4.40
  11   7   6   40.69    3.46
  11  -7   7   71.52    6.14
  11   7   7   70.46    5.25
  11   7   7   71.93    4.48
  11   7   8    3.34    1.52
  11  -7   8    1.57    2.28
  11   7   8    2.50    1.54
  11  -7   9  177.09    8.62
  11   7   9  168.21    6.41
  11  -7  10   19.84    3.00
  11   7  10   14.89    1.76
  11   7  11  101.00    3.64
  11  -8 -12   -0.09    0.68
  11  -8 -11    3.41    1.34
 -11  -8  11    4.31    1.52
  11  -8 -10   28.83    2.77
 -11  -8  10   29.55    3.39
  11  -8  -9    5.55    2.03
 -11  -8   9    5.29    2.51
  11  -8  -8   76.16    5.05
  11   8  -7    4.25    1.75
  11  -8  -7    3.68    2.08
  11   8  -6    8.00    2.22
  11  -8  -6    9.03    2.45
  11   8  -5    1.75    1.97
  11  -8  -5    1.69    2.06
  11   8  -4    3.02    2.12
  11  -8  -4    2.38    2.01
  11  -8  -3  135.42    7.34
  11   8  -3  137.29    8.24
  11  -8  -2   28.55    3.51
  11   8  -2   32.66    4.39
  11  -8  -1   31.64    3.59
  11   8  -1   37.18    4.75
  11  -8   0   32.45    3.51
  11   8   0   34.35    4.77
  11  -8   1    2.05    1.68
  11  -8   1    3.50    1.89
  11  -8   2   38.81    3.62
  11  -8   2   42.23    4.30
  11   8   3   12.76    3.41
  11   8   3    8.38    2.59
  11  -8   3    6.70    1.84
  11  -8   3    8.61    2.75
  11   8   4  105.93    6.54
  11  -8   4  108.48    7.11
  11   8   4  112.06    7.42
  11   8   5   80.42    5.21
  11  -8   5   85.77    6.34
  11   8   5   79.93    6.11
  11   8   6    9.63    1.79
  11  -8   6   14.69    3.30
  11   8   6   13.47    2.77
  11   8   7   10.98    1.55
  11   8   7   11.86    2.49
  11   8   8    8.63    1.33
  11  -8   8   12.62    2.78
  11   8   8    8.95    1.96
  11   8   9    3.48    0.86
  11   8   9    2.94    1.03
  11  -8  10   47.20    3.53
  11  -8  11    2.31    0.98
  11  -9 -11   17.76    1.50
 -11  -9  11   25.76    2.12
  11  -9 -10   43.38    2.82
 -11  -9  10   57.63    3.97
  11  -9  -9   27.10    2.55
 -11  -9   9   29.72    3.45
  11  -9  -8   18.07    2.41
  11  -9  -7  202.85    8.08
  11   9  -6   11.84    2.13
  11  -9  -6   12.79    2.37
  11  -9  -5  225.96    9.07
  11   9  -5  236.71    9.62
  11  -9  -4   52.54    4.26
  11   9  -4   54.38    4.75
  11  -9  -3   54.79    4.19
  11   9  -3   48.74    4.77
  11   9  -2    8.71    2.89
  11  -9  -2    9.33    2.08
  11  -9  -1   42.93    3.65
  11   9  -1   40.95    4.71
  11   9   0   21.45    3.75
  11  -9   0   19.18    2.47
  11  -9   1   85.59    4.81
  11   9   1  110.94    7.41
  11   9   2   75.72    5.94
  11   9   3  207.68    9.44
  11  -9   3  181.65    8.24
  11   9   3  201.83    9.93
  11   9   4  106.68    6.33
  11  -9   4  115.57    6.48
  11   9   4  115.29    7.25
  11   9   5  135.39    6.58
  11  -9   5  138.20    7.26
  11   9   5  152.89    7.93
  11   9   6   33.69    2.71
  11  -9   6   42.11    3.95
  11   9   6   44.44    4.10
  11  -9   7  111.43    6.14
  11   9   7  121.48    6.07
  11  -9   8   14.51    2.40
  11   9   8   13.21    1.89
  11  -9   9   36.50    2.96
 -11 -10  10   18.27    1.86
  11 -10  -9    0.22    0.69
  11 -10  -8    4.60    1.19
  11 -10  -7    7.90    1.52
 -11 -10   7    8.42    2.49
  11 -10  -6    0.97    1.19
  11 -10  -5   39.83    3.06
  11  10  -5   43.85    3.34
  11  10  -4    1.85    1.60
  11 -10  -4    1.70    1.27
  11 -10  -3   70.06    4.04
  11  10  -3   74.43    5.18
  11 -10  -2   21.20    2.24
  11  10  -2   27.94    3.54
  11  10  -1   33.49    4.01
  11  10   0   90.43    6.27
  11  10   1    3.06    2.34
  11  10   1    3.90    2.38
  11  10   2   20.49    3.25
  11  10   2   22.35    3.44
  11  10   3    7.40    2.12
  11  10   4    7.66    2.03
  11  10   4    7.50    2.41
  11  10   5   41.86    3.21
  11 -10   5   39.14    3.07
  11 -10   6    0.86    1.14
  11  10   6    0.60    1.57
  11 -10   7   37.88    2.80
  11  10   7   47.29    3.31
  11 -10   8    1.52    0.86
  11  10   8    1.52    0.89
 -11 -11   8    9.01    1.64
  11  11  -7   23.54    2.08
 -11 -11   7   28.78    2.86
  11  11  -6   94.19    4.89
 -11 -11   6  104.01    5.53
  11  11  -5  187.18    7.70
 -11 -11   5  183.51    7.88
  11  11  -4   22.87    3.04
 -11 -11   4   21.77    2.89
  11  11  -4   17.04    2.05
  11  11  -3   45.47    4.09
  11  11  -3   38.25    3.23
  11  11  -2   16.70    2.51
  11  11  -1   48.45    4.02
  11  11   0   11.46    2.73
  11  11   0   13.97    2.64
  11  11   1  107.28    6.27
  11  11   1  112.39    6.30
  11  11   2   45.32    3.94
  11  11   2   48.47    4.27
  11  11   3   53.19    3.98
  11  11   4   16.72    2.19
  11  11   5   37.93    2.53
  11  11   5   49.72    3.64
  11  11   6   11.86    1.81
  11  11   7   17.95    1.64
 -11 -12   6    2.55    0.93
  11  12  -5   10.15    1.48
 -11 -12   5    8.38    1.38
  11  12  -4   16.31    2.08
 -11 -12   4   10.13    1.53
  11  12  -3    1.21    1.41
 -11 -12   3   -0.06    0.82
  11  12  -3    0.26    0.60
  11  12  -2   56.89    3.95
  11  12  -2   44.79    2.90
  11  12  -1    1.88    1.23
  11  12   0    5.33    1.82
  11  12   0    4.74    1.57
  11  12   1    7.02    1.82
  11  12   1    7.23    1.70
  11  12   2   22.10    2.47
  11  12   2   29.05    2.75
  11  12   3   24.01    2.24
  11  12   3   25.80    2.54
  11  12   4    0.49    0.70
  11  12   5   11.13    1.50
  11  13  -3   56.96    2.77
  11  13  -2    5.31    1.16
  11  13   0   14.42    1.68
  11  13   1    2.19    0.93
  12   0 -12  398.47   12.06
  12   0 -11    0.96    1.74
  12   0 -11    0.40    1.26
  12   0 -10   83.09    4.97
  12   0  -9    0.70    1.53
  12   0  -8   21.71    3.12
  12   0  -7   -0.54    1.73
  12   0  -6  132.26    7.45
  12   0  -5    5.00    2.32
  12   0  -4  381.33   13.87
  12   0  -3    1.03    1.99
  12   0  -2  589.54   18.75
  12   0  -2  611.84   19.78
  12   0  -1    0.17    2.05
  12   0  -1   -0.75    1.88
  12   0   0  275.78   11.67
  12   0   0  272.82   11.82
  12   0   1    0.62    1.81
  12   0   1    2.20    2.17
  12   0   2  270.14   11.74
  12   0   2  282.46   13.70
  12   0   2  262.35   11.14
  12   0   3    0.56    1.75
  12   0   3    2.28    2.39
  12   0   4  567.98   18.60
  12   0   4  569.60   20.63
  12   0   4  531.35   16.57
  12   0   5   -1.53    3.01
  12   0   6   19.42    4.18
  12   0   7    1.87    2.36
  12   0   7    0.41    2.73
 -12   0  -7    0.45    1.99
  12   0   8  307.62   11.88
  12   0   8  282.44   12.74
  12   0   9    1.45    2.21
  12   0   9    0.49    2.21
  12   0  10  291.23   11.45
  12   0  10  316.15   11.11
  12   0  11    0.54    1.45
  12   0  12   81.96    4.01
  12  -1 -13   55.65    2.98
  12   1 -12    7.30    1.69
  12  -1 -12    7.79    1.92
  12  -1 -12    6.50    1.54
  12   1 -11    1.24    1.61
  12  -1 -11    0.37    1.41
  12   1 -10   39.10    3.14
  12  -1 -10   41.92    3.83
  12   1 -10   46.84    4.48
  12   1  -9  125.16    6.26
  12  -1  -9  137.44    7.16
  12   1  -9  135.94    7.95
  12   1  -8   13.16    2.47
  12  -1  -8   13.74    2.78
  12   1  -7    0.37    1.59
  12  -1  -7    0.99    2.08
  12   1  -6   26.63    3.35
  12  -1  -6   25.25    3.53
 -12  -1   6   26.44    3.62
  12   1  -5  438.70   14.70
  12  -1  -5  425.37   15.07
  12   1  -4   61.51    5.11
  12  -1  -4   61.70    5.44
  12   1  -3   62.43    5.11
  12  -1  -3   64.16    5.45
  12   1  -3   64.77    5.90
  12   1  -2  120.97    7.26
  12  -1  -2  116.99    7.45
  12   1  -2  138.59    8.37
  12   1  -1   18.56    3.39
  12  -1  -1   16.95    3.23
  12   1  -1   19.67    3.14
  12  -1  -1   16.51    3.13
  12   1   0   89.53    6.33
  12  -1   0   94.22    6.67
  12   1   0   84.54    6.53
  12  -1   0   87.39    6.37
  12   1   1    2.27    2.20
  12  -1   1    1.91    1.87
  12   1   1    2.46    2.03
  12  -1   1    1.59    2.22
  12  -1   1    2.13    2.85
  12   1   2   17.98    3.46
  12  -1   2   18.31    3.02
  12   1   2   23.08    3.81
  12  -1   2   22.54    4.75
  12   1   3   17.57    3.09
  12  -1   3   14.00    2.50
  12   1   3   16.33    3.43
  12  -1   3   20.20    4.35
  12   1   4   53.30    5.29
  12   1   4   54.77    6.42
  12   1   4   44.41    4.37
  12   1   5   -0.49    1.41
  12   1   5   -0.49    2.32
  12  -1   5   -0.33    2.28
  12   1   5    0.87    3.03
  12  -1   6   17.61    3.40
  12   1   6   18.81    4.35
  12  -1   6   18.07    4.39
 -12  -1  -6   11.93    3.20
  12  -1   7   37.68    4.37
  12   1   7   32.61    4.69
  12  -1   7   25.05    4.60
 -12  -1  -7   28.74    3.78
  12  -1   8   57.42    5.10
  12   1   8   49.25    5.49
  12  -1   8   56.53    6.20
 -12  -1  -8   45.12    4.07
 -12   1  -8   44.61    4.10
  12   1   9    0.13    2.21
  12  -1   9   -0.26    1.96
  12  -1   9   -0.50    2.48
  12  -1  10   22.77    3.62
  12   1  10   26.72    3.53
  12  -1  10   25.53    3.28
  12   1  11    0.92    1.47
  12  -1  11    1.35    1.40
  12  -1  12    4.63    1.23
  12   1  12    9.67    1.69
  12  -2 -13   45.97    2.51
  12  -2 -13   44.43    2.78
  12  -2 -12  176.50    6.51
  12   2 -12  136.02    5.42
  12   2 -11    4.05    1.71
  12  -2 -11    4.18    1.82
  12  -2 -10  143.20    7.08
  12   2 -10  138.11    7.32
  12   2  -9    1.95    2.23
  12  -2  -9    2.58    2.02
  12   2  -8   94.86    5.24
  12  -2  -8  105.72    6.58
  12   2  -8  102.08    7.01
  12   2  -7    7.33    2.88
  12   2  -7    7.26    1.90
  12  -2  -7    6.58    2.47
  12   2  -6    2.52    2.44
  12   2  -6    2.36    1.67
  12  -2  -6    3.46    2.40
 -12  -2   6    4.19    2.29
  12   2  -5   78.26    5.29
  12  -2  -5   77.94    6.00
 -12  -2   5   82.28    6.42
  12   2  -5   76.89    6.54
  12   2  -4  985.48   26.21
  12  -2  -4 1011.97   27.44
 -12  -2   4 1044.60   29.20
  12   2  -3    1.80    2.48
  12   2  -3    0.53    1.60
  12  -2  -3    1.55    2.13
  12   2  -2  265.40   10.99
  12  -2  -2  282.67   11.82
  12   2  -2  283.01   12.48
  12   2  -1    8.22    2.94
  12   2  -1   11.78    2.65
  12  -2  -1   11.03    3.04
  12   2   0  264.42   11.14
  12  -2   0  272.89   12.96
  12   2   0  269.31   11.98
  12  -2   0  266.36   11.25
  12   2   1   12.17    3.05
  12  -2   1   17.61    2.93
  12   2   1   16.47    3.07
  12  -2   1   15.64    3.89
  12   2   2  269.45   11.34
  12  -2   2  249.23   11.38
  12  -2   2  268.39   13.24
  12   2   2  263.73   11.64
  12  -2   2  247.60   10.13
  12   2   3   44.27    4.66
  12  -2   3   50.33    5.12
  12  -2   3   50.66    5.98
  12   2   3   45.34    4.71
  12  -2   4  694.64   21.38
  12  -2   4  698.81   23.57
 -12  -2  -4  689.19   22.60
  12   2   4  662.85   20.42
  12   2   5   47.05    4.81
  12  -2   5   43.37    4.85
 -12  -2  -5   42.36    5.03
  12   2   5   44.30    4.10
  12   2   6   13.64    3.07
  12  -2   6   11.86    3.00
 -12  -2  -6   12.60    3.21
  12   2   7   21.49    3.58
  12  -2   7   24.48    3.70
  12  -2   7   22.17    4.57
 -12  -2  -7   17.79    3.17
  12  -2   8  247.89   10.20
  12  -2   8  237.83   11.82
 -12  -2  -8  210.48    8.83
  12   2   8  244.13   10.42
  12  -2   9    3.00    1.95
  12  -2   9    2.36    2.40
  12  -2  10  107.46    6.74
  12  -2  10  105.00    5.62
  12  -2  11    1.11    1.22
  12  -2  11    2.88    1.79
  12  -2  12   16.17    1.50
  12   2  12   24.71    2.24
  12  -3 -13    0.12    0.87
  12  -3 -13    0.25    0.80
  12  -3 -12   12.71    2.05
  12   3 -11    1.12    1.27
  12  -3 -11    2.37    1.79
  12   3 -10   11.02    2.34
  12  -3 -10    7.56    2.25
  12   3  -9    1.26    1.85
  12  -3  -9    2.48    2.09
  12   3  -8    2.21    2.20
  12  -3  -8    4.51    2.26
  12  -3  -7  132.27    7.71
  12   3  -7  131.35    8.08
  12   3  -6   39.31    3.37
  12  -3  -6   41.50    4.52
 -12  -3   6   46.23    4.57
  12   3  -6   40.91    4.94
  12   3  -5   48.50    3.85
  12  -3  -5   46.77    4.90
 -12  -3   5   50.06    5.14
  12   3  -5   47.79    5.12
  12   3  -4  101.20    5.94
  12  -3  -4  111.49    7.33
 -12  -3   4  106.46    7.84
  12   3  -3   30.97    3.40
 -12  -3   3   33.86    4.66
  12   3  -2   25.24    4.44
  12   3  -2   23.28    3.20
 -12  -3   2   24.64    4.71
  12   3  -1   34.20    3.77
 -12  -3   1   37.28    5.28
  12   3  -1   33.51    4.50
  12   3   0   71.32    5.37
  12  -3   0   79.18    6.21
  12  -3   0   71.52    6.54
 -12  -3   0   73.30    7.03
  12   3   0   76.51    6.50
  12   3   1   16.34    3.48
  12  -3   1   17.95    2.85
  12   3   1   15.79    2.89
  12  -3   1   20.68    3.65
  12  -3   1   17.67    3.79
  12   3   2   24.36    4.06
  12   3   2   23.19    3.56
  12  -3   2   24.79    4.14
  12  -3   2   18.18    4.20
 -12  -3  -2   22.78    4.72
  12  -3   3   35.13    4.31
  12  -3   3   33.32    4.98
  12   3   3   31.20    4.13
 -12  -3  -3   35.93    5.04
  12   3   4  166.14    8.69
  12  -3   4  172.09    9.18
  12  -3   4  168.12   10.48
 -12  -3  -4  168.03   10.05
  12   3   4  152.54    8.50
  12   3   5   78.28    5.91
  12  -3   5   73.44    5.81
  12  -3   5   63.20    6.73
 -12  -3  -5   70.76    6.27
  12   3   5   64.98    5.17
  12   3   6   18.98    2.85
  12   3   6   20.54    3.44
  12  -3   6   19.06    3.39
 -12  -3  -6   22.07    3.81
  12   3   7    8.67    2.71
  12  -3   7    7.11    2.51
 -12  -3  -7    8.94    2.51
  12  -3   8   30.29    3.62
  12  -3   8   29.62    4.97
  12   3   8   24.23    3.70
  12  -3   9   27.69    4.14
  12   3   9   26.30    3.32
  12  -3   9   22.86    2.98
  12   3  10   15.98    2.70
  12  -3  10   17.90    3.33
  12   3  11    3.40    1.65
  12  -3  11    2.10    1.00
  12  -3  11    2.41    1.74
  12  -4 -13   19.12    1.72
  12  -4 -13   13.78    1.55
  12  -4 -12  197.99    7.19
  12  -4 -11    0.96    1.57
 -12  -4  11    0.94    1.25
  12  -4 -10  126.87    6.66
  12   4 -10  121.51    6.06
  12  -4  -9   40.10    4.11
  12   4  -9   35.73    3.87
  12  -4  -8   97.99    6.49
  12   4  -8  103.17    6.71
  12  -4  -7   22.96    3.67
  12   4  -7   30.59    4.14
 -12  -4   6  125.48    7.40
  12   4  -6  132.43    8.19
  12   4  -5    9.11    2.90
 -12  -4   5   10.36    2.98
 -12  -4   4  344.14   14.44
  12   4  -4  346.18   14.33
  12   4  -3   60.53    4.24
  12  -4  -3   63.38    5.66
 -12  -4   3   68.88    6.40
  12   4  -3   64.40    6.00
  12   4  -2   67.13    4.70
  12  -4  -2   72.90    5.96
 -12  -4   2   75.36    6.82
  12   4  -1   30.62    4.52
  12   4  -1   29.06    3.28
  12  -4  -1   30.01    4.12
 -12  -4   1   29.21    4.84
  12   4   0  222.89    9.53
  12  -4   0  247.34   11.13
  12  -4   0  239.76   11.70
 -12  -4   0  236.67   12.40
  12   4   0  263.69   12.00
  12   4   1   11.94    3.25
  12  -4   1    9.11    2.10
  12   4   1   11.07    2.50
  12  -4   1   11.85    3.25
  12  -4   1   13.69    3.50
  12  -4   2  189.05    9.70
  12  -4   2  201.83   11.04
 -12  -4  -2  202.82   11.19
  12   4   2  196.06   10.20
  12   4   3   87.16    5.95
  12  -4   3   82.73    6.22
  12  -4   3   84.81    7.28
 -12  -4  -3   85.27    7.23
  12   4   3   77.02    6.30
  12   4   4  253.48   10.70
  12  -4   4  257.84   11.21
  12  -4   4  250.63   12.69
 -12  -4  -4  244.35   12.14
  12   4   4  260.36   11.45
  12   4   5   45.32    4.45
  12  -4   5   46.67    4.63
  12  -4   5   43.08    5.58
 -12  -4  -5   46.43    5.28
  12   4   5   41.25    4.32
  12   4   6   82.06    5.82
  12  -4   6   81.02    5.71
  12  -4   6   76.56    7.09
 -12  -4  -6   76.47    6.01
  12   4   6   79.00    5.51
  12   4   7   24.15    3.42
  12  -4   7   20.52    3.05
  12   4   7   21.57    2.70
 -12  -4  -7   22.17    3.29
  12  -4   8  244.59    9.43
  12   4   8  247.98   10.00
  12  -4   9   55.31    5.26
  12   4   9   49.61    4.12
  12  -4   9   52.56    3.73
  12  -4  10  115.17    6.71
  12   4  10  120.86    5.81
  12  -4  10  101.57    4.51
  12   4  11    5.38    1.52
  12  -4  11    7.45    2.01
  12  -4  12   62.95    3.32
  12   4  12   75.36    3.34
  12  -5 -13    1.58    0.72
  12  -5 -13    3.55    0.90
  12  -5 -12    1.63    1.29
  12  -5 -11    0.09    1.47
 -12  -5  11    1.56    1.29
  12   5 -10    5.71    1.45
  12  -5 -10    6.20    2.17
 -12  -5  10    7.75    2.23
  12   5  -9    4.43    1.76
  12  -5  -9    4.50    2.32
  12   5  -8   18.05    2.99
  12   5  -7   -0.76    2.06
  12   5  -6   64.49    5.63
  12  -5  -5   68.38    5.68
 -12  -5   5   78.94    6.21
  12   5  -5   75.85    6.19
  12   5  -4   23.99    4.20
  12  -5  -4   22.04    3.60
 -12  -5   4   31.17    4.55
  12   5  -3   24.10    4.20
  12  -5  -3   20.97    3.63
 -12  -5   3   22.92    4.31
  12  -5  -2   12.08    3.07
 -12  -5   2   14.02    3.76
  12  -5  -1   79.84    6.09
 -12  -5   1   80.30    7.22
  12   5   0   14.31    3.97
  12   5   0   13.26    2.43
  12  -5   0   15.80    3.29
  12  -5   0   12.68    3.27
 -12  -5   0   17.59    4.40
  12   5   1  372.43   12.67
  12  -5   1  376.34   14.08
  12  -5   1  355.14   14.70
  12   5   1  376.60   15.07
  12   5   2   79.41    5.40
  12  -5   2   83.04    6.23
  12  -5   2   90.16    7.13
 -12  -5  -2   90.08    7.67
  12   5   2   84.60    6.85
  12   5   3   13.94    3.36
  12   5   3   19.09    2.90
  12  -5   3   19.49    3.32
  12  -5   3   16.37    3.80
 -12  -5  -3   21.33    4.46
  12   5   4  343.56   12.71
  12  -5   4  374.85   13.66
  12  -5   4  371.84   15.43
 -12  -5  -4  387.31   15.42
  12   5   4  387.50   14.52
  12   5   5   44.42    4.19
  12  -5   5   44.24    5.49
 -12  -5  -5   40.27    4.86
  12   5   5   41.26    4.36
  12   5   6   11.91    2.69
  12   5   6   12.21    2.61
  12  -5   6   10.96    2.49
  12  -5   6   12.71    3.72
 -12  -5  -6   12.06    3.00
  12  -5   7   39.08    3.57
  12  -5   7   39.97    5.10
  12   5   7   42.92    3.75
  12   5   7   40.96    3.92
  12  -5   8   21.33    4.31
  12   5   8   23.41    3.17
  12  -5   8   21.01    2.52
  12   5   9    1.80    1.56
  12  -5   9    1.59    1.10
  12   5  10    7.17    1.78
  12  -5  10    6.81    2.38
  12  -5  11   18.09    2.40
  12   5  11   19.32    1.91
  12  -6 -12    6.97    1.36
 -12  -6  11    1.13    1.26
 -12  -6  10   99.57    5.84
  12   6  -9    2.18    1.30
  12  -6  -8   59.65    4.83
  12   6  -8   58.36    4.42
  12  -6  -7   94.53    6.22
  12   6  -7   92.71    6.12
  12  -6  -6  236.44   10.37
  12   6  -6  261.05   11.17
  12  -6  -5   58.63    5.18
  12   6  -5   49.53    5.12
  12  -6  -4   34.96    4.26
  12   6  -4   39.52    4.74
  12   6  -3    7.37    3.07
  12  -6  -3    8.27    2.72
 -12  -6   3    9.17    3.47
  12  -6  -2  195.78    9.62
 -12  -6   2  212.56   11.26
  12   6  -2  199.01   10.60
  12  -6  -1   50.21    4.89
 -12  -6   1   53.61    6.01
  12  -6   0  163.31    8.63
  12  -6   0  154.06    8.38
 -12  -6   0  178.99   10.41
  12   6   1   13.41    3.47
  12   6   1   11.63    2.13
  12  -6   1   11.74    2.83
  12  -6   1    9.85    2.85
  12   6   2  130.70    6.44
  12  -6   2  145.61    7.81
  12  -6   2  137.88    8.53
 -12  -6  -2  156.62    9.67
  12   6   2  151.24    8.89
  12   6   3    2.77    2.54
  12   6   3    0.76    1.37
  12  -6   3    2.34    2.07
  12  -6   3    3.64    2.67
 -12  -6  -3    0.96    2.64
  12   6   4  154.41    7.46
  12  -6   4  165.03    8.06
  12  -6   4  157.18    9.35
 -12  -6  -4  173.71    9.62
  12   6   4  171.03    9.08
  12   6   4  162.07    7.43
  12  -6   5  467.44   14.61
  12  -6   5  485.22   17.50
  12   6   5  496.39   16.36
  12   6   5  475.41   14.57
  12  -6   6   84.27    4.94
  12  -6   6   85.87    6.82
  12   6   6   87.38    5.82
  12   6   6   89.44    5.28
  12   6   7    3.56    1.65
  12  -6   7    1.29    1.20
  12  -6   7   -0.16    2.46
  12   6   7    1.95    1.54
  12  -6   8  129.74    7.61
  12   6   8  113.46    5.20
  12   6   8  133.89    5.96
  12   6   9    0.60    1.17
  12  -6   9    0.25    2.04
  12   6  10   44.29    2.74
  12  -6  11    8.39    1.55
  12  -7 -11   13.47    1.81
 -12  -7  11   10.99    1.66
  12  -7 -10    2.85    1.59
 -12  -7  10    1.72    1.58
  12  -7  -9    4.94    1.87
  12   7  -8    4.15    1.57
  12  -7  -8    4.06    2.14
  12  -7  -7   25.26    3.29
  12   7  -7   29.31    3.30
  12   7  -6   15.84    2.88
  12  -7  -6   16.01    3.02
  12   7  -5   14.71    3.11
  12  -7  -5   13.24    2.88
  12   7  -4    1.30    2.29
  12  -7  -4    2.47    2.28
  12   7  -3    5.97    2.76
  12  -7  -3    9.05    2.70
  12   7  -2   20.77    3.95
  12  -7  -2   19.78    3.16
  12   7  -1    1.07    2.65
  12  -7  -1    0.69    1.79
  12  -7   0   16.84    2.97
  12  -7   1   44.95    4.24
  12  -7   1   39.03    4.11
  12   7   1   50.37    5.36
  12  -7   2   52.94    4.50
  12  -7   2   55.06    5.02
  12   7   2   64.98    6.14
  12   7   3   20.37    3.79
  12  -7   3   21.11    2.91
  12  -7   3   18.82    3.47
  12   7   4   12.41    3.22
  12   7   4   10.92    1.89
  12   7   4    7.92    2.16
  12  -7   4   12.62    3.17
  12  -7   5   57.71    3.78
  12  -7   5   64.64    5.62
  12   7   5   65.67    5.31
  12   7   5   64.22    3.91
  12  -7   6   34.64    4.25
  12   7   6   34.03    3.64
  12   7   6   28.46    2.65
  12   7   7    3.62    1.27
  12  -7   7    3.80    2.25
  12   7   7    1.81    1.59
  12   7   8   18.77    2.09
  12   7   8   22.54    2.12
  12  -7   9   68.36    4.60
  12   7   9   48.18    2.63
  12  -7  10    9.92    1.85
  12  -8 -11    6.62    1.07
  12  -8 -10   55.47    3.24
 -12  -8  10   58.44    3.77
  12  -8  -9    7.47    1.77
 -12  -8   9    9.80    2.40
  12  -8  -8  218.15    8.28
  12  -8  -7  114.53    5.97
  12   8  -7  102.04    5.20
  12  -8  -6   55.56    4.37
  12   8  -6   55.24    4.31
  12  -8  -5   47.12    4.10
  12   8  -5   52.35    4.53
  12  -8  -4   51.12    4.33
  12   8  -4   55.12    4.97
  12   8  -3    6.95    2.60
  12  -8  -3    5.46    2.10
  12   8  -2    6.77    2.67
  12  -8  -2    5.57    2.08
  12   8  -1   17.68    3.64
  12  -8  -1   17.98    2.80
  12   8   0    7.00    2.94
  12  -8   0    3.81    1.81
  12  -8   1   18.86    2.65
  12  -8   2   77.73    4.80
  12  -8   2   74.47    5.08
  12   8   2   91.44    6.60
  12   8   3   20.34    3.55
  12   8   3   16.40    2.80
  12  -8   3   15.31    2.20
  12  -8   3   15.19    2.75
  12   8   4  239.37    9.43
  12  -8   4  263.30   10.59
  12   8   4  273.35   11.12
  12   8   5   87.76    4.60
  12  -8   5  105.37    6.30
  12   8   5  108.42    6.42
  12  -8   6   11.58    2.56
  12   8   6   12.55    2.41
  12  -8   7   81.60    5.21
  12   8   7   80.72    4.56
  12  -8   8   32.72    3.13
  12   8   8   21.44    1.92
  12  -8   9    2.31    1.29
 -12  -9  10    7.69    1.30
  12  -9  -9   30.33    2.22
 -12  -9   9   32.61    2.96
  12  -9  -8    1.20    1.20
  12  -9  -7   62.59    3.82
  12  -9  -6   21.03    2.51
  12   9  -6   21.08    2.30
  12  -9  -5   31.89    3.02
  12   9  -5   31.63    3.20
  12  -9  -4   39.49    3.42
  12   9  -4   40.79    3.84
  12   9  -3   20.76    3.23
  12  -9  -3   19.78    2.52
  12  -9  -2   66.49    4.31
  12   9  -2   67.91    5.34
  12   9  -1    3.19    2.24
  12  -9  -1    5.59    1.71
  12   9   0   18.31    3.29
  12  -9   0   15.84    2.18
  12   9   1   43.14    4.32
  12  -9   1   36.17    2.84
  12   9   2    1.14    1.90
  12   9   3   27.32    3.21
  12   9   3   29.58    3.78
  12   9   4    8.19    1.95
  12  -9   4    5.78    1.72
  12   9   5    0.38    0.85
  12  -9   5   -0.09    1.28
  12   9   5    0.11    1.68
  12  -9   6   69.33    4.18
  12   9   6   76.82    4.58
  12  -9   7   -0.30    1.06
  12   9   7    1.23    1.06
  12  -9   8    2.02    0.94
  12 -10  -7   42.73    2.37
 -12 -10   7   62.49    4.17
  12 -10  -6  116.24    4.55
 -12 -10   6  148.05    6.82
  12 -10  -5    0.06    0.88
  12  10  -5    0.20    0.87
  12 -10  -4   34.26    2.49
  12  10  -4   40.84    3.26
  12 -10  -3   15.09    1.77
  12  10  -3   21.92    2.75
  12  10  -2   50.47    4.14
  12  10  -1   35.73    3.75
  12  10   0  141.09    7.34
  12  10   0  148.92    7.47
  12  10   1   56.16    4.47
  12  10   1   55.25    4.59
  12  10   2   52.24    4.09
  12  10   3   27.23    2.83
  12  10   4  101.46    4.73
  12  10   4  130.10    6.26
  12  10   5   45.05    3.44
  12  10   6   28.04    2.45
 -12 -11   7    5.46    1.10
  12  11  -6   -0.61    0.86
 -12 -11   6    0.33    1.00
  12  11  -5    0.36    1.06
 -12 -11   5    1.04    1.19
  12  11  -4   44.28    3.37
 -12 -11   4   42.50    3.14
  12  11  -3    0.93    1.44
 -12 -11   3   -0.39    1.17
  12  11  -3    0.46    0.92
 -12 -11   2    1.77    1.18
  12  11  -2    1.50    1.23
  12  11  -1   40.82    3.53
  12  11  -1   37.79    3.14
  12  11   0    1.15    1.41
  12  11   0    2.75    1.53
  12  11   1    5.26    1.65
  12  11   1    7.66    1.95
  12  11   2    5.51    1.54
  12  11   2    6.89    1.85
  12  11   3    7.22    1.39
  12  11   4    5.89    1.48
  12  11   5    6.27    1.25
  12  12  -4   53.92    2.74
  12  12  -3   62.50    3.30
  12  12  -1   11.15    1.68
  12  12  -1    6.85    1.13
  12  12   0    5.35    1.30
  12  12   0    5.31    1.12
  12  12   1    0.56    0.87
  12  12   1    1.45    0.95
  12  12   2    2.51    0.79
  12  12   2    1.77    0.89
  12  12   3    0.85    0.69
  13   0 -12   33.90    2.48
  13   0 -11    5.88    1.97
  13   0 -11    2.58    0.96
  13   0 -10   91.26    4.64
  13   0 -10   93.18    5.84
  13   0  -9    2.15    2.31
  13   0  -9   -0.10    1.47
  13   0  -8    0.48    2.35
  13   0  -8   -0.57    1.69
  13   0  -7   -0.38    1.76
  13   0  -6    2.15    1.97
 -13   0   6    2.20    1.89
  13   0  -5    5.63    2.37
  13   0  -4   61.44    5.28
  13   0  -4   77.17    6.40
  13   0  -3   21.94    3.69
  13   0  -3   28.03    4.34
  13   0  -2   10.26    2.86
  13   0  -2    8.08    2.56
  13   0  -1   26.93    4.15
  13   0  -1   30.97    4.50
  13   0   0    1.14    1.96
  13   0   0    1.43    2.04
  13   0   1   15.90    3.36
  13   0   1   19.63    3.69
  13   0   2   85.35    6.40
  13   0   2   78.27    5.73
  13   0   3    6.10    2.11
  13   0   3   11.69    3.11
  13   0   4   12.68    3.25
  13   0   5    5.44    3.47
  13   0   6   59.18    6.21
 -13   0  -6   51.90    5.08
  13   0   7   39.19    4.52
  13   0   7   31.93    5.02
 -13   0  -7   33.26    3.91
  13   0   8   54.59    4.54
 -13   0  -8   44.51    3.50
  13   0   9   28.91    3.35
  13   0  10    3.84    1.62
  13   0  11    7.07    1.48
  13   1 -12    3.33    0.95
  13  -1 -12    4.30    1.33
  13  -1 -11   58.21    3.43
  13   1 -11   62.19    4.06
  13  -1 -11   65.23    4.42
  13   1 -10   -0.12    1.63
  13  -1 -10    0.25    1.82
  13  -1 -10    0.09    1.39
  13   1  -9  104.67    5.13
  13  -1  -9  106.98    5.90
  13   1  -9  118.30    6.97
  13   1  -8    1.40    2.30
  13   1  -8    0.40    1.26
  13  -1  -8   -0.61    1.83
  13   1  -7   20.14    3.51
  13   1  -7   20.72    2.81
  13  -1  -7   18.82    3.16
  13   1  -6    4.39    2.84
  13   1  -6    4.46    1.91
  13  -1  -6    4.36    2.34
 -13  -1   6    4.98    2.23
  13   1  -5  152.97    7.80
  13  -1  -5  157.25    8.34
 -13  -1   5  160.54    8.85
  13   1  -4   62.38    5.03
  13  -1  -4   63.45    5.37
  13   1  -4   66.89    6.00
  13   1  -3  503.88   16.60
  13  -1  -3  516.06   17.24
  13   1  -3  518.78   18.20
  13   1  -2   10.30    3.07
  13  -1  -2    7.63    2.69
  13   1  -2    8.64    2.58
  13  -1  -2    7.53    2.75
  13   1  -1  456.76   15.77
  13  -1  -1  461.34   16.17
  13   1  -1  455.80   16.52
  13  -1  -1  447.15   16.10
  13   1   0   11.36    3.00
  13  -1   0    6.87    2.46
  13   1   0    9.38    2.82
  13  -1   0    8.40    2.91
  13   1   1  154.95    8.48
  13  -1   1  152.35    8.63
  13   1   1  142.73    8.30
  13  -1   1  148.51    8.03
  13   1   2   11.01    2.79
  13  -1   2   10.18    2.41
  13   1   2   12.16    3.12
  13  -1   2   12.17    3.39
  13   1   3   67.63    5.69
  13  -1   3   65.70    6.83
  13   1   3   58.52    4.92
  13  -1   3   59.31    4.47
  13   1   4    4.33    1.81
  13   1   5  102.31    6.82
 -13  -1  -5   87.88    6.95
  13   1   6   52.37    4.96
  13  -1   6   55.11    4.97
  13  -1   6   53.76    6.00
 -13  -1  -6   54.60    5.18
  13  -1   7  164.98    8.16
  13  -1   7  154.98    9.27
 -13  -1  -7  152.91    7.72
 -13   1  -7  143.11    7.55
  13  -1   8    9.03    2.48
  13  -1   8    4.24    2.65
 -13  -1  -8    5.33    1.65
 -13   1  -8    5.42    1.70
  13  -1   9  140.60    7.63
  13  -1   9  135.63    6.56
  13   1  10    8.34    1.90
  13  -1  10    4.37    1.60
  13  -1  11   30.18    2.28
  13  -2 -12   12.59    1.77
  13  -2 -12   11.46    1.37
  13  -2 -11   47.84    3.29
  13   2 -11   39.15    3.05
  13  -2 -11   43.91    3.74
  13   2 -10    0.76    1.57
  13  -2 -10    0.09    1.44
  13   2  -9    4.50    2.32
  13  -2  -9    3.58    1.92
  13   2  -8   13.26    3.03
  13  -2  -8    8.30    2.36
  13   2  -7   19.70    3.57
  13   2  -7   13.98    2.20
  13  -2  -7   16.63    3.11
  13   2  -6   23.05    3.98
  13   2  -6   17.93    2.56
  13  -2  -6   19.04    3.32
 -13  -2   6   15.80    2.99
  13   2  -5   65.76    4.72
  13  -2  -5   71.27    5.66
 -13  -2   5   72.29    5.96
  13   2  -4  168.17    8.05
  13  -2  -4  177.23    9.07
 -13  -2   4  167.35    9.61
  13   2  -3  230.36   10.00
  13  -2  -3  254.71   11.20
 -13  -2   3  253.09   12.31
  13   2  -3  256.37   12.05
  13   2  -2   85.73    5.91
  13  -2  -2   90.21    6.58
 -13  -2   2   86.19    7.27
  13   2  -2   91.61    6.97
  13   2  -1   88.55    6.18
  13  -2  -1   92.19    6.81
  13   2  -1   91.63    7.06
  13  -2  -1   99.18    6.80
  13   2   0   62.66    5.25
  13   2   0   62.68    5.79
  13  -2   0   59.24    5.04
  13   2   1   37.38    4.28
  13   2   1   45.89    5.00
  13  -2   1   41.66    4.13
  13   2   2   29.48    3.87
  13  -2   2   31.31    4.99
  13   2   2   28.01    3.91
  13  -2   2   29.97    3.36
  13  -2   3   55.22    5.41
  13  -2   3   53.47    6.21
 -13  -2  -3   49.82    5.84
  13   2   3   54.41    5.01
  13   2   4    7.82    2.23
  13   2   4   10.30    2.87
  13  -2   4   10.37    3.12
  13  -2   4    9.96    3.65
 -13  -2  -4    7.81    3.37
  13   2   5   33.13    4.25
 -13  -2  -5   35.93    4.71
  13   2   5   30.97    3.35
  13   2   6   18.78    3.33
  13  -2   6   20.13    3.38
 -13  -2  -6   20.24    3.50
  13   2   7   24.32    3.60
  13  -2   7   23.64    3.48
  13  -2   7   19.27    4.44
 -13  -2  -7   14.22    2.91
  13   2   8    1.81    1.96
  13  -2   8    4.13    1.94
  13  -2   8    1.46    2.54
 -13   2  -8    2.29    1.38
  13  -2   9   14.41    2.48
  13  -2   9   12.98    3.14
  13  -2  10    1.24    1.24
  13  -2  11    9.10    1.23
  13  -3 -12    1.72    1.09
  13  -3 -12    1.48    0.91
  13  -3 -11  106.65    4.93
  13   3 -11   79.86    3.89
  13  -3 -10   20.37    2.67
 -13  -3  10   14.83    2.10
  13   3 -10   20.64    2.62
  13  -3  -9   62.05    4.67
  13   3  -9   66.58    4.91
  13   3  -8    0.14    1.96
  13  -3  -8    0.13    1.93
  13  -3  -7   84.25    5.90
  13   3  -7   86.86    6.40
  13  -3  -6   63.43    5.32
 -13  -3   6   68.99    5.26
  13   3  -6   65.59    5.86
  13   3  -5   15.47    3.55
  13   3  -5   14.15    2.27
  13  -3  -5   16.89    3.44
 -13  -3   5   17.19    3.32
  13   3  -4   59.87    4.35
  13  -3  -4   60.67    5.47
 -13  -3   4   67.00    6.10
  13   3  -3  574.44   17.21
 -13  -3   3  621.34   20.78
  13   3  -2   16.23    3.59
  13   3  -2   10.16    2.38
 -13  -3   2   13.90    3.79
  13   3  -1   45.10    4.21
 -13  -3   1   52.01    5.84
  13   3  -1   56.33    5.59
  13  -3  -1   51.20    4.74
  13   3   0    6.60    2.85
  13  -3   0    7.48    2.23
  13   3   0    7.84    2.42
  13  -3   0   10.69    3.10
 -13  -3   0    8.97    3.57
  13   3   1   54.40    4.78
  13  -3   1   61.26    5.57
  13   3   1   66.00    5.84
  13  -3   1   57.40    4.49
  13  -3   2   29.62    4.22
  13  -3   2   27.27    4.60
  13   3   2   29.59    4.04
 -13  -3  -2   32.08    4.89
  13   3   3  245.23   10.43
  13  -3   3  237.94   10.80
  13  -3   3  224.26   11.85
 -13  -3  -3  220.89   11.60
  13   3   3  218.25   10.34
  13   3   4   -0.14    1.74
  13   3   4    0.14    1.99
  13  -3   4    1.08    2.19
  13  -3   4    0.21    3.04
 -13  -3  -4    0.37    2.63
  13   3   5  209.10    9.39
  13  -3   5  200.84   11.04
 -13  -3  -5  201.24   10.20
  13   3   5  178.46    8.36
  13   3   6  109.53    6.58
  13  -3   6  108.89    6.51
 -13  -3  -6  109.39    6.82
  13   3   6   89.64    5.11
  13   3   7   13.47    2.74
  13  -3   7   13.25    2.61
 -13  -3  -7   11.15    2.42
  13   3   8    5.28    2.14
  13  -3   8    3.31    1.79
  13  -3   8    2.81    2.60
  13  -3   9  129.44    7.26
  13   3   9  141.23    6.44
  13  -3   9  132.49    5.88
  13   3  10    4.22    1.50
  13  -3  10    3.68    1.12
  13  -3  10    3.79    1.88
  13   3  11   21.25    1.90
  13  -4 -12   31.14    2.15
  13  -4 -12   27.82    2.27
  13  -4 -11    1.02    1.33
  13   4 -10    2.36    1.22
  13  -4 -10    1.84    1.54
 -13  -4  10    2.27    1.43
  13   4  -9    7.06    2.04
  13  -4  -9    7.93    2.23
  13   4  -8   10.89    2.65
  13  -4  -8   12.13    2.65
  13  -4  -7   79.42    5.67
  13   4  -7   83.69    6.08
  13   4  -6   21.85    3.73
  13  -4  -6   18.19    3.40
  13   4  -5   78.04    6.38
  13   4  -4    2.13    2.74
 -13  -4   4    1.42    2.42
  13   4  -3   23.12    2.68
 -13  -4   3   30.89    4.79
  13   4  -2  159.30    7.31
  13  -4  -2  188.83    9.40
 -13  -4   2  184.54   10.47
  13   4  -1   48.89    3.99
  13  -4  -1   50.33    5.21
 -13  -4   1   50.38    6.03
  13   4  -1   49.36    5.48
  13  -4  -1   45.26    4.35
  13  -4   0   69.90    5.90
 -13  -4   0   80.86    7.22
  13   4   0   75.67    6.45
  13  -4   0   79.53    5.27
  13   4   1   13.53    3.50
  13  -4   1    9.32    3.14
  13  -4   1    7.16    2.96
  13   4   2    3.22    2.30
  13   4   2    3.51    2.06
  13  -4   2    1.25    2.12
  13  -4   2    4.65    3.04
 -13  -4  -2    4.21    3.28
  13   4   3  171.41    8.31
  13  -4   3  176.38    9.00
  13  -4   3  178.93   10.20
 -13  -4  -3  181.88   10.29
  13   4   3  170.85    9.09
  13   4   4    2.64    2.16
  13   4   4    1.31    1.75
  13  -4   4    0.73    2.05
  13  -4   4    1.94    2.95
 -13  -4  -4    2.53    2.65
  13   4   5  151.05    7.67
  13  -4   5  162.18    8.01
  13  -4   5  163.32    9.68
 -13  -4  -5  155.26    8.77
  13   4   5  143.57    7.47
  13   4   6    7.65    2.37
  13  -4   6    7.02    2.31
  13  -4   6    7.37    3.27
 -13  -4  -6    4.61    2.31
  13   4   6    5.88    1.78
  13  -4   7   55.51    4.25
  13  -4   7   62.31    5.89
  13   4   7   63.58    4.64
  13   4   8    6.98    2.00
  13  -4   8    5.64    1.69
  13  -4   9   32.80    3.79
  13   4   9   31.19    2.90
  13  -4   9   29.17    2.37
  13   4  10    1.50    1.16
  13  -4  10    1.69    1.63
  13   4  11    5.37    0.98
  13  -5 -12    5.19    1.06
  13  -5 -12    6.64    1.05
  13  -5 -11   74.26    3.89
  13  -5 -10   14.93    2.28
 -13  -5  10   11.85    1.94
  13  -5  -9   33.74    3.46
  13   5  -9   30.99    2.92
  13   5  -8   25.53    3.12
  13   5  -7  208.27    9.40
  13   5  -6   42.66    4.58
  13  -5  -5  256.75   10.86
  13   5  -5  256.08   11.44
  13   5  -4   -0.17    2.30
  13  -5  -4    1.47    2.30
 -13  -5   4   -0.85    2.49
  13  -5  -3   55.12    5.04
 -13  -5   3   43.45    5.18
  13   5  -3   53.04    5.54
  13  -5  -2  119.68    7.35
 -13  -5   2  122.92    8.44
  13   5  -1  266.26    9.71
  13  -5  -1  300.53   12.12
 -13  -5   1  309.64   13.82
  13   5  -1  315.91   13.32
  13  -5  -1  279.72   10.81
  13   5   0   10.15    3.33
  13  -5   0    8.36    1.97
  13   5   0    9.10    2.04
  13  -5   0   13.00    2.88
 -13  -5   0   10.83    3.92
  13   5   1  102.74    5.78
  13  -5   1  105.27    6.79
  13  -5   1  110.84    7.46
  13   5   1  109.91    7.60
  13   5   2    3.36    2.51
  13   5   2    2.70    1.64
  13  -5   2    3.51    2.23
  13  -5   2    2.48    2.52
 -13  -5  -2    3.30    2.98
  13   5   3   52.72    4.19
  13  -5   3   50.65    4.75
  13  -5   3   43.99    5.14
 -13  -5  -3   53.38    5.72
  13   5   3   50.59    5.05
  13   5   4   49.74    4.09
  13  -5   4   54.51    4.68
  13  -5   4   50.72    5.39
 -13  -5  -4   52.17    5.41
  13   5   4   55.04    4.91
  13  -5   5  291.86   10.61
  13  -5   5  284.20   12.49
 -13  -5  -5  264.47   11.48
  13   5   5  270.42   10.75
  13   5   5  273.11   10.19
  13  -5   6  263.29    9.61
  13  -5   6  267.83   11.78
  13   5   6  253.14    9.60
  13   5   6  273.20    9.86
  13  -5   7   99.80    5.03
  13  -5   7  111.75    7.12
  13   5   7   88.75    4.51
  13   5   7  106.87    5.55
  13   5   8   13.98    2.11
  13  -5   8   12.14    1.69
  13  -5   8   14.59    2.93
  13   5   9   20.55    2.12
  13   5  10    4.33    1.03
  13  -5  10    3.86    1.49
  13  -6 -11    0.49    0.90
 -13  -6  10    1.95    1.23
  13   6  -9    8.94    1.43
  13   6  -8   26.79    2.82
  13   6  -7    3.89    1.92
  13  -6  -7    4.04    2.14
  13   6  -6    2.86    2.09
  13  -6  -6    1.62    2.14
  13  -6  -5  105.37    6.47
  13   6  -5  110.64    6.99
  13   6  -4    5.91    2.80
  13  -6  -4    5.33    2.52
  13   6  -3    9.51    3.10
  13  -6  -3    8.66    2.59
  13   6  -2    2.06    2.65
  13  -6  -2    1.27    2.17
 -13  -6   2    1.47    2.80
  13  -6  -1    6.19    1.77
  13  -6  -1   10.27    2.62
 -13  -6   1   13.61    4.09
  13  -6   0   68.76    5.38
 -13  -6   0   66.36    6.57
  13   6   0   63.40    5.89
  13  -6   1   42.90    4.32
  13   6   1   41.13    4.92
  13   6   2    2.60    2.47
  13   6   2    3.68    1.39
  13  -6   2    2.76    1.97
  13  -6   2    3.26    2.24
 -13  -6  -2    2.01    2.96
  13   6   3   36.36    3.47
  13  -6   3   36.80    3.79
  13  -6   3   37.87    4.59
 -13  -6  -3   42.67    5.00
  13   6   3   43.49    4.55
  13   6   3   32.88    3.05
  13  -6   4   32.97    4.22
  13   6   4   36.28    4.07
  13   6   4   35.04    3.11
  13   6   5   19.13    2.92
  13  -6   5   17.89    2.46
  13  -6   5   21.78    3.59
  13   6   5   18.38    2.38
  13  -6   6   63.00    3.77
  13  -6   6   74.03    5.60
  13   6   6   70.93    4.59
  13   6   6   70.33    4.10
  13  -6   7   31.61    3.75
  13   6   7   22.57    2.29
  13   6   7   28.21    2.52
  13  -6   7   21.02    1.91
  13   6   8    3.57    1.16
  13  -6   8    4.48    2.06
  13   6   9    2.61    0.86
  13  -6   9    4.47    1.74
  13  -7 -10    0.69    0.92
 -13  -7  10    0.06    0.90
  13  -7  -9   81.39    4.36
 -13  -7   9   83.40    4.82
  13  -7  -8   92.82    4.97
  13   7  -8   74.71    3.83
  13  -7  -7  193.35    7.95
  13   7  -7  183.21    7.51
  13  -7  -6   91.76    5.53
  13   7  -6   90.87    5.63
  13  -7  -5  147.09    7.34
  13   7  -5  149.70    7.72
  13   7  -4   12.54    2.97
  13  -7  -4   10.81    2.54
  13  -7  -3   47.54    4.30
  13   7  -3   52.57    5.15
  13  -7  -2   49.69    4.41
  13   7  -2   54.11    5.22
  13  -7  -1   31.27    3.60
  13  -7   0    0.49    1.75
  13  -7   1  120.08    6.50
  13   7   1  122.47    7.59
  13   7   2    6.79    2.67
  13  -7   2    5.61    2.00
  13   7   3  299.04   10.62
  13  -7   3  304.57   10.57
  13  -7   3  306.84   11.72
  13   7   3  332.66   12.41
  13  -7   4  123.54    5.60
  13  -7   4  137.40    7.33
  13   7   4  143.20    7.40
  13  -7   5   10.06    1.55
  13  -7   5   12.57    2.67
  13   7   5   15.97    2.64
  13  -7   6   49.49    4.21
  13   7   6   47.64    3.60
  13  -7   7  130.09    6.38
  13   7   7  100.69    4.48
  13  -7   8    2.87    1.59
  13  -7   9    6.59    1.39
  13  -8  -9    6.47    1.25
 -13  -8   9    4.70    1.45
  13  -8  -8   31.27    2.63
 -13  -8   8   35.61    3.28
  13   8  -7    1.68    1.02
  13  -8  -7    0.64    1.30
  13   8  -6    0.80    1.31
  13  -8  -6    0.27    1.35
  13  -8  -5   33.03    3.17
  13   8  -5   33.82    3.37
  13   8  -4    6.58    2.24
  13  -8  -4    8.03    1.96
  13   8  -3    2.51    2.05
  13  -8  -3    2.78    1.70
  13  -8  -2   48.81    3.88
  13   8  -2   51.51    4.75
  13   8  -1    2.00    2.31
  13  -8  -1    2.03    1.61
  13  -8   0   10.54    2.08
  13  -8   1    2.45    1.46
  13   8   2   28.56    3.24
  13  -8   2   30.12    2.73
  13   8   2   28.76    3.67
  13   8   3   19.88    3.24
  13   8   3   18.97    2.52
  13   8   4   59.50    3.42
  13  -8   4   69.41    4.44
  13  -8   5    1.21    1.48
  13   8   5    2.74    1.67
  13  -8   6   28.97    2.79
  13   8   6   31.81    2.71
  13  -8   7   11.27    1.82
  13   8   7    7.98    1.15
  13  -9  -8   41.29    2.25
 -13  -9   8   53.29    3.29
  13  -9  -7  116.26    4.52
  13   9  -6    9.81    1.35
  13  -9  -6   17.16    1.86
  13   9  -5    9.71    1.77
  13  -9  -5   11.47    1.75
  13   9  -4    3.57    1.72
  13  -9  -4    2.63    1.20
  13  -9  -3  110.72    5.08
  13   9  -3  120.30    6.18
  13  -9  -2   64.08    3.76
  13   9  -2   73.69    4.98
  13  -9  -1   21.50    2.20
  13   9  -1   27.12    3.37
  13   9   0  109.85    6.14
  13  -9   0   97.05    4.40
  13   9   1   54.72    4.17
  13   9   2    4.34    1.69
  13   9   2    5.24    2.19
  13   9   3  144.22    5.92
  13   9   3  170.03    7.42
  13   9   4   82.42    4.84
  13   9   5   99.46    4.87
  13   9   6   28.82    2.19
 -13 -10   7    6.78    1.24
  13  10  -6    8.21    1.41
 -13 -10   6    6.96    1.47
  13  10  -5    1.89    1.23
 -13 -10   5    0.96    1.27
  13  10  -4   13.64    1.61
  13  10  -3   60.39    3.69
  13  10  -2    8.80    1.88
  13  10  -2    8.26    2.00
  13  10  -1    0.47    1.47
  13  10  -1   -0.55    1.35
  13  10   0    6.03    1.69
  13  10   0    5.73    1.84
  13  10   1    1.72    1.31
  13  10   1    4.28    1.72
  13  10   2   59.17    3.46
  13  10   3    1.27    0.74
  13  10   3    3.24    1.49
  13  10   4   -0.07    1.03
  13  10   5   12.88    1.49
  13  11  -4    0.80    0.84
  13  11  -2  151.00    5.56
  13  11  -2  116.32    4.46
  13  11  -1   80.47    4.00
  13  11  -1   75.84    3.67
  13  11   0    4.33    1.15
  13  11   0    2.85    1.16
  13  11   1   -0.10    0.73
  13  11   1    0.31    0.91
  13  11   2    3.82    1.07
  14   0 -11   -0.48    1.03
  14   0 -10   50.75    2.72
  14   0 -10   81.40    4.72
  14   0  -9    0.59    1.72
  14   0  -9   -0.65    1.06
  14   0  -8   83.01    4.78
  14   0  -8   89.25    6.11
  14   0  -7    1.34    2.40
  14   0  -7    0.43    1.49
  14   0  -6    4.27    1.90
 -14   0   6    4.26    1.97
  14   0  -5   -0.99    2.62
  14   0  -5    1.15    1.71
 -14   0   5    3.81    2.29
  14   0  -4  201.89    9.26
  14   0  -4  199.76   10.11
  14   0  -3    5.54    2.96
  14   0  -3    3.40    2.18
  14   0  -2  575.60   18.13
  14   0  -2  565.36   18.76
  14   0  -1   -0.80    2.08
  14   0  -1    0.30    2.19
  14   0   0   80.66    6.06
  14   0   0   76.09    5.87
  14   0   1    7.67    2.46
  14   0   1    3.21    2.41
  14   0   2   42.20    4.51
  14   0   2   40.23    4.00
  14   0   3    6.24    1.95
  14   0   3    8.09    2.92
  14   0   4    6.34    2.69
 -14   0  -5   -0.79    2.46
 -14   0  -6  525.90   16.57
 -14   0  -7    0.40    1.42
  14   0   8  178.98    7.51
  14   0   9    0.64    1.31
  14   0  10   36.78    2.51
  14   1 -11   13.79    1.73
  14  -1 -11   16.13    2.01
  14   1 -10    3.45    1.69
  14  -1 -10    3.01    1.81
  14  -1 -10    3.16    1.16
  14   1  -9    7.30    2.24
  14  -1  -9    5.20    2.15
  14  -1  -9    5.82    1.60
  14   1  -8    6.92    2.45
  14  -1  -8    8.93    2.66
  14   1  -8    5.46    1.48
  14  -1  -8    9.13    2.08
  14   1  -7    1.63    2.45
  14   1  -7    1.60    1.36
  14  -1  -7    1.14    1.71
  14  -1  -6    0.31    2.36
  14   1  -6    0.86    1.51
  14  -1  -6   -0.13    1.69
 -14  -1   6    0.12    1.59
 -14   1   6   -0.25    1.58
  14  -1  -5    1.62    2.55
  14   1  -5    1.30    1.65
  14  -1  -5    2.69    1.97
 -14  -1   5    2.12    1.99
  14   1  -4    9.47    3.29
  14  -1  -4   12.48    3.32
  14   1  -4   10.02    2.40
  14  -1  -4    6.77    2.55
 -14  -1   4   10.42    3.16
  14   1  -3  101.06    6.29
  14  -1  -3   99.38    6.54
 -14  -1   3   97.77    7.41
  14   1  -3  100.61    7.21
  14  -1  -3  103.25    7.01
  14   1  -2   69.20    5.42
  14  -1  -2   66.87    5.72
  14   1  -2   69.98    6.14
  14  -1  -2   69.33    5.77
  14   1  -1    1.49    2.17
  14  -1  -1    2.77    2.33
  14   1  -1    2.72    2.24
  14  -1  -1    1.23    2.26
  14  -1   0   28.11    4.04
  14   1   0   23.51    3.59
  14   1   0   28.06    4.15
  14  -1   0   26.27    3.67
  14   1   1    2.89    2.00
  14  -1   1    3.51    1.97
  14   1   1    3.24    2.04
  14  -1   1    4.83    2.78
  14   1   2   10.11    2.63
  14  -1   2   10.87    2.42
  14   1   2   10.16    3.03
  14  -1   2    8.18    3.03
 -14  -1  -3   59.51    6.03
  14   1   3   63.42    4.73
  14   1   4   17.92    3.23
 -14  -1  -4   14.26    3.47
  14   1   5   14.82    2.92
  14  -1   5   11.32    2.90
 -14  -1  -5    8.86    2.86
  14   1   6   38.26    4.10
  14  -1   6   42.62    4.28
 -14  -1  -6   37.27    4.23
 -14   1  -6   36.94    4.21
  14  -1   7    2.57    1.92
 -14  -1  -7    2.77    1.60
 -14   1  -7    1.20    1.56
  14  -1   8   16.48    2.53
  14  -1   9    3.78    1.48
  14   1  10    8.27    1.40
  14  -1  10    6.92    1.24
  14   2 -11    1.89    0.83
  14  -2 -11    3.15    1.37
  14  -2 -11    2.12    0.82
  14  -2 -10   84.02    4.19
  14   2 -10   85.77    4.59
  14  -2 -10   83.64    4.96
  14   2  -9    0.65    1.58
  14  -2  -9    1.27    1.92
  14  -2  -9    1.23    1.38
  14   2  -8   22.72    3.30
  14  -2  -8   25.45    3.09
  14   2  -7    3.16    2.16
  14   2  -7    3.20    1.23
  14  -2  -7    3.29    2.10
  14   2  -6   61.11    3.97
  14  -2  -6   60.77    4.84
 -14  -2   6   58.16    4.51
 -14   2   6   54.73    4.39
  14   2  -6   57.03    5.30
  14   2  -5    0.73    1.35
  14  -2  -5    0.82    2.04
 -14  -2   5    0.60    1.94
  14   2  -4   66.32    4.65
  14  -2  -4   64.77    5.41
 -14  -2   4   61.90    5.76
  14  -2  -4   70.35    5.75
  14   2  -3   98.17    5.95
  14  -2  -3  104.32    6.85
 -14  -2   3  112.26    7.73
  14   2  -3   99.35    7.15
  14  -2  -3   99.82    6.82
  14   2  -2  319.92   11.95
  14  -2  -2  322.76   12.79
 -14  -2   2  345.35   14.47
  14   2  -2  342.96   13.83
  14  -2  -2  321.86   12.80
  14   2  -1   40.73    4.12
  14  -2  -1   46.40    4.86
 -14  -2   1   37.85    5.33
  14   2  -1   52.29    5.15
  14  -2  -1   43.78    4.39
  14   2   0   70.01    5.30
 -14  -2   0   74.08    6.79
  14   2   0   74.71    6.00
  14  -2   0   69.00    5.21
  14   2   1   27.82    3.62
  14   2   1   31.21    3.95
  14  -2   1   30.93    3.42
 -14  -2  -2   86.85    7.17
  14   2   2   84.66    6.09
  14   2   3    4.50    2.03
  14   2   3    2.62    2.12
  14  -2   3    2.69    2.67
 -14  -2  -3    6.24    3.24
  14   2   4   67.98    5.21
 -14  -2  -4   68.69    6.04
  14   2   4   63.10    4.52
  14   2   5   70.57    5.16
  14  -2   5   67.36    5.13
 -14  -2  -5   62.01    5.43
  14   2   6  320.22   11.34
  14  -2   6  310.68   11.28
 -14  -2  -6  294.92   11.35
  14   2   7    1.18    1.66
  14  -2   7    1.47    1.68
 -14  -2  -7    2.15    1.46
 -14   2  -7    1.54    1.40
  14   2   8    5.75    1.87
  14  -2   8    7.74    1.84
  14   2   9    0.67    1.27
  14  -2   9    0.74    1.11
  14  -2  10   35.28    2.05
  14  -3 -11   60.55    2.93
  14  -3 -11   63.28    3.55
  14   3 -10    7.90    1.52
  14  -3 -10    8.34    2.03
  14  -3 -10    8.21    1.64
  14   3  -9    3.01    1.62
  14  -3  -9    2.74    1.57
  14   3  -8    3.45    2.02
  14  -3  -8    2.71    1.91
  14   3  -7    3.41    2.16
  14  -3  -7    4.22    2.04
  14   3  -6   12.13    3.13
  14  -3  -6   10.73    2.66
 -14  -3   6   10.62    2.38
  14   3  -5    0.16    2.17
  14  -3  -5    0.27    2.08
 -14  -3   5    1.29    2.01
  14   3  -4   41.75    3.40
  14  -3  -4   44.94    4.60
 -14  -3   4   48.64    5.00
  14   3  -3   12.55    3.40
  14  -3  -3    9.49    2.64
  14   3  -3   10.78    2.08
  14  -3  -3   11.90    3.16
 -14  -3   3   12.46    3.45
  14   3  -2   41.29    3.73
 -14  -3   2   49.65    5.67
  14   3  -2   48.12    5.37
  14  -3  -2   44.22    4.50
  14   3  -1    9.98    3.19
  14  -3  -1    8.86    2.37
  14   3  -1   10.31    2.31
 -14  -3   1   12.15    3.74
  14   3   0    4.80    2.80
  14  -3   0    3.30    1.81
  14   3   0    2.21    1.79
 -14  -3   0    6.23    3.59
  14  -3   1  149.34    8.27
  14   3   1  147.02    8.23
  14  -3   1  130.15    6.43
  14   3   2   96.60    6.11
  14  -3   2   92.23    6.67
 -14  -3  -2  105.06    7.93
  14   3   2   95.08    6.46
  14   3   3    1.22    1.79
  14   3   3    1.53    1.89
  14  -3   3    1.72    2.37
 -14  -3  -3    1.07    2.66
  14   3   4   27.17    3.47
  14  -3   4   24.75    3.54
  14  -3   4   23.20    4.06
  14   3   4   23.20    3.01
 -14  -3  -4   27.43    4.17
  14   3   5   11.47    2.06
  14   3   5   15.82    2.74
  14  -3   5   18.26    2.99
  14  -3   5   14.72    3.51
 -14  -3  -5   15.81    3.18
  14  -3   6   27.89    3.24
  14  -3   6   26.23    4.31
 -14  -3  -6   23.22    3.21
  14   3   6   28.13    3.24
  14   3   7    4.22    1.89
  14  -3   7    0.47    1.49
 -14   3  -7    1.51    1.46
  14   3   8   16.41    2.34
  14  -3   8   11.93    1.94
  14   3   9    1.92    1.20
  14  -3   9    1.95    0.97
  14   3  10   13.01    1.40
  14  -4 -11   10.74    1.47
  14  -4 -11   11.34    1.30
  14  -4 -10   70.49    3.69
  14  -4 -10   69.12    4.05
  14   4  -9    8.18    1.79
  14  -4  -9    7.68    1.84
  14  -4  -8  121.28    6.12
  14   4  -8  119.12    6.23
  14   4  -7    1.76    1.82
  14  -4  -7   -0.23    2.01
  14  -4  -6  103.04    6.27
  14   4  -6  112.16    6.88
 -14  -4   5  126.54    7.09
  14   4  -5  124.78    7.54
  14   4  -4   26.40    4.03
 -14  -4   4   21.66    3.60
  14  -4  -3   11.32    2.57
 -14  -4   3   12.32    3.29
  14  -4  -2  287.98   11.82
 -14  -4   2  308.93   13.30
  14   4  -2  305.05   12.82
  14  -4  -2  283.30   11.13
  14   4  -1   15.32    3.40
  14  -4  -1   15.65    2.58
  14  -4  -1   16.96    3.22
 -14  -4   1   17.54    3.96
  14   4   0    3.11    2.57
  14  -4   0    3.55    1.54
  14   4   0    3.99    1.84
  14  -4   0    5.12    2.70
 -14  -4   0    5.84    3.34
  14   4   1   -0.79    2.29
  14   4   1    0.78    1.54
  14  -4   1    1.01    2.11
  14   4   2  119.98    6.43
  14  -4   2  131.55    7.39
 -14  -4  -2  126.35    8.38
  14   4   2  121.92    7.34
  14   4   3    0.54    1.72
  14   4   3    0.34    1.59
  14  -4   3    0.27    1.98
 -14  -4  -3    3.23    2.88
  14   4   4  161.97    7.41
  14  -4   4  165.23    9.13
 -14  -4  -4  159.85    8.66
  14   4   4  163.87    7.70
  14   4   5   17.36    2.41
  14   4   5   18.99    2.70
  14  -4   5   20.81    2.88
  14  -4   5   19.58    3.67
 -14  -4  -5   21.70    3.32
  14  -4   6  338.13   11.00
  14  -4   6  337.86   12.93
  14   4   6  322.75   10.80
  14  -4   7  220.15    7.69
  14  -4   7  216.19    9.46
  14   4   7  226.47    7.97
  14   4   8   16.71    2.04
  14  -4   8   12.77    1.62
  14   4   9   45.13    2.67
  14  -5 -11    1.10    0.69
  14  -5 -10    5.98    1.29
  14   5  -9    4.41    1.14
  14  -5  -9    6.19    1.62
 -14  -5   9    6.55    1.59
  14   5  -8    6.61    1.78
  14  -5  -8    9.33    2.05
  14   5  -7    7.65    2.13
  14   5  -6   94.36    5.99
  14   5  -5    4.50    2.39
  14  -5  -4   31.75    3.80
  14   5  -4   34.81    4.18
  14  -5  -3   54.59    4.76
 -14  -5   3   54.98    5.25
  14  -5  -3   43.22    4.00
  14  -5  -2  125.82    7.21
  14  -5  -2  115.30    6.23
  14  -5  -1  161.51    8.15
 -14  -5   1  155.42    9.09
  14   5  -1  157.61    8.78
  14  -5  -1  133.36    6.44
  14   5   0    9.80    3.08
  14   5   0    4.69    1.48
  14  -5   0    6.93    2.47
 -14  -5   0    3.20    3.01
  14   5   1   23.26    2.59
  14  -5   1   28.18    3.57
  14   5   1   28.55    4.02
  14   5   2   67.28    4.25
  14  -5   2   73.09    5.34
 -14  -5  -2   70.78    6.19
  14   5   2   68.79    5.39
  14   5   3   10.01    2.54
  14   5   3    5.51    1.70
  14  -5   3    6.72    2.30
 -14  -5  -3   10.27    3.07
  14   5   4   17.38    2.87
  14   5   4   16.22    2.35
  14  -5   4   18.38    2.68
  14  -5   4   20.33    3.58
 -14  -5  -4   19.68    3.67
  14  -5   5   20.17    2.57
  14  -5   5   18.32    3.28
  14   5   5   18.45    2.43
  14   5   5   22.96    2.51
  14  -5   6   14.27    2.04
  14  -5   6   16.02    3.12
  14   5   6   18.53    2.25
  14   5   6   10.58    1.63
  14   5   7   44.67    2.95
  14  -5   7   40.82    2.62
  14   5   8    1.90    0.95
  14  -6 -10   30.59    2.06
  14  -6 -10   23.32    1.95
 -14  -6   9   27.51    2.40
  14   6  -8  100.39    4.53
  14  -6  -7   52.57    3.87
  14   6  -7   47.80    3.63
  14  -6  -6  224.68    8.81
  14   6  -6  228.47    9.10
  14  -6  -5   27.07    3.19
  14   6  -5   23.55    3.30
  14  -6  -4   99.65    5.83
  14   6  -4   91.70    6.21
  14  -6  -3   58.30    4.60
  14   6  -3   52.50    4.88
  14  -6  -3   54.83    4.03
  14  -6  -2  123.18    6.72
  14  -6  -2  108.41    5.40
  14  -6  -1    1.71    2.01
  14  -6   0  101.65    6.06
  14   6   0  100.07    6.71
  14   6   1    7.57    2.73
  14  -6   1    8.27    2.18
  14  -6   2  159.88    7.46
  14   6   2  168.49    8.30
  14  -6   3  121.25    6.07
  14   6   3  123.25    6.68
  14   6   3  102.67    4.54
  14  -6   4  198.98    7.41
  14   6   4  207.89    8.36
  14   6   5    7.35    1.32
  14  -6   5    8.63    1.61
  14  -6   5    9.78    2.47
  14   6   5    9.57    1.92
  14   6   6   92.23    4.14
  14   6   6   93.08    3.81
  14  -6   6   84.24    3.62
  14   6   7   16.08    1.37
 -14  -7   9   21.05    1.84
  14  -7  -9   19.14    1.72
  14  -7  -8    1.19    1.05
 -14  -7   8    0.95    1.30
  14   7  -7    1.82    1.05
  14  -7  -7    3.53    1.43
  14   7  -6   16.40    2.28
  14  -7  -6   15.92    2.31
  14   7  -5    8.68    2.15
  14  -7  -5   11.33    2.14
  14   7  -4   19.20    2.90
  14  -7  -4   13.77    1.99
  14  -7  -4   18.90    2.61
  14   7  -3    5.04    2.30
  14  -7  -3    2.85    1.18
  14  -7  -3    3.27    1.75
  14   7  -2    6.57    2.50
  14  -7  -2    7.88    2.15
  14  -7  -1    0.93    1.57
  14  -7   0   37.08    3.40
  14   7   0   35.18    4.10
  14   7   1    3.08    2.14
  14  -7   1    3.86    1.65
  14   7   2    7.34    2.46
  14   7   2    4.15    1.45
  14  -7   2    5.93    1.69
  14  -7   3   61.27    3.50
  14   7   3   72.85    4.84
  14  -7   4   17.52    1.69
  14   7   4   23.21    2.71
  14   7   5    5.28    1.48
  14   7   6   11.36    1.38
  14  -8  -8   47.37    2.37
 -14  -8   8   45.44    2.79
  14  -8  -7   27.74    2.10
 -14  -8   7   32.81    2.80
  14   8  -6   64.82    3.34
  14  -8  -6   56.43    3.00
  14   8  -5    0.31    1.15
  14  -8  -5    1.05    0.82
  14  -8  -5    0.14    1.09
  14   8  -4    5.78    1.75
  14  -8  -4    6.28    1.62
  14  -8  -3   27.38    2.63
  14   8  -3   29.50    3.15
  14  -8  -2   22.41    2.46
  14   8  -2   24.53    3.09
  14  -8  -1   20.36    2.27
  14   8  -1   23.63    3.06
  14  -8   0   40.60    2.97
  14   8   1    2.08    1.83
  14   8   1    0.78    1.30
  14  -8   1    1.29    1.00
  14   8   2   98.10    4.65
  14   8   2  135.41    6.40
  14   8   3   34.93    3.24
  14   8   4   93.41    4.73
  14   8   5   63.55    3.35
 -14  -9   6   23.09    2.22
  14  -9  -5   15.52    1.36
  14   9  -5   14.81    1.42
  14  -9  -4   22.94    1.75
  14   9  -4   27.78    2.31
  14   9  -3    3.96    1.44
  14  -9  -3    2.49    0.85
  14  -9  -2   10.29    1.26
  14   9  -2   17.95    2.29
  14   9  -1    2.93    1.53
  14   9  -1    3.33    1.56
  14  -9  -1    2.87    0.75
  14   9   0    0.27    1.33
  14   9   0    0.08    1.15
  14   9   1   46.23    2.97
  14   9   2    2.03    0.80
  14   9   2    3.97    1.58
  14   9   3   12.04    1.82
  14   9   4   13.44    1.62
  14  10  -3    5.59    1.20
  14  10  -2  151.96    5.64
  14  10  -2  167.03    5.58
  14  10  -1  136.16    5.21
  14  10  -1  155.90    5.58
  14  10   0    3.05    0.90
  14  10   0    3.44    1.12
  15   0 -10   -0.26    0.92
  15   0  -9    4.97    1.77
  15   0  -8   -0.85    1.75
  15   0  -8    0.74    1.00
  15   0  -7    1.75    1.34
  15   0  -6   36.01    3.23
 -15   0   6   31.16    2.96
  15   0  -5    3.35    2.34
  15   0  -5    1.27    1.53
 -15   0   5    1.46    1.81
  15   0  -4   40.97    3.83
 -15   0   4   44.20    4.50
  15   0  -4   41.22    4.49
  15   0  -3   14.56    3.29
  15   0  -3   11.54    2.62
 -15   0   3   17.75    3.73
  15   0  -2   10.37    2.65
  15   0  -2   10.51    2.56
 -15   0   2    8.70    2.97
  15   0  -1   13.40    3.02
  15   0  -1   13.69    2.93
  15   0   0   11.71    2.62
  15   0   0   15.05    2.86
  15   0   1    7.29    2.13
  15   0   1    7.32    2.53
  15   0   2   50.28    4.57
  15   0   2   46.41    3.74
  15   0   3    3.15    2.28
 -15   0  -3    3.35    2.68
  15   0   4    3.94    2.23
 -15   0  -4    3.89    2.49
 -15   0  -5   28.80    3.81
 -15   0  -6   16.17    2.44
 -15   0  -7   19.80    1.97
  15   0   8    9.95    1.68
  15   0   9    2.46    0.92
  15   1 -10    6.84    1.27
  15  -1 -10    6.62    1.39
  15   1  -9   92.15    4.81
  15  -1  -9   99.94    5.10
  15   1  -8    2.29    1.78
  15  -1  -8    0.29    1.08
  15   1  -7   48.66    3.09
  15  -1  -7   62.24    4.00
  15   1  -7   59.00    4.67
  15  -1  -6   13.09    2.84
  15   1  -6   12.54    1.96
  15  -1  -6   16.91    2.56
 -15  -1   6   12.84    2.10
 -15   1   6   11.04    1.98
  15   1  -5   44.45    3.53
  15  -1  -5   44.40    3.94
 -15  -1   5   43.88    4.06
 -15   1   5   40.56    3.95
  15   1  -5   46.87    4.59
  15  -1  -5   39.60    4.18
  15   1  -4    1.60    2.30
  15  -1  -4    1.54    2.03
  15   1  -4    1.48    1.57
  15  -1  -4    1.93    1.87
 -15  -1   4    1.00    2.14
 -15   1   4   -0.57    2.07
  15   1  -3  317.52   11.30
  15  -1  -3  312.51   11.72
 -15  -1   3  324.49   12.97
  15   1  -3  327.60   12.72
  15  -1  -3  321.83   12.31
  15   1  -2   21.28    3.44
  15   1  -2   19.91    2.88
  15  -1  -2   23.29    3.38
 -15  -1   2   24.36    4.00
  15  -1  -2   25.86    3.46
  15   1  -1  189.63    8.60
  15  -1  -1  195.07    8.99
 -15  -1   1  199.46   10.36
  15   1  -1  193.07    9.20
  15  -1  -1  182.94    8.67
  15   1   0   12.51    2.72
  15  -1   0   10.89    2.35
  15   1   0   12.39    2.68
  15  -1   0   12.69    2.91
 -15  -1   0   12.75    3.62
  15   1   1   53.33    4.54
  15  -1   1   57.32    4.93
  15   1   1   49.71    4.43
  15  -1   1   48.35    3.91
  15   1   2    5.97    1.94
  15  -1   2    5.66    1.59
  15  -1   2    8.09    2.68
 -15  -1  -2    7.92    3.27
  15   1   3   25.95    3.35
  15   1   3   19.98    2.43
 -15  -1  -3   26.64    4.03
  15   1   4   23.87    3.23
 -15  -1  -4   20.37    3.40
 -15   1  -4   21.52    3.56
  15   1   5  201.40    8.18
  15  -1   5  182.45    7.99
 -15  -1  -5  183.98    8.45
 -15   1  -5  178.87    8.40
  15   1   6    9.78    2.12
  15  -1   6   13.05    2.33
 -15  -1  -6   10.15    2.07
 -15   1  -6   11.56    2.17
  15   1   7  228.81    7.78
  15  -1   7  229.37    7.72
  15  -1   8    0.77    1.10
  15  -1   9    4.26    0.92
  15   2 -10   10.96    1.35
  15  -2 -10   14.79    1.77
  15   2  -9   11.45    1.87
  15  -2  -9   14.52    2.17
  15  -2  -9   10.99    1.55
  15   2  -8   -0.69    1.61
  15  -2  -8    0.38    1.17
  15   2  -7    4.15    2.21
  15  -2  -7    4.34    2.19
  15  -2  -7    6.31    1.81
  15   2  -6    8.87    2.50
  15  -2  -6    7.20    2.40
  15  -2  -6    7.07    2.04
 -15  -2   6    6.23    1.60
 -15   2   6    5.52    1.56
  15  -2  -5    3.52    2.28
  15   2  -5    2.33    1.21
  15  -2  -5    3.19    2.05
 -15  -2   5    3.86    1.97
 -15   2   5    3.49    1.98
  15   2  -4    0.43    2.18
  15  -2  -4    0.53    1.85
  15   2  -4   -0.18    1.22
  15  -2  -4    1.10    1.88
 -15  -2   4    0.70    2.06
  15   2  -3   49.71    3.82
  15  -2  -3   52.02    4.62
 -15  -2   3   49.02    4.99
  15   2  -3   58.54    5.25
  15  -2  -3   50.53    4.50
  15   2  -2  152.65    7.13
  15  -2  -2  148.23    7.80
 -15  -2   2  159.57    8.91
  15   2  -2  154.95    8.36
  15  -2  -2  159.42    7.82
  15   2  -1   21.75    3.64
  15  -2  -1   19.15    2.94
  15   2  -1   17.40    2.76
  15  -2  -1   15.29    3.12
 -15  -2   1   17.15    3.91
  15   2   0   12.33    2.81
  15  -2   0    8.24    2.07
  15   2   0   10.14    2.37
  15  -2   0    9.38    2.82
 -15  -2   0   11.09    3.54
  15   2   1   13.64    2.82
  15  -2   1    8.82    1.88
  15   2   2    1.89    1.70
  15   2   2    0.35    1.83
 -15  -2  -2    3.45    2.96
  15   2   3    6.28    1.79
  15   2   3    7.98    2.26
 -15  -2  -3    7.53    3.07
  15   2   4    4.19    1.27
  15   2   4    7.15    2.14
  15  -2   4    3.79    2.07
 -15  -2  -4    9.12    2.80
  15   2   5   27.02    3.08
  15  -2   5   29.35    3.30
 -15  -2  -5   27.22    3.48
 -15   2  -5   28.53    3.56
  15   2   6    1.43    1.45
  15  -2   6    0.91    1.46
 -15  -2  -6    0.36    1.37
 -15   2  -6    0.27    1.35
  15   2   7   13.28    2.05
  15  -2   7   11.89    1.94
 -15   2  -7    9.26    1.37
  15   2   8    0.06    0.99
  15  -2   8    0.56    0.92
  15   2   9    3.68    0.85
  15  -3 -10    4.38    1.16
  15  -3  -9   40.67    2.68
  15   3  -9   37.38    2.70
  15  -3  -8   34.13    2.85
  15   3  -8   32.66    3.04
  15  -3  -8   36.37    3.29
  15  -3  -7   98.28    5.22
  15   3  -7   97.29    5.62
  15  -3  -7  101.49    5.71
  15   3  -6   -0.73    1.93
  15  -3  -6   -0.23    1.71
  15  -3  -6    0.10    1.57
  15  -3  -5   68.77    4.89
 -15  -3   5   69.17    4.72
  15  -3  -5   73.70    5.16
  15  -3  -4   47.95    4.31
 -15  -3   4   50.39    4.56
  15  -3  -4   50.87    4.37
  15   3  -3   23.68    2.43
  15  -3  -3   31.41    3.71
 -15  -3   3   31.86    4.14
  15   3  -3   28.84    3.98
  15  -3  -3   31.41    3.49
  15   3  -2   21.77    3.59
  15  -3  -2   19.23    2.83
  15   3  -2   19.55    2.38
 -15  -3   2   21.53    3.87
 -15  -3   1   73.32    6.20
  15   3  -1   81.51    5.96
  15  -3  -1   69.56    4.67
  15   3   0   13.27    2.90
  15  -3   0   11.97    2.04
  15   3   0   14.98    2.43
 -15  -3   0   17.38    3.90
  15   3   1  180.81    7.74
  15  -3   1  179.10    8.55
  15   3   1  188.20    8.68
  15   3   2    1.19    1.71
  15   3   2    1.98    1.64
  15  -3   2    0.13    2.01
 -15  -3  -2    0.63    2.50
  15   3   3   17.68    2.61
  15  -3   3   13.23    2.73
  15   3   3   18.81    2.54
 -15  -3  -3   16.57    3.33
  15   3   4   31.56    3.11
  15  -3   4   29.07    3.19
 -15  -3  -4   32.23    3.83
  15   3   4   24.12    2.46
  15  -3   5   61.01    4.15
 -15  -3  -5   55.32    4.32
  15   3   5   62.05    4.06
  15  -3   6   20.68    2.44
 -15   3  -6   17.55    2.30
  15   3   6   20.07    2.32
  15   3   7  183.59    6.46
  15  -3   7  175.70    6.30
  15   3   8   21.26    1.79
  15  -3   8   16.76    1.49
  15   4  -9    1.04    0.73
  15  -4  -9    2.81    1.30
  15  -4  -9    1.81    0.99
  15   4  -8    1.50    1.17
  15  -4  -8    2.07    1.45
  15  -4  -8    1.72    1.23
  15  -4  -7   27.04    2.76
  15   4  -7   31.56    3.14
  15  -4  -7   29.95    3.09
  15   4  -6    1.23    1.67
  15  -4  -6    2.27    1.69
  15  -4  -6    2.53    1.76
  15   4  -5    3.59    2.12
  15  -4  -5    5.19    2.01
  15  -4  -5    5.64    2.10
 -15  -4   4   33.64    3.66
  15  -4  -4   26.85    3.10
 -15  -4   3   83.47    5.90
  15  -4  -3   72.46    4.86
 -15  -4   2  142.20    7.93
  15   4  -2  142.55    7.72
  15  -4  -2  128.72    6.22
  15   4  -1  303.93    9.84
  15  -4  -1  359.06   12.37
 -15  -4   1  366.73   13.65
  15   4  -1  368.69   12.99
  15  -4  -1  301.82   10.21
  15   4   0    4.88    2.41
  15   4   0    3.97    1.40
  15  -4   0    6.78    2.43
 -15  -4   0    3.94    2.96
  15   4   1  161.15    6.75
  15   4   1  172.10    8.25
  15   4   2    8.54    2.24
  15   4   2    7.50    1.80
  15  -4   2   10.13    2.49
 -15  -4  -2    9.89    2.99
 -15  -4  -3   29.92    3.93
  15   4   3   26.44    3.03
  15   4   4    5.42    1.50
  15   4   4    5.62    1.61
  15  -4   4    7.66    2.00
 -15  -4  -4    5.15    2.24
  15  -4   5   20.38    2.43
  15   4   5   15.75    2.07
  15   4   6    2.55    1.15
 -15   4  -6    1.01    1.17
  15   4   7    7.95    1.27
  15  -4   7    6.87    1.13
  15  -5  -9   75.39    3.27
  15  -5  -9   67.71    3.33
  15   5  -8    3.34    1.07
  15  -5  -8    4.71    1.34
  15  -5  -8    3.91    1.24
  15   5  -7  105.08    5.06
  15  -5  -7  103.86    5.07
  15   5  -6    9.36    2.10
  15  -5  -6    6.13    1.77
  15   5  -5   32.06    3.46
  15  -5  -5   31.49    3.02
  15  -5  -4   54.98    4.18
  15   5  -4   55.07    4.56
  15  -5  -4   50.03    3.73
  15  -5  -3  120.21    6.30
  15  -5  -3  108.87    5.39
  15   5  -2    9.54    2.74
  15  -5  -2    5.14    1.45
  15  -5  -2    7.37    2.33
  15  -5  -1  127.53    6.70
 -15  -5   1  131.20    7.55
  15   5  -1  136.74    7.32
  15   5   0   12.33    2.60
  15  -5   0   14.19    2.63
 -15  -5   0   13.45    3.09
  15   5   1   10.25    2.42
  15  -5   1   10.38    2.33
  15  -5   2   35.36    3.38
 -15  -5  -2   36.42    4.11
  15   5   2   30.42    3.26
  15   5   2   27.93    2.26
  15  -5   3  208.83    7.70
  15   5   3  196.74    7.81
  15  -5   4   26.58    2.57
  15   5   4   25.48    2.49
  15   5   4   23.81    2.06
  15  -5   5  126.73    4.92
  15   5   5  113.82    4.31
 -15   5  -6    9.88    1.46
  15   5   6   12.11    1.24
  15  -5   6   10.48    1.24
  15  -6  -8    1.86    0.81
 -15  -6   8    2.18    0.89
  15   6  -7   30.35    2.29
  15  -6  -7   30.69    2.37
  15   6  -6    0.47    1.18
  15  -6  -6    0.67    1.06
  15  -6  -6    0.37    1.20
  15  -6  -5   20.28    2.46
  15   6  -5   18.65    2.53
  15  -6  -5   18.08    2.06
  15   6  -4    4.30    1.91
  15  -6  -4    1.99    1.12
  15  -6  -4    3.40    1.61
  15   6  -3    5.06    2.13
  15  -6  -3    3.49    1.10
  15  -6  -3    5.17    1.81
  15  -6  -2    1.64    1.59
  15   6  -1    5.63    2.32
  15  -6  -1    7.79    1.97
  15   6   0    2.99    1.98
  15  -6   0    3.19    1.68
  15   6   1   22.39    2.18
  15  -6   1   28.71    2.85
  15   6   1   30.90    3.34
  15   6   2    1.78    1.55
  15   6   3    7.59    1.76
  15  -6   3    5.94    1.41
  15  -6   4   10.56    1.41
  15   6   4   12.42    1.73
  15  -7  -7   15.83    1.51
 -15  -7   7   12.44    1.60
  15  -7  -6   12.64    1.60
  15   7  -6   11.33    1.45
  15  -7  -5   37.14    2.70
  15   7  -5   36.30    2.81
  15  -7  -4   19.21    2.18
  15   7  -4   19.45    2.43
  15   7  -3   11.20    2.17
  15  -7  -3   12.01    1.91
  15   7  -2   12.30    2.29
  15  -7  -2   13.21    2.01
  15  -7  -1   45.54    3.22
  15   7   0    1.57    1.69
  15   7   0    0.65    1.06
  15  -7   0    0.28    1.08
  15  -7   1   57.37    3.29
  15   7   1   68.32    4.31
  15  -7   2   38.69    2.39
  15   7   2   56.99    3.73
  15   7   3   16.15    2.01
  15   7   4   15.55    1.68
 -15  -8   6   18.61    1.73
  15  -8  -5    2.07    0.73
  15   8  -4    0.35    0.88
  15  -8  -4    0.36    0.68
  15   8  -3    1.67    1.13
  15  -8  -3    1.15    0.81
  15  -8  -2   12.36    1.43
  15   8  -2   18.14    2.15
  15   8  -1   25.20    2.22
  15  -8  -1   25.66    1.86
  15   8   0    5.87    1.14
  15   8   1    4.37    1.48
  15   8   2   34.16    2.63
  15   8   3   10.12    1.38
  15   9  -2   42.62    2.44
  15   9  -1   61.89    3.13
  15   9   1   29.50    2.08
  16   0  -9   -0.05    0.74
  16   0  -8   97.53    4.63
  16   0  -7    0.04    0.59
  16   0  -6   42.85    2.80
  16   0  -6   48.73    3.86
  16   0  -5    0.96    1.72
  16   0  -5    0.60    1.15
 -16   0   5   -0.40    1.30
  16   0  -4  173.77    6.94
 -16   0   4  162.29    7.43
  16   0  -4  170.88    7.75
  16   0  -3   -0.34    1.68
  16   0  -3    1.50    1.52
 -16   0   3   -0.12    1.84
  16   0  -2   77.19    4.80
 -16   0   2   78.97    5.68
  16   0  -2   79.15    5.12
  16   0  -1    1.38    1.57
  16   0  -1    3.92    1.80
 -16   0   1    1.68    2.53
  16   0   0   17.17    2.37
  16   0   0   20.97    2.76
 -16   0   0   22.03    3.62
  16   0   1    4.90    1.47
  16   0   2    2.22    1.77
 -16   0  -2    3.04    2.40
  16   0   3    1.24    1.62
 -16   0  -3    0.36    1.97
  16   0   4  242.33    8.56
 -16   0  -4  230.76    9.08
  16   0   5    0.85    1.33
 -16   0  -5    1.31    1.31
 -16   0  -6  110.88    4.20
  16   1  -9    3.31    0.91
  16   1  -8   18.54    2.10
  16   1  -7   11.15    2.06
  16  -1  -7   14.40    2.19
  16  -1  -7   10.63    1.46
  16  -1  -6   10.98    2.22
  16  -1  -6    7.95    1.60
  16   1  -5    3.55    1.93
  16  -1  -5    3.60    1.79
  16   1  -5    4.09    1.15
  16  -1  -5    3.22    1.48
 -16  -1   5    2.21    1.27
 -16   1   5    3.30    1.40
  16   1  -4   94.68    4.60
  16  -1  -4   98.27    5.22
 -16  -1   4   95.81    5.55
 -16   1   4   89.36    5.36
  16   1  -4   97.77    5.79
  16  -1  -4   86.51    5.34
  16   1  -3   -0.35    1.83
  16  -1  -3    0.86    1.57
  16   1  -3    2.26    1.41
  16  -1  -3    2.28    1.61
 -16  -1   3    1.82    2.02
 -16   1   3    1.82    2.06
  16   1  -2    8.18    2.38
  16  -1  -2    6.59    1.99
  16   1  -2    6.43    1.80
  16  -1  -2    6.35    2.10
 -16  -1   2    7.43    2.69
 -16   1   2    6.50    2.72
  16   1  -1   56.84    4.00
  16  -1  -1   53.33    4.21
 -16  -1   1   60.01    5.13
 -16   1   1   58.29    5.08
  16   1  -1   56.20    4.32
  16  -1  -1   57.18    4.02
  16   1   0    5.86    1.99
  16  -1   0    5.67    1.63
  16  -1   0    6.78    2.15
 -16  -1   0    7.17    2.93
 -16   1   0   10.01    3.11
  16   1   1   50.34    3.85
  16  -1   1   47.14    3.94
  16   1   1   42.00    3.35
  16   1   2    8.23    1.53
  16   1   2   16.27    2.49
 -16  -1  -2   14.26    3.14
 -16   1  -2   12.47    2.98
  16   1   3   17.66    2.49
 -16  -1  -3   18.13    3.04
 -16   1  -3   23.19    3.28
  16   1   4   23.11    2.64
 -16  -1  -4   23.74    3.22
 -16   1  -4   27.20    3.36
  16   1   5    0.89    1.27
 -16  -1  -5   -0.08    1.25
 -16   1  -5    0.32    1.31
  16   1   6   20.20    2.08
  16  -1   6   24.08    2.22
  16   1   7   -0.05    0.71
  16  -1   7   -0.28    0.76
  16  -2  -8   71.46    3.09
  16   2  -8   94.01    4.17
  16  -2  -7   27.96    2.24
  16   2  -7   32.75    2.91
  16  -2  -7   30.92    2.79
  16  -2  -6   68.32    3.90
  16  -2  -6   71.40    4.40
  16  -2  -5    3.92    1.75
  16  -2  -5    5.93    1.72
 -16   2   5    3.43    1.28
  16  -2  -4   64.14    4.23
 -16  -2   4   56.73    4.21
 -16   2   4   55.15    4.14
  16   2  -4   70.27    4.87
  16  -2  -4   62.74    4.30
  16   2  -3    0.69    1.70
  16  -2  -3    0.30    1.43
  16  -2  -3    0.40    1.52
 -16  -2   3    0.23    1.79
 -16   2   3    1.17    1.90
  16  -2  -2   65.50    4.55
 -16  -2   2   67.58    5.17
  16   2  -2   68.69    4.89
  16  -2  -2   63.33    4.22
  16   2  -1    5.16    2.05
  16  -2  -1    5.02    1.57
  16  -2  -1    4.05    2.02
 -16  -2   1    5.80    2.59
  16   2   0   66.42    4.20
  16  -2   0   76.39    4.93
 -16  -2   0   75.58    5.65
  16   2   0   69.20    4.66
  16   2   1   24.08    2.66
  16   2   1   19.00    2.48
  16   2   2   18.08    2.40
  16   2   2   16.53    2.07
 -16  -2  -2   22.37    3.38
  16   2   3   12.74    1.99
  16  -2   3   12.92    2.24
 -16  -2  -3   13.98    2.76
 -16   2  -3   13.50    2.69
  16   2   4   32.80    2.79
  16  -2   4   36.27    3.11
 -16  -2  -4   34.55    3.33
 -16   2  -4   30.59    3.21
  16   2   5    2.14    1.20
  16  -2   5    2.37    1.35
 -16  -2  -5    2.83    1.37
 -16   2  -5    3.80    1.44
  16   2   6   36.27    2.47
  16  -2   6   35.88    2.50
  16   2   7    2.73    0.78
  16  -2   7    2.40    0.75
  16   3  -8    3.23    1.01
  16  -3  -8    2.67    1.04
  16  -3  -8    2.65    0.81
  16   3  -7    3.19    1.33
  16  -3  -7    2.17    1.19
  16  -3  -7    2.07    1.08
  16   3  -6    6.39    1.82
  16  -3  -6    3.73    1.51
  16  -3  -6    4.11    1.43
  16  -3  -5   25.87    2.65
  16  -3  -5   23.47    2.59
  16  -3  -4   49.86    3.71
 -16   3   4   41.67    3.42
  16   3  -4   49.56    4.09
  16  -3  -4   41.07    3.31
  16   3  -3    6.99    2.14
  16  -3  -3    2.82    1.46
  16  -3  -3    3.68    1.81
 -16  -3   3    4.05    2.01
  16   3  -2    3.70    1.94
  16  -3  -2    1.34    1.24
  16   3  -2    1.26    0.96
  16  -3  -2    3.42    1.81
 -16  -3   2    4.10    2.24
  16   3  -1  175.36    6.37
 -16  -3   1  217.81    9.10
  16   3  -1  215.59    8.48
  16  -3  -1  153.24    6.04
  16   3   0   14.02    2.47
  16   3   0    7.71    1.60
 -16  -3   0   13.77    3.07
  16   3   1   24.02    2.34
  16   3   1   24.49    2.72
  16   3   2   22.63    2.27
 -16  -3  -2   24.87    3.33
  16   3   2   21.85    2.37
  16   3   3    2.88    1.02
  16   3   3    5.71    1.41
  16  -3   3    6.78    1.75
 -16  -3  -3    5.43    2.10
  16  -3   4   20.31    2.34
 -16  -3  -4   19.13    2.55
 -16   3  -4   19.23    2.60
  16   3   4   16.33    1.90
  16   3   5    6.06    1.23
  16  -3   5    6.04    1.36
 -16   3  -5    6.15    1.41
  16   3   6   11.52    1.28
  16  -3   6   13.25    1.43
  16  -4  -8   22.07    1.68
  16   4  -7    5.12    1.22
  16  -4  -7    6.61    1.25
  16  -4  -7    5.29    1.16
  16  -4  -6   29.53    2.47
  16   4  -6   32.42    2.76
  16  -4  -6   24.82    2.27
  16   4  -5    1.51    1.51
  16  -4  -5    1.83    1.13
  16  -4  -5    2.07    1.40
 -16   4   4   76.35    4.21
  16  -4  -4   72.81    3.95
  16   4  -3   17.33    2.63
  16  -4  -3   13.21    1.77
  16   4  -2    1.47    1.68
  16  -4  -2   -0.06    0.76
  16  -4  -1   21.34    2.70
 -16  -4   1   23.28    3.23
  16   4  -1   23.72    2.94
  16  -4   0   97.99    5.29
 -16  -4   0  105.57    6.13
  16   4   0   97.05    5.39
  16  -4   1   19.99    2.52
  16   4   1   21.71    2.58
  16   4   1   13.65    1.52
  16  -4   2   72.14    4.10
 -16  -4  -2   68.52    4.72
  16   4   2   60.65    3.67
  16   4   3   30.36    2.27
  16   4   3   29.51    2.10
  16  -4   4   57.11    3.20
 -16   4  -4   55.96    3.65
  16  -4   5    2.27    0.87
 -16   4  -5    3.13    1.04
  16  -5  -7   11.33    1.30
  16   5  -6    6.93    1.35
  16  -5  -6    4.00    0.94
  16  -5  -5    9.18    1.28
  16   5  -5   16.59    2.08
  16   5  -4    8.93    1.87
  16  -5  -4    4.08    0.99
  16  -5  -4    9.48    1.82
 -16   5   4    6.93    1.36
  16  -5  -3   50.19    3.47
  16  -5  -2   31.79    2.88
  16   5  -2   33.66    3.18
  16   5  -1   13.55    2.30
  16  -5  -1   13.84    2.10
  16  -5   0   25.86    2.63
  16   5   0   24.39    2.77
  16   5   1    2.35    1.31
  16  -5   1    3.46    1.43
  16  -5   2   26.95    2.36
  16   5   2   26.99    2.40
  16  -5   3   26.70    2.09
  16   5   3   18.20    1.70
  16  -5   4    9.28    1.21
  16  -6  -6    7.36    1.07
  16  -6  -5   34.44    2.29
  16   6  -5   31.89    2.31
  16  -6  -4   82.80    3.88
  16   6  -4   82.25    4.13
  16  -6  -3    9.90    1.58
  16  -6  -2   47.60    3.03
  16   6  -1    1.91    1.37
  16   6  -1    0.05    0.62
  16  -6  -1    0.71    1.05
  16  -6   0   71.95    3.67
  16   6   0   77.69    4.21
  16  -6   1   88.52    3.84
  16   6   1  102.68    4.62
  16  -6   2   17.22    1.52
  16   6   2   20.85    1.91
  16   7  -4    7.98    1.10
  16   7  -3    1.26    0.83
  16  -7  -3    0.68    0.64
  16  -7  -2   29.07    1.88
  16   7  -1    1.35    1.01
  16   7   0    7.02    1.34
  16   7   1   18.54    1.74
  17   0  -6    1.59    0.98
  17   0  -5    7.50    1.62
  17   0  -4    1.16    1.16
  17   0  -4    0.24    0.71
 -17   0   4    0.68    0.93
  17   0  -3    2.12    1.29
  17   0  -3    1.21    1.00
 -17   0   3    2.09    1.41
 -17   0   2   19.36    2.56
  17   0  -2   19.86    2.12
  17   0  -1    0.44    0.85
 -17   0   1   -0.10    1.62
  17   0   0    1.95    0.78
  17   0   0    5.01    1.44
 -17   0   0    5.13    1.96
  17   0   1    1.39    1.21
  17   0   2    0.72    1.11
 -17   0  -2   -0.53    1.54
  17   0   3   14.36    1.80
 -17   0  -3   17.62    2.37
  17   0   4    9.66    1.37
 -17   0  -4    9.42    1.44
  17   0   5    9.50    1.14
  17  -1  -7   58.91    2.75
  17  -1  -6   10.41    1.44
  17   1  -6   13.12    1.62
  17  -1  -5   63.06    2.99
  17  -1  -5   74.24    3.73
  17   1  -4   12.29    1.84
  17  -1  -4   10.47    1.65
  17   1  -4    5.84    0.93
  17  -1  -4    9.22    1.41
 -17   1   4    9.03    1.37
  17   1  -3    9.83    1.74
  17  -1  -3    7.16    1.45
  17   1  -3    5.75    1.12
  17  -1  -3    9.14    1.54
 -17  -1   3    9.16    1.77
 -17   1   3    7.86    1.75
  17   1  -2    0.89    1.22
  17  -1  -2    0.98    0.92
  17   1  -2    1.08    0.98
  17  -1  -2    1.32    1.18
 -17  -1   2    2.83    1.65
 -17   1   2    0.62    1.43
  17   1  -1    4.31    1.27
  17  -1  -1    4.16    0.99
  17   1  -1    5.95    1.31
 -17  -1   1    5.82    1.96
 -17   1   1    4.18    1.80
  17   1   0    3.76    1.05
  17   1   0    2.92    1.17
 -17  -1   0    4.37    1.96
 -17   1   0    5.04    1.91
  17   1   1   18.32    1.96
  17  -1   1   18.25    2.14
  17   1   2   56.64    3.25
  17  -1   2   58.93    3.46
 -17  -1  -2   65.57    4.13
 -17   1  -2   62.69    4.10
  17   1   3   61.73    3.24
  17  -1   3   70.79    3.58
 -17  -1  -3   67.25    3.90
 -17   1  -3   67.37    3.91
  17   1   4    1.40    0.82
 -17  -1  -4    1.26    0.93
 -17   1  -4    0.61    0.86
  17  -2  -6    7.86    1.15
  17  -2  -5   31.84    2.17
  17  -2  -5   34.06    2.32
  17   2  -4    4.12    1.36
  17  -2  -4    2.44    1.02
  17  -2  -4    3.43    1.13
 -17   2   4    2.70    0.91
  17   2  -3    8.37    1.71
  17  -2  -3    6.17    1.23
  17  -2  -3   10.38    1.67
 -17   2   3    8.62    1.65
  17   2  -2   16.48    1.46
  17  -2  -2   34.86    2.70
 -17  -2   2   27.97    2.74
 -17   2   2   33.83    2.97
  17   2  -2   29.46    2.61
  17  -2  -2   19.28    1.67
  17   2  -1    2.87    1.24
  17   2  -1    1.69    0.85
  17  -2  -1    4.18    1.42
 -17  -2   1    4.16    1.82
 -17   2   1    4.51    1.80
  17   2   0    6.60    1.30
  17   2   0    4.88    1.13
 -17  -2   0    7.74    2.00
 -17   2   0    6.83    1.97
  17   2   1    5.40    0.97
  17   2   1    8.06    1.27
  17   2   2    5.73    1.14
 -17  -2  -2    7.18    1.81
 -17   2  -2    8.04    1.88
  17   2   3    6.59    1.07
  17  -2   3   10.48    1.55
 -17  -2  -3   10.45    1.75
 -17   2  -3   10.01    1.76
  17  -2   4    1.87    0.83
 -17   2  -4    1.09    0.82
  17   3  -6    1.71    0.79
  17  -3  -5   16.71    1.58
  17   3  -4    1.20    1.13
  17  -3  -4    0.17    0.85
  17   3  -3    9.62    1.65
  17  -3  -3   10.26    1.58
 -17   3   3    6.87    1.39
  17   3  -2    6.96    1.54
  17  -3  -2    8.33    1.58
 -17   3   2    5.68    1.62
  17  -3  -1   72.15    3.83
 -17   3   1   68.36    4.10
  17   3  -1   61.87    3.58
 -17  -3   0   17.44    2.28
  17   3   0   14.43    1.71
  17  -3   1   18.86    1.95
  17   3   1   10.58    1.26
  17  -3   2    4.34    1.18
 -17   3  -2    4.59    1.49
  17  -3   3   42.03    2.50
 -17   3  -3   46.29    2.89
  17  -3   4    0.04    0.55
  17   4  -5    4.58    1.01
  17  -4  -5    3.70    0.85
  17  -4  -4    4.19    1.00
  17   4  -3    2.42    1.11
  17   4  -2    0.19    0.94
 -17   4   2    0.13    0.98
  17  -4  -1   49.12    2.95
 -17   4   1   48.53    3.22
  17   4  -1   49.61    2.98
  17   4   0    7.88    1.31
  17  -4   0   10.42    1.46
 -17   4   0   11.47    1.86
  17  -4   1   33.42    2.29
  17  -4   2    5.99    1.05
 -17   4  -2    6.18    1.36
 -17   4  -3    2.31    0.87
  17  -5  -3   19.60    1.58
  17   5  -3   19.24    1.70
  17   5  -2    2.62    0.89
  17  -5  -2    3.19    0.90
  17   5  -1    2.28    0.89
 -17   5   1    2.40    0.98
  17   5   0   30.53    1.94
 -17   5   0   33.35    2.37
 -18   0   0    1.93    0.79
   0   0   0    0.00    0.00


TITL cu-ha-1 in P2(1)/m
REM P2(1)/m (#11 in standard setting)
CELL 1.54184  14.232069  13.237836  14.628655  90.0000  93.1531  90.0000
ZERR   39.00   0.000129   0.000142   0.000157   0.0000   0.0009   0.0000
LATT  1
SYMM -x, y+1/2,-z
SFAC C H N O Cu
UNIT 39.00 39.00 39.00 39.00 39.00
TREF
HKLF 4
END
_computing_structure_solution     'SHELXT 2014/5 (Sheldrick, 2014)'
;
_shelx_hkl_checksum              80029
_olex2_submission_special_instructions 'No special instructions were received'
_oxdiff_exptl_absorpt_empirical_details
;
Empirical correction (ABSPACK) includes:
- Absorption correction using spherical harmonics
- Frame scaling
;
loop_
_space_group_symop_operation_xyz
'x, y, z'
'-x, y+1/2, -z+1/2'
'-x, -y, -z'
'x, -y-1/2, z-1/2'
loop_
_atom_site_label
_atom_site_type_symbol
_atom_site_fract_x
_atom_site_fract_y
_atom_site_fract_z
_atom_site_U_iso_or_equiv
_atom_site_adp_type
_atom_site_occupancy
_atom_site_site_symmetry_order
_atom_site_calc_flag
_atom_site_refinement_flags_posn
_atom_site_refinement_flags_adp
_atom_site_refinement_flags_occupancy
_atom_site_disorder_assembly
_atom_site_disorder_group
Cu1 Cu 1.000000 0.500000 0.000000 0.0273(4) Uani 1 2 d S . P . .
Cu2 Cu 0.500000 0.500000 0.500000 0.0667(6) Uani 1 2 d S . P . .
O1 O 0.9534(3) 0.4280(3) 0.1043(2) 0.0335(8) Uani 1 1 d . . . . .
O2 O 0.5855(3) 0.4425(4) 0.4134(3) 0.0481(11) Uani 1 1 d . . . . .
N1 N 0.8375(3) 0.1947(3) 0.3395(2) 0.0219(8) Uani 1 1 d . . . . .
N2 N 0.9120(3) 0.0780(3) 0.4172(3) 0.0269(8) Uani 1 1 d . . . . .
O3 O 0.8667(3) 0.5671(3) 0.1059(3) 0.0487(11) Uani 1 1 d . . . . .
N3 N 0.8509(3) 0.0304(3) 0.3555(3) 0.0286(9) Uani 1 1 d . . . . .
C1 C 0.8102(3) 0.2939(3) 0.3088(3) 0.0221(9) Uani 1 1 d . . . . .
N4 N 0.5961(3) 0.0352(4) 0.1003(3) 0.0414(11) Uani 1 1 d . . . . .
C2 C 0.8615(3) 0.3399(3) 0.2421(3) 0.0243(9) Uani 1 1 d . . . . .
H2 H 0.913872 0.306509 0.218233 0.029 Uiso 1 1 calc R U . . .
C3 C 0.9047(3) 0.1748(3) 0.4084(3) 0.0244(9) Uani 1 1 d . . . . .
C4 C 0.8065(3) 0.1023(4) 0.3088(3) 0.0271(10) Uani 1 1 d . . . . .
C5 C 0.7087(3) 0.4377(4) 0.3152(4) 0.0325(11) Uani 1 1 d . . . . .
C6 C 0.8350(3) 0.4350(4) 0.2109(3) 0.0295(10) Uani 1 1 d . . . . .
C7 C 0.7334(3) 0.0829(4) 0.2361(3) 0.0290(10) Uani 1 1 d . . . . .
C8 C 0.7344(3) 0.3410(4) 0.3461(3) 0.0271(10) Uani 1 1 d . . . . .
H8 H 0.700471 0.308372 0.391856 0.032 Uiso 1 1 calc R U . . .
C9 C 0.7598(4) 0.4843(4) 0.2481(4) 0.0349(12) Uani 1 1 d . . . . .
H9 H 0.743037 0.550319 0.227668 0.042 Uiso 1 1 calc R U . . .
C10 C 0.8882(4) 0.4818(4) 0.1350(4) 0.0363(12) Uani 1 1 d . . . . .
C11 C 0.6439(4) 0.1226(5) 0.0979(4) 0.0400(13) Uani 1 1 d . . . . .
H11 H 0.629867 0.168056 0.048741 0.048 Uiso 1 1 calc R U . . .
C12 C 0.7128(4) 0.1491(4) 0.1641(4) 0.0367(12) Uani 1 1 d . . . . .
H12 H 0.745358 0.211435 0.160280 0.044 Uiso 1 1 calc R U . . .
C13 C 0.9582(4) 0.2539(4) 0.4603(4) 0.0400(13) Uani 1 1 d . . . . .
H13A H 0.988784 0.298622 0.417475 0.060 Uiso 1 1 calc R U . . .
H13B H 1.006193 0.222201 0.501469 0.060 Uiso 1 1 calc R U . . .
H13C H 0.915194 0.293419 0.496213 0.060 Uiso 1 1 calc R U . . .
C14 C 0.6299(4) 0.4921(4) 0.3577(5) 0.0461(15) Uani 1 1 d . . . . .
C15 C 0.6836(4) -0.0076(4) 0.2386(5) 0.0449(14) Uani 1 1 d . . . . .
H15 H 0.695749 -0.054323 0.287074 0.054 Uiso 1 1 calc R U . . .
O4 O 0.6105(4) 0.5773(4) 0.3351(8) 0.137(4) Uani 1 1 d D . . . .
C16 C 0.6164(5) -0.0281(5) 0.1696(5) 0.0512(16) Uani 1 1 d . . . . .
H16 H 0.583034 -0.090174 0.171545 0.061 Uiso 1 1 calc R U . . .
O5 O 0.4320(4) 0.3161(5) 0.5037(6) 0.0856(19) Uani 1 1 d G . . . .
H5A H 0.489490 0.333209 0.502484 0.128 Uiso 1 1 d G U . . .
H5B H 0.426933 0.252787 0.495082 0.128 Uiso 1 1 d G U . . .
O6 O 1.0416(5) 0.1820(5) 0.2374(6) 0.087(2) Uani 1 1 d G . . . .
H6A H 1.089922 0.153028 0.262032 0.131 Uiso 1 1 d G U . . .
H6B H 1.013530 0.141884 0.199636 0.131 Uiso 1 1 d G U . . .
O7 O 1.1520(6) 0.1920(5) 0.6365(8) 0.117(3) Uani 1 1 d G . . . .
H7A H 1.126848 0.134007 0.640017 0.175 Uiso 1 1 d G U . . .
H7B H 1.186882 0.193419 0.591165 0.175 Uiso 1 1 d G U . . .
N5 N 0.4884(12) -0.1678(14) 0.3305(12) 0.117(6) Uani 0.5 1 d DG U P . .
C17 C 0.4859(7) -0.2203(10) 0.2688(10) 0.103(6) Uani 0.5 1 d DG U P . .
C18 C 0.4841(10) -0.2883(10) 0.1905(10) 0.068(3) Uani 0.5 1 d DG U P . .
H18A H 0.434342 -0.267175 0.145508 0.102 Uiso 0.5 1 calc R U P . .
H18B H 0.471652 -0.357313 0.210756 0.102 Uiso 0.5 1 calc R U P . .
H18C H 0.545001 -0.286062 0.162397 0.102 Uiso 0.5 1 calc R U P . .
N6 N 0.6991(6) 0.1514(6) 0.5048(5) 0.067(2) Uani 0.75 1 d DG U P . .
C19 C 0.6768(6) 0.0689(6) 0.5052(6) 0.078(3) Uani 0.75 1 d DG U P . .
C20 C 0.6497(14) -0.0372(7) 0.5053(13) 0.168(11) Uani 0.75 1 d DG U P . .
H20A H 0.608507 -0.051590 0.451033 0.252 Uiso 1 1 calc R U . . .
H20B H 0.616281 -0.051932 0.560584 0.252 Uiso 1 1 calc R U . . .
H20C H 0.706214 -0.079472 0.504451 0.252 Uiso 1 1 calc R U . . .
N7 N 0.9581(7) 0.0292(8) 0.1267(7) 0.114(3) Uani 1 1 d DG U . . .
C21 C 0.9067(6) -0.0068(7) 0.0740(6) 0.115(4) Uani 1 1 d DG U . . .
C22 C 0.8417(9) -0.0521(13) 0.0055(11) 0.185(9) Uani 1 1 d DG U . . .
H22A H 0.872342 -0.057853 -0.052672 0.278 Uiso 1 1 calc R U . . .
H22B H 0.785564 -0.009441 -0.003072 0.278 Uiso 1 1 calc R U . . .
H22C H 0.823296 -0.119371 0.025936 0.278 Uiso 1 1 calc R U . . .
N8 N 0.6983(8) 0.7601(8) 0.2746(11) 0.084(4) Uani 0.5 1 d DG U P . .
C23 C 0.7173(8) 0.7512(7) 0.2006(11) 0.171(13) Uani 0.5 1 d DG U P . .
C24 C 0.7428(15) 0.7410(10) 0.1060(12) 0.108(7) Uani 0.5 1 d DG U P . .
H24A H 0.710371 0.682342 0.078096 0.162 Uiso 0.5 1 calc R U P . .
H24B H 0.810951 0.731582 0.104355 0.162 Uiso 0.5 1 calc R U P . .
H24C H 0.724093 0.802081 0.071805 0.162 Uiso 0.5 1 calc R U P . .
loop_
_atom_site_aniso_label
_atom_site_aniso_U_11
_atom_site_aniso_U_22
_atom_site_aniso_U_33
_atom_site_aniso_U_23
_atom_site_aniso_U_13
_atom_site_aniso_U_12
Cu1 0.0348(6) 0.0268(6) 0.0202(5) 0.0028(4) 0.0011(4) -0.0097(4)
Cu2 0.0476(8) 0.1213(14) 0.0307(7) 0.0000(7) -0.0009(6) 0.0590(9)
O1 0.043(2) 0.0352(18) 0.0223(17) 0.0042(14) 0.0038(15) -0.0114(15)
O2 0.042(2) 0.071(3) 0.031(2) 0.0079(19) 0.0048(17) 0.031(2)
N1 0.0246(18) 0.0242(18) 0.0170(17) 0.0001(14) 0.0018(14) -0.0008(14)
N2 0.032(2) 0.027(2) 0.0218(19) -0.0054(15) 0.0022(15) 0.0033(16)
O3 0.048(2) 0.046(2) 0.051(2) 0.027(2) -0.0006(19) -0.0035(18)
N3 0.033(2) 0.0264(19) 0.026(2) -0.0030(16) 0.0024(16) 0.0013(16)
C1 0.0201(19) 0.030(2) 0.016(2) 0.0014(16) -0.0034(15) -0.0007(16)
N4 0.036(2) 0.054(3) 0.033(2) 0.000(2) -0.0035(19) -0.023(2)
C2 0.022(2) 0.030(2) 0.021(2) 0.0022(17) -0.0001(16) -0.0053(17)
C3 0.026(2) 0.028(2) 0.019(2) -0.0015(17) -0.0032(17) 0.0034(17)
C4 0.029(2) 0.030(2) 0.023(2) 0.0005(18) 0.0039(18) -0.0021(18)
C5 0.027(2) 0.034(3) 0.037(3) 0.001(2) 0.002(2) 0.0026(19)
C6 0.029(2) 0.035(3) 0.024(2) 0.0031(19) -0.0030(18) -0.0058(19)
C7 0.028(2) 0.034(3) 0.025(2) -0.0002(19) 0.0008(18) -0.0060(19)
C8 0.023(2) 0.033(2) 0.025(2) -0.0012(19) 0.0046(17) -0.0008(18)
C9 0.030(2) 0.028(2) 0.046(3) 0.008(2) -0.005(2) 0.0002(19)
C10 0.034(3) 0.035(3) 0.038(3) 0.008(2) -0.013(2) -0.011(2)
C11 0.037(3) 0.054(3) 0.027(3) 0.003(2) -0.004(2) -0.022(2)
C12 0.037(3) 0.043(3) 0.029(3) 0.002(2) -0.003(2) -0.016(2)
C13 0.048(3) 0.031(3) 0.038(3) -0.003(2) -0.020(2) 0.004(2)
C14 0.031(3) 0.035(3) 0.072(5) -0.004(3) 0.005(3) 0.006(2)
C15 0.042(3) 0.042(3) 0.050(4) 0.010(3) -0.007(3) -0.015(2)
O4 0.063(4) 0.047(3) 0.311(13) 0.026(5) 0.093(6) 0.019(3)
C16 0.051(4) 0.044(3) 0.057(4) 0.007(3) -0.009(3) -0.025(3)
O5 0.060(3) 0.080(4) 0.118(5) 0.010(4) 0.009(4) 0.005(3)
O6 0.069(4) 0.067(4) 0.127(6) 0.014(4) 0.017(4) 0.015(3)
O7 0.105(6) 0.064(4) 0.184(9) 0.016(5) 0.039(6) 0.004(4)
N5 0.083(11) 0.131(12) 0.139(11) -0.020(10) 0.023(9) -0.045(10)
C17 0.071(12) 0.111(12) 0.127(10) -0.004(9) 0.001(9) -0.017(10)
C18 0.048(7) 0.060(7) 0.095(9) 0.036(6) -0.001(7) -0.015(6)
N6 0.079(5) 0.069(4) 0.056(5) 0.013(4) 0.034(4) 0.016(4)
C19 0.079(7) 0.071(4) 0.084(8) 0.026(4) -0.009(6) 0.013(4)
C20 0.24(2) 0.086(4) 0.167(18) 0.047(7) -0.110(18) -0.037(8)
N7 0.113(7) 0.140(8) 0.090(6) 0.014(6) 0.015(5) 0.014(6)
C21 0.105(7) 0.130(9) 0.109(8) 0.001(6) 0.004(5) 0.039(6)
C22 0.104(8) 0.243(17) 0.203(14) -0.093(14) -0.035(9) 0.083(9)
N8 0.044(6) 0.044(7) 0.162(14) 0.011(9) -0.004(8) 0.008(5)
C23 0.23(3) 0.10(2) 0.179(17) -0.036(16) 0.019(18) 0.01(2)
C24 0.112(15) 0.021(6) 0.196(17) 0.021(10) 0.062(15) 0.008(8)
loop_
_atom_type_symbol
_atom_type_description
_atom_type_scat_dispersion_real
_atom_type_scat_dispersion_imag
_atom_type_scat_source
C C 0.0181 0.0091 'International Tables Vol C Tables 4.2.6.8 and 6.1.1.4'
H H 0.0000 0.0000 'International Tables Vol C Tables 4.2.6.8 and 6.1.1.4'
Cu Cu -1.9646 0.5888 'International Tables Vol C Tables 4.2.6.8 and 6.1.1.4'
N N 0.0311 0.0180 'International Tables Vol C Tables 4.2.6.8 and 6.1.1.4'
O O 0.0492 0.0322 'International Tables Vol C Tables 4.2.6.8 and 6.1.1.4'
loop_
_geom_angle_atom_site_label_1
_geom_angle_atom_site_label_2
_geom_angle_atom_site_label_3
_geom_angle
_geom_angle_site_symmetry_1
_geom_angle_site_symmetry_3
_geom_angle_publ_flag
O1 Cu1 O1 180.0 . 3_765 ?
O1 Cu1 N2 89.59(15) 3_765 2_755 ?
O1 Cu1 N2 90.41(15) . 2_755 ?
O1 Cu1 N2 89.59(15) . 4_565 ?
O1 Cu1 N2 90.41(15) 3_765 4_565 ?
N2 Cu1 N2 180.0(3) 4_565 2_755 ?
O2 Cu2 O2 180.0 . 3_666 ?
O2 Cu2 N4 87.71(18) 3_666 2_655 ?
O2 Cu2 N4 92.29(18) . 2_655 ?
O2 Cu2 N4 87.71(18) . 4_566 ?
O2 Cu2 N4 92.29(18) 3_666 4_566 ?
N4 Cu2 N4 180.0 4_566 2_655 ?
C10 O1 Cu1 106.9(3) . . ?
C14 O2 Cu2 125.0(4) . . ?
C3 N1 C1 124.7(4) . . ?
C4 N1 C1 129.7(4) . . ?
C4 N1 C3 105.6(4) . . ?
N3 N2 Cu1 121.3(3) . 2_745 ?
C3 N2 Cu1 128.4(3) . 2_745 ?
C3 N2 N3 110.2(4) . . ?
C4 N3 N2 106.2(4) . . ?
C2 C1 N1 118.5(4) . . ?
C8 C1 N1 119.5(4) . . ?
C8 C1 C2 122.0(4) . . ?
C11 N4 Cu2 120.4(4) . 2_645 ?
C16 N4 Cu2 121.4(4) . 2_645 ?
C16 N4 C11 118.1(5) . . ?
C1 C2 H2 120.5 . . ?
C6 C2 C1 119.1(4) . . ?
C6 C2 H2 120.5 . . ?
N1 C3 C13 123.9(4) . . ?
N2 C3 N1 108.1(4) . . ?
N2 C3 C13 128.0(4) . . ?
N1 C4 C7 126.6(4) . . ?
N3 C4 N1 109.8(4) . . ?
N3 C4 C7 123.5(4) . . ?
C8 C5 C14 119.6(5) . . ?
C9 C5 C8 119.6(5) . . ?
C9 C5 C14 120.7(5) . . ?
C2 C6 C9 120.0(4) . . ?
C2 C6 C10 118.5(5) . . ?
C9 C6 C10 121.5(5) . . ?
C12 C7 C4 123.5(4) . . ?
C12 C7 C15 118.4(5) . . ?
C15 C7 C4 118.1(5) . . ?
C1 C8 C5 118.7(4) . . ?
C1 C8 H8 120.7 . . ?
C5 C8 H8 120.7 . . ?
C5 C9 H9 119.7 . . ?
C6 C9 C5 120.7(5) . . ?
C6 C9 H9 119.7 . . ?
O1 C10 C6 115.8(5) . . ?
O3 C10 O1 124.0(5) . . ?
O3 C10 C6 120.2(5) . . ?
N4 C11 H11 118.7 . . ?
N4 C11 C12 122.7(5) . . ?
C12 C11 H11 118.7 . . ?
C7 C12 H12 120.6 . . ?
C11 C12 C7 118.9(5) . . ?
C11 C12 H12 120.6 . . ?
C3 C13 H13A 109.5 . . ?
C3 C13 H13B 109.5 . . ?
C3 C13 H13C 109.5 . . ?
H13A C13 H13B 109.5 . . ?
H13A C13 H13C 109.5 . . ?
H13B C13 H13C 109.5 . . ?
O2 C14 C5 115.9(5) . . ?
O4 C14 O2 123.9(6) . . ?
O4 C14 C5 120.1(7) . . ?
C7 C15 H15 120.5 . . ?
C16 C15 C7 118.9(5) . . ?
C16 C15 H15 120.5 . . ?
N4 C16 C15 123.0(5) . . ?
N4 C16 H16 118.5 . . ?
C15 C16 H16 118.5 . . ?
H5A O5 H5B 109.5 . . ?
H6A O6 H6B 109.5 . . ?
H7A O7 H7B 109.5 . . ?
N5 C17 C18 179.1 . . ?
C17 C18 H18A 109.5 . . ?
C17 C18 H18B 109.5 . . ?
C17 C18 H18C 109.5 . . ?
H18A C18 H18B 109.5 . . ?
H18A C18 H18C 109.5 . . ?
H18B C18 H18C 109.5 . . ?
N6 C19 C20 179.08(8) . . ?
C19 C20 H20A 109.5 . . ?
C19 C20 H20B 109.5 . . ?
C19 C20 H20C 109.5 . . ?
H20A C20 H20B 109.5 . . ?
H20A C20 H20C 109.5 . . ?
H20B C20 H20C 109.5 . . ?
N7 C21 C22 179.1 . . ?
C21 C22 H22A 109.5 . . ?
C21 C22 H22B 109.5 . . ?
C21 C22 H22C 109.5 . . ?
H22A C22 H22B 109.5 . . ?
H22A C22 H22C 109.5 . . ?
H22B C22 H22C 109.5 . . ?
N8 C23 C24 179.1 . . ?
C23 C24 H24A 109.5 . . ?
C23 C24 H24B 109.5 . . ?
C23 C24 H24C 109.5 . . ?
H24A C24 H24B 109.5 . . ?
H24A C24 H24C 109.5 . . ?
H24B C24 H24C 109.5 . . ?
loop_
_geom_bond_atom_site_label_1
_geom_bond_atom_site_label_2
_geom_bond_distance
_geom_bond_site_symmetry_2
_geom_bond_publ_flag
Cu1 O1 1.945(3) . ?
Cu1 O1 1.946(3) 3_765 ?
Cu1 N2 1.984(4) 4_565 ?
Cu1 N2 1.984(4) 2_755 ?
Cu2 O2 1.959(4) . ?
Cu2 O2 1.959(4) 3_666 ?
Cu2 N4 2.004(4) 4_566 ?
Cu2 N4 2.004(4) 2_655 ?
O1 C10 1.272(7) . ?
O2 C14 1.244(8) . ?
N1 C1 1.435(6) . ?
N1 C3 1.376(6) . ?
N1 C4 1.368(6) . ?
N2 N3 1.372(6) . ?
N2 C3 1.292(6) . ?
O3 C10 1.240(7) . ?
N3 C4 1.313(6) . ?
C1 C2 1.390(6) . ?
C1 C8 1.384(6) . ?
N4 C11 1.344(7) . ?
N4 C16 1.335(8) . ?
C2 H2 0.9500 . ?
C2 C6 1.384(7) . ?
C3 C13 1.480(7) . ?
C4 C7 1.468(6) . ?
C5 C8 1.399(7) . ?
C5 C9 1.398(7) . ?
C5 C14 1.496(8) . ?
C6 C9 1.389(7) . ?
C6 C10 1.510(7) . ?
C7 C12 1.389(7) . ?
C7 C15 1.393(7) . ?
C8 H8 0.9500 . ?
C9 H9 0.9500 . ?
C11 H11 0.9500 . ?
C11 C12 1.385(7) . ?
C12 H12 0.9500 . ?
C13 H13A 0.9800 . ?
C13 H13B 0.9800 . ?
C13 H13C 0.9800 . ?
C14 O4 1.204(8) . ?
C15 H15 0.9500 . ?
C15 C16 1.379(9) . ?
C16 H16 0.9500 . ?
O5 H5A 0.8503 . ?
O5 H5B 0.8498 . ?
O6 H6A 0.8499 . ?
O6 H6B 0.8500 . ?
O7 H7A 0.8499 . ?
O7 H7B 0.8500 . ?
N5 C17 1.1375 . ?
C17 C18 1.4561 . ?
C18 H18A 0.9800 . ?
C18 H18B 0.9800 . ?
C18 H18C 0.9800 . ?
N6 C19 1.1372 . ?
C19 C20 1.4562 . ?
C20 H20A 0.9800 . ?
C20 H20B 0.9800 . ?
C20 H20C 0.9800 . ?
N7 C21 1.1372 . ?
C21 C22 1.4558 . ?
C22 H22A 0.9800 . ?
C22 H22B 0.9800 . ?
C22 H22C 0.9800 . ?
N8 C23 1.1374 . ?
C23 C24 1.4556 . ?
C24 H24A 0.9800 . ?
C24 H24B 0.9800 . ?
C24 H24C 0.9800 . ?
loop_
_geom_torsion_atom_site_label_1
_geom_torsion_atom_site_label_2
_geom_torsion_atom_site_label_3
_geom_torsion_atom_site_label_4
_geom_torsion
_geom_torsion_site_symmetry_1
_geom_torsion_site_symmetry_2
_geom_torsion_site_symmetry_3
_geom_torsion_site_symmetry_4
_geom_torsion_publ_flag
Cu1 O1 C10 O3 -5.2(6) . . . . ?
Cu1 O1 C10 C6 174.1(3) . . . . ?
Cu1 N2 N3 C4 -177.0(3) 2_745 . . . ?
Cu1 N2 C3 N1 176.9(3) 2_745 . . . ?
Cu1 N2 C3 C13 -2.3(8) 2_745 . . . ?
Cu2 O2 C14 C5 165.0(4) . . . . ?
Cu2 O2 C14 O4 -17.8(12) . . . . ?
Cu2 N4 C11 C12 -178.2(5) 2_645 . . . ?
Cu2 N4 C16 C15 178.4(6) 2_645 . . . ?
N1 C1 C2 C6 179.1(4) . . . . ?
N1 C1 C8 C5 -179.9(4) . . . . ?
N1 C4 C7 C12 27.8(8) . . . . ?
N1 C4 C7 C15 -153.6(5) . . . . ?
N2 N3 C4 N1 -0.2(5) . . . . ?
N2 N3 C4 C7 -179.1(4) . . . . ?
N3 N2 C3 N1 0.1(5) . . . . ?
N3 N2 C3 C13 -179.2(5) . . . . ?
N3 C4 C7 C12 -153.5(5) . . . . ?
N3 C4 C7 C15 25.1(8) . . . . ?
C1 N1 C3 N2 -179.3(4) . . . . ?
C1 N1 C3 C13 -0.1(7) . . . . ?
C1 N1 C4 N3 179.3(4) . . . . ?
C1 N1 C4 C7 -1.8(7) . . . . ?
C1 C2 C6 C9 1.8(7) . . . . ?
C1 C2 C6 C10 -176.9(4) . . . . ?
N4 C11 C12 C7 -0.1(9) . . . . ?
C2 C1 C8 C5 0.3(7) . . . . ?
C2 C6 C9 C5 -1.7(7) . . . . ?
C2 C6 C10 O1 1.1(7) . . . . ?
C2 C6 C10 O3 -179.6(5) . . . . ?
C3 N1 C1 C2 86.5(5) . . . . ?
C3 N1 C1 C8 -93.4(5) . . . . ?
C3 N1 C4 N3 0.3(5) . . . . ?
C3 N1 C4 C7 179.1(5) . . . . ?
C3 N2 N3 C4 0.1(5) . . . . ?
C4 N1 C1 C2 -92.4(5) . . . . ?
C4 N1 C1 C8 87.7(6) . . . . ?
C4 N1 C3 N2 -0.2(5) . . . . ?
C4 N1 C3 C13 179.1(5) . . . . ?
C4 C7 C12 C11 178.5(5) . . . . ?
C4 C7 C15 C16 -178.4(6) . . . . ?
C7 C15 C16 N4 -0.4(11) . . . . ?
C8 C1 C2 C6 -1.1(6) . . . . ?
C8 C5 C9 C6 0.9(8) . . . . ?
C8 C5 C14 O2 -6.6(9) . . . . ?
C8 C5 C14 O4 176.0(8) . . . . ?
C9 C5 C8 C1 -0.2(7) . . . . ?
C9 C5 C14 O2 176.5(5) . . . . ?
C9 C5 C14 O4 -0.9(11) . . . . ?
C9 C6 C10 O1 -177.5(5) . . . . ?
C9 C6 C10 O3 1.8(8) . . . . ?
C10 C6 C9 C5 176.9(5) . . . . ?
C11 N4 C16 C15 0.3(11) . . . . ?
C12 C7 C15 C16 0.3(9) . . . . ?
C14 C5 C8 C1 -177.1(5) . . . . ?
C14 C5 C9 C6 177.8(5) . . . . ?
C15 C7 C12 C11 -0.1(8) . . . . ?
C16 N4 C11 C12 0.0(9) . . . . ?
