#------------------------------------------------------------------------------
#$Date: 2022-08-06 14:42:14 +0300 (Sat, 06 Aug 2022) $
#$Revision: 277100 $
#$URL: file:///home/coder/svn-repositories/cod/cif/1/56/71/1567194.cif $
#------------------------------------------------------------------------------
#
# This file is available in the Crystallography Open Database (COD),
# http://www.crystallography.net/
#
# All data on this site have been placed in the public domain by the
# contributors.
#
data_1567194
loop_
_publ_author_name
'Xia, Hai-Lun'
'Zhou, Kang'
'Wu, Shenjie'
'Ren, Daming'
'Xing, Kai'
'Guo, Jiandong'
'Wang, Xiaotai'
'Liu, Xiao-Yuan'
'Li, Jing'
_publ_section_title
;
 Building an emission library of donor-acceptor-donor type linker-based
 luminescent metal-organic frameworks.
;
_journal_issue                   27
_journal_name_full               'Chemical science'
_journal_page_first              8036
_journal_page_last               8044
_journal_paper_doi               10.1039/d2sc02267b
_journal_volume                  13
_journal_year                    2022
_chemical_formula_moiety         'C14 H10 N6 S Zn'
_chemical_formula_sum            'C14 H10 N6 S Zn'
_chemical_formula_weight         359.71
_space_group_crystal_system      monoclinic
_space_group_IT_number           14
_space_group_name_Hall           '-P 2yn'
_space_group_name_H-M_alt        'P 1 21/n 1'
_atom_sites_solution_hydrogens   geom
_atom_sites_solution_primary     dual
_audit_creation_date             2021-03-23
_audit_creation_method
;
Olex2 1.3
(compiled 2020.02.04 svn.rd84adfe8 for OlexSys, GUI svn.r6032)
;
_audit_update_record
;
2021-12-16 deposited with the CCDC.	2022-06-29 downloaded from the CCDC.
;
_cell_angle_alpha                90
_cell_angle_beta                 95.4420(10)
_cell_angle_gamma                90
_cell_formula_units_Z            4
_cell_length_a                   7.0203(2)
_cell_length_b                   10.3506(3)
_cell_length_c                   24.2607(7)
_cell_measurement_reflns_used    7740
_cell_measurement_temperature    293
_cell_measurement_theta_max      72.12
_cell_measurement_theta_min      3.66
_cell_volume                     1754.94(9)
_computing_cell_refinement       'SAINT V8.38A (Bruker, 2018)'
_computing_data_reduction        'SAINT V8.38A (Bruker, 2018)'
_computing_molecular_graphics    'Olex2 1.3 (Dolomanov et al., 2009)'
_computing_publication_material  'Olex2 1.3 (Dolomanov et al., 2009)'
_computing_structure_refinement  'SHELXL 2017/1 (Sheldrick, 2015)'
_computing_structure_solution    'SHELXT 2014/5 (Sheldrick, 2014)'
_diffrn_ambient_temperature      293
_diffrn_measured_fraction_theta_full 0.998
_diffrn_measured_fraction_theta_max 0.998
_diffrn_measurement_device_type  'Bruker APEX-II CCD'
_diffrn_measurement_method       '\f and \w scans'
_diffrn_radiation_type           CuK\a
_diffrn_radiation_wavelength     1.54178
_diffrn_reflns_av_R_equivalents  0.0486
_diffrn_reflns_av_unetI/netI     0.0363
_diffrn_reflns_Laue_measured_fraction_full 0.998
_diffrn_reflns_Laue_measured_fraction_max 0.998
_diffrn_reflns_limit_h_max       8
_diffrn_reflns_limit_h_min       -8
_diffrn_reflns_limit_k_max       12
_diffrn_reflns_limit_k_min       -12
_diffrn_reflns_limit_l_max       28
_diffrn_reflns_limit_l_min       -29
_diffrn_reflns_number            17460
_diffrn_reflns_point_group_measured_fraction_full 0.998
_diffrn_reflns_point_group_measured_fraction_max 0.998
_diffrn_reflns_theta_full        67.679
_diffrn_reflns_theta_max         72.109
_diffrn_reflns_theta_min         5.629
_diffrn_source_current           1.0
_diffrn_source_power             0.05
_diffrn_source_voltage           50.0
_diffrn_standards_number         0
_exptl_absorpt_coefficient_mu    3.091
_exptl_absorpt_correction_T_max  0.7536
_exptl_absorpt_correction_T_min  0.5943
_exptl_absorpt_correction_type   multi-scan
_exptl_absorpt_process_details
;
SADABS-2016/2 (Bruker,2016/2) was used for absorption correction.
wR2(int) was 0.1238 before and 0.0692 after correction.
The Ratio of minimum to maximum transmission is 0.7886.
The \l/2 correction factor is Not present.
;
_exptl_crystal_colour            yellow
_exptl_crystal_colour_primary    yellow
_exptl_crystal_density_diffrn    1.361
_exptl_crystal_description       block
_exptl_crystal_F_000             728
_exptl_crystal_size_max          0.15
_exptl_crystal_size_mid          0.08
_exptl_crystal_size_min          0.06
_refine_diff_density_max         0.260
_refine_diff_density_min         -0.418
_refine_diff_density_rms         0.059
_refine_ls_extinction_method     none
_refine_ls_goodness_of_fit_ref   1.064
_refine_ls_hydrogen_treatment    constr
_refine_ls_matrix_type           full
_refine_ls_number_parameters     339
_refine_ls_number_reflns         3455
_refine_ls_number_restraints     945
_refine_ls_restrained_S_all      0.946
_refine_ls_R_factor_all          0.0470
_refine_ls_R_factor_gt           0.0393
_refine_ls_shift/su_max          0.000
_refine_ls_shift/su_mean         0.000
_refine_ls_structure_factor_coef Fsqd
_refine_ls_weighting_details
'w=1/[\s^2^(Fo^2^)+(0.0577P)^2^+0.8102P] where P=(Fo^2^+2Fc^2^)/3'
_refine_ls_weighting_scheme      calc
_refine_ls_wR_factor_gt          0.1123
_refine_ls_wR_factor_ref         0.1187
_reflns_Friedel_coverage         0.000
_reflns_number_gt                2741
_reflns_number_total             3455
_reflns_threshold_expression     'I > 2\s(I)'
_cod_data_source_file            d2sc02267b2.cif
_cod_data_source_block           392_rdm_0m
_cod_depositor_comments
'Adding full bibliography for 1567192--1567197.cif.'
_cod_database_code               1567194
_shelx_shelxl_version_number     2017/1
_shelx_space_group_comment
;
The symmetry employed for this shelxl refinement is uniquely defined
by the following loop, which should always be used as a source of
symmetry information in preference to the above space-group names.
They are only intended as comments.
;
_shelx_estimated_absorpt_t_max   0.836
_shelx_estimated_absorpt_t_min   0.654
_olex2_refinement_description
;
1. Fixed Uiso
 At 1.2 times of:
  All C(H) groups, All C(H,H) groups
 At 1.5 times of:
  All C(H,H,H) groups
2. Uiso/Uaniso restraints and constraints
All non-hydrogen atoms have similar U: within 2A with sigma of 0.04 and sigma
for terminal atoms of 0.08 within 2A
3. Rigid body (RIGU) restrains
 All non-hydrogen atoms
 with sigma for 1-2 distances of 0.004 and sigma for 1-3 distances of 0.004
4. Others
 Sof(S1A)=Sof(N5A)=Sof(N6A)=Sof(C1A)=Sof(H1A)=Sof(C2A)=Sof(C3A)=Sof(H3A)=
 Sof(C4A)=Sof(C5A)=Sof(C6A)=Sof(C7A)=Sof(C8A)=Sof(C9A)=Sof(C10A)=Sof(H10D)=
 Sof(H10E)=Sof(H10F)=Sof(C11A)=Sof(H11D)=Sof(H11E)=Sof(H11F)=Sof(C12A)=
 Sof(H13A)=Sof(H14A)=1-FVAR(1)
 Sof(S1)=Sof(N5)=Sof(N6)=Sof(C1)=Sof(H1)=Sof(C2)=Sof(C3)=Sof(H3)=Sof(C4)=
 Sof(C5)=Sof(C6)=Sof(C7)=Sof(C8)=Sof(C9)=Sof(C10)=Sof(H10A)=Sof(H10B)=Sof(H10C)=
 Sof(C11)=Sof(H11A)=Sof(H11B)=Sof(H11C)=Sof(C12)=Sof(H13)=Sof(H14)=FVAR(1)
5.a Aromatic/amide H refined with riding coordinates:
 C1(H1), C1A(H1A), C3(H3), C3A(H3A), C13(H13), C13(H13A), C14(H14), C14(H14A)
5.b Idealised Me refined as rotating group:
 C10(H10A,H10B,H10C), C10A(H10D,H10E,H10F), C11(H11A,H11B,H11C), C11A(H11D,
 H11E,H11F)
;
_smtbx_masks_void_probe_radius   1.2
_smtbx_masks_void_truncation_radius 1.2
_shelx_res_file
;
TITL 392_rdm_0m_a.res in P2(1)/n
    392_rdm_0m.res
    created by SHELXL-2017/1 at 11:07:42 on 23-Mar-2021
REM Old TITL 392_RDM_0m in P2(1)/n
REM SHELXT solution in P2(1)/n
REM R1 0.217, Rweak 0.002, Alpha 0.038, Orientation as input
REM Formula found by SHELXT: C1A N5 Zn
CELL 1.54178 7.0203 10.3506 24.2607 90 95.442 90
ZERR 4 0.0002 0.0003 0.0007 0 0.001 0
LATT 1
SYMM 0.5-X,0.5+Y,0.5-Z
SFAC C H N S Zn
UNIT 56 40 24 4 4
SIMU
RIGU

L.S. 20
PLAN  9
SIZE 0.15 0.08 0.06
TEMP 19.85
CONF
BOND $H
list 4
MORE -1
ABIN
fmap 2 53
acta
OMIT 0 0 2
REM <olex2.extras>
REM <HklSrc "%.\\392_RDM_0m.hkl">
REM </olex2.extras>

WGHT    0.057700    0.810200
FVAR       0.52200   0.71309
ZN1   5    0.750877    0.468159    0.500727    11.00000    0.03373    0.05963 =
         0.01763    0.00168    0.00638   -0.00014
PART 1
S1    4    0.895560    0.384146    0.773972    21.00000    0.07243    0.11244 =
         0.04599    0.02320   -0.00284   -0.03957
PART 2
S1A   4    0.099972    0.090326    0.720392   -21.00000    0.08369    0.13730 =
         0.05324    0.03390    0.00508   -0.03965
PART 0
N1    3    0.585476    0.372032    0.548067    11.00000    0.04114    0.06383 =
         0.02761    0.01140    0.00986    0.00385
N2    3    0.402324    0.413272    0.550834    11.00000    0.04000    0.07527 =
         0.03381    0.01943    0.01203    0.00293
N3    3    0.584529    0.065821    0.942216    11.00000    0.03836    0.07394 =
         0.03082    0.01508    0.01238    0.00264
N4    3    0.407029    0.115472    0.946799    11.00000    0.04572    0.06182 =
         0.02602    0.00855    0.01138    0.00656
PART 1
N5    3    0.777445    0.360122    0.714132    21.00000    0.05442    0.07909 =
         0.04021    0.02056    0.00619   -0.01794
PART 2
N5A   3    0.229905    0.168604    0.681506   -21.00000    0.07276    0.08863 =
         0.04068    0.02288    0.00538   -0.02270
PART 1
N6    3    0.765405    0.304481    0.814428    21.00000    0.06342    0.08400 =
         0.03424    0.01096   -0.00631   -0.02555
PART 2
N6A   3    0.212656    0.109446    0.779222   -21.00000    0.06270    0.07722 =
         0.03999    0.03411    0.01500   -0.01267
PART 1
C1    1    0.629505    0.300831    0.592652    21.00000    0.03872    0.05802 =
         0.02776    0.00712    0.00219    0.00170
AFIX  43
H1    2    0.746577    0.259515    0.600490    21.00000   -1.20000
AFIX   0
PART 2
C1A   1    0.666372    0.327948    0.601123   -21.00000    0.05210    0.05519 =
         0.01834    0.00534    0.00934    0.00050
AFIX  43
H1A   2    0.792209    0.302369    0.610608   -21.00000   -1.20000
AFIX   0
PART 1
C2    1    0.480828    0.294783    0.626472    21.00000    0.04794    0.05866 =
         0.02585    0.01065    0.00505   -0.00483
PART 2
C2A   1    0.521631    0.330954    0.635091   -21.00000    0.05188    0.06239 =
         0.02391    0.02326    0.01650   -0.00267
PART 1
C3    1    0.340431    0.365304    0.596409    21.00000    0.04009    0.06989 =
         0.03107    0.01875    0.01195    0.00184
AFIX  43
H3    2    0.217650    0.377604    0.606859    21.00000   -1.20000
AFIX   0
PART 2
C3A   1    0.372392    0.401156    0.608455   -21.00000    0.06191    0.09326 =
         0.04073    0.02847    0.02640    0.01085
AFIX  43
H3A   2    0.269366    0.435038    0.625113   -21.00000   -1.20000
AFIX   0
PART 1
C4    1    0.476814    0.247104    0.683345    21.00000    0.04492    0.05418 =
         0.02632    0.01062    0.00402    0.00141
PART 2
C4A   1    0.529376    0.290031    0.695340   -21.00000    0.04772    0.07022 =
         0.01672    0.01778    0.01140   -0.00399
PART 1
C5    1    0.625105    0.286831    0.724105    21.00000    0.04670    0.05494 =
         0.02898    0.01065    0.00890   -0.00501
PART 2
C5A   1    0.374794    0.216884    0.710569   -21.00000    0.04963    0.05952 =
         0.02948    0.02182    0.00967   -0.00063
PART 1
C6    1    0.618913    0.256755    0.781086    21.00000    0.04443    0.05688 =
         0.02705    0.01022    0.00180   -0.00417
PART 2
C6A   1    0.367559    0.184483    0.770788   -21.00000    0.04925    0.05924 =
         0.02305    0.02142    0.02008   -0.00033
PART 1
C7    1    0.462653    0.182533    0.799673    21.00000    0.04453    0.05272 =
         0.02829    0.01330    0.00727    0.00035
PART 2
C7A   1    0.514336    0.224779    0.809226   -21.00000    0.04553    0.06355 =
         0.03239    0.02425    0.00921    0.00382
PART 1
C8    1    0.321931    0.142184    0.759327    21.00000    0.04616    0.05536 =
         0.03259    0.01152    0.00291   -0.00138
PART 2
C8A   1    0.666461    0.301553    0.794290   -21.00000    0.05716    0.06992 =
         0.02104    0.00991    0.01222   -0.01108
PART 1
C9    1    0.330773    0.174500    0.701753    21.00000    0.04166    0.05868 =
         0.03423    0.01313    0.00389   -0.00617
PART 2
C9A   1    0.671021    0.331628    0.733542   -21.00000    0.05406    0.05725 =
         0.02960    0.01782    0.00526    0.00243
PART 1
C10   1    0.172217    0.125182    0.661054    21.00000    0.07060    0.09693 =
         0.03263    0.01407   -0.00258   -0.02490
AFIX 137
H10A  2    0.151853    0.034994    0.667624    21.00000   -1.50000
H10B  2    0.206872    0.136924    0.624044    21.00000   -1.50000
H10C  2    0.056809    0.172178    0.665539    21.00000   -1.50000
AFIX   0
PART 2
C10A  1    0.835491    0.411711    0.720202   -21.00000    0.07052    0.09615 =
         0.03670    0.02204    0.00609   -0.02728
AFIX 137
H10D  2    0.952497    0.365913    0.730338   -21.00000   -1.50000
H10E  2    0.835787    0.491453    0.740417   -21.00000   -1.50000
H10F  2    0.824739    0.429647    0.681207   -21.00000   -1.50000
AFIX   0
PART 1
C11   1    0.158772    0.057611    0.774683    21.00000    0.06280    0.08625 =
         0.04355    0.02276    0.00419   -0.02552
AFIX 137
H11A  2    0.039396    0.101226    0.765323    21.00000   -1.50000
H11B  2    0.173992    0.040470    0.813741    21.00000   -1.50000
H11C  2    0.159602   -0.022421    0.754709    21.00000   -1.50000
AFIX   0
PART 2
C11A  1    0.818519    0.350255    0.832027   -21.00000    0.07078    0.10024 =
         0.03278    0.01639    0.00262   -0.02028
AFIX 137
H11D  2    0.933989    0.303558    0.827293   -21.00000   -1.50000
H11E  2    0.786084    0.339596    0.869319   -21.00000   -1.50000
H11F  2    0.837527    0.440295    0.824795   -21.00000   -1.50000
AFIX   0
PART 1
C12   1    0.469207    0.148481    0.858302    21.00000    0.04303    0.06278 =
         0.02366    0.01083    0.00487    0.00180
PART 2
C12A  1    0.513692    0.178163    0.868844   -21.00000    0.04454    0.08193 =
         0.01676    0.01789    0.00621   -0.00118
PART 0
C13   1    0.627841    0.090082    0.890332    11.00000    0.04915    0.09814 =
         0.03824    0.02931    0.02109    0.01371
PART 1
AFIX  43
H13   2    0.744878    0.071422    0.877130    21.00000   -1.20000
AFIX  43
PART 2
H13A  2    0.724220    0.049949    0.872841   -21.00000   -1.20000
AFIX   0
PART 0
C14   1    0.345443    0.168628    0.898227    11.00000    0.05819    0.07654 =
         0.03389    0.01901    0.01730    0.01845
PART 1
AFIX  43
H14   2    0.231347    0.214306    0.892023    21.00000   -1.20000
AFIX  43
PART 2
H14A  2    0.221409    0.193892    0.886068   -21.00000   -1.20000
AFIX   0
HKLF 4




REM  392_rdm_0m_a.res in P2(1)/n
REM R1 =  0.0393 for    2741 Fo > 4sig(Fo)  and  0.0470 for all    3455 data
REM    339 parameters refined using    945 restraints

END

WGHT      0.0573      0.8169

REM Highest difference peak  0.260,  deepest hole -0.418,  1-sigma level  0.059
Q1    1   0.3460  0.0604  0.9546  11.00000  0.05    0.26
Q2    1   0.6608  0.1573  0.9055  11.00000  0.05    0.25
Q3    1   0.6591  0.4405  0.5444  11.00000  0.05    0.24
Q4    1   0.6918  0.1442  0.9146  11.00000  0.05    0.24
Q5    1   0.4871  0.1905  0.8406  11.00000  0.05    0.20
Q6    1   0.4989  0.2791  0.6616  11.00000  0.05    0.20
Q7    1   0.2239  0.5344  0.6029  11.00000  0.05    0.19
Q8    1   0.0354  0.2361  0.6594  11.00000  0.05    0.18
Q9    1   0.1373 -0.0420  0.8338  11.00000  0.05    0.17
;
_shelx_res_checksum              78300
_shelx_fab_file
;
-8 0 -6 -0.0366 -0.3054
-8 0 -4 -0.2269 -0.5597
-8 0 -2 -0.3735 -0.7019
-8 0 0 -0.2968 -0.7217
-8 0 2 -0.0451 -0.7067
-8 0 4 0.0703 -0.7222
-8 0 6 -0.1144 -0.7577
-8 0 8 -0.3160 -0.7857
-8 0 10 -0.1807 -0.7886
-8 0 12 0.1962 -0.7186
-8 1 -7 0.1551 -0.2111
-8 1 -6 0.3423 0.0392
-8 1 -5 0.3499 -0.0895
-8 1 -4 0.3116 0.0133
-8 1 -3 0.5102 0.0204
-8 1 -2 0.1109 -0.0076
-8 1 -1 0.4990 0.0418
-8 1 0 -0.1636 -0.0079
-8 1 1 0.2851 0.0142
-8 1 2 -0.2475 -0.0024
-8 1 3 0.0533 0.0108
-8 1 4 0.0343 -0.0030
-8 1 5 0.0262 0.0255
-8 1 6 0.4831 -0.0010
-8 1 7 0.1353 0.0158
-8 1 8 0.6615 0.0085
-8 1 9 0.1047 0.0037
-8 1 10 0.3853 0.0122
-8 1 11 -0.1125 0.0368
-8 1 12 -0.0440 0.0009
-8 1 13 -0.2675 0.0811
-8 2 -7 -0.4449 -0.0043
-8 2 -6 -0.4183 0.1381
-8 2 -5 -0.5547 -0.0012
-8 2 -4 -0.4825 0.1272
-8 2 -3 -0.5173 0.0048
-8 2 -2 -0.3915 0.1637
-8 2 -1 -0.2359 -0.0002
-8 2 0 -0.1995 0.2444
-8 2 1 0.1542 -0.0043
-8 2 2 -0.0457 0.2858
-8 2 3 0.2744 0.0048
-8 2 4 -0.0416 0.2591
-8 2 5 -0.0667 0.0148
-8 2 6 -0.1061 0.2368
-8 2 7 -0.5555 0.0078
-8 2 8 -0.0479 0.2628
-8 2 9 -0.7035 -0.0105
-8 2 10 0.1198 0.2732
-8 2 11 -0.4426 -0.0213
-8 2 12 0.1609 0.2092
-8 2 13 -0.1580 -0.0217
-8 3 -6 0.1153 0.0061
-8 3 -5 0.1623 0.0681
-8 3 -4 0.2704 -0.0153
-8 3 -3 0.0684 0.0854
-8 3 -2 0.4212 -0.0145
-8 3 -1 -0.0859 0.0525
-8 3 0 0.3304 -0.0004
-8 3 1 -0.1706 0.0171
-8 3 2 0.0629 0.0081
-8 3 3 -0.0487 0.0399
-8 3 4 -0.0429 0.0084
-8 3 5 0.1939 0.0810
-8 3 6 0.1570 0.0081
-8 3 7 0.2708 0.0559
-8 3 8 0.4142 0.0040
-8 3 9 0.0824 -0.0178
-8 3 10 0.4535 -0.0108
-8 3 11 -0.1055 -0.0381
-8 4 -4 -0.1581 -0.1132
-8 4 -3 -0.0668 0.0152
-8 4 -2 -0.2584 -0.1891
-8 4 -1 -0.3589 -0.0074
-8 4 0 -0.2230 -0.2206
-8 4 1 -0.3864 -0.0202
-8 4 2 -0.1867 -0.2463
-8 4 3 -0.2501 -0.0161
-8 4 4 -0.2810 -0.2652
-8 4 5 -0.1743 -0.0086
-8 4 6 -0.3633 -0.2118
-8 4 7 -0.1733 -0.0037
-8 4 8 -0.2210 -0.0726
-8 4 9 -0.1122 0.0047
-7 0 -5 -0.1091 -0.0957
-7 0 -3 0.0748 -0.0707
-7 0 -1 0.3501 -0.0287
-7 0 1 0.5563 -0.0147
-7 0 3 0.3744 -0.0265
-7 0 5 -0.1514 -0.0321
-7 0 7 -0.4630 -0.0174
-7 0 9 -0.2246 0.0020
-7 0 11 0.1936 0.0096
-7 0 13 0.3478 0.0089
-7 0 15 0.3586 0.0129
-7 0 17 0.4711 0.0234
-7 0 19 0.4951 0.0277
-7 1 -6 0.0507 -0.0265
-7 1 -5 -0.0661 -0.0284
-7 1 -4 -0.0284 -0.0116
-7 1 -3 0.0858 -0.0452
-7 1 -2 -0.1184 -0.0238
-7 1 -1 0.1757 -0.0250
-7 1 0 -0.2092 -0.0294
-7 1 1 0.1925 0.0091
-7 1 2 -0.1702 -0.0187
-7 1 3 0.2179 0.0254
-7 1 4 0.0866 -0.0138
-7 1 5 0.2816 0.0223
-7 1 6 0.2908 -0.0247
-7 1 7 0.2498 0.0239
-7 1 8 0.1111 -0.0317
-7 1 9 0.0409 0.0373
-7 1 10 -0.2637 -0.0187
-7 1 11 -0.1431 0.0374
-7 1 12 -0.3585 0.0017
-7 1 13 -0.0399 0.0080
-7 1 14 -0.1768 0.0072
-7 1 15 0.2821 -0.0232
-7 1 16 -0.1376 -0.0058
-7 1 17 0.4977 -0.0163
-7 1 18 -0.2937 -0.0203
-7 1 19 0.4448 0.0251
-7 2 -6 -0.0339 -0.0251
-7 2 -5 0.0351 -0.0233
-7 2 -4 -0.1178 -0.0448
-7 2 -3 0.0291 -0.0133
-7 2 -2 -0.1696 -0.0483
-7 2 -1 -0.0709 -0.0003
-7 2 0 -0.0867 -0.0388
-7 2 1 -0.1923 -0.0006
-7 2 2 0.0882 -0.0239
-7 2 3 -0.2702 -0.0063
-7 2 4 0.1243 -0.0096
-7 2 5 -0.2098 -0.0046
-7 2 6 -0.0253 -0.0048
-7 2 7 0.0890 -0.0020
-7 2 8 -0.1088 -0.0218
-7 2 9 0.4602 -0.0072
-7 2 10 -0.0165 -0.0579
-7 2 11 0.5116 -0.0107
-7 2 12 0.0152 -0.0852
-7 2 13 0.1776 0.0001
-7 2 14 -0.1538 -0.0794
-7 2 15 -0.1032 0.0198
-7 2 16 -0.2925 -0.0486
-7 2 17 -0.0331 0.0325
-7 2 18 -0.1987 -0.0155
-7 2 19 0.1160 0.0302
-7 3 -6 0.0955 0.0368
-7 3 -5 -0.0082 0.0187
-7 3 -4 0.0586 0.0216
-7 3 -3 0.0524 0.0279
-7 3 -2 0.0993 0.0016
-7 3 -1 0.1227 0.0027
-7 3 0 0.1818 -0.0026
-7 3 1 -0.0076 -0.0236
-7 3 2 0.1966 0.0075
-7 3 3 -0.1911 -0.0239
-7 3 4 0.0972 0.0135
-7 3 5 -0.1167 -0.0184
-7 3 6 -0.1082 0.0131
-7 3 7 0.1270 -0.0383
-7 3 8 -0.3460 0.0185
-7 3 9 0.1812 -0.0705
-7 3 10 -0.4524 0.0292
-7 3 11 0.0224 -0.0802
-7 3 12 -0.3501 0.0317
-7 3 13 -0.0719 -0.0680
-7 3 14 -0.2082 0.0214
-7 3 15 -0.0698 -0.0603
-7 3 16 -0.2052 0.0061
-7 3 17 -0.1687 -0.0594
-7 3 18 -0.2251 -0.0053
-7 4 -6 0.3323 0.0076
-7 4 -5 -0.1054 0.0293
-7 4 -4 0.2670 -0.0204
-7 4 -3 -0.0855 0.0273
-7 4 -2 -0.0048 -0.0042
-7 4 -1 -0.0948 0.0194
-7 4 0 -0.1368 0.0374
-7 4 1 -0.0912 0.0048
-7 4 2 -0.0124 0.0432
-7 4 3 -0.0404 0.0037
-7 4 4 0.0389 0.0018
-7 4 5 0.0448 0.0211
-7 4 6 -0.1487 -0.0269
-7 4 7 0.1392 0.0358
-7 4 8 -0.2325 -0.0084
-7 4 9 0.2316 0.0298
-7 4 10 0.0325 0.0148
-7 4 11 0.3340 0.0088
-7 4 12 0.3322 0.0073
-7 4 13 0.4679 -0.0132
-7 4 14 0.3220 0.0028
-7 4 15 0.5851 -0.0280
-7 4 16 0.1603 0.0330
-7 4 17 0.5373 -0.0314
-7 5 -6 0.0676 0.0050
-7 5 -5 -0.3854 0.0209
-7 5 -4 -0.0304 0.0002
-7 5 -3 -0.1875 0.0256
-7 5 -2 -0.1604 0.0022
-7 5 -1 -0.0120 -0.0054
-7 5 0 -0.1796 0.0137
-7 5 1 -0.1013 -0.0371
-7 5 2 -0.0490 0.0175
-7 5 3 -0.2552 -0.0206
-7 5 4 0.1142 0.0062
-7 5 5 -0.1531 0.0164
-7 5 6 0.1727 -0.0067
-7 5 7 0.0382 0.0200
-7 5 8 0.0961 -0.0113
-7 5 9 -0.0882 0.0215
-7 5 10 -0.0732 -0.0148
-7 5 11 -0.4359 0.0913
-7 5 12 -0.2921 -0.0243
-7 5 13 -0.5042 0.1965
-7 5 14 -0.4786 -0.0317
-7 5 15 -0.1914 0.2212
-7 6 -6 0.1339 0.1653
-7 6 -5 0.0621 -0.0139
-7 6 -4 0.0731 0.1247
-7 6 -3 0.2923 0.0007
-7 6 -2 -0.0759 0.0506
-7 6 -1 0.4514 -0.0056
-7 6 0 -0.1169 -0.0014
-7 6 1 0.3148 -0.0148
-7 6 2 -0.0287 -0.0367
-7 6 3 -0.0375 -0.0179
-7 6 4 -0.0318 -0.0421
-7 6 5 -0.3064 -0.0239
-7 6 6 -0.1577 0.0390
-7 6 7 -0.3317 -0.0376
-7 6 8 -0.1043 0.1799
-7 6 9 -0.2047 -0.0460
-7 6 10 0.2416 0.2343
-7 6 11 -0.0585 -0.0348
-7 6 12 0.5086 0.1216
-7 7 -4 -0.1134 -0.0224
-7 7 -3 0.2535 -0.0201
-7 7 -2 -0.2536 -0.0109
-7 7 -1 0.4943 0.1286
-7 7 0 -0.2525 -0.0042
-7 7 1 0.6513 0.2193
-7 7 2 -0.0469 -0.0093
-7 7 3 0.7091 0.2518
-7 7 4 0.1659 -0.0169
-7 7 5 0.7054 0.1784
-7 7 6 0.1992 -0.0135
-7 7 7 0.5506 -0.0280
-7 7 8 0.1215 0.0034
-6 0 -4 0.4076 0.5630
-6 0 -2 0.3793 0.9880
-6 0 0 0.1174 1.1381
-6 0 2 -0.1407 1.1331
-6 0 4 -0.1555 1.0820
-6 0 6 -0.0949 1.0300
-6 0 8 -0.2005 1.0001
-6 0 10 -0.3031 0.9925
-6 0 12 -0.0910 0.9920
-6 0 14 0.3458 1.0205
-6 0 16 0.5792 1.1024
-6 0 18 0.3150 1.1516
-6 0 20 -0.3382 1.0097
-6 0 22 -0.9045 0.6561
-6 1 -5 -0.1100 0.3468
-6 1 -4 -0.3122 -0.0890
-6 1 -3 -0.1250 0.0602
-6 1 -2 -0.3419 -0.0462
-6 1 -1 -0.0124 -0.0411
-6 1 0 -0.2324 0.0099
-6 1 1 0.1634 -0.0291
-6 1 2 -0.1531 0.0325
-6 1 3 0.1145 -0.0042
-6 1 4 -0.0835 0.0162
-6 1 5 -0.1625 0.0077
-6 1 6 0.0850 -0.0044
-6 1 7 -0.3179 0.0090
-6 1 8 0.2932 -0.0031
-6 1 9 -0.1949 -0.0005
-6 1 10 0.3647 0.0063
-6 1 11 -0.0347 0.0050
-6 1 12 0.2752 -0.0024
-6 1 13 -0.0613 0.0432
-6 1 14 0.1818 -0.0237
-6 1 15 -0.2023 0.0697
-6 1 16 0.1664 -0.0270
-6 1 17 -0.2413 0.0420
-6 1 18 0.1124 -0.0048
-6 1 19 -0.0188 0.0149
-6 1 20 -0.0914 0.0174
-6 1 21 0.4153 0.0678
-6 1 22 -0.3285 0.0229
-6 1 23 0.7113 0.1619
-6 2 -5 0.0540 -0.0255
-6 2 -4 -0.2112 -0.1764
-6 2 -3 0.0416 -0.0301
-6 2 -2 -0.1801 -0.2157
-6 2 -1 -0.1917 -0.0346
-6 2 0 -0.1629 -0.2913
-6 2 1 -0.2397 -0.0292
-6 2 2 -0.0209 -0.3341
-6 2 3 0.0046 -0.0139
-6 2 4 0.3315 -0.3401
-6 2 5 0.1761 0.0010
-6 2 6 0.6519 -0.3376
-6 2 7 0.0121 0.0034
-6 2 8 0.6596 -0.3212
-6 2 9 -0.2655 -0.0057
-6 2 10 0.3807 -0.2880
-6 2 11 -0.3193 -0.0090
-6 2 12 0.0355 -0.2768
-6 2 13 -0.1675 0.0059
-6 2 14 -0.1757 -0.3047
-6 2 15 -0.0613 0.0273
-6 2 16 -0.1228 -0.3218
-6 2 17 -0.0659 0.0364
-6 2 18 0.1184 -0.2892
-6 2 19 -0.0086 0.0365
-6 2 20 0.2104 -0.2419
-6 2 21 0.1942 0.0418
-6 2 22 -0.0319 -0.2170
-6 3 -5 0.0903 -0.2403
-6 3 -4 0.2351 0.0361
-6 3 -3 0.0059 -0.2015
-6 3 -2 0.4425 0.0246
-6 3 -1 -0.1041 -0.1325
-6 3 0 0.5345 -0.0012
-6 3 1 -0.2485 -0.0911
-6 3 2 0.1911 -0.0168
-6 3 3 -0.4280 -0.0930
-6 3 4 -0.2687 -0.0198
-6 3 5 -0.4808 -0.0981
-6 3 6 -0.3162 -0.0213
-6 3 7 -0.3121 -0.0880
-6 3 8 0.0153 -0.0199
-6 3 9 -0.0834 -0.0878
-6 3 10 0.2273 -0.0065
-6 3 11 0.0541 -0.1067
-6 3 12 0.0864 0.0155
-6 3 13 0.1384 -0.1215
-6 3 14 -0.1434 0.0313
-6 3 15 0.1358 -0.1295
-6 3 16 -0.1686 0.0319
-6 3 17 -0.1036 -0.1530
-6 3 18 -0.0398 0.0176
-6 3 19 -0.4420 -0.1809
-6 3 20 0.0089 -0.0075
-6 3 21 -0.4716 -0.1699
-6 3 22 -0.0951 -0.0317
-6 4 -5 -0.3981 0.0200
-6 4 -4 0.1857 0.0396
-6 4 -3 -0.4191 0.0071
-6 4 -2 0.2596 0.0416
-6 4 -1 -0.3621 0.0130
-6 4 0 0.3216 0.0492
-6 4 1 0.0015 0.0153
-6 4 2 0.4154 0.0869
-6 4 3 0.4722 0.0054
-6 4 4 0.3730 0.1320
-6 4 5 0.5435 -0.0023
-6 4 6 0.0898 0.1483
-6 4 7 0.1565 0.0016
-6 4 8 -0.1512 0.1366
-6 4 9 -0.1747 0.0060
-6 4 10 -0.0728 0.1211
-6 4 11 -0.0923 -0.0011
-6 4 12 0.1040 0.1058
-6 4 13 0.1842 -0.0150
-6 4 14 0.0490 0.0815
-6 4 15 0.2828 -0.0230
-6 4 16 -0.0752 0.0576
-6 4 17 0.1616 -0.0202
-6 4 18 0.0571 0.0519
-6 4 19 0.0264 -0.0108
-6 4 20 0.2920 0.0597
-6 4 21 0.0109 -0.0018
-6 5 -5 0.0151 0.1667
-6 5 -4 0.4106 0.0081
-6 5 -3 -0.1617 0.1484
-6 5 -2 0.4044 -0.0110
-6 5 -1 -0.2108 0.1328
-6 5 0 0.1131 -0.0211
-6 5 1 -0.2230 0.1140
-6 5 2 -0.3730 -0.0110
-6 5 3 -0.2015 0.0967
-6 5 4 -0.6181 0.0104
-6 5 5 -0.0101 0.0907
-6 5 6 -0.4322 0.0232
-6 5 7 0.1911 0.0914
-6 5 8 -0.1790 0.0166
-6 5 9 0.0468 0.0834
-6 5 10 -0.2007 -0.0015
-6 5 11 -0.3080 0.0690
-6 5 12 -0.3273 -0.0142
-6 5 13 -0.3077 0.0715
-6 5 14 -0.2567 -0.0136
-6 5 15 0.1353 0.1044
-6 5 16 -0.0571 -0.0070
-6 5 17 0.4496 0.1485
-6 5 18 0.0255 -0.0065
-6 5 19 0.3106 0.1691
-6 5 20 -0.0254 -0.0126
-6 6 -5 -0.0448 -0.0117
-6 6 -4 -0.0399 0.0952
-6 6 -3 -0.1725 -0.0048
-6 6 -2 0.1953 0.0771
-6 6 -1 -0.2475 0.0047
-6 6 0 0.1713 0.0529
-6 6 1 -0.0926 0.0084
-6 6 2 0.0535 0.0197
-6 6 3 0.1543 -0.0006
-6 6 4 -0.1524 -0.0197
-6 6 5 0.2628 -0.0160
-6 6 6 -0.4366 -0.0474
-6 6 7 0.3358 -0.0190
-6 6 8 -0.4819 -0.0489
-6 6 9 0.5486 0.0001
-6 6 10 -0.1251 -0.0305
-6 6 11 0.6771 0.0247
-6 6 12 0.1980 -0.0088
-6 6 13 0.4026 0.0270
-6 6 14 0.0469 0.0081
-6 6 15 -0.0870 0.0027
-6 6 16 -0.3191 0.0217
-6 6 17 -0.3068 -0.0219
-6 6 18 -0.3880 0.0317
-6 7 -5 0.2014 -0.0653
-6 7 -4 -0.3341 -0.0041
-6 7 -3 -0.2052 -0.0410
-6 7 -2 -0.1225 0.0156
-6 7 -1 -0.1735 -0.0395
-6 7 0 0.0607 0.0193
-6 7 1 0.0882 -0.0504
-6 7 2 0.0666 0.0098
-6 7 3 0.3128 -0.0541
-6 7 4 0.0275 0.0023
-6 7 5 0.5490 -0.0517
-6 7 6 -0.0317 0.0040
-6 7 7 0.7513 -0.0530
-6 7 8 -0.2575 0.0060
-6 7 9 0.6405 -0.0495
-6 7 10 -0.5173 0.0018
-6 7 11 0.2355 -0.0297
-6 7 12 -0.4192 0.0001
-6 7 13 -0.0454 -0.0092
-6 7 14 0.0443 0.0100
-6 7 15 -0.0219 -0.0167
-6 8 -5 0.5457 0.0124
-6 8 -4 0.1217 -0.1663
-6 8 -3 0.3339 0.0100
-6 8 -2 0.1094 -0.1359
-6 8 -1 0.0621 -0.0011
-6 8 0 -0.2335 -0.0758
-6 8 1 0.0129 -0.0011
-6 8 2 -0.4498 -0.0243
-6 8 3 0.0738 0.0091
-6 8 4 -0.4399 -0.0073
-6 8 5 0.0213 0.0147
-6 8 6 -0.4344 -0.0138
-6 8 7 -0.0519 0.0107
-6 8 8 -0.4401 -0.0259
-6 8 9 0.0185 0.0033
-6 8 10 -0.2846 -0.0415
-6 8 11 0.0828 -0.0046
-6 8 12 -0.0490 -0.0562
-6 9 -2 0.0957 -0.0188
-6 9 -1 0.1323 -0.0466
-6 9 0 0.1649 -0.0078
-6 9 1 0.3186 -0.0785
-6 9 2 -0.0305 -0.0037
-6 9 3 0.2036 -0.0753
-6 9 4 -0.1566 0.0043
-6 9 5 0.0051 -0.0329
-6 9 6 -0.0538 0.0131
-5 0 -3 -0.0782 0.0157
-5 0 -1 -0.2634 0.0266
-5 0 1 -0.2714 0.0061
-5 0 3 -0.5331 -0.0110
-5 0 5 -1.1710 -0.0057
-5 0 7 -1.3503 0.0061
-5 0 9 -0.3506 0.0002
-5 0 11 1.0021 -0.0246
-5 0 13 1.1445 -0.0503
-5 0 15 0.0835 -0.0619
-5 0 17 -0.4058 -0.0579
-5 0 19 0.6449 -0.0488
-5 0 21 1.9208 -0.0491
-5 0 23 1.7902 -0.0601
-5 0 25 0.6088 -0.0621
-5 1 -4 -0.2418 0.0762
-5 1 -3 0.7888 0.0138
-5 1 -2 0.0261 0.0455
-5 1 -1 0.9448 0.0659
-5 1 0 0.2359 0.0202
-5 1 1 0.9371 0.0617
-5 1 2 0.4904 0.0052
-5 1 3 0.7254 0.0036
-5 1 4 1.0382 0.0031
-5 1 5 0.2636 -0.0462
-5 1 6 1.5109 0.0131
-5 1 7 -0.3219 -0.0477
-5 1 8 1.0917 0.0271
-5 1 9 -0.7461 -0.0343
-5 1 10 -0.1661 0.0323
-5 1 11 -0.8245 -0.0435
-5 1 12 -0.9681 0.0222
-5 1 13 -0.6657 -0.0547
-5 1 14 -0.4598 0.0039
-5 1 15 -0.5344 -0.0376
-5 1 16 0.3822 -0.0110
-5 1 17 -0.5201 -0.0068
-5 1 18 0.0659 -0.0181
-5 1 19 -0.4494 0.0073
-5 1 20 -1.1651 -0.0163
-5 1 21 -0.2007 0.0000
-5 1 22 -1.6709 -0.0007
-5 1 23 0.0410 -0.0246
-5 1 24 -0.8602 0.0260
-5 1 25 0.0324 -0.0683
-5 2 -4 -0.5416 0.0221
-5 2 -3 0.2794 -0.0242
-5 2 -2 -0.7462 0.0508
-5 2 -1 0.1080 -0.0015
-5 2 0 -0.7461 0.0426
-5 2 1 -0.1865 0.0277
-5 2 2 -0.5143 0.0516
-5 2 3 -0.6178 0.0387
-5 2 4 -0.0180 0.0834
-5 2 5 -1.0706 0.0241
-5 2 6 0.5698 0.0926
-5 2 7 -1.1419 0.0042
-5 2 8 0.8599 0.0767
-5 2 9 -0.5947 0.0010
-5 2 10 0.6251 0.0704
-5 2 11 0.0798 0.0132
-5 2 12 0.1221 0.0695
-5 2 13 0.1132 0.0227
-5 2 14 -0.1017 0.0496
-5 2 15 -0.4176 0.0188
-5 2 16 0.2001 0.0358
-5 2 17 -0.5675 0.0095
-5 2 18 0.6414 0.0664
-5 2 19 0.0814 0.0069
-5 2 20 0.6402 0.1111
-5 2 21 0.7054 0.0073
-5 2 22 0.1787 0.1050
-5 2 23 0.4617 -0.0052
-5 2 24 -0.1714 0.0476
-5 2 25 -0.2318 -0.0309
-5 3 -4 -0.1417 -0.0718
-5 3 -3 -0.0712 -0.0333
-5 3 -2 -0.2351 -0.0443
-5 3 -1 -0.1354 -0.0419
-5 3 0 -0.1811 -0.0182
-5 3 1 -0.2462 0.0062
-5 3 2 -0.0117 -0.0019
-5 3 3 -0.4514 0.0356
-5 3 4 0.1502 0.0106
-5 3 5 -0.6843 0.0485
-5 3 6 0.2435 0.0163
-5 3 7 -0.6754 0.0670
-5 3 8 0.2785 0.0071
-5 3 9 -0.2430 0.0716
-5 3 10 0.3026 -0.0090
-5 3 11 0.3891 0.0573
-5 3 12 0.4096 -0.0154
-5 3 13 0.7128 0.0603
-5 3 14 0.6282 -0.0092
-5 3 15 0.4243 0.0819
-5 3 16 0.7614 -0.0019
-5 3 17 -0.2010 0.0758
-5 3 18 0.5709 -0.0013
-5 3 19 -0.5076 0.0468
-5 3 20 0.1886 -0.0028
-5 3 21 -0.1805 0.0678
-5 3 22 0.0346 0.0020
-5 3 23 0.3371 0.1562
-5 3 24 0.2098 0.0121
-5 4 -4 0.1632 0.0198
-5 4 -3 0.2379 -0.0184
-5 4 -2 0.3138 0.0006
-5 4 -1 0.1917 -0.0345
-5 4 0 0.4263 -0.0564
-5 4 1 -0.0446 -0.0380
-5 4 2 0.4402 -0.0852
-5 4 3 -0.2260 -0.0310
-5 4 4 0.3538 -0.0826
-5 4 5 -0.1503 -0.0255
-5 4 6 0.1551 -0.0911
-5 4 7 -0.0067 -0.0190
-5 4 8 -0.1212 -0.1012
-5 4 9 -0.0678 -0.0071
-5 4 10 -0.3064 -0.0776
-5 4 11 -0.2604 0.0014
-5 4 12 -0.2419 -0.0430
-5 4 13 -0.3412 -0.0008
-5 4 14 0.0262 -0.0385
-5 4 15 -0.3004 -0.0071
-5 4 16 0.2694 -0.0471
-5 4 17 -0.2836 -0.0095
-5 4 18 0.2348 -0.0426
-5 4 19 -0.2738 -0.0084
-5 4 20 -0.1620 -0.0623
-5 4 21 -0.1564 -0.0035
-5 4 22 -0.6588 -0.1379
-5 4 23 0.0115 0.0111
-5 4 24 -0.7918 -0.2034
-5 5 -4 -0.0060 0.0454
-5 5 -3 0.3823 -0.0678
-5 5 -2 -0.0727 0.0403
-5 5 -1 0.3338 -0.0438
-5 5 0 0.1564 0.0162
-5 5 1 0.2063 -0.0502
-5 5 2 0.6171 -0.0186
-5 5 3 0.1412 -0.0894
-5 5 4 0.8471 -0.0338
-5 5 5 0.1966 -0.1101
-5 5 6 0.6687 -0.0228
-5 5 7 0.2937 -0.1014
-5 5 8 0.3862 -0.0102
-5 5 9 0.2279 -0.1025
-5 5 10 0.2037 -0.0103
-5 5 11 -0.1005 -0.1122
-5 5 12 -0.0404 -0.0116
-5 5 13 -0.4739 -0.0927
-5 5 14 -0.3792 -0.0036
-5 5 15 -0.5667 -0.0644
-5 5 16 -0.4724 0.0098
-5 5 17 -0.3128 -0.0901
-5 5 18 -0.1557 0.0239
-5 5 19 0.1019 -0.1569
-5 5 20 0.1870 0.0361
-5 5 21 0.4767 -0.1794
-5 5 22 0.1544 0.0365
-5 6 -4 -0.5049 -0.0337
-5 6 -3 -0.5762 0.0363
-5 6 -2 -0.6500 -0.0399
-5 6 -1 -0.4497 0.0266
-5 6 0 -0.5584 -0.0256
-5 6 1 -0.5334 0.0354
-5 6 2 -0.3648 0.0122
-5 6 3 -0.7030 0.0425
-5 6 4 -0.2279 0.0328
-5 6 5 -0.6914 0.0286
-5 6 6 -0.2100 0.0288
-5 6 7 -0.5452 0.0061
-5 6 8 -0.2062 0.0388
-5 6 9 -0.4277 -0.0053
-5 6 10 -0.0666 0.0596
-5 6 11 -0.2238 -0.0091
-5 6 12 0.1459 0.0366
-5 6 13 0.1955 -0.0135
-5 6 14 0.2011 -0.0221
-5 6 15 0.5094 -0.0079
-5 6 16 0.0647 -0.0238
-5 6 17 0.2794 0.0140
-5 6 18 -0.0355 0.0682
-5 6 19 -0.3183 0.0301
-5 6 20 0.0164 0.1641
-5 6 21 -0.6223 0.0164
-5 7 -4 0.6633 0.0032
-5 7 -3 0.0690 0.0928
-5 7 -2 0.7514 0.0051
-5 7 -1 0.0451 0.1051
-5 7 0 0.6406 0.0093
-5 7 1 -0.0342 0.0822
-5 7 2 0.4095 0.0119
-5 7 3 -0.0449 0.0813
-5 7 4 0.1313 0.0184
-5 7 5 0.0537 0.1231
-5 7 6 -0.0190 0.0244
-5 7 7 0.1593 0.1501
-5 7 8 0.1035 0.0193
-5 7 9 0.1258 0.1290
-5 7 10 0.3353 0.0102
-5 7 11 -0.0175 0.1110
-5 7 12 0.3485 0.0130
-5 7 13 -0.0514 0.1267
-5 7 14 0.1500 0.0182
-5 7 15 0.1010 0.1112
-5 7 16 0.1234 -0.0022
-5 7 17 0.1928 0.0188
-5 7 18 0.4291 -0.0475
-5 7 19 0.0050 -0.0698
-5 8 -4 0.1737 0.0941
-5 8 -3 -0.3854 -0.0221
-5 8 -2 0.0517 0.0669
-5 8 -1 -0.5030 -0.0202
-5 8 0 0.0615 0.0931
-5 8 1 -0.3417 -0.0208
-5 8 2 0.1030 0.1211
-5 8 3 0.0401 -0.0226
-5 8 4 0.0765 0.0900
-5 8 5 0.3251 -0.0261
-5 8 6 0.0499 0.0407
-5 8 7 0.2452 -0.0211
-5 8 8 0.1763 0.0377
-5 8 9 -0.1149 -0.0010
-5 8 10 0.4234 0.0451
-5 8 11 -0.4136 0.0195
-5 8 12 0.5121 -0.0011
-5 8 13 -0.4466 0.0214
-5 8 14 0.2610 -0.0491
-5 8 15 -0.3376 0.0065
-5 8 16 -0.1106 0.0028
-5 8 17 -0.2906 -0.0079
-5 9 -4 0.3569 -0.0500
-5 9 -3 0.5083 -0.0335
-5 9 -2 0.3590 -0.0285
-5 9 -1 0.6359 -0.0139
-5 9 0 0.2410 -0.0172
-5 9 1 0.4545 -0.0522
-5 9 2 -0.0660 -0.0185
-5 9 3 0.1768 -0.0654
-5 9 4 -0.3086 -0.0203
-5 9 5 -0.0304 -0.0573
-5 9 6 -0.2123 -0.0141
-5 9 7 -0.2261 -0.1122
-5 9 8 0.1373 -0.0035
-5 9 9 -0.4749 -0.2126
-5 9 10 0.4038 0.0045
-5 9 11 -0.6084 -0.2204
-5 9 12 0.3934 0.0072
-5 9 13 -0.4216 -0.0906
-5 10 -4 -0.6085 -0.1125
-5 10 -3 -0.3152 -0.0130
-5 10 -2 -0.8477 -0.2248
-5 10 -1 -0.2615 -0.0047
-5 10 0 -0.7497 -0.2365
-5 10 1 -0.0825 0.0032
-5 10 2 -0.4509 -0.2285
-5 10 3 0.0914 0.0086
-5 10 4 -0.2499 -0.2511
-5 10 5 0.0060 0.0159
-5 10 6 -0.2161 -0.2221
-5 10 7 -0.2853 0.0196
-5 10 8 -0.1673 -0.0752
-4 0 -2 0.8317 -0.5502
-4 0 0 -0.3684 -1.1329
-4 0 2 -0.9176 -1.3640
-4 0 4 -0.4787 -1.3992
-4 0 6 -0.0621 -1.4049
-4 0 8 -0.4894 -1.4287
-4 0 10 -1.0965 -1.4453
-4 0 12 -0.8143 -1.4258
-4 0 14 0.1288 -1.3541
-4 0 16 0.6971 -1.2426
-4 0 18 0.6793 -1.1521
-4 0 20 0.6104 -1.1390
-4 0 22 0.5493 -1.1539
-4 0 24 0.1918 -1.0491
-4 0 26 -0.1968 -0.7434
-4 1 -3 -0.8899 -0.5777
-4 1 -2 -0.0907 0.1089
-4 1 -1 0.1439 -0.1513
-4 1 0 0.0425 0.0657
-4 1 1 1.0796 0.0276
-4 1 2 -0.1547 0.0133
-4 1 3 1.0058 0.0366
-4 1 4 -0.4029 -0.0140
-4 1 5 0.2526 0.0127
-4 1 6 -0.3131 -0.0085
-4 1 7 -0.0795 0.0025
-4 1 8 -0.0024 0.0072
-4 1 9 0.2655 -0.0071
-4 1 10 0.1160 0.0058
-4 1 11 0.4547 -0.0133
-4 1 12 -0.0209 -0.0131
-4 1 13 0.0496 -0.0068
-4 1 14 -0.1164 -0.0238
-4 1 15 -0.3742 -0.0020
-4 1 16 -0.0851 -0.0083
-4 1 17 -0.4095 -0.0115
-4 1 18 -0.1787 0.0201
-4 1 19 -0.4522 -0.0158
-4 1 20 -0.4818 0.0301
-4 1 21 -0.7076 -0.0014
-4 1 22 -0.6964 0.0080
-4 1 23 -0.7023 -0.0074
-4 1 24 -0.5856 -0.0261
-4 1 25 -0.2738 -0.0861
-4 1 26 -0.3100 -0.0410
-4 1 27 0.0265 -0.2139
-4 2 -3 0.0301 0.0031
-4 2 -2 -0.4151 0.1776
-4 2 -1 -0.4339 0.0277
-4 2 0 -1.1748 0.2370
-4 2 1 -0.4391 0.0477
-4 2 2 -1.3494 0.3434
-4 2 3 0.0661 0.0347
-4 2 4 -0.6741 0.4163
-4 2 5 0.4021 0.0023
-4 2 6 0.1846 0.4445
-4 2 7 0.2328 -0.0181
-4 2 8 0.4838 0.4643
-4 2 9 0.0091 -0.0153
-4 2 10 0.3211 0.4788
-4 2 11 0.1332 -0.0054
-4 2 12 0.1874 0.4639
-4 2 13 0.3203 -0.0066
-4 2 14 0.1028 0.4261
-4 2 15 0.2058 -0.0195
-4 2 16 -0.0861 0.4001
-4 2 17 0.0495 -0.0307
-4 2 18 -0.0838 0.3944
-4 2 19 0.2753 -0.0282
-4 2 20 0.3320 0.3793
-4 2 21 0.6897 -0.0141
-4 2 22 0.6712 0.3335
-4 2 23 0.7595 -0.0060
-4 2 24 0.4579 0.2754
-4 2 25 0.4336 -0.0211
-4 2 26 0.0656 0.2332
-4 2 27 0.1324 -0.0535
-4 3 -3 0.9255 0.2899
-4 3 -2 0.3002 -0.0404
-4 3 -1 1.0630 0.2522
-4 3 0 0.5604 -0.0559
-4 3 1 0.9424 0.1856
-4 3 2 0.3259 -0.0435
-4 3 3 0.4830 0.1340
-4 3 4 -0.0593 -0.0116
-4 3 5 -0.0897 0.1239
-4 3 6 -0.0439 0.0087
-4 3 7 -0.3362 0.1386
-4 3 8 0.2216 0.0073
-4 3 9 -0.1625 0.1584
-4 3 10 0.1780 0.0022
-4 3 11 0.0864 0.1780
-4 3 12 -0.1625 0.0067
-4 3 13 0.1927 0.1847
-4 3 14 -0.2591 0.0123
-4 3 15 0.2348 0.1619
-4 3 16 -0.0247 0.0071
-4 3 17 0.1827 0.1208
-4 3 18 0.0030 -0.0071
-4 3 19 -0.0302 0.1021
-4 3 20 -0.3933 -0.0210
-4 3 21 -0.0730 0.1353
-4 3 22 -0.7175 -0.0278
-4 3 23 0.3779 0.2054
-4 3 24 -0.5647 -0.0221
-4 3 25 0.8827 0.2613
-4 3 26 -0.1926 -0.0026
-4 4 -3 -0.3703 -0.0542
-4 4 -2 -0.7345 -0.0381
-4 4 -1 -0.0650 -0.0461
-4 4 0 -0.3282 -0.0704
-4 4 1 0.2055 -0.0293
-4 4 2 -0.0452 -0.0849
-4 4 3 0.3728 -0.0204
-4 4 4 0.0224 -0.1049
-4 4 5 0.1775 -0.0161
-4 4 6 -0.0561 -0.1391
-4 4 7 -0.3371 -0.0074
-4 4 8 -0.1961 -0.1762
-4 4 9 -0.6545 0.0030
-4 4 10 -0.2593 -0.2018
-4 4 11 -0.4382 0.0108
-4 4 12 -0.1720 -0.2073
-4 4 13 -0.0190 0.0208
-4 4 14 -0.0186 -0.1938
-4 4 15 0.1620 0.0338
-4 4 16 0.1607 -0.1729
-4 4 17 0.2320 0.0370
-4 4 18 0.3580 -0.1569
-4 4 19 0.5166 0.0221
-4 4 20 0.2564 -0.1501
-4 4 21 0.8316 0.0030
-4 4 22 -0.5056 -0.1559
-4 4 23 0.7408 0.0004
-4 4 24 -1.5053 -0.1773
-4 4 25 0.3008 0.0154
-4 4 26 -1.7287 -0.1979
-4 5 -3 0.1619 -0.1664
-4 5 -2 0.3545 -0.0037
-4 5 -1 -0.3324 -0.1704
-4 5 0 -0.3034 0.0087
-4 5 1 -0.3899 -0.1722
-4 5 2 -0.5916 0.0162
-4 5 3 0.0634 -0.1678
-4 5 4 -0.5210 0.0198
-4 5 5 0.4835 -0.1565
-4 5 6 -0.1979 0.0148
-4 5 7 0.4618 -0.1500
-4 5 8 0.1692 0.0042
-4 5 9 0.0779 -0.1620
-4 5 10 0.2728 -0.0016
-4 5 11 -0.3207 -0.1877
-4 5 12 0.0068 0.0001
-4 5 13 -0.4518 -0.2017
-4 5 14 -0.4075 0.0012
-4 5 15 -0.3657 -0.1827
-4 5 16 -0.7562 -0.0016
-4 5 17 -0.3690 -0.1441
-4 5 18 -1.0199 -0.0006
-4 5 19 -0.4623 -0.1269
-4 5 20 -1.1127 0.0109
-4 5 21 -0.1572 -0.1501
-4 5 22 -0.8333 0.0277
-4 5 23 0.6992 -0.1772
-4 5 24 -0.2673 0.0392
-4 5 25 1.3550 -0.1578
-4 6 -3 -0.3078 0.0341
-4 6 -2 0.3824 -0.0463
-4 6 -1 0.1941 0.0282
-4 6 0 0.8148 -0.0424
-4 6 1 0.2836 0.0157
-4 6 2 0.4023 -0.0367
-4 6 3 0.1065 0.0050
-4 6 4 -0.2481 -0.0261
-4 6 5 0.0656 0.0053
-4 6 6 -0.4267 -0.0139
-4 6 7 0.1949 0.0163
-4 6 8 -0.1038 0.0006
-4 6 9 0.3318 0.0223
-4 6 10 0.2819 0.0195
-4 6 11 0.5156 0.0076
-4 6 12 0.3514 0.0378
-4 6 13 0.8489 -0.0223
-4 6 14 0.0701 0.0463
-4 6 15 1.2132 -0.0434
-4 6 16 -0.2103 0.0462
-4 6 17 1.3693 -0.0389
-4 6 18 -0.1315 0.0520
-4 6 19 1.1887 -0.0153
-4 6 20 0.1196 0.0739
-4 6 21 0.7150 0.0080
-4 6 22 0.0305 0.0956
-4 6 23 0.1682 0.0163
-4 7 -3 0.3359 0.0739
-4 7 -2 -0.5950 0.0249
-4 7 -1 -0.4776 0.0921
-4 7 0 -0.5746 0.0143
-4 7 1 -0.4830 0.1077
-4 7 2 -0.1104 0.0046
-4 7 3 0.0450 0.1062
-4 7 4 0.1813 -0.0068
-4 7 5 0.3588 0.0964
-4 7 6 0.0179 -0.0170
-4 7 7 0.2436 0.0935
-4 7 8 -0.2859 -0.0212
-4 7 9 0.0194 0.1038
-4 7 10 -0.4966 -0.0165
-4 7 11 -0.0226 0.1255
-4 7 12 -0.7527 -0.0062
-4 7 13 0.2083 0.1476
-4 7 14 -1.0979 0.0005
-4 7 15 0.6052 0.1511
-4 7 16 -1.2426 -0.0021
-4 7 17 0.8168 0.1257
-4 7 18 -0.9574 -0.0081
-4 7 19 0.5827 0.0823
-4 7 20 -0.4057 -0.0118
-4 7 21 0.1625 0.0456
-4 7 22 0.0306 -0.0194
-4 8 -3 0.1443 0.0136
-4 8 -2 0.0794 0.0712
-4 8 -1 0.2978 0.0064
-4 8 0 0.0012 0.0700
-4 8 1 0.1582 -0.0009
-4 8 2 -0.5464 0.0721
-4 8 3 0.0780 -0.0017
-4 8 4 -0.9018 0.0698
-4 8 5 0.3176 -0.0028
-4 8 6 -0.7005 0.0626
-4 8 7 0.5374 -0.0084
-4 8 8 -0.2175 0.0642
-4 8 9 0.3840 -0.0147
-4 8 10 0.1655 0.0719
-4 8 11 0.0988 -0.0164
-4 8 12 0.2479 0.0643
-4 8 13 0.1058 -0.0069
-4 8 14 -0.0856 0.0359
-4 8 15 0.3439 0.0162
-4 8 16 -0.6729 0.0057
-4 8 17 0.4154 0.0385
-4 8 18 -0.9717 -0.0089
-4 8 19 0.1904 0.0364
-4 8 20 -0.6645 -0.0034
-4 9 -3 -0.1107 -0.0377
-4 9 -2 0.3517 -0.0165
-4 9 -1 0.0885 -0.0327
-4 9 0 0.4388 -0.0119
-4 9 1 0.5169 -0.0498
-4 9 2 0.2699 -0.0058
-4 9 3 0.8533 -0.0553
-4 9 4 -0.2835 0.0083
-4 9 5 0.7380 -0.0335
-4 9 6 -0.7570 0.0208
-4 9 7 0.2804 -0.0170
-4 9 8 -0.5672 0.0181
-4 9 9 -0.1888 -0.0283
-4 9 10 0.1554 0.0072
-4 9 11 -0.4856 -0.0455
-4 9 12 0.6919 0.0055
-4 9 13 -0.4520 -0.0491
-4 9 14 0.6339 0.0086
-4 9 15 0.0159 -0.0516
-4 9 16 0.2520 -0.0016
-4 9 17 0.5838 -0.0596
-4 10 -3 -0.0667 -0.0390
-4 10 -2 -0.0854 -0.0802
-4 10 -1 -0.3775 -0.0139
-4 10 0 -0.1085 -0.0713
-4 10 1 -0.5780 0.0088
-4 10 2 -0.1707 -0.0511
-4 10 3 -0.3123 0.0066
-4 10 4 -0.1814 -0.0542
-4 10 5 0.2151 -0.0115
-4 10 6 -0.0932 -0.0537
-4 10 7 0.3894 -0.0150
-4 10 8 0.0078 -0.0297
-4 10 9 -0.0122 0.0042
-4 10 10 0.1109 -0.0257
-4 10 11 -0.5328 0.0217
-4 10 12 0.2193 -0.0726
-4 10 13 -0.6508 0.0198
-4 11 -3 0.2277 0.0990
-4 11 -2 0.0231 -0.0050
-4 11 -1 0.1253 0.0957
-4 11 0 0.4928 -0.0102
-4 11 1 0.0292 0.0769
-4 11 2 0.6603 -0.0077
-4 11 3 0.0598 0.0857
-4 11 4 0.3205 -0.0037
-4 11 5 0.1304 0.0798
-4 11 6 -0.1532 -0.0076
-4 11 7 0.1632 0.0017
-3 0 -1 0.6292 0.0979
-3 0 1 -0.0004 0.0524
-3 0 3 -0.7843 0.0157
-3 0 5 -1.0772 0.0095
-3 0 7 -0.7625 0.0218
-3 0 9 0.0154 0.0339
-3 0 11 0.7930 0.0462
-3 0 13 0.8915 0.0628
-3 0 15 0.1612 0.0746
-3 0 17 -0.6405 0.0752
-3 0 19 -0.6903 0.0771
-3 0 21 -0.1335 0.0930
-3 0 23 0.1607 0.1131
-3 0 25 -0.2115 0.1143
-3 0 27 -0.7203 0.0861
-3 1 -2 -0.3281 -0.1413
-3 1 -1 0.5721 0.0527
-3 1 0 -0.0965 -0.0999
-3 1 1 2.0064 -0.0362
-3 1 2 0.5730 -0.0353
-3 1 3 2.4339 -0.0724
-3 1 4 1.0292 0.0135
-3 1 5 1.9753 -0.0465
-3 1 6 1.0226 0.0289
-3 1 7 1.3894 0.0261
-3 1 8 0.5358 0.0192
-3 1 9 1.0077 0.0787
-3 1 10 -0.2418 -0.0013
-3 1 11 0.5670 0.0632
-3 1 12 -0.7460 -0.0193
-3 1 13 -0.0184 0.0242
-3 1 14 -0.4847 -0.0227
-3 1 15 -0.3526 0.0279
-3 1 16 0.2544 -0.0114
-3 1 17 -0.1827 0.0529
-3 1 18 0.6384 -0.0034
-3 1 19 0.1692 0.0394
-3 1 20 0.3351 -0.0134
-3 1 21 0.2395 0.0006
-3 1 22 -0.0957 -0.0272
-3 1 23 -0.0427 -0.0069
-3 1 24 -0.0174 -0.0130
-3 1 25 -0.4244 0.0134
-3 1 26 0.4366 0.0369
-3 1 27 -0.6458 0.0174
-3 1 28 0.6334 0.0876
-3 2 -2 -0.0721 0.0067
-3 2 -1 0.0262 0.0189
-3 2 0 -2.0023 -0.0385
-3 2 1 -0.3210 -0.0100
-3 2 2 -2.6853 -0.0700
-3 2 3 -0.6691 -0.0363
-3 2 4 -1.7171 -0.0629
-3 2 5 -0.8687 -0.0384
-3 2 6 -0.3684 -0.0583
-3 2 7 -0.8241 -0.0212
-3 2 8 0.1482 -0.0819
-3 2 9 -0.4220 -0.0027
-3 2 10 0.0364 -0.0946
-3 2 11 0.1274 0.0019
-3 2 12 0.1153 -0.0729
-3 2 13 0.3290 -0.0107
-3 2 14 0.4287 -0.0539
-3 2 15 0.0320 -0.0297
-3 2 16 0.4281 -0.0543
-3 2 17 -0.3339 -0.0391
-3 2 18 0.0498 -0.0368
-3 2 19 -0.3522 -0.0316
-3 2 20 -0.2253 -0.0018
-3 2 21 -0.1432 -0.0158
-3 2 22 -0.1617 -0.0130
-3 2 23 -0.0861 -0.0079
-3 2 24 0.0451 -0.0826
-3 2 25 -0.2484 -0.0180
-3 2 26 0.2139 -0.1237
-3 2 27 -0.3437 -0.0373
-3 2 28 0.2985 -0.0739
-3 3 -2 0.0337 0.0840
-3 3 -1 1.6861 -0.0731
-3 3 0 -0.1493 0.0764
-3 3 1 1.9940 0.0229
-3 3 2 -0.2028 0.0440
-3 3 3 0.5669 0.0188
-3 3 4 -0.0472 0.0015
-3 3 5 -1.3699 -0.0493
-3 3 6 0.2310 -0.0270
-3 3 7 -2.0285 -0.0836
-3 3 8 0.3181 -0.0310
-3 3 9 -1.2392 -0.0646
-3 3 10 0.1077 -0.0172
-3 3 11 -0.3591 -0.0507
-3 3 12 -0.0989 0.0012
-3 3 13 -0.2451 -0.0608
-3 3 14 -0.0521 0.0113
-3 3 15 -0.4145 -0.0626
-3 3 16 0.1088 0.0082
-3 3 17 -0.2689 -0.0568
-3 3 18 0.1813 0.0029
-3 3 19 -0.0192 -0.0700
-3 3 20 0.2294 0.0088
-3 3 21 -0.0309 -0.0795
-3 3 22 0.3636 0.0186
-3 3 23 -0.1472 -0.0418
-3 3 24 0.4714 0.0109
-3 3 25 -0.0997 0.0152
-3 3 26 0.3978 -0.0175
-3 3 27 0.0355 0.0226
-3 3 28 0.2042 -0.0447
-3 4 -2 -0.9242 -0.0388
-3 4 -1 -0.1796 0.0149
-3 4 0 -1.1160 -0.0418
-3 4 1 0.4795 0.0328
-3 4 2 -0.0943 -0.0074
-3 4 3 0.6897 0.0515
-3 4 4 1.4428 0.0618
-3 4 5 0.4169 0.0472
-3 4 6 1.9115 0.0996
-3 4 7 0.1594 0.0240
-3 4 8 0.8843 0.0760
-3 4 9 0.2251 0.0039
-3 4 10 -0.3046 0.0480
-3 4 11 0.3243 -0.0045
-3 4 12 -0.3832 0.0625
-3 4 13 0.1510 -0.0068
-3 4 14 0.2801 0.0805
-3 4 15 -0.0761 -0.0017
-3 4 16 0.5695 0.0563
-3 4 17 -0.0540 0.0125
-3 4 18 0.3051 0.0195
-3 4 19 0.0215 0.0219
-3 4 20 0.1455 0.0188
-3 4 21 -0.2007 0.0114
-3 4 22 0.3452 0.0441
-3 4 23 -0.5899 -0.0089
-3 4 24 0.5286 0.0592
-3 4 25 -0.7231 -0.0175
-3 4 26 0.4375 0.0595
-3 4 27 -0.5239 -0.0123
-3 5 -2 0.8152 -0.0503
-3 5 -1 0.0772 0.0877
-3 5 0 0.1362 -0.0512
-3 5 1 -0.0295 0.0671
-3 5 2 -0.2756 -0.0342
-3 5 3 -0.6456 0.0519
-3 5 4 -0.0703 0.0008
-3 5 5 -0.9187 0.0537
-3 5 6 0.2398 0.0321
-3 5 7 -0.2596 0.0852
-3 5 8 0.1158 0.0326
-3 5 9 0.6537 0.1173
-3 5 10 -0.1705 0.0073
-3 5 11 0.6971 0.1104
-3 5 12 -0.0698 -0.0083
-3 5 13 -0.1329 0.0822
-3 5 14 0.2595 0.0012
-3 5 15 -0.7802 0.0829
-3 5 16 0.2190 0.0103
-3 5 17 -0.6621 0.1129
-3 5 18 -0.1638 -0.0042
-3 5 19 -0.2813 0.1238
-3 5 20 -0.2172 -0.0276
-3 5 21 -0.2366 0.0969
-3 5 22 0.3016 -0.0324
-3 5 23 -0.4421 0.0616
-3 5 24 0.8198 -0.0163
-3 5 25 -0.5390 0.0411
-3 5 26 0.7998 0.0050
-3 6 -2 0.0834 0.1061
-3 6 -1 -0.3956 -0.0308
-3 6 0 -0.2280 0.0857
-3 6 1 -0.0678 -0.0403
-3 6 2 -0.1190 0.0518
-3 6 3 -0.2424 -0.0571
-3 6 4 0.2774 0.0202
-3 6 5 -0.6588 -0.0620
-3 6 6 0.4358 -0.0057
-3 6 7 -0.6998 -0.0414
-3 6 8 0.2339 -0.0219
-3 6 9 -0.4089 -0.0047
-3 6 10 0.1384 -0.0158
-3 6 11 -0.3646 0.0184
-3 6 12 0.4304 0.0065
-3 6 13 -0.6179 0.0110
-3 6 14 0.7371 0.0166
-3 6 15 -0.5386 -0.0072
-3 6 16 0.6484 0.0037
-3 6 17 0.0888 -0.0070
-3 6 18 0.3388 -0.0108
-3 6 19 0.5460 0.0089
-3 6 20 0.1968 -0.0116
-3 6 21 0.1891 0.0140
-3 6 22 0.2318 -0.0116
-3 6 23 -0.5837 0.0022
-3 6 24 0.2259 -0.0224
-3 6 25 -0.8940 -0.0037
-3 7 -2 0.1627 -0.0162
-3 7 -1 0.0882 -0.0549
-3 7 0 0.0608 -0.0078
-3 7 1 0.1812 -0.0510
-3 7 2 0.2382 0.0048
-3 7 3 0.0170 -0.0542
-3 7 4 0.5771 0.0019
-3 7 5 -0.2666 -0.0580
-3 7 6 0.5539 -0.0167
-3 7 7 -0.3979 -0.0548
-3 7 8 0.1430 -0.0326
-3 7 9 -0.3945 -0.0601
-3 7 10 -0.0506 -0.0289
-3 7 11 -0.4434 -0.0883
-3 7 12 0.2581 -0.0057
-3 7 13 -0.5014 -0.1240
-3 7 14 0.5092 0.0184
-3 7 15 -0.3843 -0.1387
-3 7 16 0.1254 0.0225
-3 7 17 -0.1519 -0.1224
-3 7 18 -0.5440 0.0069
-3 7 19 -0.0284 -0.0843
-3 7 20 -0.6633 -0.0038
-3 7 21 -0.0259 -0.0401
-3 7 22 -0.0893 0.0090
-3 7 23 0.0098 -0.0096
-3 8 -2 0.3995 -0.1209
-3 8 -1 0.2671 0.0425
-3 8 0 0.3155 -0.1223
-3 8 1 -0.0339 0.0300
-3 8 2 0.1652 -0.0946
-3 8 3 -0.4820 0.0286
-3 8 4 0.1385 -0.0563
-3 8 5 -0.4789 0.0370
-3 8 6 0.1376 -0.0475
-3 8 7 0.1330 0.0388
-3 8 8 0.0832 -0.0668
-3 8 9 0.7014 0.0273
-3 8 10 0.0883 -0.0809
-3 8 11 0.5644 0.0110
-3 8 12 0.1856 -0.0783
-3 8 13 -0.0635 -0.0015
-3 8 14 0.2028 -0.0739
-3 8 15 -0.3733 -0.0088
-3 8 16 0.0610 -0.0777
-3 8 17 -0.0213 -0.0070
-3 8 18 -0.0902 -0.0896
-3 8 19 0.4915 0.0086
-3 8 20 -0.1478 -0.1089
-3 8 21 0.5643 0.0298
-3 9 -2 -0.4082 0.0533
-3 9 -1 -0.1749 -0.0141
-3 9 0 -0.5623 0.0473
-3 9 1 -0.0771 -0.0023
-3 9 2 -0.1850 0.0301
-3 9 3 -0.1266 -0.0194
-3 9 4 0.1933 0.0117
-3 9 5 -0.2806 -0.0239
-3 9 6 0.0680 0.0089
-3 9 7 -0.3300 -0.0058
-3 9 8 -0.3533 0.0244
-3 9 9 -0.3040 0.0059
-3 9 10 -0.4493 0.0358
-3 9 11 -0.3585 0.0106
-3 9 12 -0.0031 0.0220
-3 9 13 -0.4270 0.0430
-3 9 14 0.5343 -0.0082
-3 9 15 -0.3383 0.1051
-3 9 16 0.6049 -0.0292
-3 9 17 -0.1417 0.1493
-3 9 18 0.1913 -0.0330
-3 9 19 -0.0053 0.1446
-3 10 -2 -0.0311 0.0996
-3 10 -1 0.5942 -0.0182
-3 10 0 0.0344 0.0937
-3 10 1 0.5916 -0.0113
-3 10 2 0.0809 0.0980
-3 10 3 0.0707 -0.0067
-3 10 4 0.1505 0.0801
-3 10 5 -0.3364 -0.0025
-3 10 6 0.0752 0.0405
-3 10 7 -0.2901 -0.0078
-3 10 8 -0.0953 0.0452
-3 10 9 -0.0166 -0.0261
-3 10 10 -0.0462 0.1293
-3 10 11 0.0788 -0.0412
-3 10 12 0.2776 0.2222
-3 10 13 -0.1294 -0.0344
-3 10 14 0.5245 0.2296
-3 10 15 -0.4003 -0.0099
-3 10 16 0.4554 0.1521
-3 11 -2 -0.4178 -0.0681
-3 11 -1 -0.2955 0.1640
-3 11 0 -0.4460 -0.0590
-3 11 1 -0.2205 0.1324
-3 11 2 0.0554 -0.0323
-3 11 3 -0.0154 0.1173
-3 11 4 0.6187 -0.0131
-3 11 5 0.3411 0.1525
-3 11 6 0.7157 -0.0153
-3 11 7 0.8071 0.1940
-3 11 8 0.2792 -0.0270
-3 11 9 1.0075 0.1504
-3 11 10 -0.3037 -0.0258
-3 11 11 0.6663 0.0106
-3 11 12 -0.5546 -0.0053
-2 0 0 6.0604 0.3107
-2 0 2 0.1936 1.2612
-2 0 4 -4.1044 1.7021
-2 0 6 -4.4817 1.6895
-2 0 8 -1.9835 1.5888
-2 0 10 0.2649 1.5854
-2 0 12 0.6727 1.5837
-2 0 14 0.3157 1.5024
-2 0 16 0.3886 1.4123
-2 0 18 0.5121 1.3751
-2 0 20 0.1737 1.3488
-2 0 22 -0.1059 1.2914
-2 0 24 0.0785 1.2052
-2 0 26 0.2381 1.0492
-2 0 28 0.0541 0.7514
-2 1 -1 -6.7074 0.9385
-2 1 0 1.3668 -0.1269
-2 1 1 -2.3488 0.3013
-2 1 2 1.2224 -0.0744
-2 1 3 2.4195 -0.0793
-2 1 4 -0.1688 -0.0032
-2 1 5 4.4829 -0.0752
-2 1 6 -1.3202 0.0233
-2 1 7 3.0203 0.0614
-2 1 8 -1.2247 0.0039
-2 1 9 0.2629 0.0774
-2 1 10 -0.3377 -0.0189
-2 1 11 -1.1087 0.0088
-2 1 12 0.2758 -0.0177
-2 1 13 -0.8680 0.0010
-2 1 14 0.2277 0.0000
-2 1 15 -0.4817 0.0439
-2 1 16 -0.0733 0.0117
-2 1 17 -0.4920 0.0407
-2 1 18 -0.2155 0.0037
-2 1 19 -0.3518 -0.0003
-2 1 20 -0.2077 -0.0127
-2 1 21 -0.0381 -0.0030
-2 1 22 -0.1856 -0.0136
-2 1 23 -0.0267 0.0337
-2 1 24 -0.1295 0.0045
-2 1 25 -0.1462 0.0659
-2 1 26 -0.0007 0.0175
-2 1 27 0.0855 0.1106
-2 1 28 0.1048 0.0107
-2 1 29 0.4321 0.1976
-2 2 -1 -0.9404 0.0032
-2 2 0 1.3410 -0.2377
-2 2 1 -1.8719 -0.0030
-2 2 2 -1.7975 -0.2187
-2 2 3 -0.8307 -0.0421
-2 2 4 -3.7104 -0.3397
-2 2 5 0.8737 -0.0497
-2 2 6 -2.9113 -0.5120
-2 2 7 1.3182 -0.0091
-2 2 8 -0.2004 -0.5617
-2 2 9 0.3113 0.0289
-2 2 10 1.9149 -0.4871
-2 2 11 -0.7257 0.0268
-2 2 12 2.0290 -0.4349
-2 2 13 -0.7528 0.0064
-2 2 14 1.0806 -0.4594
-2 2 15 -0.1399 0.0043
-2 2 16 0.4345 -0.4753
-2 2 17 0.2465 0.0235
-2 2 18 0.1979 -0.4361
-2 2 19 0.1913 0.0413
-2 2 20 0.0098 -0.4001
-2 2 21 0.0380 0.0422
-2 2 22 -0.0072 -0.3974
-2 2 23 -0.0215 0.0345
-2 2 24 0.1651 -0.3735
-2 2 25 -0.0748 0.0402
-2 2 26 0.0833 -0.3008
-2 2 27 -0.1391 0.0687
-2 2 28 -0.3416 -0.2319
-2 2 29 -0.1136 0.1003
-2 3 -1 0.2199 -0.3412
-2 3 0 1.6515 0.0319
-2 3 1 1.7648 -0.3053
-2 3 2 1.4797 0.0428
-2 3 3 2.5701 -0.2456
-2 3 4 0.0143 0.0444
-2 3 5 1.8651 -0.1582
-2 3 6 -0.8746 0.0152
-2 3 7 -0.2444 -0.1188
-2 3 8 -0.3349 -0.0133
-2 3 9 -2.2561 -0.1614
-2 3 10 0.5964 -0.0053
-2 3 11 -2.5983 -0.2155
-2 3 12 0.6539 0.0219
-2 3 13 -1.4733 -0.2124
-2 3 14 -0.0521 0.0293
-2 3 15 -0.3466 -0.1783
-2 3 16 -0.5197 0.0146
-2 3 17 0.0592 -0.1640
-2 3 18 -0.3259 0.0058
-2 3 19 0.1287 -0.1585
-2 3 20 0.0519 0.0136
-2 3 21 0.1545 -0.1410
-2 3 22 0.1506 0.0232
-2 3 23 0.0070 -0.1491
-2 3 24 0.0873 0.0217
-2 3 25 -0.2335 -0.2154
-2 3 26 0.1334 0.0123
-2 3 27 -0.2913 -0.2863
-2 3 28 0.2402 0.0032
-2 4 -1 -0.7709 0.0533
-2 4 0 0.0088 0.0203
-2 4 1 -1.4408 0.0443
-2 4 2 -0.1101 0.0702
-2 4 3 -0.6391 0.0232
-2 4 4 -0.1530 0.1003
-2 4 5 0.3452 0.0152
-2 4 6 0.2857 0.1185
-2 4 7 0.4147 0.0191
-2 4 8 1.2114 0.1479
-2 4 9 -0.0297 0.0127
-2 4 10 1.6910 0.1824
-2 4 11 0.0081 -0.0037
-2 4 12 1.1082 0.1939
-2 4 13 0.6173 -0.0093
-2 4 14 0.1607 0.1795
-2 4 15 0.9828 -0.0040
-2 4 16 -0.1883 0.1626
-2 4 17 0.6282 -0.0105
-2 4 18 0.0177 0.1514
-2 4 19 0.0246 -0.0331
-2 4 20 0.1652 0.1382
-2 4 21 -0.1569 -0.0464
-2 4 22 0.0717 0.1379
-2 4 23 0.0674 -0.0350
-2 4 24 -0.0254 0.1760
-2 4 25 0.1772 -0.0177
-2 4 26 0.0301 0.2322
-2 4 27 -0.0470 -0.0206
-2 4 28 0.2088 0.2475
-2 5 -1 -0.7679 0.2073
-2 5 0 0.5082 -0.0034
-2 5 1 -1.2196 0.2060
-2 5 2 0.4660 -0.0026
-2 5 3 -0.8325 0.1958
-2 5 4 -0.0066 -0.0075
-2 5 5 0.1562 0.1775
-2 5 6 -0.1954 -0.0179
-2 5 7 0.5212 0.1618
-2 5 8 -0.1135 -0.0190
-2 5 9 -0.0104 0.1577
-2 5 10 -0.2051 -0.0073
-2 5 11 -0.4463 0.1648
-2 5 12 -0.5476 -0.0019
-2 5 13 -0.2289 0.1763
-2 5 14 -0.7447 -0.0156
-2 5 15 0.0559 0.1839
-2 5 16 -0.5022 -0.0343
-2 5 17 -0.1474 0.1854
-2 5 18 -0.0384 -0.0367
-2 5 19 -0.5356 0.1857
-2 5 20 0.1679 -0.0239
-2 5 21 -0.5533 0.1826
-2 5 22 -0.0484 -0.0161
-2 5 23 -0.1394 0.1628
-2 5 24 -0.3586 -0.0257
-2 5 25 0.3296 0.1247
-2 5 26 -0.3698 -0.0445
-2 5 27 0.4810 0.0901
-2 6 -1 0.1030 -0.0496
-2 6 0 0.6251 0.0721
-2 6 1 0.2540 -0.0419
-2 6 2 0.9299 0.0443
-2 6 3 0.3249 -0.0219
-2 6 4 0.1879 0.0375
-2 6 5 0.1243 -0.0009
-2 6 6 -0.6794 0.0378
-2 6 7 -0.0524 0.0048
-2 6 8 -0.5717 0.0183
-2 6 9 0.0423 -0.0088
-2 6 10 0.1059 -0.0163
-2 6 11 0.2483 -0.0264
-2 6 12 0.3285 -0.0352
-2 6 13 0.3247 -0.0284
-2 6 14 0.0765 -0.0226
-2 6 15 0.2534 -0.0106
-2 6 16 0.0539 0.0034
-2 6 17 0.1158 0.0134
-2 6 18 0.4144 0.0098
-2 6 19 -0.0256 0.0249
-2 6 20 0.6406 -0.0162
-2 6 21 -0.0571 0.0166
-2 6 22 0.3808 -0.0505
-2 6 23 0.1080 -0.0004
-2 6 24 -0.1643 -0.0578
-2 6 25 0.3317 -0.0059
-2 6 26 -0.5515 -0.0354
-2 7 -1 -0.2062 -0.1060
-2 7 0 -0.7452 -0.0149
-2 7 1 -1.2579 -0.1002
-2 7 2 -0.7936 -0.0107
-2 7 3 -1.5838 -0.0968
-2 7 4 -0.2485 -0.0074
-2 7 5 -1.0829 -0.1071
-2 7 6 0.2807 0.0037
-2 7 7 -0.7560 -0.1115
-2 7 8 0.2485 0.0175
-2 7 9 -0.8950 -0.0964
-2 7 10 -0.1321 0.0205
-2 7 11 -0.8093 -0.0790
-2 7 12 -0.4112 0.0119
-2 7 13 -0.2554 -0.0851
-2 7 14 -0.5278 0.0057
-2 7 15 0.1462 -0.1183
-2 7 16 -0.5657 0.0102
-2 7 17 0.0106 -0.1528
-2 7 18 -0.4092 0.0204
-2 7 19 -0.2757 -0.1527
-2 7 20 -0.0390 0.0305
-2 7 21 -0.2542 -0.1116
-2 7 22 0.2142 0.0396
-2 7 23 0.0363 -0.0680
-2 7 24 0.0966 0.0455
-2 8 -1 0.5143 0.0188
-2 8 0 0.7462 -0.0892
-2 8 1 0.6480 0.0150
-2 8 2 1.4751 -0.0973
-2 8 3 0.2861 0.0134
-2 8 4 1.4639 -0.1000
-2 8 5 -0.1907 0.0058
-2 8 6 1.2585 -0.0857
-2 8 7 -0.2090 -0.0045
-2 8 8 1.4115 -0.0589
-2 8 9 0.1182 -0.0019
-2 8 10 1.4866 -0.0372
-2 8 11 0.3234 0.0163
-2 8 12 0.9682 -0.0377
-2 8 13 0.3810 0.0318
-2 8 14 0.2315 -0.0554
-2 8 15 0.5282 0.0296
-2 8 16 -0.0960 -0.0648
-2 8 17 0.6277 0.0165
-2 8 18 -0.0395 -0.0578
-2 8 19 0.3688 0.0061
-2 8 20 0.0121 -0.0555
-2 8 21 -0.0903 0.0004
-2 8 22 -0.0448 -0.0655
-2 9 -1 0.1041 0.0120
-2 9 0 0.0958 0.0218
-2 9 1 -0.2604 0.0033
-2 9 2 0.0976 0.0082
-2 9 3 -0.3829 0.0151
-2 9 4 0.2009 -0.0005
-2 9 5 -0.2544 0.0366
-2 9 6 0.0927 -0.0049
-2 9 7 -0.4124 0.0419
-2 9 8 -0.1079 -0.0105
-2 9 9 -0.8046 0.0244
-2 9 10 0.0068 -0.0159
-2 9 11 -0.8509 0.0137
-2 9 12 0.3330 -0.0106
-2 9 13 -0.4693 0.0346
-2 9 14 0.3267 0.0057
-2 9 15 -0.1340 0.0651
-2 9 16 -0.0946 0.0143
-2 9 17 -0.0534 0.0718
-2 9 18 -0.3905 0.0000
-2 9 19 -0.0283 0.0662
-2 9 20 -0.2390 -0.0240
-2 10 -1 0.0519 0.0022
-2 10 0 0.0406 0.0962
-2 10 1 -0.0068 0.0016
-2 10 2 0.2932 0.1038
-2 10 3 -0.2180 -0.0049
-2 10 4 0.2238 0.0836
-2 10 5 -0.3169 -0.0104
-2 10 6 0.0541 0.0604
-2 10 7 -0.2552 -0.0073
-2 10 8 0.0998 0.0606
-2 10 9 -0.3717 0.0014
-2 10 10 0.1908 0.0686
-2 10 11 -0.7483 0.0027
-2 10 12 0.1157 0.0513
-2 10 13 -0.9321 -0.0123
-2 10 14 0.0417 0.0227
-2 10 15 -0.6171 -0.0345
-2 10 16 0.1183 0.0307
-2 10 17 -0.1393 -0.0430
-2 11 -1 -0.0106 0.0281
-2 11 0 -0.3734 -0.0040
-2 11 1 -0.2745 0.0232
-2 11 2 -0.0749 0.0040
-2 11 3 -0.3403 0.0380
-2 11 4 0.1135 0.0047
-2 11 5 -0.1592 0.0499
-2 11 6 0.0322 0.0008
-2 11 7 -0.0834 0.0171
-2 11 8 -0.0397 -0.0000
-2 11 9 -0.2168 -0.0495
-2 11 10 0.2274 0.0022
-2 11 11 -0.3126 -0.0794
-2 11 12 0.6786 0.0002
-2 11 13 -0.2670 -0.0376
-2 11 14 0.8906 -0.0061
-2 12 -1 0.0392 0.0009
-2 12 0 -0.2719 -0.1102
-2 12 1 -0.1541 -0.0025
-2 12 2 -0.1802 -0.1086
-2 12 3 -0.1179 0.0017
-2 12 4 -0.2800 -0.1282
-2 12 5 0.2707 0.0182
-2 12 6 -0.3537 -0.1182
-2 12 7 0.7233 0.0302
-2 12 8 -0.1424 -0.0412
-1 0 3 5.6482 -0.0705
-1 0 5 2.0282 -0.0626
-1 0 7 -0.3442 -0.0619
-1 0 9 -0.9960 -0.0649
-1 0 11 -0.2956 -0.0604
-1 0 13 0.9066 -0.0537
-1 0 15 1.3897 -0.0639
-1 0 17 0.6730 -0.0936
-1 0 19 -0.2929 -0.1205
-1 0 21 -0.3852 -0.1314
-1 0 23 0.1849 -0.1384
-1 0 25 0.3758 -0.1467
-1 0 27 -0.1227 -0.1342
-1 0 29 -0.6388 -0.0853
-1 1 0 -7.7811 0.1056
-1 1 1 -1.9648 -0.0912
-1 1 2 -6.9937 0.0771
-1 1 3 1.7703 -0.0034
-1 1 4 -3.8123 0.0280
-1 1 5 2.8258 0.0484
-1 1 6 -0.8437 -0.0111
-1 1 7 1.7806 0.0481
-1 1 8 0.7101 -0.0233
-1 1 9 0.4673 -0.0049
-1 1 10 0.8283 -0.0165
-1 1 11 -0.1904 -0.0725
-1 1 12 -0.0179 -0.0070
-1 1 13 -0.5302 -0.0947
-1 1 14 -0.8149 -0.0016
-1 1 15 -0.8727 -0.0585
-1 1 16 -0.6100 -0.0001
-1 1 17 -0.9652 -0.0212
-1 1 18 0.3258 -0.0034
-1 1 19 -0.7167 -0.0254
-1 1 20 0.8091 -0.0066
-1 1 21 -0.5408 -0.0369
-1 1 22 0.4046 0.0034
-1 1 23 -0.6674 -0.0189
-1 1 24 -0.0864 0.0256
-1 1 25 -0.7582 -0.0136
-1 1 26 0.0510 0.0335
-1 1 27 -0.5027 -0.0667
-1 1 28 0.4937 0.0059
-1 1 29 -0.1047 -0.1209
-1 2 0 7.2468 -0.0021
-1 2 1 6.0191 -0.0240
-1 2 3 4.4792 0.0122
-1 2 4 -6.2526 0.0284
-1 2 5 2.4406 0.0454
-1 2 6 -5.5680 0.0133
-1 2 7 0.8936 0.0529
-1 2 8 -2.5302 0.0194
-1 2 9 0.0120 0.0360
-1 2 10 -0.4259 0.0662
-1 2 11 -0.1266 0.0131
-1 2 12 0.2658 0.1090
-1 2 13 0.2162 0.0019
-1 2 14 0.6194 0.1011
-1 2 15 0.2422 0.0078
-1 2 16 0.8800 0.0654
-1 2 17 -0.3890 0.0251
-1 2 18 0.6150 0.0527
-1 2 19 -0.9456 0.0425
-1 2 20 0.0894 0.0569
-1 2 21 -0.7061 0.0488
-1 2 22 0.0042 0.0451
-1 2 23 -0.0597 0.0408
-1 2 24 0.3097 0.0482
-1 2 25 0.1473 0.0242
-1 2 26 0.3829 0.1223
-1 2 27 -0.1568 0.0062
-1 2 28 0.1082 0.2205
-1 2 29 -0.3645 -0.0102
-1 3 0 -4.1019 -0.0647
-1 3 1 -1.2033 0.0679
-1 3 2 -3.4668 -0.0566
-1 3 3 4.7915 -0.0171
-1 3 4 -2.9369 -0.0312
-1 3 5 5.4010 -0.0205
-1 3 6 -2.5411 0.0036
-1 3 7 2.5662 0.0325
-1 3 8 -1.8277 0.0300
-1 3 9 0.3434 0.0689
-1 3 10 -0.9626 0.0365
-1 3 11 0.1168 0.0687
-1 3 12 -0.4994 0.0252
-1 3 13 0.3823 0.0704
-1 3 14 -0.3371 0.0072
-1 3 15 0.0831 0.0860
-1 3 16 0.0376 -0.0039
-1 3 17 -0.1097 0.0829
-1 3 18 0.4744 0.0008
-1 3 19 0.3220 0.0593
-1 3 20 0.3358 0.0145
-1 3 21 0.6888 0.0588
-1 3 22 -0.3464 0.0175
-1 3 23 0.4351 0.0818
-1 3 24 -0.7956 0.0011
-1 3 25 0.0496 0.0596
-1 3 26 -0.5945 -0.0142
-1 3 27 0.0671 -0.0333
-1 3 28 -0.1339 -0.0014
-1 3 29 0.2360 -0.1124
-1 4 0 1.4057 0.0274
-1 4 1 2.3961 -0.0071
-1 4 2 -1.6089 0.0371
-1 4 3 2.5656 -0.0202
-1 4 4 -1.7279 0.0187
-1 4 5 2.8452 -0.0387
-1 4 6 0.2955 -0.0359
-1 4 7 2.5068 -0.0433
-1 4 8 1.4265 -0.0774
-1 4 9 1.5333 -0.0307
-1 4 10 0.4425 -0.0764
-1 4 11 0.6547 -0.0143
-1 4 12 -0.8617 -0.0651
-1 4 13 0.2147 -0.0022
-1 4 14 -0.7500 -0.0738
-1 4 15 -0.1283 0.0073
-1 4 16 0.0960 -0.0780
-1 4 17 -0.4714 0.0091
-1 4 18 0.2065 -0.0517
-1 4 19 -0.3637 -0.0054
-1 4 20 -0.3187 -0.0263
-1 4 21 0.2911 -0.0249
-1 4 22 -0.4250 -0.0429
-1 4 23 0.8413 -0.0202
-1 4 24 0.0092 -0.0774
-1 4 25 0.7692 0.0153
-1 4 26 0.2561 -0.0739
-1 4 27 0.3481 0.0506
-1 4 28 0.0773 -0.0317
-1 5 0 -0.2902 0.0571
-1 5 1 0.2686 -0.0672
-1 5 2 -1.1428 0.0391
-1 5 3 0.2368 -0.0465
-1 5 4 -1.9932 0.0133
-1 5 5 -1.2344 -0.0358
-1 5 6 -2.0529 -0.0166
-1 5 7 -2.1138 -0.0471
-1 5 8 -1.3300 -0.0396
-1 5 9 -1.0768 -0.0846
-1 5 10 -0.5515 -0.0384
-1 5 11 0.6245 -0.1192
-1 5 12 -0.1168 -0.0156
-1 5 13 0.9602 -0.1215
-1 5 14 0.2508 0.0019
-1 5 15 -0.0774 -0.1064
-1 5 16 0.6688 -0.0013
-1 5 17 -0.8147 -0.1083
-1 5 18 0.6810 -0.0075
-1 5 19 -0.4832 -0.1226
-1 5 20 0.0819 0.0025
-1 5 21 0.0518 -0.1142
-1 5 22 -0.5163 0.0156
-1 5 23 -0.0097 -0.0773
-1 5 24 -0.4883 0.0082
-1 5 25 -0.3794 -0.0430
-1 5 26 -0.0735 -0.0145
-1 5 27 -0.5079 -0.0281
-1 6 0 0.5521 -0.0818
-1 6 1 -0.4712 0.0290
-1 6 2 -0.0907 -0.0661
-1 6 3 0.6912 0.0351
-1 6 4 0.3785 -0.0438
-1 6 5 1.1947 0.0429
-1 6 6 1.1682 -0.0113
-1 6 7 0.8233 0.0436
-1 6 8 1.0273 0.0234
-1 6 9 0.2973 0.0270
-1 6 10 -0.0262 0.0403
-1 6 11 0.1520 0.0000
-1 6 12 -0.7195 0.0258
-1 6 13 0.1268 -0.0125
-1 6 14 -0.3546 -0.0058
-1 6 15 -0.1070 -0.0000
-1 6 16 0.3261 -0.0241
-1 6 17 -0.2463 0.0133
-1 6 18 0.4138 -0.0179
-1 6 19 0.0916 0.0020
-1 6 20 0.0465 -0.0017
-1 6 21 0.5774 -0.0216
-1 6 22 -0.1355 0.0144
-1 6 23 0.5829 -0.0262
-1 6 24 0.0166 0.0328
-1 6 25 0.1332 -0.0105
-1 6 26 0.2400 0.0454
-1 7 0 0.4800 -0.0134
-1 7 1 -0.1142 0.0420
-1 7 2 -0.0883 0.0008
-1 7 3 -0.0591 0.0576
-1 7 4 -0.4432 0.0115
-1 7 5 -0.2086 0.0623
-1 7 6 -0.2416 0.0174
-1 7 7 -0.2977 0.0613
-1 7 8 0.0597 0.0274
-1 7 9 -0.1137 0.0661
-1 7 10 -0.0056 0.0410
-1 7 11 0.1340 0.0818
-1 7 12 -0.2338 0.0393
-1 7 13 0.1394 0.1049
-1 7 14 -0.2012 0.0108
-1 7 15 -0.0022 0.1256
-1 7 16 -0.0118 -0.0233
-1 7 17 -0.0075 0.1318
-1 7 18 -0.0871 -0.0320
-1 7 19 0.1021 0.1153
-1 7 20 -0.4067 -0.0163
-1 7 21 0.1284 0.0723
-1 7 22 -0.5192 -0.0052
-1 7 23 0.0823 0.0100
-1 7 24 -0.2672 -0.0118
-1 7 25 0.0628 -0.0427
-1 8 0 0.7416 0.1010
-1 8 1 -0.2555 -0.0441
-1 8 2 0.7276 0.0703
-1 8 3 -0.2253 -0.0432
-1 8 4 0.3325 0.0572
-1 8 5 -0.3039 -0.0309
-1 8 6 -0.0872 0.0549
-1 8 7 -0.2372 -0.0144
-1 8 8 -0.1882 0.0476
-1 8 9 0.0877 -0.0063
-1 8 10 0.0188 0.0387
-1 8 11 0.3068 -0.0075
-1 8 12 0.2653 0.0396
-1 8 13 0.0555 -0.0086
-1 8 14 0.3038 0.0513
-1 8 15 -0.4405 -0.0061
-1 8 16 0.1384 0.0699
-1 8 17 -0.6254 -0.0052
-1 8 18 0.0161 0.0949
-1 8 19 -0.3702 -0.0047
-1 8 20 0.0836 0.1231
-1 8 21 -0.0783 0.0026
-1 8 22 0.1489 0.1455
-1 8 23 -0.0390 0.0118
-1 9 0 0.2713 -0.0380
-1 9 1 -1.3915 0.0119
-1 9 2 0.2410 -0.0361
-1 9 3 -1.1552 -0.0060
-1 9 4 0.3214 -0.0303
-1 9 5 -0.6781 -0.0305
-1 9 6 0.2320 -0.0268
-1 9 7 -0.4064 -0.0408
-1 9 8 -0.1248 -0.0283
-1 9 9 -0.4627 -0.0340
-1 9 10 -0.3715 -0.0319
-1 9 11 -0.5674 -0.0258
-1 9 12 -0.1436 -0.0312
-1 9 13 -0.4388 -0.0230
-1 9 14 0.3553 -0.0190
-1 9 15 -0.1191 -0.0312
-1 9 16 0.5954 0.0052
-1 9 17 0.0881 -0.0670
-1 9 18 0.4226 0.0291
-1 9 19 -0.0055 -0.1276
-1 9 20 0.1931 0.0357
-1 9 21 -0.1961 -0.1703
-1 10 0 0.7103 -0.0548
-1 10 1 0.1353 0.0308
-1 10 2 0.7957 -0.0602
-1 10 3 -0.0059 0.0194
-1 10 4 0.6423 -0.0658
-1 10 5 -0.2303 0.0028
-1 10 6 0.4973 -0.0728
-1 10 7 -0.1646 -0.0077
-1 10 8 0.5392 -0.0747
-1 10 9 0.1011 -0.0056
-1 10 10 0.6471 -0.0597
-1 10 11 0.2324 0.0059
-1 10 12 0.5818 -0.0523
-1 10 13 0.1896 0.0180
-1 10 14 0.2646 -0.0878
-1 10 15 0.2172 0.0246
-1 10 16 -0.1235 -0.1395
-1 10 17 0.3827 0.0248
-1 10 18 -0.2907 -0.1394
-1 11 0 0.2663 0.0571
-1 11 1 0.0760 -0.0648
-1 11 2 0.4222 0.0502
-1 11 3 0.1750 -0.0387
-1 11 4 0.8041 0.0466
-1 11 5 0.3267 -0.0168
-1 11 6 0.8808 0.0406
-1 11 7 0.3510 -0.0102
-1 11 8 0.4847 0.0273
-1 11 9 0.1474 -0.0481
-1 11 10 -0.0372 0.0147
-1 11 11 -0.1962 -0.1154
-1 11 12 -0.3550 0.0140
-1 11 13 -0.4325 -0.1313
-1 11 14 -0.4818 0.0182
-1 11 15 -0.3468 -0.0537
-1 12 0 -0.2367 -0.0334
-1 12 1 -0.4106 0.0189
-1 12 2 -0.2857 -0.0336
-1 12 3 -0.7333 0.0219
-1 12 4 -0.3536 -0.0191
-1 12 5 -1.0033 0.0166
-1 12 6 -0.4287 0.0054
-1 12 7 -0.8387 0.0144
-1 12 8 -0.4154 0.0507
-1 12 9 -0.3731 0.0199
0 0 2 32.2880 -0.8163
0 0 6 14.8270 -1.6446
0 0 8 4.4057 -1.6050
0 0 10 -0.1906 -1.4826
0 0 12 0.2212 -1.4385
0 0 14 1.1533 -1.4805
0 0 16 0.6946 -1.5189
0 0 18 0.0273 -1.4996
0 0 20 -0.1521 -1.4392
0 0 22 -0.3114 -1.3549
0 0 24 -0.3822 -1.2167
0 0 26 0.0300 -0.9836
0 0 28 0.4832 -0.6653
0 1 2 3.5657 0.1026
0 1 3 -30.7952 -0.2283
0 1 4 4.9920 0.0510
0 1 5 -20.7147 0.0372
0 1 6 3.9715 -0.0067
0 1 7 -8.7843 0.0697
0 1 8 1.9158 -0.0317
0 1 9 -1.1674 -0.0168
0 1 10 0.3517 -0.0104
0 1 11 0.1259 -0.0695
0 1 12 -0.2211 0.0239
0 1 13 -1.0951 -0.0388
0 1 14 -0.1464 0.0296
0 1 15 -1.1435 0.0109
0 1 16 0.0973 0.0077
0 1 17 -0.2514 0.0175
0 1 18 0.2357 -0.0083
0 1 19 0.1584 -0.0000
0 1 20 0.1790 -0.0035
0 1 21 0.2076 0.0094
0 1 22 -0.0299 0.0046
0 1 23 0.3704 0.0380
0 1 24 -0.2644 -0.0044
0 1 25 0.2877 0.0162
0 1 26 -0.4156 -0.0332
0 1 27 -0.1577 -0.0949
0 1 28 -0.4481 -0.0644
0 1 29 -0.3717 -0.2356
0 2 0 29.5701 0.3078
0 2 1 -3.5550 0.0131
0 2 2 27.5957 0.3013
0 2 3 -8.3310 0.0140
0 2 4 21.2184 0.3149
0 2 5 -8.2479 0.0243
0 2 6 11.6255 0.3857
0 2 7 -4.8257 0.0244
0 2 8 3.5065 0.4822
0 2 9 -1.4072 -0.0035
0 2 10 0.5638 0.5312
0 2 11 0.0951 -0.0393
0 2 12 1.1759 0.5054
0 2 13 0.0299 -0.0418
0 2 14 1.4301 0.4570
0 2 15 -0.4216 -0.0094
0 2 16 0.3787 0.4517
0 2 17 -0.5869 0.0120
0 2 18 -0.3963 0.4895
0 2 19 -0.4414 -0.0061
0 2 20 -0.3689 0.5057
0 2 21 -0.1818 -0.0386
0 2 22 -0.3551 0.4481
0 2 23 0.0547 -0.0487
0 2 24 -0.5184 0.3400
0 2 25 0.2491 -0.0330
0 2 26 -0.3853 0.2534
0 2 27 0.4182 -0.0153
0 2 28 -0.0672 0.2201
0 2 29 0.4952 -0.0180
0 3 1 -10.3072 0.3315
0 3 2 6.6012 -0.0543
0 3 3 -9.8539 0.2607
0 3 4 8.8837 -0.0309
0 3 5 -7.4186 0.1978
0 3 6 6.5547 -0.0149
0 3 7 -3.6153 0.1476
0 3 8 2.8399 -0.0039
0 3 9 -1.2248 0.1315
0 3 10 0.6946 0.0069
0 3 11 -1.1130 0.1575
0 3 12 0.4610 0.0046
0 3 13 -1.3063 0.1995
0 3 14 0.8338 -0.0189
0 3 15 -0.5351 0.2179
0 3 16 0.8384 -0.0414
0 3 17 0.2293 0.1923
0 3 18 0.4698 -0.0383
0 3 19 0.2001 0.1403
0 3 20 0.1530 -0.0179
0 3 21 0.0948 0.1065
0 3 22 0.1720 -0.0043
0 3 23 0.4673 0.1225
0 3 24 0.4526 -0.0024
0 3 25 0.7864 0.1701
0 3 26 0.6498 -0.0032
0 3 27 0.6452 0.2039
0 3 28 0.5156 -0.0056
0 4 0 -0.8301 0.0010
0 4 1 -2.6116 -0.0455
0 4 2 0.1465 -0.0414
0 4 3 -6.0161 -0.0425
0 4 4 1.6288 -0.0846
0 4 5 -5.7957 -0.0352
0 4 6 1.6838 -0.1221
0 4 7 -3.4066 -0.0173
0 4 8 0.8210 -0.1570
0 4 9 -1.3707 0.0015
0 4 10 0.5551 -0.1917
0 4 11 -0.6654 0.0112
0 4 12 0.8108 -0.2174
0 4 13 -0.6322 0.0118
0 4 14 0.7331 -0.2266
0 4 15 -0.4967 0.0053
0 4 16 0.5623 -0.2186
0 4 17 -0.1597 -0.0051
0 4 18 0.8537 -0.1950
0 4 19 0.1039 -0.0057
0 4 20 1.0620 -0.1665
0 4 21 0.0226 0.0146
0 4 22 0.4726 -0.1563
0 4 23 -0.4982 0.0429
0 4 24 -0.4448 -0.1694
0 4 25 -1.1716 0.0546
0 4 26 -0.8104 -0.1763
0 4 27 -1.4250 0.0473
0 4 28 -0.6008 -0.1540
0 5 1 -0.6242 -0.2004
0 5 2 2.7895 0.0072
0 5 3 -1.7920 -0.1866
0 5 4 3.6445 0.0044
0 5 5 -2.4002 -0.1792
0 5 6 2.5778 0.0062
0 5 7 -1.7603 -0.1780
0 5 8 1.0939 0.0074
0 5 9 -0.9547 -0.1771
0 5 10 0.2890 0.0066
0 5 11 -0.7541 -0.1797
0 5 12 0.0773 0.0047
0 5 13 -0.7698 -0.1887
0 5 14 -0.0148 0.0066
0 5 15 -0.7868 -0.1963
0 5 16 -0.1265 0.0200
0 5 17 -1.1313 -0.1985
0 5 18 -0.1941 0.0411
0 5 19 -1.5513 -0.1988
0 5 20 -0.1688 0.0516
0 5 21 -1.2856 -0.1865
0 5 22 0.0608 0.0395
0 5 23 -0.3803 -0.1461
0 5 24 0.5300 0.0150
0 5 25 0.2982 -0.0971
0 5 26 0.9016 -0.0013
0 5 27 0.3547 -0.0808
0 6 0 0.8954 -0.0928
0 6 1 -0.5282 0.0583
0 6 2 1.5816 -0.0668
0 6 3 -1.1001 0.0508
0 6 4 2.6164 -0.0423
0 6 5 -0.7909 0.0313
0 6 6 2.5306 -0.0161
0 6 7 -0.1496 0.0112
0 6 8 1.4794 0.0071
0 6 9 0.1392 0.0000
0 6 10 0.5579 0.0278
0 6 11 0.0160 0.0007
0 6 12 0.1251 0.0494
0 6 13 -0.1656 0.0099
0 6 14 -0.0538 0.0605
0 6 15 -0.2140 0.0190
0 6 16 0.0520 0.0503
0 6 17 -0.1635 0.0185
0 6 18 0.4130 0.0358
0 6 19 -0.0478 0.0067
0 6 20 0.5343 0.0385
0 6 21 0.0670 -0.0073
0 6 22 0.1866 0.0454
0 6 23 0.0245 -0.0122
0 6 24 -0.1451 0.0340
0 6 25 -0.1581 -0.0071
0 6 26 -0.0842 0.0171
0 7 1 0.7562 0.0823
0 7 2 -0.0185 0.0208
0 7 3 -0.4350 0.1013
0 7 4 -0.0214 0.0208
0 7 5 -1.2364 0.1161
0 7 6 0.0180 0.0163
0 7 7 -0.7554 0.1271
0 7 8 0.1231 0.0037
0 7 9 0.2886 0.1375
0 7 10 0.2719 -0.0097
0 7 11 0.9546 0.1384
0 7 12 0.4018 -0.0129
0 7 13 1.1032 0.1292
0 7 14 0.4742 -0.0072
0 7 15 0.9177 0.1305
0 7 16 0.4745 -0.0061
0 7 17 0.5315 0.1498
0 7 18 0.3450 -0.0180
0 7 19 0.2625 0.1598
0 7 20 0.0605 -0.0361
0 7 21 0.3570 0.1402
0 7 22 -0.2101 -0.0475
0 7 23 0.5083 0.1101
0 7 24 -0.2306 -0.0455
0 8 0 -1.2240 0.1047
0 8 1 -0.0277 -0.0299
0 8 2 -0.6656 0.0892
0 8 3 -0.2129 -0.0212
0 8 4 0.2815 0.0784
0 8 5 -0.5398 -0.0165
0 8 6 0.5417 0.0762
0 8 7 -0.7071 -0.0121
0 8 8 0.1369 0.0673
0 8 9 -0.5623 -0.0047
0 8 10 -0.2401 0.0483
0 8 11 -0.3083 -0.0023
0 8 12 -0.3498 0.0393
0 8 13 -0.1900 -0.0122
0 8 14 -0.3425 0.0446
0 8 15 -0.2127 -0.0273
0 8 16 -0.2218 0.0392
0 8 17 -0.2055 -0.0340
0 8 18 -0.0365 0.0122
0 8 19 -0.0216 -0.0281
0 8 20 -0.0578 -0.0125
0 8 21 0.2983 -0.0167
0 8 22 -0.2908 -0.0144
0 8 23 0.5004 -0.0086
0 9 1 0.8996 -0.0142
0 9 2 0.0558 -0.0438
0 9 3 0.2553 -0.0253
0 9 4 0.2378 -0.0356
0 9 5 -0.3657 -0.0482
0 9 6 0.3603 -0.0163
0 9 7 -0.6616 -0.0693
0 9 8 0.2529 -0.0013
0 9 9 -0.8860 -0.0668
0 9 10 0.0876 0.0025
0 9 11 -1.0685 -0.0556
0 9 12 0.0733 0.0001
0 9 13 -0.9254 -0.0694
0 9 14 0.1197 -0.0013
0 9 15 -0.5266 -0.0995
0 9 16 0.0602 0.0021
0 9 17 -0.2577 -0.0993
0 9 18 -0.0725 0.0107
0 9 19 -0.1656 -0.0558
0 9 20 -0.1878 0.0211
0 9 21 -0.0157 -0.0118
0 10 0 -0.9000 -0.0863
0 10 1 0.0035 0.0049
0 10 2 -0.6616 -0.0894
0 10 3 -0.0264 0.0001
0 10 4 -0.2455 -0.0862
0 10 5 -0.0469 -0.0094
0 10 6 -0.0157 -0.0698
0 10 7 0.0311 -0.0117
0 10 8 0.1518 -0.0673
0 10 9 0.0600 -0.0017
0 10 10 0.4120 -0.0926
0 10 11 -0.1319 0.0141
0 10 12 0.5032 -0.1049
0 10 13 -0.3551 0.0255
0 10 14 0.2395 -0.0653
0 10 15 -0.3167 0.0258
0 10 16 -0.0723 -0.0070
0 10 17 -0.1258 0.0175
0 10 18 -0.1334 0.0039
0 11 1 0.3968 -0.0165
0 11 2 0.1395 0.0205
0 11 3 0.1918 -0.0011
0 11 4 0.1951 0.0172
0 11 5 0.1466 -0.0016
0 11 6 0.0893 0.0118
0 11 7 0.3165 -0.0150
0 11 8 -0.0411 0.0071
0 11 9 0.3997 0.0050
0 11 10 0.0727 0.0053
0 11 11 0.3384 0.0652
0 11 12 0.3782 0.0045
0 11 13 0.3555 0.1030
0 11 14 0.4950 0.0065
0 11 15 0.4301 0.0734
0 12 0 0.0087 0.1562
0 12 1 -0.0331 0.0102
0 12 2 0.1215 0.1448
0 12 3 -0.0532 0.0114
0 12 4 0.2395 0.1260
0 12 5 0.0488 0.0201
0 12 6 0.1149 0.1306
0 12 7 0.2109 0.0215
0 12 8 -0.0841 0.1295
0 12 9 0.1989 0.0045
0 12 10 -0.1149 0.0748
1 0 1 7.0670 0.0669
1 0 3 1.9950 0.0542
1 0 5 -3.1084 0.0527
1 0 7 -4.6421 0.0692
1 0 9 -3.1777 0.0914
1 0 11 -1.7849 0.1039
1 0 13 -1.6822 0.1099
1 0 15 -1.6287 0.1248
1 0 17 -0.8269 0.1444
1 0 19 -0.0980 0.1417
1 0 21 -0.1628 0.1081
1 0 23 -0.5845 0.0783
1 0 25 -0.7448 0.0906
1 0 27 -0.6293 0.1321
1 0 29 -0.3948 0.1480
1 1 1 6.5209 0.1110
1 1 2 -4.5754 -0.0484
1 1 3 9.1423 0.0668
1 1 4 0.5330 -0.0164
1 1 5 8.6393 0.0173
1 1 6 3.4397 0.0027
1 1 7 6.0245 -0.0006
1 1 8 2.7273 0.0051
1 1 9 3.0969 0.0161
1 1 10 0.8687 0.0058
1 1 11 0.9504 0.0400
1 1 12 0.3895 0.0145
1 1 13 -0.2324 0.0579
1 1 14 0.9192 0.0187
1 1 15 -0.5946 0.0698
1 1 16 0.9063 0.0061
1 1 17 -0.3201 0.0614
1 1 18 0.2998 -0.0079
1 1 19 0.2127 0.0235
1 1 20 0.1035 0.0026
1 1 21 0.4879 -0.0150
1 1 22 0.5124 0.0310
1 1 23 0.2893 -0.0159
1 1 24 0.8725 0.0378
1 1 25 -0.1049 0.0136
1 1 26 0.8338 0.0042
1 1 27 -0.3124 0.0338
1 1 28 0.5511 -0.0371
1 1 29 -0.2700 0.0342
1 2 1 5.4623 0.0330
1 2 2 -14.7372 -0.0730
1 2 3 2.7315 0.0114
1 2 4 -16.4439 -0.0665
1 2 5 0.1697 -0.0253
1 2 6 -12.5143 -0.0421
1 2 7 -0.1008 -0.0469
1 2 8 -6.6386 -0.0447
1 2 9 1.1135 -0.0410
1 2 10 -2.2198 -0.0616
1 2 11 1.4764 -0.0259
1 2 12 -0.1672 -0.0675
1 2 13 0.4476 -0.0226
1 2 14 0.3267 -0.0662
1 2 15 -0.4848 -0.0280
1 2 16 0.1124 -0.0653
1 2 17 -0.4137 -0.0268
1 2 18 -0.4087 -0.0563
1 2 19 -0.0636 -0.0186
1 2 20 -0.8579 -0.0405
1 2 21 -0.2217 -0.0164
1 2 22 -0.8506 -0.0327
1 2 23 -0.6230 -0.0243
1 2 24 -0.4324 -0.0252
1 2 25 -0.7171 -0.0342
1 2 26 -0.0402 0.0055
1 2 27 -0.4973 -0.0396
1 2 28 0.0656 0.0444
1 3 1 9.2048 -0.0674
1 3 2 -4.1155 0.0275
1 3 3 13.4946 -0.0263
1 3 4 -3.3531 0.0147
1 3 5 11.6653 -0.0400
1 3 6 -2.6045 0.0102
1 3 7 6.3568 -0.0590
1 3 8 -2.2457 -0.0041
1 3 9 1.8562 -0.0628
1 3 10 -1.6325 -0.0313
1 3 11 0.1237 -0.0670
1 3 12 -0.4268 -0.0475
1 3 13 0.2476 -0.0761
1 3 14 0.5562 -0.0331
1 3 15 0.6357 -0.0810
1 3 16 0.5606 -0.0005
1 3 17 0.6989 -0.0799
1 3 18 0.0584 0.0198
1 3 19 0.6060 -0.0670
1 3 20 -0.0653 0.0107
1 3 21 0.4617 -0.0291
1 3 22 0.1999 -0.0179
1 3 23 0.2582 0.0159
1 3 24 0.2646 -0.0398
1 3 25 0.1346 0.0147
1 3 26 -0.0037 -0.0338
1 3 27 0.1799 -0.0470
1 3 28 -0.2035 -0.0034
1 4 1 2.6292 0.0022
1 4 2 -4.5934 -0.0085
1 4 3 2.7972 0.0176
1 4 4 -5.0107 0.0199
1 4 5 2.4877 0.0250
1 4 6 -2.7345 0.0431
1 4 7 1.7649 0.0192
1 4 8 -0.2682 0.0501
1 4 9 0.8077 0.0117
1 4 10 0.4730 0.0513
1 4 11 -0.1837 0.0097
1 4 12 -0.2283 0.0512
1 4 13 -0.7567 0.0085
1 4 14 -0.9690 0.0464
1 4 15 -0.5654 0.0022
1 4 16 -0.9786 0.0475
1 4 17 0.0077 -0.0085
1 4 18 -0.4719 0.0644
1 4 19 0.1905 -0.0175
1 4 20 0.1065 0.0761
1 4 21 -0.1659 -0.0160
1 4 22 0.5092 0.0569
1 4 23 -0.4377 -0.0018
1 4 24 0.5679 0.0241
1 4 25 -0.1621 0.0136
1 4 26 0.2726 0.0143
1 4 27 0.3586 0.0122
1 5 1 1.1921 0.0890
1 5 2 -0.0796 -0.0377
1 5 3 2.4143 0.0634
1 5 4 -0.4207 -0.0243
1 5 5 2.2294 0.0595
1 5 6 -0.7842 -0.0023
1 5 7 1.2088 0.0772
1 5 8 -0.7377 0.0213
1 5 9 0.5747 0.0925
1 5 10 -0.2370 0.0367
1 5 11 0.7126 0.0930
1 5 12 0.3440 0.0352
1 5 13 1.0643 0.0942
1 5 14 0.5171 0.0155
1 5 15 1.0602 0.1068
1 5 16 0.1972 -0.0114
1 5 17 0.6690 0.1154
1 5 18 -0.1633 -0.0275
1 5 19 0.1246 0.1043
1 5 20 -0.1049 -0.0239
1 5 21 -0.3891 0.0801
1 5 22 0.2788 -0.0089
1 5 23 -0.6716 0.0524
1 5 24 0.4833 0.0035
1 5 25 -0.5527 0.0242
1 5 26 0.2379 0.0077
1 6 1 -1.2153 -0.0249
1 6 2 -1.7289 0.0703
1 6 3 -0.8275 -0.0313
1 6 4 -2.4102 0.0604
1 6 5 0.2665 -0.0343
1 6 6 -2.2951 0.0301
1 6 7 1.0360 -0.0273
1 6 8 -1.8330 -0.0035
1 6 9 0.8955 -0.0131
1 6 10 -1.4805 -0.0139
1 6 11 0.1152 0.0009
1 6 12 -1.2755 -0.0014
1 6 13 -0.6054 0.0097
1 6 14 -1.0375 0.0081
1 6 15 -0.7754 0.0107
1 6 16 -0.6939 -0.0013
1 6 17 -0.4071 0.0066
1 6 18 -0.3018 -0.0222
1 6 19 0.1023 0.0062
1 6 20 0.0718 -0.0410
1 6 21 0.3260 0.0169
1 6 22 0.3248 -0.0461
1 6 23 0.1633 0.0322
1 6 24 0.3179 -0.0255
1 6 25 -0.1095 0.0359
1 7 1 0.3379 -0.0476
1 7 2 0.4958 0.0159
1 7 3 0.5673 -0.0592
1 7 4 -0.1683 0.0108
1 7 5 0.7404 -0.0627
1 7 6 -0.7771 -0.0051
1 7 7 0.8226 -0.0568
1 7 8 -0.6465 -0.0211
1 7 9 0.7513 -0.0543
1 7 10 0.0856 -0.0285
1 7 11 0.5597 -0.0691
1 7 12 0.7659 -0.0262
1 7 13 0.3861 -0.0938
1 7 14 0.9814 -0.0124
1 7 15 0.2881 -0.1126
1 7 16 0.7594 0.0144
1 7 17 0.1630 -0.1246
1 7 18 0.2838 0.0437
1 7 19 -0.0807 -0.1311
1 7 20 -0.2309 0.0533
1 7 21 -0.3354 -0.1163
1 7 22 -0.5145 0.0340
1 7 23 -0.3772 -0.0717
1 7 24 -0.4285 0.0054
1 8 1 -0.2846 0.0362
1 8 2 -0.4743 -0.0991
1 8 3 -0.0458 0.0336
1 8 4 -0.3532 -0.0859
1 8 5 0.3180 0.0365
1 8 6 -0.4969 -0.0690
1 8 7 0.3324 0.0342
1 8 8 -0.5584 -0.0610
1 8 9 -0.1230 0.0187
1 8 10 -0.3145 -0.0547
1 8 11 -0.5991 0.0011
1 8 12 -0.0347 -0.0455
1 8 13 -0.6707 -0.0033
1 8 14 -0.0492 -0.0473
1 8 15 -0.4073 0.0029
1 8 16 -0.2441 -0.0555
1 8 17 -0.0973 0.0028
1 8 18 -0.2520 -0.0348
1 8 19 0.1513 -0.0105
1 8 20 0.0093 0.0186
1 8 21 0.3265 -0.0248
1 8 22 0.2447 0.0474
1 9 1 1.2032 -0.0096
1 9 2 0.3576 0.0199
1 9 3 0.9405 0.0035
1 9 4 0.2568 0.0225
1 9 5 0.9632 -0.0056
1 9 6 0.0580 0.0221
1 9 7 1.1104 -0.0039
1 9 8 0.1021 0.0256
1 9 9 1.0156 0.0136
1 9 10 0.3833 0.0310
1 9 11 0.7183 0.0232
1 9 12 0.4799 0.0270
1 9 13 0.5663 0.0367
1 9 14 0.1735 0.0065
1 9 15 0.6368 0.0869
1 9 16 -0.2530 -0.0233
1 9 17 0.6451 0.1415
1 9 18 -0.4489 -0.0457
1 9 19 0.4162 0.1225
1 9 20 -0.3801 -0.0491
1 10 1 -0.0964 -0.0257
1 10 2 -0.4607 0.0552
1 10 3 -0.4433 -0.0287
1 10 4 -0.3666 0.0753
1 10 5 -0.5213 -0.0231
1 10 6 -0.5179 0.0850
1 10 7 -0.4278 -0.0150
1 10 8 -0.6649 0.0641
1 10 9 -0.4898 -0.0105
1 10 10 -0.6278 0.0582
1 10 11 -0.6222 -0.0130
1 10 12 -0.5106 0.0955
1 10 13 -0.4600 -0.0202
1 10 14 -0.4266 0.1131
1 10 15 -0.0201 -0.0204
1 10 16 -0.3044 0.0557
1 10 17 0.2804 -0.0045
1 11 1 -0.0831 0.0810
1 11 2 0.4725 -0.0325
1 11 3 -0.0566 0.0542
1 11 4 0.6001 -0.0358
1 11 5 0.1125 0.0351
1 11 6 0.3758 -0.0455
1 11 7 0.3075 0.0649
1 11 8 0.1301 -0.0550
1 11 9 0.3409 0.1102
1 11 10 0.1999 -0.0528
1 11 11 0.1957 0.0831
1 11 12 0.3723 -0.0277
1 11 13 -0.0178 -0.0140
1 11 14 0.3121 0.0106
1 12 1 -0.4112 -0.0042
1 12 2 0.1453 0.0289
1 12 3 -0.5174 -0.0124
1 12 4 -0.0482 0.0373
1 12 5 -0.2711 -0.0162
1 12 6 -0.3025 0.0137
1 12 7 0.2320 -0.0092
1 12 8 -0.4848 -0.0775
1 12 9 0.4418 0.0107
2 0 2 9.6872 0.7242
2 0 4 8.5556 1.3801
2 0 6 3.3992 1.5931
2 0 8 -1.9418 1.5881
2 0 10 -3.8715 1.5294
2 0 12 -2.6421 1.4490
2 0 14 -1.2975 1.3676
2 0 16 -1.2984 1.2995
2 0 18 -1.3625 1.2150
2 0 20 -0.5264 1.1202
2 0 22 0.3222 1.0860
2 0 24 0.4374 1.1014
2 0 26 0.3667 1.0117
2 0 28 0.4985 0.7182
2 1 2 -0.0883 -0.1255
2 1 3 -7.7248 0.1280
2 1 4 1.2184 -0.0684
2 1 5 -4.6651 -0.0678
2 1 6 1.2633 -0.0069
2 1 7 0.1924 -0.0592
2 1 8 0.2832 0.0227
2 1 9 3.1578 -0.0210
2 1 10 -0.5373 0.0194
2 1 11 2.7707 0.0070
2 1 12 -0.6068 0.0045
2 1 13 1.1489 0.0293
2 1 14 -0.3427 -0.0062
2 1 15 0.7379 0.0244
2 1 16 -0.2748 -0.0105
2 1 17 1.1944 0.0067
2 1 18 -0.3640 -0.0094
2 1 19 0.9414 0.0181
2 1 20 -0.2871 -0.0063
2 1 21 0.0777 0.0345
2 1 22 0.0548 -0.0113
2 1 23 -0.2608 0.0006
2 1 24 0.4881 -0.0245
2 1 25 -0.0850 -0.0522
2 1 26 0.7738 -0.0208
2 1 27 -0.1359 -0.0432
2 1 28 0.7503 0.0174
2 2 2 3.5158 -0.2125
2 2 3 -0.8718 -0.0228
2 2 4 3.3021 -0.2787
2 2 5 -1.4240 -0.0375
2 2 6 0.9653 -0.4100
2 2 7 -0.2702 -0.0271
2 2 8 -1.3953 -0.4858
2 2 9 0.9572 -0.0000
2 2 10 -1.7373 -0.4887
2 2 11 0.8716 0.0241
2 2 12 -0.4983 -0.4729
2 2 13 -0.0437 0.0395
2 2 14 0.1770 -0.4460
2 2 15 -0.5203 0.0472
2 2 16 -0.3758 -0.3937
2 2 17 -0.2863 0.0408
2 2 18 -0.7764 -0.3481
2 2 19 -0.0483 0.0219
2 2 20 -0.2722 -0.3452
2 2 21 -0.2561 0.0160
2 2 22 0.2016 -0.3691
2 2 23 -0.6467 0.0473
2 2 24 -0.0012 -0.3918
2 2 25 -0.8110 0.0964
2 2 26 -0.2431 -0.4005
2 2 27 -0.6408 0.1130
2 3 2 -0.1670 0.0674
2 3 3 -1.0706 -0.2745
2 3 4 1.2028 0.0656
2 3 5 -1.1660 -0.1794
2 3 6 0.9113 0.0354
2 3 7 -0.0733 -0.1196
2 3 8 -0.3144 -0.0025
2 3 9 0.8653 -0.1227
2 3 10 -0.6564 -0.0138
2 3 11 0.6171 -0.1442
2 3 12 0.2382 0.0025
2 3 13 -0.0741 -0.1494
2 3 14 1.0544 0.0178
2 3 15 -0.0339 -0.1490
2 3 16 0.9021 0.0204
2 3 17 0.4225 -0.1503
2 3 18 0.3730 0.0286
2 3 19 0.3163 -0.1433
2 3 20 0.3405 0.0520
2 3 21 -0.1772 -0.1262
2 3 22 0.7347 0.0651
2 3 23 -0.2409 -0.0940
2 3 24 0.9325 0.0387
2 3 25 0.0530 -0.0297
2 3 26 0.6775 -0.0169
2 3 27 0.1007 0.0462
2 4 2 0.2388 0.0336
2 4 3 -0.9363 0.0448
2 4 4 0.4866 0.0707
2 4 5 -1.8656 0.0354
2 4 6 0.1450 0.1033
2 4 7 -1.1814 0.0362
2 4 8 -0.8289 0.1432
2 4 9 -0.0538 0.0282
2 4 10 -1.4636 0.1773
2 4 11 0.1090 -0.0014
2 4 12 -1.1904 0.1922
2 4 13 -0.4947 -0.0327
2 4 14 -0.6621 0.1931
2 4 15 -0.7418 -0.0369
2 4 16 -0.5142 0.1810
2 4 17 -0.3601 -0.0154
2 4 18 -0.4541 0.1535
2 4 19 -0.0414 0.0006
2 4 20 -0.1671 0.1335
2 4 21 -0.1839 -0.0108
2 4 22 0.0235 0.1459
2 4 23 -0.4617 -0.0389
2 4 24 -0.0668 0.1659
2 4 25 -0.5186 -0.0554
2 4 26 -0.0931 0.1464
2 5 2 0.3573 -0.0198
2 5 3 -0.4122 0.2068
2 5 4 1.4063 -0.0180
2 5 5 -0.4779 0.1894
2 5 6 1.4493 -0.0147
2 5 7 -0.2458 0.1603
2 5 8 0.4679 -0.0131
2 5 9 0.5234 0.1430
2 5 10 -0.3168 -0.0116
2 5 11 1.0736 0.1461
2 5 12 -0.1428 -0.0110
2 5 13 0.9344 0.1482
2 5 14 0.3950 -0.0164
2 5 15 0.5120 0.1352
2 5 16 0.4494 -0.0310
2 5 17 0.2197 0.1272
2 5 18 0.0762 -0.0499
2 5 19 0.0368 0.1370
2 5 20 -0.1969 -0.0613
2 5 21 -0.0251 0.1399
2 5 22 -0.2456 -0.0567
2 5 23 0.1095 0.1148
2 5 24 -0.2365 -0.0387
2 5 25 0.2198 0.0792
2 6 2 0.0618 0.0730
2 6 3 -0.2307 -0.0473
2 6 4 0.3898 0.0448
2 6 5 -0.4710 -0.0393
2 6 6 1.1830 0.0298
2 6 7 -0.3866 -0.0310
2 6 8 1.2188 0.0205
2 6 9 -0.0969 -0.0252
2 6 10 0.4658 -0.0053
2 6 11 -0.1248 -0.0193
2 6 12 -0.0635 -0.0445
2 6 13 -0.4550 -0.0133
2 6 14 0.0568 -0.0675
2 6 15 -0.5143 -0.0100
2 6 16 0.3647 -0.0642
2 6 17 -0.1357 -0.0099
2 6 18 0.4804 -0.0540
2 6 19 0.2120 -0.0109
2 6 20 0.4277 -0.0472
2 6 21 0.2500 -0.0102
2 6 22 0.2606 -0.0353
2 6 23 0.2258 -0.0038
2 6 24 0.0429 -0.0225
2 7 2 0.3288 -0.0172
2 7 3 0.2782 -0.1155
2 7 4 0.1840 -0.0051
2 7 5 -0.2476 -0.1055
2 7 6 0.3667 -0.0029
2 7 7 -0.6959 -0.1029
2 7 8 0.4655 -0.0047
2 7 9 -0.2928 -0.1073
2 7 10 0.4120 -0.0008
2 7 11 0.2808 -0.1015
2 7 12 0.4275 0.0112
2 7 13 0.2057 -0.0897
2 7 14 0.4064 0.0247
2 7 15 -0.2269 -0.0889
2 7 16 0.1037 0.0314
2 7 17 -0.3589 -0.0923
2 7 18 -0.2474 0.0337
2 7 19 -0.2021 -0.0846
2 7 20 -0.2165 0.0427
2 7 21 -0.1146 -0.0781
2 7 22 0.0855 0.0592
2 7 23 -0.1354 -0.0901
2 8 2 -0.0831 -0.0882
2 8 3 -0.2693 0.0192
2 8 4 -0.1408 -0.0922
2 8 5 -0.3073 0.0091
2 8 6 0.1892 -0.0887
2 8 7 -0.3686 0.0139
2 8 8 -0.0358 -0.0653
2 8 9 -0.1529 0.0275
2 8 10 -0.6749 -0.0420
2 8 11 0.0523 0.0372
2 8 12 -0.8279 -0.0292
2 8 13 -0.0599 0.0395
2 8 14 -0.4043 -0.0055
2 8 15 -0.2082 0.0401
2 8 16 -0.1452 0.0315
2 8 17 -0.0664 0.0403
2 8 18 -0.3134 0.0397
2 8 19 0.1185 0.0309
2 8 20 -0.4326 0.0000
2 8 21 0.0091 0.0069
2 9 2 -0.2418 0.0232
2 9 3 0.0211 0.0379
2 9 4 -0.2161 0.0239
2 9 5 -0.5878 0.0502
2 9 6 -0.0177 0.0204
2 9 7 -0.8780 0.0390
2 9 8 -0.0083 0.0149
2 9 9 -0.4598 0.0311
2 9 10 -0.1766 0.0125
2 9 11 -0.0118 0.0557
2 9 12 -0.1021 0.0093
2 9 13 -0.0699 0.0831
2 9 14 0.2429 -0.0016
2 9 15 -0.2158 0.0585
2 9 16 0.3931 -0.0169
2 9 17 0.0221 -0.0030
2 9 18 0.2037 -0.0241
2 9 19 0.3495 -0.0246
2 10 2 -0.0933 0.0827
2 10 3 -0.0200 -0.0013
2 10 4 0.2894 0.0655
2 10 5 -0.1096 0.0053
2 10 6 0.7547 0.0728
2 10 7 -0.2139 0.0110
2 10 8 0.7145 0.0893
2 10 9 -0.1411 -0.0020
2 10 10 0.4110 0.0642
2 10 11 -0.0544 -0.0324
2 10 12 0.4186 -0.0116
2 10 13 -0.1716 -0.0561
2 10 14 0.6134 -0.0667
2 10 15 -0.3123 -0.0553
2 10 16 0.4729 -0.0358
2 11 2 0.5335 -0.0089
2 11 3 0.0525 0.0276
2 11 4 0.5766 -0.0070
2 11 5 -0.0954 0.0100
2 11 6 0.5833 -0.0211
2 11 7 -0.0594 -0.0476
2 11 8 0.4887 -0.0332
2 11 9 0.1839 -0.0929
2 11 10 0.2994 -0.0244
2 11 11 0.2104 -0.0641
2 11 12 0.1744 -0.0031
2 12 2 -0.3648 -0.1395
2 12 3 -0.2509 -0.0233
2 12 4 -0.2524 -0.1343
2 12 5 -0.4113 -0.0161
2 12 6 -0.1056 -0.0699
3 0 3 0.2478 -0.1207
3 0 5 -1.0117 -0.1187
3 0 7 -1.7883 -0.1111
3 0 9 -1.1875 -0.1056
3 0 11 -0.0402 -0.0985
3 0 13 0.3802 -0.0942
3 0 15 0.1503 -0.0988
3 0 17 0.1410 -0.1062
3 0 19 0.3666 -0.1131
3 0 21 0.1776 -0.1291
3 0 23 -0.3516 -0.1505
3 0 25 -0.5178 -0.1453
3 1 3 0.9399 -0.0920
3 1 4 0.3062 0.0612
3 1 5 1.4630 0.0115
3 1 6 1.1607 0.0167
3 1 7 0.8551 0.0772
3 1 8 1.1428 -0.0177
3 1 9 -0.1436 0.0650
3 1 10 0.2824 -0.0305
3 1 11 -0.7986 -0.0089
3 1 12 -0.2968 -0.0253
3 1 13 -0.9731 -0.0659
3 1 14 -0.1110 -0.0115
3 1 15 -0.9238 -0.0576
3 1 16 0.1126 -0.0049
3 1 17 -0.8152 -0.0259
3 1 18 -0.1124 -0.0129
3 1 19 -0.6092 -0.0298
3 1 20 -0.2292 -0.0203
3 1 21 -0.3038 -0.0562
3 1 22 0.1888 -0.0120
3 1 23 -0.0427 -0.0546
3 1 24 0.5824 -0.0012
3 1 25 0.0569 -0.0191
3 1 26 0.3854 -0.0086
3 2 3 0.0360 -0.0084
3 2 4 -1.3956 0.0651
3 2 5 -0.3452 0.0180
3 2 6 -1.3259 0.0628
3 2 7 -0.5752 0.0435
3 2 8 -0.2502 0.0443
3 2 9 -0.2584 0.0533
3 2 10 0.6393 0.0592
3 2 11 0.1526 0.0429
3 2 12 0.8469 0.0938
3 2 13 0.0684 0.0191
3 2 14 0.7425 0.0986
3 2 15 -0.2318 0.0031
3 2 16 0.7291 0.0712
3 2 17 -0.1207 0.0127
3 2 18 0.7147 0.0515
3 2 19 0.2285 0.0354
3 2 20 0.4619 0.0495
3 2 21 0.1471 0.0418
3 2 22 0.0789 0.0374
3 2 23 -0.3243 0.0267
3 2 24 -0.1213 0.0103
3 2 25 -0.4855 0.0146
3 2 26 -0.0735 -0.0049
3 3 3 -0.3837 0.0633
3 3 4 0.3094 -0.0486
3 3 5 0.3586 -0.0164
3 3 6 0.5300 -0.0150
3 3 7 0.0600 -0.0096
3 3 8 0.4132 0.0150
3 3 9 -0.4758 0.0267
3 3 10 -0.0091 0.0296
3 3 11 -0.4748 0.0447
3 3 12 -0.2808 0.0364
3 3 13 -0.0988 0.0510
3 3 14 -0.1733 0.0413
3 3 15 0.0436 0.0586
3 3 16 -0.0377 0.0381
3 3 17 -0.1571 0.0593
3 3 18 -0.1860 0.0249
3 3 19 -0.2518 0.0572
3 3 20 -0.3666 0.0113
3 3 21 0.0139 0.0748
3 3 22 -0.2358 0.0027
3 3 23 0.3416 0.1020
3 3 24 0.0615 -0.0063
3 3 25 0.3757 0.0910
3 3 26 0.1832 -0.0147
3 4 3 -0.7829 -0.0100
3 4 4 0.3139 0.0325
3 4 5 -0.9394 -0.0279
3 4 6 0.2461 -0.0136
3 4 7 -0.6221 -0.0409
3 4 8 0.6445 -0.0625
3 4 9 -0.0526 -0.0361
3 4 10 0.7552 -0.0826
3 4 11 0.4160 -0.0185
3 4 12 0.2890 -0.0876
3 4 13 0.4902 0.0025
3 4 14 -0.2338 -0.0961
3 4 15 0.2253 0.0196
3 4 16 -0.2627 -0.0894
3 4 17 -0.0077 0.0242
3 4 18 0.0487 -0.0500
3 4 19 0.0416 0.0138
3 4 20 0.1507 -0.0082
3 4 21 0.2466 0.0057
3 4 22 -0.1073 -0.0038
3 4 23 0.3443 0.0209
3 4 24 -0.3679 -0.0248
3 4 25 0.2480 0.0500
3 5 3 0.2701 -0.0875
3 5 4 1.0163 0.0465
3 5 5 0.3660 -0.0518
3 5 6 0.5809 0.0197
3 5 7 -0.0748 -0.0368
3 5 8 0.0238 -0.0145
3 5 9 -0.5630 -0.0609
3 5 10 -0.1838 -0.0323
3 5 11 -0.5299 -0.1010
3 5 12 -0.0433 -0.0308
3 5 13 -0.0693 -0.1106
3 5 14 0.1849 -0.0275
3 5 15 0.2254 -0.0840
3 5 16 0.2957 -0.0281
3 5 17 0.0574 -0.0629
3 5 18 0.2056 -0.0176
3 5 19 -0.2494 -0.0728
3 5 20 -0.0610 0.0079
3 5 21 -0.2836 -0.0897
3 5 22 -0.3487 0.0245
3 5 23 -0.0779 -0.0804
3 5 24 -0.4576 0.0130
3 6 3 -0.6738 0.0258
3 6 4 -0.3947 -0.0812
3 6 5 -0.3883 0.0311
3 6 6 -0.3378 -0.0521
3 6 7 0.1517 0.0458
3 6 8 -0.0433 -0.0184
3 6 9 0.2888 0.0504
3 6 10 0.0988 0.0184
3 6 11 -0.0618 0.0284
3 6 12 -0.0482 0.0462
3 6 13 -0.4148 -0.0085
3 6 14 -0.2400 0.0507
3 6 15 -0.4467 -0.0348
3 6 16 -0.2220 0.0334
3 6 17 -0.2773 -0.0422
3 6 18 -0.0641 0.0077
3 6 19 -0.0873 -0.0414
3 6 20 0.0050 -0.0173
3 6 21 0.1104 -0.0404
3 6 22 -0.0376 -0.0394
3 6 23 0.2741 -0.0378
3 7 3 0.0359 0.0528
3 7 4 0.0994 -0.0115
3 7 5 -0.0467 0.0533
3 7 6 -0.3311 0.0041
3 7 7 -0.2415 0.0490
3 7 8 -0.6947 0.0169
3 7 9 -0.2879 0.0671
3 7 10 -0.5797 0.0228
3 7 11 -0.1217 0.1036
3 7 12 -0.1921 0.0217
3 7 13 0.0790 0.1216
3 7 14 0.0468 0.0130
3 7 15 0.1600 0.0976
3 7 16 0.1207 -0.0011
3 7 17 0.1742 0.0504
3 7 18 0.2351 -0.0151
3 7 19 0.2463 0.0183
3 7 20 0.3201 -0.0249
3 7 21 0.3344 0.0215
3 8 3 0.2632 -0.0323
3 8 4 -0.1595 0.0871
3 8 5 0.2874 -0.0262
3 8 6 0.2823 0.0928
3 8 7 0.4539 -0.0309
3 8 8 0.5193 0.1027
3 8 9 0.4650 -0.0425
3 8 10 0.3904 0.0728
3 8 11 0.2104 -0.0430
3 8 12 0.1478 0.0244
3 8 13 0.0101 -0.0207
3 8 14 0.0683 0.0131
3 8 15 0.0483 0.0149
3 8 16 0.1161 0.0513
3 8 17 0.0620 0.0424
3 8 18 0.0846 0.1025
3 8 19 -0.1307 0.0478
3 9 3 0.1533 0.0433
3 9 4 0.1141 -0.0207
3 9 5 -0.0849 0.0243
3 9 6 0.4515 -0.0386
3 9 7 -0.2050 -0.0183
3 9 8 0.4571 -0.0401
3 9 9 0.0659 -0.0416
3 9 10 0.4011 -0.0244
3 9 11 0.4665 -0.0392
3 9 12 0.3364 -0.0034
3 9 13 0.5298 -0.0538
3 9 14 0.0550 0.0126
3 9 15 0.2117 -0.0952
3 9 16 -0.3391 0.0201
3 9 17 -0.0997 -0.1188
3 10 3 -0.0452 0.0129
3 10 4 0.2572 -0.0941
3 10 5 -0.6829 0.0115
3 10 6 0.4200 -0.0897
3 10 7 -0.7003 0.0151
3 10 8 0.1027 -0.1076
3 10 9 -0.2512 0.0257
3 10 10 -0.6176 -0.1513
3 10 11 0.1252 0.0348
3 10 12 -1.1107 -0.1592
3 10 13 0.2844 0.0275
3 10 14 -0.9579 -0.0904
3 11 3 0.0790 -0.1698
3 11 4 -0.0409 0.0371
3 11 5 -0.3964 -0.1570
3 11 6 0.0596 0.0493
3 11 7 -0.6494 -0.1175
3 11 8 -0.3227 0.0500
3 11 9 -0.2996 -0.0196
3 11 10 -0.7095 0.0314
4 0 4 1.4755 -0.2943
4 0 6 1.0535 -1.0423
4 0 8 0.2382 -1.3773
4 0 10 -0.1062 -1.3243
4 0 12 0.0425 -1.1586
4 0 14 0.0784 -1.0720
4 0 16 -0.1911 -1.0485
4 0 18 -0.2761 -1.0190
4 0 20 0.1048 -0.9651
4 0 22 0.5184 -0.8478
4 0 24 0.5460 -0.6010
4 1 4 0.2667 0.1098
4 1 5 -1.0766 -0.2488
4 1 6 0.0844 0.0546
4 1 7 -0.5025 0.0530
4 1 8 -0.3137 -0.0012
4 1 9 0.0343 0.0771
4 1 10 -0.4230 -0.0215
4 1 11 0.0790 -0.0188
4 1 12 -0.1239 -0.0118
4 1 13 -0.0545 -0.0530
4 1 14 0.1537 0.0066
4 1 15 0.0632 -0.0111
4 1 16 0.0719 0.0170
4 1 17 0.2645 0.0233
4 1 18 -0.1647 0.0105
4 1 19 0.1230 0.0220
4 1 20 -0.1831 -0.0020
4 1 21 -0.2608 0.0070
4 1 22 0.0132 0.0022
4 1 23 -0.4230 -0.0316
4 1 24 0.1347 0.0219
4 1 25 -0.3124 -0.1048
4 2 4 0.1630 0.1868
4 2 5 -0.2023 0.0195
4 2 6 0.1995 0.1876
4 2 7 0.2424 0.0325
4 2 8 -0.0458 0.2686
4 2 9 0.7276 0.0189
4 2 10 -0.1701 0.3684
4 2 11 0.6521 -0.0144
4 2 12 -0.1015 0.3949
4 2 13 0.2373 -0.0393
4 2 14 -0.0636 0.3540
4 2 15 0.0868 -0.0405
4 2 16 -0.1370 0.3259
4 2 17 0.2429 -0.0243
4 2 18 -0.1136 0.3356
4 2 19 0.2262 -0.0121
4 2 20 0.0807 0.3245
4 2 21 -0.1173 -0.0291
4 2 22 0.1794 0.2539
4 2 23 -0.3801 -0.0749
4 2 24 0.0510 0.1577
4 3 4 -0.0060 -0.0462
4 3 5 0.6450 0.2375
4 3 6 -0.2479 -0.0432
4 3 7 0.3264 0.1702
4 3 8 -0.8287 -0.0331
4 3 9 0.1168 0.0990
4 3 10 -1.0737 -0.0134
4 3 11 0.0813 0.0791
4 3 12 -0.7911 -0.0012
4 3 13 0.1391 0.1140
4 3 14 -0.4329 -0.0106
4 3 15 0.1705 0.1442
4 3 16 -0.3066 -0.0340
4 3 17 0.0913 0.1289
4 3 18 -0.1522 -0.0477
4 3 19 -0.0855 0.0961
4 3 20 0.2802 -0.0301
4 3 21 -0.1791 0.0897
4 3 22 0.6848 0.0154
4 3 23 -0.0382 0.1057
4 3 24 0.6300 0.0498
4 4 4 -0.8794 -0.0294
4 4 5 0.7749 -0.0407
4 4 6 -0.5027 -0.0563
4 4 7 1.1152 -0.0220
4 4 8 0.0684 -0.0645
4 4 9 1.0707 -0.0107
4 4 10 0.2810 -0.0799
4 4 11 0.6022 -0.0132
4 4 12 0.0667 -0.1143
4 4 13 0.0705 -0.0150
4 4 14 -0.1763 -0.1461
4 4 15 -0.1853 -0.0023
4 4 16 -0.1601 -0.1525
4 4 17 -0.2338 0.0208
4 4 18 0.0495 -0.1403
4 4 19 -0.3544 0.0346
4 4 20 0.2292 -0.1275
4 4 21 -0.5557 0.0232
4 4 22 0.2179 -0.1096
4 4 23 -0.5592 -0.0010
4 5 4 -1.0780 0.0168
4 5 5 0.4091 -0.1447
4 5 6 -1.3213 0.0103
4 5 7 0.0886 -0.1411
4 5 8 -0.8613 0.0082
4 5 9 -0.3150 -0.1246
4 5 10 -0.0903 0.0144
4 5 11 -0.3070 -0.1013
4 5 12 0.4354 0.0227
4 5 13 -0.0645 -0.0913
4 5 14 0.5513 0.0286
4 5 15 -0.0000 -0.1089
4 5 16 0.4629 0.0339
4 5 17 -0.1374 -0.1402
4 5 18 0.3765 0.0409
4 5 19 -0.2446 -0.1501
4 5 20 0.3140 0.0494
4 5 21 -0.2228 -0.1217
4 5 22 0.2023 0.0554
4 6 4 -0.5020 -0.0321
4 6 5 0.6839 0.0407
4 6 6 -0.9125 -0.0094
4 6 7 0.4253 0.0268
4 6 8 -0.6191 0.0019
4 6 9 -0.1336 0.0102
4 6 10 -0.1876 0.0069
4 6 11 -0.2830 0.0087
4 6 12 -0.0051 0.0026
4 6 13 0.0359 0.0266
4 6 14 0.0658 -0.0074
4 6 15 0.2590 0.0431
4 6 16 0.1456 -0.0015
4 6 17 0.0954 0.0333
4 6 18 0.1331 0.0296
4 6 19 -0.1640 -0.0017
4 6 20 0.0360 0.0592
4 6 21 -0.1959 -0.0345
4 7 4 0.1857 0.0210
4 7 5 1.2278 0.0805
4 7 6 -0.0176 0.0075
4 7 7 1.4028 0.0990
4 7 8 0.1726 -0.0023
4 7 9 0.9611 0.0832
4 7 10 0.2098 -0.0002
4 7 11 0.4776 0.0420
4 7 12 -0.1896 -0.0009
4 7 13 0.1865 0.0285
4 7 14 -0.5226 -0.0202
4 7 15 0.0441 0.0622
4 7 16 -0.3263 -0.0472
4 7 17 0.0726 0.0981
4 7 18 0.1121 -0.0556
4 7 19 0.1982 0.0933
4 8 4 -0.3358 0.0561
4 8 5 0.0693 -0.0406
4 8 6 -0.6493 0.0148
4 8 7 -0.0518 -0.0111
4 8 8 -0.5657 -0.0224
4 8 9 -0.3238 0.0057
4 8 10 -0.3310 -0.0111
4 8 11 -0.3178 -0.0090
4 8 12 -0.1378 0.0358
4 8 13 -0.1364 -0.0358
4 8 14 0.0376 0.0656
4 8 15 -0.1887 -0.0453
4 8 16 0.0932 0.0603
4 8 17 -0.4164 -0.0353
4 9 4 -0.2529 -0.0331
4 9 5 -0.2061 -0.0687
4 9 6 -0.1044 -0.0251
4 9 7 -0.3590 -0.0611
4 9 8 0.1020 -0.0179
4 9 9 -0.4223 -0.0253
4 9 10 0.1565 -0.0051
4 9 11 -0.3222 0.0081
4 9 12 0.0350 0.0115
4 9 13 -0.2713 0.0215
4 9 14 0.0335 0.0204
4 10 4 0.0146 -0.0392
4 10 5 -0.0186 0.0370
4 10 6 0.2854 0.0311
4 10 7 0.1075 0.0249
4 10 8 0.4783 0.0721
4 10 9 0.3032 0.0063
4 10 10 0.3478 0.0521
4 10 11 0.4622 -0.0061
4 11 4 0.2377 0.0281
4 11 5 0.1301 0.0541
5 0 5 0.1902 0.0320
5 0 7 0.2205 0.0835
5 0 9 0.0488 0.1038
5 0 11 -0.0972 0.0901
5 0 13 -0.1916 0.0681
5 0 15 -0.2847 0.0636
5 0 17 -0.2834 0.0816
5 0 19 -0.1576 0.1045
5 0 21 -0.0866 0.1054
5 1 5 -0.4636 0.0685
5 1 6 -0.3409 -0.0303
5 1 7 -0.0735 0.0012
5 1 8 -0.2031 -0.0269
5 1 9 0.1540 -0.0450
5 1 10 -0.0376 0.0003
5 1 11 0.1105 -0.0580
5 1 12 0.0455 0.0292
5 1 13 -0.0725 -0.0114
5 1 14 0.1221 0.0475
5 1 15 -0.2198 0.0803
5 1 16 0.1799 0.0516
5 1 17 -0.2849 0.1292
5 1 18 0.1227 0.0378
5 1 19 -0.2728 0.0640
5 1 20 0.0250 0.0115
5 1 21 -0.1740 -0.0593
5 1 22 0.0427 -0.0070
5 2 5 0.2863 -0.0030
5 2 6 0.1810 -0.0273
5 2 7 0.1597 -0.0290
5 2 8 -0.1292 -0.0476
5 2 9 0.0558 -0.0505
5 2 10 -0.1978 -0.0287
5 2 11 0.0519 -0.0472
5 2 12 -0.1043 -0.0188
5 2 13 0.0633 -0.0221
5 2 14 -0.0375 -0.0586
5 2 15 0.0407 0.0035
5 2 16 0.0123 -0.0970
5 2 17 0.0623 0.0154
5 2 18 0.1303 -0.0492
5 2 19 0.1483 0.0126
5 2 20 0.2051 0.0649
5 2 21 0.1810 -0.0014
5 2 22 0.1003 0.1216
5 3 5 0.0460 -0.0506
5 3 6 -0.0268 0.0355
5 3 7 0.0169 0.0213
5 3 8 -0.0018 0.0145
5 3 9 -0.0951 0.0151
5 3 10 -0.0133 -0.0165
5 3 11 -0.1941 -0.0426
5 3 12 0.0397 -0.0377
5 3 13 -0.0801 -0.0737
5 3 14 0.1225 -0.0438
5 3 15 0.1606 -0.0540
5 3 16 0.1139 -0.0459
5 3 17 0.1959 -0.0387
5 3 18 -0.0084 -0.0516
5 3 19 -0.0055 -0.0657
5 3 20 -0.1405 -0.0509
5 3 21 -0.0954 -0.0911
5 4 5 0.1795 -0.0039
5 4 6 -0.0291 -0.0166
5 4 7 0.1908 0.0200
5 4 8 0.1480 -0.0052
5 4 9 0.1802 0.0430
5 4 10 0.3622 0.0178
5 4 11 -0.0159 0.0366
5 4 12 0.3902 0.0284
5 4 13 -0.2788 0.0004
5 4 14 0.1307 0.0180
5 4 15 -0.3591 -0.0338
5 4 16 -0.1003 0.0118
5 4 17 -0.2536 -0.0353
5 4 18 -0.0034 0.0296
5 4 19 -0.1503 -0.0097
5 4 20 0.2008 0.0492
5 5 5 -0.2471 0.0568
5 5 6 0.0248 -0.0231
5 5 7 -0.0457 0.0303
5 5 8 -0.0917 -0.0108
5 5 9 -0.0164 0.0257
5 5 10 -0.1359 0.0087
5 5 11 -0.1341 0.0474
5 5 12 -0.0592 0.0316
5 5 13 -0.1168 0.0730
5 5 14 -0.0845 0.0476
5 5 15 0.0725 0.0719
5 5 16 -0.2321 0.0447
5 5 17 0.1232 0.0434
5 5 18 -0.2191 0.0246
5 5 19 -0.0706 0.0196
5 6 5 -0.6231 -0.0022
5 6 6 0.1772 0.0325
5 6 7 -0.3528 -0.0088
5 6 8 -0.0559 0.0175
5 6 9 0.0264 -0.0125
5 6 10 -0.0174 0.0059
5 6 11 0.2308 -0.0065
5 6 12 0.0838 0.0051
5 6 13 0.3344 -0.0011
5 6 14 -0.0446 0.0330
5 6 15 0.4935 -0.0054
5 6 16 -0.2994 0.0769
5 6 17 0.5460 -0.0110
5 6 18 -0.3480 0.0904
5 7 5 0.0261 -0.0505
5 7 6 0.3496 0.0178
5 7 7 0.1156 -0.0360
5 7 8 0.0126 0.0207
5 7 9 -0.0018 -0.0402
5 7 10 -0.0698 -0.0022
5 7 11 -0.2883 -0.0482
5 7 12 0.0813 -0.0372
5 7 13 -0.4306 -0.0660
5 7 14 0.1789 -0.0438
5 7 15 -0.2524 -0.1074
5 7 16 0.1084 -0.0081
5 8 5 -0.1748 0.0308
5 8 6 -0.3383 -0.0903
5 8 7 -0.0766 -0.0031
5 8 8 -0.2950 -0.0267
5 8 9 -0.1596 -0.0289
5 8 10 0.0886 0.0620
5 8 11 -0.3378 -0.0129
5 8 12 0.5969 0.1007
5 8 13 -0.4473 0.0250
5 8 14 0.8375 0.0732
5 9 5 -0.1236 0.1107
5 9 6 0.3991 -0.0180
5 9 7 0.1953 0.1370
5 9 8 0.4270 -0.0023
5 9 9 0.1586 0.0267
5 9 10 0.2877 0.0141
5 10 5 -0.3506 -0.0377
6 0 6 0.3057 0.0771
6 0 8 0.2228 0.6480
6 0 10 0.1219 0.9061
6 0 12 0.0030 0.8955
6 0 14 -0.0367 0.8192
6 0 16 -0.0591 0.7414
6 0 18 -0.2116 0.5676
6 1 6 0.0503 -0.1096
6 1 7 -0.1270 0.1825
6 1 8 -0.2589 -0.0558
6 1 9 -0.1717 -0.0650
6 1 10 -0.3667 0.0166
6 1 11 -0.1097 -0.0695
6 1 12 -0.2671 0.0389
6 1 13 0.0251 0.0144
6 1 14 -0.1456 0.0069
6 1 15 0.1229 0.0487
6 1 16 -0.1015 -0.0142
6 1 17 0.2176 0.0620
6 1 18 -0.0725 0.0122
6 1 19 0.3264 0.1141
6 2 6 -0.1638 -0.1466
6 2 7 0.2105 0.0171
6 2 8 0.0313 -0.1361
6 2 9 0.3805 -0.0140
6 2 10 0.1797 -0.2045
6 2 11 0.2428 -0.0278
6 2 12 0.1051 -0.2822
6 2 13 0.0276 -0.0023
6 2 14 -0.0840 -0.2707
6 2 15 0.0085 0.0228
6 2 16 -0.2056 -0.1953
6 2 17 0.1197 0.0098
6 2 18 -0.2312 -0.1531
6 2 19 0.1362 -0.0134
6 3 6 -0.2779 0.0545
6 3 7 0.0634 -0.1961
6 3 8 -0.3928 0.0322
6 3 9 -0.0376 -0.1413
6 3 10 -0.2329 0.0094
6 3 11 -0.0232 -0.0704
6 3 12 0.0884 -0.0195
6 3 13 0.1315 -0.0474
6 3 14 0.1786 -0.0265
6 3 15 0.2202 -0.0815
6 3 16 -0.0118 0.0151
6 3 17 0.1378 -0.1016
6 3 18 -0.1557 0.0702
6 4 6 0.0661 0.0249
6 4 7 0.3767 0.0159
6 4 8 -0.0181 0.0643
6 4 9 0.1619 -0.0126
6 4 10 -0.0942 0.0786
6 4 11 -0.1930 -0.0205
6 4 12 -0.2663 0.0846
6 4 13 -0.3008 -0.0052
6 4 14 -0.4301 0.0973
6 4 15 -0.0320 -0.0029
6 4 16 -0.3651 0.0965
6 4 17 0.2475 -0.0257
6 5 6 -0.2794 -0.0348
6 5 7 0.1621 0.1582
6 5 8 -0.0224 -0.0157
6 5 9 0.0985 0.1586
6 5 10 0.3216 -0.0019
6 5 11 0.0035 0.1269
6 5 12 0.4445 -0.0111
6 5 13 0.1244 0.0695
6 5 14 0.1464 -0.0239
6 5 15 0.3180 0.0214
6 5 16 -0.2639 -0.0169
6 6 6 -0.4049 0.0739
6 6 7 -0.0247 -0.0265
6 6 8 -0.4412 0.0324
6 6 9 -0.1496 -0.0070
6 6 10 -0.0680 -0.0021
6 6 11 -0.3022 0.0179
6 6 12 0.2242 -0.0105
6 6 13 -0.2513 0.0308
6 6 14 0.1247 -0.0020
6 7 6 0.3172 -0.0061
6 7 7 0.6504 -0.0977
6 7 8 0.1570 0.0098
6 7 9 0.6051 -0.1177
6 7 10 0.1213 0.0231
6 7 11 0.1840 -0.1184
6 7 12 0.1931 0.0293
6 8 6 -0.2727 -0.1331
6 8 7 -0.4558 0.0222
6 8 8 -0.5666 -0.1000
7 0 7 -0.2014 0.0593
7 0 9 -0.1630 -0.0279
7 0 11 -0.0389 -0.1076
7 0 13 -0.0185 -0.1316
7 0 15 -0.1468 -0.0980
7 1 7 0.2210 -0.1171
7 1 8 0.0610 -0.0513
7 1 9 0.3265 -0.0490
7 1 10 -0.0510 -0.0117
7 1 11 0.3223 0.0224
7 1 12 -0.1416 0.0208
7 1 13 0.1955 0.0478
7 1 14 -0.0498 0.0314
7 1 15 0.0498 0.0220
7 2 7 0.0054 -0.0463
7 2 8 -0.0699 -0.0038
7 2 9 0.0948 -0.0111
7 2 10 -0.2004 -0.0439
7 2 11 0.2674 0.0246
7 2 12 -0.2435 -0.0888
7 2 13 0.2961 0.0432
7 2 14 -0.1213 -0.0682
7 3 7 -0.0537 0.0390
7 3 8 0.0870 -0.0168
7 3 9 -0.0664 -0.0126
7 3 10 -0.0472 -0.0022
7 3 11 0.0580 0.0055
7 3 12 -0.1748 0.0258
7 3 13 0.1528 0.0415
7 4 7 -0.1288 0.0511
7 4 8 -0.1821 0.0273
7 4 9 -0.1021 0.0375
7 4 10 -0.0740 -0.0126
7 4 11 -0.0446 0.0032
7 4 12 -0.0930 -0.0682
7 5 7 0.3574 0.0019
7 5 8 0.0611 0.0324
7 5 9 0.1883 0.0094
7 5 10 0.0068 -0.0073
7 6 7 -0.0203 -0.0112
7 6 8 -0.0741 -0.1616
8 0 8 0.0334 0.0581
8 1 8 -0.2531 0.0702
0 0 0 0.0 0.0
;
_shelx_fab_checksum              51231
_olex2_submission_special_instructions 'No special instructions were received'
loop_
_space_group_symop_operation_xyz
'x, y, z'
'-x+1/2, y+1/2, -z+1/2'
'-x, -y, -z'
'x-1/2, -y-1/2, z-1/2'
loop_
_atom_site_label
_atom_site_type_symbol
_atom_site_fract_x
_atom_site_fract_y
_atom_site_fract_z
_atom_site_U_iso_or_equiv
_atom_site_adp_type
_atom_site_occupancy
_atom_site_site_symmetry_order
_atom_site_calc_flag
_atom_site_refinement_flags_posn
_atom_site_refinement_flags_adp
_atom_site_refinement_flags_occupancy
_atom_site_disorder_assembly
_atom_site_disorder_group
Zn1 Zn 0.75088(4) 0.46816(3) 0.50073(2) 0.03675(15) Uani 1 1 d . U . . .
S1 S 0.89556(19) 0.38415(16) 0.77397(5) 0.0775(5) Uani 0.713(2) 1 d . U P A 1
S1A S 0.1000(5) 0.0903(5) 0.72039(14) 0.0915(14) Uani 0.287(2) 1 d . U P A 2
N1 N 0.5855(3) 0.3720(2) 0.54807(8) 0.0438(5) Uani 1 1 d . U . . .
N2 N 0.4023(3) 0.4133(3) 0.55083(9) 0.0491(5) Uani 1 1 d . U . . .
N3 N 0.5845(3) 0.0658(2) 0.94222(9) 0.0471(5) Uani 1 1 d . U . . .
N4 N 0.4070(3) 0.1155(2) 0.94680(8) 0.0440(5) Uani 1 1 d . U . . .
N5 N 0.7774(7) 0.3601(5) 0.71413(19) 0.0578(11) Uani 0.713(2) 1 d . U P A 1
N5A N 0.230(2) 0.1686(13) 0.6815(6) 0.067(3) Uani 0.287(2) 1 d . U P A 2
N6 N 0.7654(8) 0.3045(5) 0.8144(2) 0.0613(12) Uani 0.713(2) 1 d . U P A 1
N6A N 0.2127(19) 0.1094(14) 0.7792(5) 0.059(3) Uani 0.287(2) 1 d . U P A 2
C1 C 0.6295(12) 0.3008(10) 0.5927(4) 0.0416(17) Uani 0.713(2) 1 d . U P A 1
H1 H 0.746577 0.259515 0.600490 0.050 Uiso 0.713(2) 1 calc R U P A 1
C1A C 0.666(4) 0.328(2) 0.6011(9) 0.041(4) Uani 0.287(2) 1 d . U P A 2
H1A H 0.792209 0.302369 0.610608 0.050 Uiso 0.287(2) 1 calc R U P A 2
C2 C 0.4808(11) 0.2948(7) 0.6265(3) 0.0440(14) Uani 0.713(2) 1 d . U P A 1
C2A C 0.522(3) 0.3310(18) 0.6351(7) 0.045(3) Uani 0.287(2) 1 d . U P A 2
C3 C 0.3404(12) 0.3653(8) 0.5964(3) 0.0465(15) Uani 0.713(2) 1 d . U P A 1
H3 H 0.217650 0.377604 0.606859 0.056 Uiso 0.713(2) 1 calc R U P A 1
C3A C 0.372(4) 0.401(2) 0.6085(9) 0.064(5) Uani 0.287(2) 1 d . U P A 2
H3A H 0.269366 0.435038 0.625113 0.077 Uiso 0.287(2) 1 calc R U P A 2
C4 C 0.4768(7) 0.2471(5) 0.6833(2) 0.0418(11) Uani 0.713(2) 1 d . U P A 1
C4A C 0.529(2) 0.2900(15) 0.6953(5) 0.044(3) Uani 0.287(2) 1 d . U P A 2
C5 C 0.6251(8) 0.2868(6) 0.7241(3) 0.0432(12) Uani 0.713(2) 1 d . U P A 1
C5A C 0.375(2) 0.2169(16) 0.7106(6) 0.046(3) Uani 0.287(2) 1 d . U P A 2
C6 C 0.6189(7) 0.2568(5) 0.7811(2) 0.0429(11) Uani 0.713(2) 1 d . U P A 1
C6A C 0.368(2) 0.1845(15) 0.7708(7) 0.043(3) Uani 0.287(2) 1 d . U P A 2
C7 C 0.4627(8) 0.1825(5) 0.7997(2) 0.0416(11) Uani 0.713(2) 1 d . U P A 1
C7A C 0.514(2) 0.2248(15) 0.8092(6) 0.047(3) Uani 0.287(2) 1 d . U P A 2
C8 C 0.3219(9) 0.1422(6) 0.7593(2) 0.0448(13) Uani 0.713(2) 1 d . U P A 1
C8A C 0.666(3) 0.3016(15) 0.7943(6) 0.049(3) Uani 0.287(2) 1 d . U P A 2
C9 C 0.3308(9) 0.1745(6) 0.7018(3) 0.0448(13) Uani 0.713(2) 1 d . U P A 1
C9A C 0.671(3) 0.3316(15) 0.7335(6) 0.047(3) Uani 0.287(2) 1 d . U P A 2
C10 C 0.1722(9) 0.1252(6) 0.6611(2) 0.0672(15) Uani 0.713(2) 1 d . U P A 1
H10A H 0.151853 0.034994 0.667624 0.101 Uiso 0.713(2) 1 calc R U P A 1
H10B H 0.206872 0.136924 0.624044 0.101 Uiso 0.713(2) 1 calc R U P A 1
H10C H 0.056809 0.172178 0.665539 0.101 Uiso 0.713(2) 1 calc R U P A 1
C10A C 0.835(2) 0.4117(18) 0.7202(6) 0.068(4) Uani 0.287(2) 1 d . U P A 2
H10D H 0.952497 0.365913 0.730338 0.102 Uiso 0.287(2) 1 calc R U P A 2
H10E H 0.835787 0.491453 0.740417 0.102 Uiso 0.287(2) 1 calc R U P A 2
H10F H 0.824739 0.429647 0.681207 0.102 Uiso 0.287(2) 1 calc R U P A 2
C11 C 0.1588(9) 0.0576(7) 0.7747(2) 0.0643(16) Uani 0.713(2) 1 d . U P A 1
H11A H 0.039396 0.101226 0.765323 0.096 Uiso 0.713(2) 1 calc R U P A 1
H11B H 0.173992 0.040470 0.813741 0.096 Uiso 0.713(2) 1 calc R U P A 1
H11C H 0.159602 -0.022421 0.754709 0.096 Uiso 0.713(2) 1 calc R U P A 1
C11A C 0.819(2) 0.3503(17) 0.8320(6) 0.068(4) Uani 0.287(2) 1 d . U P A 2
H11D H 0.933989 0.303558 0.827293 0.102 Uiso 0.287(2) 1 calc R U P A 2
H11E H 0.786084 0.339596 0.869319 0.102 Uiso 0.287(2) 1 calc R U P A 2
H11F H 0.837527 0.440295 0.824795 0.102 Uiso 0.287(2) 1 calc R U P A 2
C12 C 0.4692(10) 0.1485(8) 0.8583(3) 0.0430(14) Uani 0.713(2) 1 d . U P A 1
C12A C 0.514(3) 0.178(2) 0.8688(7) 0.048(4) Uani 0.287(2) 1 d . U P A 2
C13 C 0.6278(4) 0.0901(4) 0.89033(12) 0.0608(8) Uani 1 1 d . U . . .
H13 H 0.744878 0.071422 0.877130 0.073 Uiso 0.713(2) 1 calc R U P A 1
H13A H 0.724220 0.049949 0.872841 0.073 Uiso 0.287(2) 1 calc R U P A 2
C14 C 0.3454(4) 0.1686(3) 0.89823(12) 0.0554(7) Uani 1 1 d . U . . .
H14 H 0.231347 0.214306 0.892023 0.066 Uiso 0.713(2) 1 calc R U P A 1
H14A H 0.221409 0.193892 0.886068 0.066 Uiso 0.287(2) 1 calc R U P A 2
loop_
_atom_site_aniso_label
_atom_site_aniso_U_11
_atom_site_aniso_U_22
_atom_site_aniso_U_33
_atom_site_aniso_U_23
_atom_site_aniso_U_13
_atom_site_aniso_U_12
Zn1 0.0337(2) 0.0596(3) 0.0176(2) 0.00168(12) 0.00638(12) -0.00014(12)
S1 0.0724(7) 0.1124(10) 0.0460(6) 0.0232(6) -0.0028(5) -0.0396(7)
S1A 0.084(2) 0.137(3) 0.0532(18) 0.034(2) 0.0051(15) -0.040(2)
N1 0.0411(10) 0.0638(13) 0.0276(10) 0.0114(9) 0.0099(8) 0.0039(9)
N2 0.0400(11) 0.0753(15) 0.0338(11) 0.0194(11) 0.0120(8) 0.0029(10)
N3 0.0384(10) 0.0739(14) 0.0308(11) 0.0151(10) 0.0124(8) 0.0026(10)
N4 0.0457(11) 0.0618(13) 0.0260(10) 0.0086(9) 0.0114(8) 0.0066(9)
N5 0.054(3) 0.079(3) 0.040(2) 0.021(2) 0.0062(19) -0.018(2)
N5A 0.073(7) 0.089(7) 0.041(6) 0.023(5) 0.005(5) -0.023(6)
N6 0.063(3) 0.084(3) 0.034(3) 0.011(2) -0.006(2) -0.026(2)
N6A 0.063(6) 0.077(7) 0.040(5) 0.034(5) 0.015(4) -0.013(5)
C1 0.039(3) 0.058(4) 0.028(3) 0.007(3) 0.002(2) 0.002(2)
C1A 0.052(8) 0.055(9) 0.018(6) 0.005(6) 0.009(5) 0.000(7)
C2 0.048(3) 0.059(4) 0.026(2) 0.011(2) 0.0051(18) -0.005(2)
C2A 0.052(7) 0.062(9) 0.024(5) 0.023(6) 0.017(5) -0.003(6)
C3 0.040(2) 0.070(4) 0.031(3) 0.019(2) 0.012(2) 0.002(2)
C3A 0.062(9) 0.093(14) 0.041(7) 0.028(8) 0.026(6) 0.011(8)
C4 0.045(2) 0.054(3) 0.026(2) 0.0106(18) 0.0040(18) 0.0014(18)
C4A 0.048(6) 0.070(7) 0.017(5) 0.018(5) 0.011(4) -0.004(5)
C5 0.047(3) 0.055(3) 0.029(2) 0.011(2) 0.009(2) -0.005(2)
C5A 0.050(6) 0.060(8) 0.029(5) 0.022(5) 0.010(4) -0.001(4)
C6 0.044(2) 0.057(3) 0.027(2) 0.0102(19) 0.0018(17) -0.0042(18)
C6A 0.049(6) 0.059(7) 0.023(5) 0.021(5) 0.020(4) 0.000(5)
C7 0.045(3) 0.053(3) 0.028(2) 0.013(2) 0.007(2) 0.0004(18)
C7A 0.046(6) 0.064(8) 0.032(5) 0.024(5) 0.009(4) 0.004(4)
C8 0.046(3) 0.055(3) 0.033(3) 0.012(2) 0.0029(19) -0.001(2)
C8A 0.057(7) 0.070(7) 0.021(5) 0.010(5) 0.012(5) -0.011(5)
C9 0.042(3) 0.059(3) 0.034(3) 0.013(2) 0.004(2) -0.006(2)
C9A 0.054(7) 0.057(7) 0.030(5) 0.018(5) 0.005(4) 0.002(5)
C10 0.071(3) 0.097(4) 0.033(2) 0.014(2) -0.003(2) -0.025(3)
C10A 0.071(8) 0.096(11) 0.037(6) 0.022(7) 0.006(6) -0.027(7)
C11 0.063(3) 0.086(4) 0.044(3) 0.023(3) 0.004(2) -0.026(3)
C11A 0.071(8) 0.100(11) 0.033(6) 0.016(6) 0.003(5) -0.020(7)
C12 0.043(3) 0.063(3) 0.024(3) 0.011(2) 0.0049(19) 0.002(2)
C12A 0.045(7) 0.082(10) 0.017(6) 0.018(6) 0.006(5) -0.001(6)
C13 0.0491(15) 0.098(2) 0.0382(14) 0.0293(15) 0.0211(12) 0.0137(15)
C14 0.0582(16) 0.0765(19) 0.0339(13) 0.0190(13) 0.0173(11) 0.0185(14)
loop_
_atom_type_symbol
_atom_type_description
_atom_type_scat_dispersion_real
_atom_type_scat_dispersion_imag
_atom_type_scat_source
C C 0.0181 0.0091 'International Tables Vol C Tables 4.2.6.8 and 6.1.1.4'
H H 0.0000 0.0000 'International Tables Vol C Tables 4.2.6.8 and 6.1.1.4'
N N 0.0311 0.0180 'International Tables Vol C Tables 4.2.6.8 and 6.1.1.4'
S S 0.3331 0.5567 'International Tables Vol C Tables 4.2.6.8 and 6.1.1.4'
Zn Zn -1.5491 0.6778 'International Tables Vol C Tables 4.2.6.8 and 6.1.1.4'
loop_
_geom_angle_atom_site_label_1
_geom_angle_atom_site_label_2
_geom_angle_atom_site_label_3
_geom_angle
_geom_angle_site_symmetry_1
_geom_angle_site_symmetry_3
_geom_angle_publ_flag
N1 Zn1 N2 111.27(9) . 3_666 ?
N1 Zn1 N3 100.70(9) . 2_656 ?
N1 Zn1 N4 123.72(10) . 4_665 ?
N3 Zn1 N2 111.50(12) 2_656 3_666 ?
N4 Zn1 N2 98.85(9) 4_665 3_666 ?
N4 Zn1 N3 111.06(9) 4_665 2_656 ?
N5 S1 N6 101.2(3) . . ?
N6A S1A N5A 101.9(8) . . ?
N2 N1 Zn1 118.68(16) . . ?
N2 N1 C1A 110.6(11) . . ?
C1 N1 Zn1 130.7(4) . . ?
C1 N1 N2 106.4(5) . . ?
C1A N1 Zn1 118.5(10) . . ?
N1 N2 Zn1 128.14(16) . 3_666 ?
N1 N2 C3A 104.2(11) . . ?
C3 N2 Zn1 123.7(4) . 3_666 ?
C3 N2 N1 108.1(4) . . ?
N4 N3 Zn1 127.55(16) . 2_646 ?
C13 N3 Zn1 125.22(19) . 2_646 ?
C13 N3 N4 107.2(2) . . ?
N3 N4 Zn1 117.14(16) . 4_566 ?
C14 N4 Zn1 127.53(19) . 4_566 ?
C14 N4 N3 107.8(2) . . ?
C5 N5 S1 105.8(4) . . ?
C5A N5A S1A 109.9(11) . . ?
C6 N6 S1 105.4(4) . . ?
C6A N6A S1A 105.9(10) . . ?
N1 C1 H1 123.9 . . ?
N1 C1 C2 112.2(7) . . ?
C2 C1 H1 123.9 . . ?
N1 C1A H1A 126.9 . . ?
C2A C1A N1 106.3(18) . . ?
C2A C1A H1A 126.9 . . ?
C1 C2 C4 130.8(7) . . ?
C3 C2 C1 101.7(7) . . ?
C3 C2 C4 126.8(7) . . ?
C1A C2A C3A 107.7(17) . . ?
C1A C2A C4A 127.8(17) . . ?
C3A C2A C4A 123.5(17) . . ?
N2 C3 C2 111.5(7) . . ?
N2 C3 H3 124.3 . . ?
C2 C3 H3 124.3 . . ?
N2 C3A H3A 125.5 . . ?
C2A C3A N2 109.0(19) . . ?
C2A C3A H3A 125.5 . . ?
C5 C4 C2 118.5(5) . . ?
C9 C4 C2 124.7(5) . . ?
C9 C4 C5 116.7(5) . . ?
C5A C4A C2A 116.5(13) . . ?
C9A C4A C2A 121.6(12) . . ?
C9A C4A C5A 121.6(13) . . ?
N5 C5 C4 125.1(5) . . ?
N5 C5 C6 113.2(5) . . ?
C6 C5 C4 121.6(5) . . ?
N5A C5A C4A 131.2(14) . . ?
N5A C5A C6A 110.4(13) . . ?
C4A C5A C6A 118.3(14) . . ?
N6 C6 C5 114.4(5) . . ?
N6 C6 C7 124.7(4) . . ?
C5 C6 C7 120.9(5) . . ?
N6A C6A C5A 111.9(14) . . ?
N6A C6A C7A 128.4(12) . . ?
C7A C6A C5A 119.6(12) . . ?
C6 C7 C12 118.5(5) . . ?
C8 C7 C6 116.8(5) . . ?
C8 C7 C12 124.6(5) . . ?
C6A C7A C8A 122.1(13) . . ?
C6A C7A C12A 118.3(12) . . ?
C8A C7A C12A 119.6(14) . . ?
C7 C8 C9 121.3(6) . . ?
C7 C8 C11 120.3(5) . . ?
C9 C8 C11 118.3(5) . . ?
C7A C8A C9A 117.1(16) . . ?
C7A C8A C11A 125.0(12) . . ?
C11A C8A C9A 117.9(13) . . ?
C4 C9 C8 122.8(6) . . ?
C4 C9 C10 119.9(5) . . ?
C8 C9 C10 117.3(5) . . ?
C4A C9A C8A 121.1(15) . . ?
C4A C9A C10A 124.2(12) . . ?
C10A C9A C8A 114.7(14) . . ?
C9 C10 H10A 109.5 . . ?
C9 C10 H10B 109.5 . . ?
C9 C10 H10C 109.5 . . ?
H10A C10 H10B 109.5 . . ?
H10A C10 H10C 109.5 . . ?
H10B C10 H10C 109.5 . . ?
C9A C10A H10D 109.5 . . ?
C9A C10A H10E 109.5 . . ?
C9A C10A H10F 109.5 . . ?
H10D C10A H10E 109.5 . . ?
H10D C10A H10F 109.5 . . ?
H10E C10A H10F 109.5 . . ?
C8 C11 H11A 109.5 . . ?
C8 C11 H11B 109.5 . . ?
C8 C11 H11C 109.5 . . ?
H11A C11 H11B 109.5 . . ?
H11A C11 H11C 109.5 . . ?
H11B C11 H11C 109.5 . . ?
C8A C11A H11D 109.5 . . ?
C8A C11A H11E 109.5 . . ?
C8A C11A H11F 109.5 . . ?
H11D C11A H11E 109.5 . . ?
H11D C11A H11F 109.5 . . ?
H11E C11A H11F 109.5 . . ?
C13 C12 C7 125.6(6) . . ?
C14 C12 C7 133.2(6) . . ?
C14 C12 C13 101.1(5) . . ?
C13 C12A C7A 123.3(17) . . ?
C13 C12A C14 105.0(13) . . ?
C14 C12A C7A 124.6(14) . . ?
N3 C13 C12 110.7(4) . . ?
N3 C13 H13 124.6 . . ?
N3 C13 H13A 125.6 . . ?
C12 C13 H13 124.6 . . ?
C12A C13 N3 108.8(9) . . ?
C12A C13 H13A 125.6 . . ?
N4 C14 C12 112.7(4) . . ?
N4 C14 C12A 104.7(7) . . ?
N4 C14 H14 123.7 . . ?
N4 C14 H14A 127.7 . . ?
C12 C14 H14 123.7 . . ?
C12A C14 H14A 127.7 . . ?
loop_
_geom_bond_atom_site_label_1
_geom_bond_atom_site_label_2
_geom_bond_distance
_geom_bond_site_symmetry_2
_geom_bond_publ_flag
Zn1 N1 1.977(2) . ?
Zn1 N2 1.993(2) 3_666 ?
Zn1 N3 1.992(2) 2_656 ?
Zn1 N4 1.984(2) 4_665 ?
S1 N5 1.621(5) . ?
S1 N6 1.627(4) . ?
S1A N5A 1.594(11) . ?
S1A N6A 1.577(13) . ?
N1 N2 1.362(3) . ?
N1 C1 1.321(10) . ?
N1 C1A 1.43(2) . ?
N2 C3 1.322(9) . ?
N2 C3A 1.44(2) . ?
N3 N4 1.362(3) . ?
N3 C13 1.346(3) . ?
N4 C14 1.335(3) . ?
N5 C5 1.352(7) . ?
N5A C5A 1.283(19) . ?
N6 C6 1.341(6) . ?
N6A C6A 1.367(18) . ?
C1 H1 0.9300 . ?
C1 C2 1.389(12) . ?
C1A H1A 0.9300 . ?
C1A C2A 1.37(3) . ?
C2 C3 1.378(11) . ?
C2 C4 1.468(8) . ?
C2A C3A 1.38(3) . ?
C2A C4A 1.52(2) . ?
C3 H3 0.9300 . ?
C3A H3A 0.9300 . ?
C4 C5 1.427(7) . ?
C4 C9 1.379(7) . ?
C4A C5A 1.401(18) . ?
C4A C9A 1.363(19) . ?
C5 C6 1.422(7) . ?
C5A C6A 1.505(19) . ?
C6 C7 1.446(7) . ?
C6A C7A 1.39(2) . ?
C7 C8 1.387(7) . ?
C7 C12 1.462(9) . ?
C7A C8A 1.41(2) . ?
C7A C12A 1.53(2) . ?
C8 C9 1.443(8) . ?
C8 C11 1.516(8) . ?
C8A C9A 1.51(2) . ?
C8A C11A 1.43(2) . ?
C9 C10 1.505(7) . ?
C9A C10A 1.48(2) . ?
C10 H10A 0.9600 . ?
C10 H10B 0.9600 . ?
C10 H10C 0.9600 . ?
C10A H10D 0.9600 . ?
C10A H10E 0.9600 . ?
C10A H10F 0.9600 . ?
C11 H11A 0.9600 . ?
C11 H11B 0.9600 . ?
C11 H11C 0.9600 . ?
C11A H11D 0.9600 . ?
C11A H11E 0.9600 . ?
C11A H11F 0.9600 . ?
C12 C13 1.430(8) . ?
C12 C14 1.377(9) . ?
C12A C13 1.29(2) . ?
C12A C14 1.44(2) . ?
C13 H13 0.9300 . ?
C13 H13A 0.9300 . ?
C14 H14 0.9300 . ?
C14 H14A 0.9300 . ?
loop_
_geom_torsion_atom_site_label_1
_geom_torsion_atom_site_label_2
_geom_torsion_atom_site_label_3
_geom_torsion_atom_site_label_4
_geom_torsion
_geom_torsion_site_symmetry_1
_geom_torsion_site_symmetry_2
_geom_torsion_site_symmetry_3
_geom_torsion_site_symmetry_4
_geom_torsion_publ_flag
Zn1 N1 N2 Zn1 17.2(3) . . . 3_666 ?
Zn1 N1 N2 C3 -159.9(4) . . . . ?
Zn1 N1 N2 C3A -138.6(10) . . . . ?
Zn1 N1 C1 C2 154.7(4) . . . . ?
Zn1 N1 C1A C2A 148.0(11) . . . . ?
Zn1 N2 C3 C2 -175.1(4) 3_666 . . . ?
Zn1 N2 C3A C2A -169.0(10) 3_666 . . . ?
Zn1 N3 N4 Zn1 -25.4(3) 2_646 . . 4_566 ?
Zn1 N3 N4 C14 -177.5(2) 2_646 . . . ?
Zn1 N3 C13 C12 173.0(3) 2_646 . . . ?
Zn1 N3 C13 C12A -165.9(8) 2_646 . . . ?
Zn1 N4 C14 C12 -143.5(4) 4_566 . . . ?
Zn1 N4 C14 C12A -162.8(9) 4_566 . . . ?
S1 N5 C5 C4 177.0(5) . . . . ?
S1 N5 C5 C6 0.1(6) . . . . ?
S1 N6 C6 C5 1.1(6) . . . . ?
S1 N6 C6 C7 -177.7(5) . . . . ?
S1A N5A C5A C4A 178.5(15) . . . . ?
S1A N5A C5A C6A -1.1(17) . . . . ?
S1A N6A C6A C5A -1.3(16) . . . . ?
S1A N6A C6A C7A -177.5(14) . . . . ?
N1 N2 C3 C2 2.1(6) . . . . ?
N1 N2 C3A C2A -11.5(16) . . . . ?
N1 C1 C2 C3 2.4(8) . . . . ?
N1 C1 C2 C4 -168.1(6) . . . . ?
N1 C1A C2A C3A -13(2) . . . . ?
N1 C1A C2A C4A 178.0(15) . . . . ?
N2 N1 C1 C2 -1.2(7) . . . . ?
N2 N1 C1A C2A 6.0(17) . . . . ?
N3 N4 C14 C12 4.8(5) . . . . ?
N3 N4 C14 C12A -14.5(9) . . . . ?
N4 N3 C13 C12 -4.6(5) . . . . ?
N4 N3 C13 C12A 16.6(9) . . . . ?
N5 S1 N6 C6 -0.9(5) . . . . ?
N5 C5 C6 N6 -0.9(7) . . . . ?
N5 C5 C6 C7 178.0(5) . . . . ?
N5A S1A N6A C6A 0.6(12) . . . . ?
N5A C5A C6A N6A 2(2) . . . . ?
N5A C5A C6A C7A 178.3(15) . . . . ?
N6 S1 N5 C5 0.5(5) . . . . ?
N6 C6 C7 C8 179.2(6) . . . . ?
N6 C6 C7 C12 -4.5(9) . . . . ?
N6A S1A N5A C5A 0.3(14) . . . . ?
N6A C6A C7A C8A 179.5(15) . . . . ?
N6A C6A C7A C12A 2(3) . . . . ?
C1 N1 N2 Zn1 176.6(4) . . . 3_666 ?
C1 N1 N2 C3 -0.6(6) . . . . ?
C1 C2 C3 N2 -2.7(7) . . . . ?
C1 C2 C4 C5 46.9(10) . . . . ?
C1 C2 C4 C9 -138.7(8) . . . . ?
C1A N1 N2 Zn1 159.2(9) . . . 3_666 ?
C1A N1 N2 C3A 3.3(13) . . . . ?
C1A C2A C3A N2 16(2) . . . . ?
C1A C2A C4A C5A -136.3(19) . . . . ?
C1A C2A C4A C9A 49(3) . . . . ?
C2 C4 C5 N5 -3.9(9) . . . . ?
C2 C4 C5 C6 172.7(6) . . . . ?
C2 C4 C9 C8 -172.7(6) . . . . ?
C2 C4 C9 C10 7.5(9) . . . . ?
C2A C4A C5A N5A 6(3) . . . . ?
C2A C4A C5A C6A -174.5(15) . . . . ?
C2A C4A C9A C8A 173.7(15) . . . . ?
C2A C4A C9A C10A -4(2) . . . . ?
C3 C2 C4 C5 -121.4(7) . . . . ?
C3 C2 C4 C9 53.0(9) . . . . ?
C3A C2A C4A C5A 57(2) . . . . ?
C3A C2A C4A C9A -118.0(19) . . . . ?
C4 C2 C3 N2 168.3(5) . . . . ?
C4 C5 C6 N6 -177.9(5) . . . . ?
C4 C5 C6 C7 1.0(8) . . . . ?
C4A C2A C3A N2 -174.9(13) . . . . ?
C4A C5A C6A N6A -178.0(14) . . . . ?
C4A C5A C6A C7A -1(2) . . . . ?
C5 C4 C9 C8 1.8(9) . . . . ?
C5 C4 C9 C10 -178.0(5) . . . . ?
C5 C6 C7 C8 0.4(8) . . . . ?
C5 C6 C7 C12 176.7(6) . . . . ?
C5A C4A C9A C8A -1(2) . . . . ?
C5A C4A C9A C10A -178.5(15) . . . . ?
C5A C6A C7A C8A 3(2) . . . . ?
C5A C6A C7A C12A -173.5(16) . . . . ?
C6 C7 C8 C9 -0.8(8) . . . . ?
C6 C7 C8 C11 176.6(5) . . . . ?
C6 C7 C12 C13 -50.2(9) . . . . ?
C6 C7 C12 C14 124.2(7) . . . . ?
C6A C7A C8A C9A -4(2) . . . . ?
C6A C7A C8A C11A 177.7(15) . . . . ?
C6A C7A C12A C13 105.2(17) . . . . ?
C6A C7A C12A C14 -41(2) . . . . ?
C7 C8 C9 C4 -0.4(10) . . . . ?
C7 C8 C9 C10 179.4(6) . . . . ?
C7 C12 C13 N3 -177.1(5) . . . . ?
C7 C12 C14 N4 177.5(6) . . . . ?
C7A C8A C9A C4A 2(2) . . . . ?
C7A C8A C9A C10A -179.4(14) . . . . ?
C7A C12A C13 N3 -176.6(12) . . . . ?
C7A C12A C14 N4 175.6(15) . . . . ?
C8 C7 C12 C13 125.8(7) . . . . ?
C8 C7 C12 C14 -59.8(10) . . . . ?
C8A C7A C12A C13 -72(2) . . . . ?
C8A C7A C12A C14 142.1(16) . . . . ?
C9 C4 C5 N5 -178.7(6) . . . . ?
C9 C4 C5 C6 -2.1(8) . . . . ?
C9A C4A C5A N5A -179.6(17) . . . . ?
C9A C4A C5A C6A 0(2) . . . . ?
C11 C8 C9 C4 -177.8(6) . . . . ?
C11 C8 C9 C10 2.1(9) . . . . ?
C11A C8A C9A C4A -179.0(15) . . . . ?
C11A C8A C9A C10A -1(2) . . . . ?
C12 C7 C8 C9 -176.8(6) . . . . ?
C12 C7 C8 C11 0.6(10) . . . . ?
C12A C7A C8A C9A 173.0(16) . . . . ?
C12A C7A C8A C11A -5(2) . . . . ?
C13 N3 N4 Zn1 152.1(2) . . . 4_566 ?
C13 N3 N4 C14 0.0(3) . . . . ?
C13 C12 C14 N4 -7.1(6) . . . . ?
C13 C12A C14 N4 24.6(12) . . . . ?
C14 C12 C13 N3 7.0(6) . . . . ?
C14 C12A C13 N3 -25.1(12) . . . . ?
loop_
_smtbx_masks_void_nr
_smtbx_masks_void_average_x
_smtbx_masks_void_average_y
_smtbx_masks_void_average_z
_smtbx_masks_void_volume
_smtbx_masks_void_count_electrons
_smtbx_masks_void_content
1 -0.724 0.000 0.500 196.6 21.9 ?
2 -0.483 0.500 1.000 196.6 21.9 ?
