#------------------------------------------------------------------------------
#$Date: 2021-01-01 01:25:10 +0200 (Fri, 01 Jan 2021) $
#$Revision: 260302 $
#$URL: file:///home/coder/svn-repositories/cod/cif/4/00/38/4003847.cif $
#------------------------------------------------------------------------------
#
# This file is available in the Crystallography Open Database (COD),
# http://www.crystallography.net/
#
# All data on this site have been placed in the public domain by the
# contributors.
#
data_4003847
loop_
_publ_author_name
'Goodenough, Isabella'
'Devulapalli, Venkata Swaroopa Datta'
'Xu, Wenqian'
'Boyanich, Mikaela C.'
'Luo, Tian-Yi'
'De Souza, Mattheus'
'Richard, M\'elissandre'
'Rosi, Nathaniel L.'
'Borguet, Eric'
_publ_section_title
;
 Interplay between Intrinsic Thermal Stability and Expansion Properties of
 Functionalized UiO-67 Metal--Organic Frameworks
;
_journal_name_full               'Chemistry of Materials'
_journal_paper_doi               10.1021/acs.chemmater.0c03889
_journal_year                    2020
_chemical_compound_source        synthetic
_chemical_formula_sum            'C81.48 H50.56 O36.16 Zr6'
_chemical_formula_weight         2155.52
_chemical_name_common            UiO-67
_chemical_name_systematic
'Zr(IV) biphenyl dicarboxylate metal-organic framework'
_space_group_crystal_system      cubic
_space_group_IT_number           225
_space_group_name_Hall           '-F 4 2 3'
_space_group_name_H-M_alt        'F m -3 m'
_cell_angle_alpha                90
_cell_angle_beta                 90
_cell_angle_gamma                90
_cell_formula_units_Z            4
_cell_length_a                   26.85534(17)
_cell_length_b                   26.85534(17)
_cell_length_c                   26.85534(17)
_cell_measurement_temperature    90
_cell_volume                     19368.3(2)
_diffrn_ambient_pressure         101
_diffrn_ambient_temperature      90
_diffrn_measurement_device_type
'Debye-scherrer geometry diffractometer with area detector at Beamline 17-BM'
_diffrn_radiation_probe          x-ray
_diffrn_radiation_wavelength     0.35364
_diffrn_source                   synchrotron
_diffrn_source_type              'APS Beamline 17-BM'
_exptl_crystal_description       powder
_exptl_crystal_preparation
'powder loaded in a quartz capillary, measured under vacuum'
_exptl_crystal_thermal_history
'activated at 473 K for 10 min, and cooled to 90 K'
_pd_proc_ls_prof_R_factor        0.0164
_pd_proc_ls_prof_wR_factor       0.0260
_refine_ls_goodness_of_fit_all   5.909
_refine_ls_hydrogen_treatment    constr
_refine_ls_R_I_factor            0.0316
_reflns_d_resolution_high        0.736
_reflns_d_resolution_low         15.505
_reflns_limit_h_max              36
_reflns_limit_h_min              0
_reflns_limit_k_max              36
_reflns_limit_k_min              0
_reflns_limit_l_max              36
_reflns_limit_l_min              0
_reflns_number_total             1391
_cod_data_source_file            cm0c03889_si_002.cif
_cod_data_source_block           UiO67-2_90to480Ka_90K_d400-00000-sub0_9qtz
_cod_original_cell_volume        19368.3(4)
_cod_database_code               4003847
loop_
_symmetry_equiv_pos_as_xyz
'x, y, z '
'-x, -y, z '
'-x, -z, -y '
'-x, -z, y '
'-x, z, -y '
'-x, z, y '
'-x, y, -z '
'-x, y, z '
'-y, -x, -z '
'-y, -x, z '
'-y, -z, -x '
'-y, -z, x '
'-y, z, -x '
'-y, z, x '
'-y, x, -z '
'-y, x, z '
'-z, -x, -y '
'-z, -x, y '
'-z, -y, -x '
'-z, -y, x '
'-z, y, -x '
'-z, y, x '
'-z, x, -y '
'-z, x, y '
'z, -x, -y '
'z, -x, y '
'z, -y, -x '
'z, -y, x '
'z, y, -x '
'z, y, x '
'z, x, -y '
'z, x, y '
'y, -x, -z '
'y, -x, z '
'y, -z, -x '
'y, -z, x '
'y, z, -x '
'y, z, x '
'y, x, -z '
'y, x, z '
'x, -y, -z '
'x, -y, z '
'x, -z, -y '
'x, -z, y '
'x, z, -y '
'x, z, y '
'x, y, -z '
'-x, -y, -z '
'x+1/2, y+1/2, z '
'-x+1/2, -y+1/2, z '
'-x+1/2, -z+1/2, -y '
'-x+1/2, -z+1/2, y '
'-x+1/2, z+1/2, -y '
'-x+1/2, z+1/2, y '
'-x+1/2, y+1/2, -z '
'-x+1/2, y+1/2, z '
'-y+1/2, -x+1/2, -z '
'-y+1/2, -x+1/2, z '
'-y+1/2, -z+1/2, -x '
'-y+1/2, -z+1/2, x '
'-y+1/2, z+1/2, -x '
'-y+1/2, z+1/2, x '
'-y+1/2, x+1/2, -z '
'-y+1/2, x+1/2, z '
'-z+1/2, -x+1/2, -y '
'-z+1/2, -x+1/2, y '
'-z+1/2, -y+1/2, -x '
'-z+1/2, -y+1/2, x '
'-z+1/2, y+1/2, -x '
'-z+1/2, y+1/2, x '
'-z+1/2, x+1/2, -y '
'-z+1/2, x+1/2, y '
'z+1/2, -x+1/2, -y '
'z+1/2, -x+1/2, y '
'z+1/2, -y+1/2, -x '
'z+1/2, -y+1/2, x '
'z+1/2, y+1/2, -x '
'z+1/2, y+1/2, x '
'z+1/2, x+1/2, -y '
'z+1/2, x+1/2, y '
'y+1/2, -x+1/2, -z '
'y+1/2, -x+1/2, z '
'y+1/2, -z+1/2, -x '
'y+1/2, -z+1/2, x '
'y+1/2, z+1/2, -x '
'y+1/2, z+1/2, x '
'y+1/2, x+1/2, -z '
'y+1/2, x+1/2, z '
'x+1/2, -y+1/2, -z '
'x+1/2, -y+1/2, z '
'x+1/2, -z+1/2, -y '
'x+1/2, -z+1/2, y '
'x+1/2, z+1/2, -y '
'x+1/2, z+1/2, y '
'x+1/2, y+1/2, -z '
'-x+1/2, -y+1/2, -z '
'x+1/2, y, z+1/2 '
'-x+1/2, -y, z+1/2 '
'-x+1/2, -z, -y+1/2 '
'-x+1/2, -z, y+1/2 '
'-x+1/2, z, -y+1/2 '
'-x+1/2, z, y+1/2 '
'-x+1/2, y, -z+1/2 '
'-x+1/2, y, z+1/2 '
'-y+1/2, -x, -z+1/2 '
'-y+1/2, -x, z+1/2 '
'-y+1/2, -z, -x+1/2 '
'-y+1/2, -z, x+1/2 '
'-y+1/2, z, -x+1/2 '
'-y+1/2, z, x+1/2 '
'-y+1/2, x, -z+1/2 '
'-y+1/2, x, z+1/2 '
'-z+1/2, -x, -y+1/2 '
'-z+1/2, -x, y+1/2 '
'-z+1/2, -y, -x+1/2 '
'-z+1/2, -y, x+1/2 '
'-z+1/2, y, -x+1/2 '
'-z+1/2, y, x+1/2 '
'-z+1/2, x, -y+1/2 '
'-z+1/2, x, y+1/2 '
'z+1/2, -x, -y+1/2 '
'z+1/2, -x, y+1/2 '
'z+1/2, -y, -x+1/2 '
'z+1/2, -y, x+1/2 '
'z+1/2, y, -x+1/2 '
'z+1/2, y, x+1/2 '
'z+1/2, x, -y+1/2 '
'z+1/2, x, y+1/2 '
'y+1/2, -x, -z+1/2 '
'y+1/2, -x, z+1/2 '
'y+1/2, -z, -x+1/2 '
'y+1/2, -z, x+1/2 '
'y+1/2, z, -x+1/2 '
'y+1/2, z, x+1/2 '
'y+1/2, x, -z+1/2 '
'y+1/2, x, z+1/2 '
'x+1/2, -y, -z+1/2 '
'x+1/2, -y, z+1/2 '
'x+1/2, -z, -y+1/2 '
'x+1/2, -z, y+1/2 '
'x+1/2, z, -y+1/2 '
'x+1/2, z, y+1/2 '
'x+1/2, y, -z+1/2 '
'-x+1/2, -y, -z+1/2 '
'x, y+1/2, z+1/2 '
'-x, -y+1/2, z+1/2 '
'-x, -z+1/2, -y+1/2 '
'-x, -z+1/2, y+1/2 '
'-x, z+1/2, -y+1/2 '
'-x, z+1/2, y+1/2 '
'-x, y+1/2, -z+1/2 '
'-x, y+1/2, z+1/2 '
'-y, -x+1/2, -z+1/2 '
'-y, -x+1/2, z+1/2 '
'-y, -z+1/2, -x+1/2 '
'-y, -z+1/2, x+1/2 '
'-y, z+1/2, -x+1/2 '
'-y, z+1/2, x+1/2 '
'-y, x+1/2, -z+1/2 '
'-y, x+1/2, z+1/2 '
'-z, -x+1/2, -y+1/2 '
'-z, -x+1/2, y+1/2 '
'-z, -y+1/2, -x+1/2 '
'-z, -y+1/2, x+1/2 '
'-z, y+1/2, -x+1/2 '
'-z, y+1/2, x+1/2 '
'-z, x+1/2, -y+1/2 '
'-z, x+1/2, y+1/2 '
'z, -x+1/2, -y+1/2 '
'z, -x+1/2, y+1/2 '
'z, -y+1/2, -x+1/2 '
'z, -y+1/2, x+1/2 '
'z, y+1/2, -x+1/2 '
'z, y+1/2, x+1/2 '
'z, x+1/2, -y+1/2 '
'z, x+1/2, y+1/2 '
'y, -x+1/2, -z+1/2 '
'y, -x+1/2, z+1/2 '
'y, -z+1/2, -x+1/2 '
'y, -z+1/2, x+1/2 '
'y, z+1/2, -x+1/2 '
'y, z+1/2, x+1/2 '
'y, x+1/2, -z+1/2 '
'y, x+1/2, z+1/2 '
'x, -y+1/2, -z+1/2 '
'x, -y+1/2, z+1/2 '
'x, -z+1/2, -y+1/2 '
'x, -z+1/2, y+1/2 '
'x, z+1/2, -y+1/2 '
'x, z+1/2, y+1/2 '
'x, y+1/2, -z+1/2 '
'-x, -y+1/2, -z+1/2 '
loop_
_atom_site_label
_atom_site_type_symbol
_atom_site_symmetry_multiplicity
_atom_site_fract_x
_atom_site_fract_y
_atom_site_fract_z
_atom_site_occupancy
_atom_site_B_iso_or_equiv
Zr1 Zr 24 0 0 0.09241(5) 1 0.53(3)
O1a O 32 0.0523(3) 0.0523(3) 0.0523(3) 0.5 0.4(2)
H1a H 32 0.0730 0.0730 0.0730 0.5 0.6
O1b O 32 0.0386(3) 0.0386(3) 0.0386(3) 0.5 0.4(2)
O2 O 96 0.1322(4) 0 0.0724(4) 1 0.81(11)
C4 C 48 0.1166(3) 0 0.1166(3) 0.97 0.94(12)
C5 C 48 0.15660(17) 0 0.15660(17) 0.97 0.94(12)
C6 C 48 0.23033(10) 0 0.23033(10) 0.97 0.94(12)
C2 C 192 0.24225(11) 0.01403(17) 0.18156(14) 0.485 0.94(12)
C3 C 192 0.20538(12) 0.01403(17) 0.1447(2) 0.485 0.94(12)
H2 H 192 0.28022 0.0249 0.17228 0.485 1.41
H3 H 192 0.21466 0.0249 0.1067 0.485 1.41
Ow1 O 32 0.1426(9) 0.1426(9) 0.1426(9) 0.52 82(4)
loop_
_geom_angle_atom_site_label_1
_geom_angle_atom_site_label_2
_geom_angle_atom_site_label_3
_geom_angle
_geom_angle_site_symmetry_1
_geom_angle_site_symmetry_2
_geom_angle_site_symmetry_3
O1b Zr1 O1b 60.4(4) 26_555 1_555 1_555
O1b Zr1 O1b 90.7(7) 6_555 1_555 26_555
O1b Zr1 O1b 60.4(4) 6_555 1_555 1_555
O1b Zr1 O1b 60.4(4) 2_555 1_555 6_555
O1b Zr1 O1b 60.4(4) 2_555 1_555 26_555
O1b Zr1 O1b 90.7(7) 2_555 1_555 1_555
O2 Zr1 O1b 84.1(3) 12_555 1_555 2_555
O2 Zr1 O1b 141.19(6) 12_555 1_555 6_555
O2 Zr1 O1b 84.1(3) 12_555 1_555 26_555
O2 Zr1 O1b 141.19(6) 12_555 1_555 1_555
O2 Zr1 O2 76.60(3) 20_555 1_555 12_555
O2 Zr1 O1b 84.1(3) 20_555 1_555 2_555
O2 Zr1 O1b 84.1(3) 20_555 1_555 6_555
O2 Zr1 O1b 141.19(6) 20_555 1_555 26_555
O2 Zr1 O1b 141.19(6) 20_555 1_555 1_555
O2 Zr1 O2 76.60(3) 14_555 1_555 20_555
O2 Zr1 O2 122.45(6) 14_555 1_555 12_555
O2 Zr1 O1b 141.19(6) 14_555 1_555 2_555
O2 Zr1 O1b 84.1(3) 14_555 1_555 6_555
O2 Zr1 O1b 141.19(6) 14_555 1_555 26_555
O2 Zr1 O1b 84.1(3) 14_555 1_555 1_555
O2 Zr1 O2 76.60(3) 28_555 1_555 14_555
O2 Zr1 O2 122.45(6) 28_555 1_555 20_555
O2 Zr1 O2 76.60(3) 28_555 1_555 12_555
O2 Zr1 O1b 141.19(6) 28_555 1_555 2_555
O2 Zr1 O1b 141.19(6) 28_555 1_555 6_555
O2 Zr1 O1b 84.1(3) 28_555 1_555 26_555
O2 Zr1 O1b 84.1(3) 28_555 1_555 1_555
O1a Zr1 O2 140.75(6) 6_555 1_555 28_555
O1a Zr1 O2 71.7(2) 6_555 1_555 14_555
O1a Zr1 O2 71.7(2) 6_555 1_555 20_555
O1a Zr1 O2 140.75(6) 6_555 1_555 12_555
O1a Zr1 O1b 70.4(3) 6_555 1_555 2_555
O1a Zr1 O1b 16.1(5) 6_555 1_555 6_555
O1a Zr1 O1b 106.8(5) 6_555 1_555 26_555
O1a Zr1 O1b 70.4(3) 6_555 1_555 1_555
O1a Zr1 O1a 123.0(6) 26_555 1_555 6_555
O1a Zr1 O2 71.7(2) 26_555 1_555 28_555
O1a Zr1 O2 140.75(6) 26_555 1_555 14_555
O1a Zr1 O2 140.75(6) 26_555 1_555 20_555
O1a Zr1 O2 71.7(2) 26_555 1_555 12_555
O1a Zr1 O1b 70.4(3) 26_555 1_555 2_555
O1a Zr1 O1b 106.8(5) 26_555 1_555 6_555
O1a Zr1 O1b 16.1(5) 26_555 1_555 26_555
O1a Zr1 O1b 70.4(3) 26_555 1_555 1_555
O1a Zr1 O1a 76.8(3) 1_555 1_555 26_555
O1a Zr1 O1a 76.8(3) 1_555 1_555 6_555
O1a Zr1 O2 71.7(2) 1_555 1_555 28_555
O1a Zr1 O2 71.7(2) 1_555 1_555 14_555
O1a Zr1 O2 140.75(6) 1_555 1_555 20_555
O1a Zr1 O2 140.75(6) 1_555 1_555 12_555
O1a Zr1 O1b 106.8(5) 1_555 1_555 2_555
O1a Zr1 O1b 70.4(3) 1_555 1_555 6_555
O1a Zr1 O1b 70.4(3) 1_555 1_555 26_555
O1a Zr1 O1b 16.1(5) 1_555 1_555 1_555
O1a Zr1 O1a 123.0(6) 2_555 1_555 1_555
O1a Zr1 O1a 76.8(3) 2_555 1_555 26_555
O1a Zr1 O1a 76.8(3) 2_555 1_555 6_555
O1a Zr1 O2 140.75(6) 2_555 1_555 28_555
O1a Zr1 O2 140.75(6) 2_555 1_555 14_555
O1a Zr1 O2 71.7(2) 2_555 1_555 20_555
O1a Zr1 O2 71.7(2) 2_555 1_555 12_555
O1a Zr1 O1b 16.1(5) 2_555 1_555 2_555
O1a Zr1 O1b 70.4(3) 2_555 1_555 6_555
O1a Zr1 O1b 70.4(3) 2_555 1_555 26_555
O1a Zr1 O1b 106.8(5) 2_555 1_555 1_555
Zr1 O1a H1a 116.2(3) 5_555 1_555 1_555
Zr1 O1a Zr1 102.0(4) 1_555 1_555 5_555
Zr1 O1a H1a 116.2(3) 1_555 1_555 1_555
Zr1 O1a Zr1 102.0(4) 25_555 1_555 1_555
Zr1 O1a Zr1 102.0(4) 25_555 1_555 5_555
Zr1 O1a H1a 116.2(3) 25_555 1_555 1_555
Zr1 O1b Zr1 117.0(2) 25_555 1_555 5_555
Zr1 O1b Zr1 117.0(2) 1_555 1_555 25_555
Zr1 O1b Zr1 117.0(2) 1_555 1_555 5_555
Zr1 O2 C4 131.84(3) 25_555 1_555 1_555
O2 C4 O2 128.764 1_555 1_555 28_555
C5 C4 O2 115.618 1_555 1_555 1_555
C5 C4 O2 115.618 1_555 1_555 28_555
C3 C5 C3 120.000 42_555 1_555 30_555
C3 C5 C3 120.000 1_555 1_555 28_555
C4 C5 C3 120.000 1_555 1_555 1_555
C4 C5 C3 120.000 1_555 1_555 42_555
C4 C5 C3 120.000 1_555 1_555 30_555
C4 C5 C3 120.000 1_555 1_555 28_555
C2 C6 C2 120.000 30_555 1_555 42_555
C2 C6 C2 120.000 28_555 1_555 1_555
C6 C6 C2 120.000 103_555 1_555 28_555
C6 C6 C2 120.000 103_555 1_555 30_555
C6 C6 C2 120.000 103_555 1_555 42_555
C6 C6 C2 120.000 103_555 1_555 1_555
C6 C2 H2 120.000 1_555 1_555 1_555
C3 C2 C6 120.000 1_555 1_555 1_555
C3 C2 H2 120.000 1_555 1_555 1_555
C5 C3 H3 120.000 1_555 1_555 1_555
C2 C3 C5 120.000 1_555 1_555 1_555
C2 C3 H3 120.000 1_555 1_555 1_555
loop_
_geom_bond_atom_site_label_1
_geom_bond_atom_site_label_2
_geom_bond_distance
_geom_bond_site_symmetry_1
_geom_bond_site_symmetry_2
Zr1 O1b 2.058(3) 1_555 1_555
Zr1 O1b 2.058(3) 1_555 26_555
Zr1 O1b 2.058(3) 1_555 6_555
Zr1 O1b 2.058(3) 1_555 2_555
Zr1 O2 2.2177(6) 1_555 12_555
Zr1 O2 2.2177(6) 1_555 20_555
Zr1 O2 2.2177(6) 1_555 14_555
Zr1 O2 2.2177(6) 1_555 28_555
Zr1 O1a 2.259(6) 1_555 6_555
Zr1 O1a 2.259(6) 1_555 26_555
Zr1 O1a 2.259(6) 1_555 1_555
Zr1 O1a 2.259(6) 1_555 2_555
O1a H1a 0.96286 1_555 1_555
O2 C4 1.25900 1_555 1_555
C4 C5 1.51906 1_555 1_555
C5 C3 1.40006 1_555 28_555
C5 C3 1.40006 1_555 30_555
C5 C3 1.40006 1_555 42_555
C5 C3 1.40006 1_555 1_555
C6 C2 1.40006 1_555 1_555
C6 C2 1.40006 1_555 42_555
C6 C2 1.40006 1_555 30_555
C6 C2 1.40006 1_555 28_555
C6 C6 1.49393 1_555 103_555
C2 H2 1.09000 1_555 1_555
C2 C3 1.40006 1_555 1_555
C3 H3 1.09000 1_555 1_555
loop_
_pd_meas_2theta_scan
_pd_proc_intensity_total
_pd_calc_intensity_total
_pd_proc_ls_weight
1.00000 91951.23792 78621.46747 0.0000068
1.01000 92560.72100 79169.96294 0.0000067
1.02000 90503.45693 79878.70619 0.0000068
1.03000 91206.98294 80768.08807 0.0000068
1.04000 89676.06584 81862.42496 0.0000068
1.05000 90995.66020 83190.86225 0.0000068
1.06000 89919.30195 84788.54720 0.0000068
1.07000 90361.93271 86698.18537 0.0000068
1.08000 90517.32755 88972.03433 0.0000068
1.09000 91197.35742 91674.55452 0.0000067
1.10000 92960.99437 94885.95484 0.0000066
1.11000 93323.97468 98706.99224 0.0000066
1.12000 96784.08285 103265.55393 0.0000064
1.13000 96928.30857 108725.81229 0.0000064
1.14000 102234.44562 115301.15768 0.0000062
1.15000 106704.79973 123272.79942 0.0000060
1.16000 114315.82391 133017.28986 0.0000057
1.17000 124975.18421 145050.22202 0.0000054
1.18000 140894.07454 160110.10708 0.0000050
1.19000 162508.79519 179380.65541 0.0000045
1.20000 200945.35434 205229.88695 0.0000038
1.21000 252283.33992 243654.53238 0.0000032
1.22000 353722.18410 311172.90833 0.0000024
1.23000 523558.15391 449917.32265 0.0000017
1.24000 815924.23976 749956.56500 0.0000011
1.25000 1384471.51900 1361759.76620 0.0000007
1.26000 2424544.44728 2459406.09899 0.0000004
1.27000 4026450.64709 4123267.45601 0.0000002
1.28000 6185024.57503 6176534.80617 0.0000002
1.29000 8162970.08919 8082527.67356 0.0000001
1.30000 9047873.10069 9041339.27434 0.0000001
1.31000 8524508.11344 8515832.02207 0.0000001
1.32000 6793463.77423 6815136.44954 0.0000001
1.33000 4773709.90507 4735708.06334 0.0000002
1.34000 2810778.13497 2919532.73031 0.0000003
1.35000 1642859.19366 1649248.68272 0.0000006
1.36000 947739.46802 906861.56008 0.0000010
1.37000 575023.76975 531430.03967 0.0000016
1.38000 390383.87655 358263.97355 0.0000022
1.39000 283241.74215 278959.84440 0.0000029
1.40000 226227.06652 239572.60638 0.0000034
1.41000 196880.59917 218953.34678 0.0000038
1.42000 193698.67585 212286.36577 0.0000038
1.43000 210536.06132 225236.58583 0.0000036
1.44000 263737.20928 275577.84382 0.0000030
1.45000 368487.61155 395841.99424 0.0000023
1.46000 602433.25633 627088.09139 0.0000015
1.47000 950531.80597 994809.52836 0.0000010
1.48000 1463271.49834 1471214.24531 0.0000007
1.49000 1987404.02155 1946284.49575 0.0000005
1.50000 2240840.14511 2237332.32583 0.0000004
1.51000 2238638.35299 2187187.03927 0.0000004
1.52000 1839372.85587 1822026.46234 0.0000005
1.53000 1326319.72163 1321496.75842 0.0000007
1.54000 821817.31592 855215.96008 0.0000011
1.55000 497702.85731 511358.95587 0.0000018
1.56000 298978.92538 300294.04779 0.0000027
1.57000 198230.81233 188463.68264 0.0000037
1.58000 138372.46680 134496.89209 0.0000048
1.59000 108778.73500 108462.45030 0.0000056
1.60000 88327.50214 94330.17928 0.0000063
1.61000 77322.95700 85166.35750 0.0000068
1.62000 68803.59964 78358.92569 0.0000072
1.63000 63649.17868 72937.58319 0.0000075
1.64000 59265.31742 68478.30068 0.0000077
1.65000 57034.02550 64742.48892 0.0000079
1.66000 54869.71553 61570.24105 0.0000080
1.67000 52872.97243 58846.62316 0.0000081
1.68000 52029.15737 56484.56936 0.0000081
1.69000 49984.25873 54417.84618 0.0000083
1.70000 50233.35178 52595.67168 0.0000082
1.71000 48025.02991 50978.21540 0.0000084
1.72000 48346.27537 49533.84983 0.0000083
1.73000 46636.37198 48237.17826 0.0000085
1.74000 47081.98992 47067.59869 0.0000084
1.75000 45972.94777 46008.24360 0.0000085
1.76000 45871.24470 45045.18739 0.0000084
1.77000 44970.17983 44166.84694 0.0000085
1.78000 44634.75777 43363.52363 0.0000085
1.79000 43905.91763 42627.05001 0.0000085
1.80000 44032.30118 41950.51515 0.0000085
1.81000 43195.82963 41328.04961 0.0000086
1.82000 42856.25529 40754.65645 0.0000086
1.83000 42794.20138 40226.07811 0.0000085
1.84000 41841.08058 39738.69172 0.0000086
1.85000 42208.14908 39289.42765 0.0000085
1.86000 41863.61506 38875.70723 0.0000086
1.87000 41615.72778 38495.39716 0.0000086
1.88000 41285.11916 38146.77901 0.0000086
1.89000 41383.53239 37828.53317 0.0000085
1.90000 40625.70273 37540.50498 0.0000086
1.91000 40791.39627 37280.65974 0.0000086
1.92000 40319.38651 37049.69508 0.0000086
1.93000 40313.80909 36848.05674 0.0000086
1.94000 40089.66487 36676.78848 0.0000086
1.95000 39939.79790 36537.66711 0.0000086
1.96000 39782.68771 36433.39944 0.0000085
1.97000 39622.61638 36367.90935 0.0000086
1.98000 39947.17928 36346.75968 0.0000085
1.99000 39534.43807 36377.79036 0.0000085
2.00000 40140.57521 36472.16977 0.0000084
2.01000 40128.26469 36646.56382 0.0000085
2.02000 40876.59598 36929.30173 0.0000084
2.03000 41189.78478 37381.15526 0.0000083
2.04000 42766.17071 38161.87881 0.0000082
2.05000 44756.23098 39707.45194 0.0000081
2.06000 48574.60708 43087.44858 0.0000078
2.07000 54456.54497 50464.76627 0.0000074
2.08000 67854.82368 65180.46697 0.0000068
2.09000 89632.01918 90607.23640 0.0000059
2.10000 128064.53780 127355.93500 0.0000048
2.11000 170171.26432 169988.32125 0.0000040
2.12000 201386.17295 205609.87475 0.0000035
2.13000 215340.51237 217619.88072 0.0000034
2.14000 197523.08647 198885.00454 0.0000036
2.15000 161551.65445 160070.35972 0.0000041
2.16000 116256.14897 117787.89841 0.0000050
2.17000 84828.51248 83309.12034 0.0000060
2.18000 63401.78330 60454.90989 0.0000069
2.19000 52210.14619 47670.00581 0.0000074
2.20000 45960.07474 41389.60928 0.0000078
2.21000 42727.45674 38495.93853 0.0000079
2.22000 40941.67625 37110.06596 0.0000080
2.23000 39639.45196 36350.61116 0.0000081
2.24000 38993.81821 35871.52504 0.0000081
2.25000 38513.68789 35547.84181 0.0000082
2.26000 38222.58715 35331.29878 0.0000081
2.27000 37982.88883 35199.02796 0.0000082
2.28000 38041.30037 35138.07200 0.0000081
2.29000 37665.70316 35140.80523 0.0000082
2.30000 38047.26962 35203.31592 0.0000081
2.31000 37461.07634 35324.68735 0.0000081
2.32000 37865.08680 35506.70985 0.0000081
2.33000 37560.61027 35753.88955 0.0000081
2.34000 38111.37273 36073.74002 0.0000080
2.35000 38082.58957 36477.39880 0.0000080
2.36000 38653.96474 36980.69342 0.0000080
2.37000 38732.43278 37606.01898 0.0000080
2.38000 39621.93665 38386.40937 0.0000079
2.39000 40534.35557 39377.42711 0.0000078
2.40000 42058.24477 40696.97712 0.0000077
2.41000 44671.67682 42649.31189 0.0000075
2.42000 48434.28903 46042.12223 0.0000073
2.43000 55968.39709 52789.83487 0.0000069
2.44000 67750.78413 66606.29779 0.0000064
2.45000 91902.67695 92920.69517 0.0000055
2.46000 135036.64309 136675.19384 0.0000045
2.47000 196811.91734 197665.73164 0.0000035
2.48000 265813.99990 265624.62680 0.0000028
2.49000 319190.95623 318844.72746 0.0000024
2.50000 334799.73774 332288.37252 0.0000024
2.51000 303439.62075 299677.85693 0.0000025
2.52000 245049.83943 241623.83055 0.0000030
2.53000 191121.41014 185732.53600 0.0000036
2.54000 158604.95601 153427.89939 0.0000040
2.55000 167542.27941 160465.24717 0.0000039
2.56000 220467.29331 221030.47086 0.0000032
2.57000 339553.44686 346729.48713 0.0000023
2.58000 532738.38833 535370.45605 0.0000016
2.59000 745993.26624 754999.28665 0.0000012
2.60000 942671.60977 936513.75527 0.0000010
2.61000 994698.81182 993757.20767 0.0000009
2.62000 901664.78474 892117.38210 0.0000010
2.63000 684663.49446 688765.75908 0.0000013
2.64000 468584.87767 469522.06989 0.0000018
2.65000 286536.87814 291717.79583 0.0000026
2.66000 173973.56881 174214.02101 0.0000037
2.67000 113473.04576 108513.37116 0.0000048
2.68000 81579.75522 76089.85293 0.0000057
2.69000 62633.36968 60935.64078 0.0000064
2.70000 52887.96190 53441.59696 0.0000068
2.71000 46992.41914 49106.95863 0.0000071
2.72000 42291.28897 46159.31635 0.0000074
2.73000 40024.35614 43963.72099 0.0000075
2.74000 37948.44601 42233.66622 0.0000076
2.75000 37312.80420 40851.61388 0.0000076
2.76000 35930.27132 39735.60260 0.0000077
2.77000 35654.71107 38828.69043 0.0000077
2.78000 34835.85361 38089.76635 0.0000077
2.79000 34776.18274 37488.75051 0.0000077
2.80000 34321.87523 37003.60424 0.0000077
2.81000 34050.28366 36618.36469 0.0000077
2.82000 33502.49010 36321.85502 0.0000078
2.83000 33879.79981 36106.87669 0.0000077
2.84000 33918.64731 35969.77561 0.0000077
2.85000 33588.83538 35910.33366 0.0000077
2.86000 33800.50314 35931.98871 0.0000077
2.87000 33490.37665 36042.44663 0.0000077
2.88000 33849.42042 36254.87408 0.0000077
2.89000 34131.98822 36590.31015 0.0000077
2.90000 35225.05124 37083.90184 0.0000076
2.91000 35625.05642 37805.20835 0.0000076
2.92000 37709.93018 38926.02291 0.0000074
2.93000 40476.64927 40917.56429 0.0000073
2.94000 45649.45035 45002.34786 0.0000070
2.95000 54289.97384 53880.02668 0.0000066
2.96000 72463.23341 72265.79261 0.0000059
2.97000 101429.18534 106033.36255 0.0000050
2.98000 156533.09518 158744.33412 0.0000039
2.99000 224429.88546 226225.63449 0.0000031
3.00000 289941.88829 292445.87655 0.0000026
3.01000 330729.09336 331085.46419 0.0000023
3.02000 321249.22649 320822.84250 0.0000024
3.03000 269757.91425 267751.15020 0.0000027
3.04000 196696.08569 198180.91381 0.0000034
3.05000 133125.79286 135217.59771 0.0000043
3.06000 87535.04543 89951.06911 0.0000053
3.07000 62747.76115 62831.71886 0.0000061
3.08000 49339.00439 48786.30130 0.0000067
3.09000 42046.18957 42138.76853 0.0000070
3.10000 37867.46216 38448.35041 0.0000072
3.11000 35598.07768 36760.34963 0.0000073
3.12000 33829.47236 35687.88439 0.0000074
3.13000 33127.47176 34914.59464 0.0000075
3.14000 32117.15647 34321.57807 0.0000075
3.15000 31783.22329 33856.78279 0.0000075
3.16000 31836.38192 33486.59840 0.0000075
3.17000 30867.41313 33192.40025 0.0000075
3.18000 31332.13225 32960.51299 0.0000075
3.19000 30841.57927 32782.43389 0.0000075
3.20000 31000.13396 32655.64133 0.0000075
3.21000 30702.71262 32587.76338 0.0000075
3.22000 30921.85059 32602.40749 0.0000075
3.23000 30819.59035 32747.47740 0.0000075
3.24000 31198.74799 33087.03467 0.0000074
3.25000 31483.99931 33668.13743 0.0000074
3.26000 32400.68513 34465.97829 0.0000073
3.27000 32831.56522 35344.03426 0.0000073
3.28000 33722.78636 36085.79101 0.0000072
3.29000 34417.34212 36605.68829 0.0000072
3.30000 35733.56646 37336.87189 0.0000071
3.31000 38183.76081 39240.40491 0.0000069
3.32000 42825.98535 44119.01844 0.0000067
3.33000 52095.41527 53319.44057 0.0000063
3.34000 67115.27918 67205.55442 0.0000058
3.35000 85084.76198 83775.63065 0.0000052
3.36000 99503.17131 98061.01949 0.0000048
3.37000 105718.58473 103406.57399 0.0000047
3.38000 98756.63894 96561.13910 0.0000048
3.39000 83270.76695 81489.06447 0.0000052
3.40000 64676.78661 64800.43256 0.0000058
3.41000 51024.01175 51055.69877 0.0000063
3.42000 41147.57744 41865.17931 0.0000067
3.43000 36287.02297 36678.25106 0.0000069
3.44000 33561.43305 34102.65043 0.0000070
3.45000 32164.65389 32896.92350 0.0000070
3.46000 31209.69505 32303.62130 0.0000070
3.47000 30777.46222 31964.04334 0.0000071
3.48000 30233.78692 31736.01096 0.0000070
3.49000 30068.48062 31567.48378 0.0000071
3.50000 30263.37427 31437.84632 0.0000070
3.51000 29733.36071 31336.86672 0.0000070
3.52000 29896.72899 31258.28870 0.0000070
3.53000 29414.29552 31197.90339 0.0000070
3.54000 29590.07270 31152.83707 0.0000070
3.55000 29746.13273 31121.20529 0.0000069
3.56000 29824.63810 31101.93298 0.0000069
3.57000 29715.96042 31094.70787 0.0000069
3.58000 29904.49648 31100.16554 0.0000069
3.59000 29681.29924 31130.89291 0.0000068
3.60000 29744.35279 31174.16016 0.0000068
3.61000 30433.65909 31261.25526 0.0000068
3.62000 30168.01416 31447.10440 0.0000068
3.63000 30664.17043 31850.14315 0.0000067
3.64000 31449.15697 32669.81048 0.0000067
3.65000 32852.23603 34142.21310 0.0000066
3.66000 34857.36942 36376.94704 0.0000065
3.67000 38129.48974 39151.06226 0.0000063
3.68000 40290.50364 41752.38858 0.0000062
3.69000 41841.39475 43093.11944 0.0000061
3.70000 41382.20147 42428.19133 0.0000061
3.71000 39133.82707 40182.53060 0.0000062
3.72000 36016.95208 37447.43861 0.0000063
3.73000 33920.62489 35087.14928 0.0000063
3.74000 32184.53191 33474.61668 0.0000064
3.75000 31224.98534 32582.64378 0.0000064
3.76000 31148.56442 32197.86650 0.0000064
3.77000 30874.04984 32105.77898 0.0000064
3.78000 30702.41984 32169.49201 0.0000063
3.79000 30854.62659 32326.96229 0.0000063
3.80000 31445.37033 32563.31472 0.0000062
3.81000 31465.91127 32893.44511 0.0000062
3.82000 32596.16967 33371.24082 0.0000062
3.83000 33543.12046 34149.76429 0.0000061
3.84000 35989.03782 35640.48558 0.0000060
3.85000 39203.70438 38810.56572 0.0000059
3.86000 46043.48121 45461.58635 0.0000056
3.87000 57992.64709 58134.03570 0.0000052
3.88000 80006.96102 78916.21142 0.0000047
3.89000 110379.40313 107216.60442 0.0000041
3.90000 143376.01526 137611.56876 0.0000036
3.91000 166559.61410 159486.70234 0.0000033
3.92000 169436.04547 161548.63189 0.0000033
3.93000 149955.19600 142594.07604 0.0000035
3.94000 118120.44200 112884.73658 0.0000039
3.95000 86372.65559 83675.91994 0.0000044
3.96000 61409.72967 61379.43555 0.0000050
3.97000 48588.68582 47336.27608 0.0000053
3.98000 40608.27451 39772.01508 0.0000055
3.99000 36825.37040 36120.74553 0.0000056
4.00000 34305.63651 34415.79296 0.0000056
4.01000 33326.42524 33544.57098 0.0000056
4.02000 32192.47926 33022.98393 0.0000056
4.03000 32137.42801 32662.99413 0.0000056
4.04000 31908.84934 32394.93079 0.0000056
4.05000 31491.87497 32189.29151 0.0000056
4.06000 31268.22642 32030.21397 0.0000055
4.07000 31260.58504 31907.50915 0.0000055
4.08000 31557.97182 31814.12768 0.0000055
4.09000 31219.57730 31745.10817 0.0000055
4.10000 31494.83015 31697.00531 0.0000054
4.11000 31446.10013 31667.54499 0.0000054
4.12000 31528.22346 31655.42475 0.0000054
4.13000 31567.04215 31660.23073 0.0000054
4.14000 31658.71500 31682.48601 0.0000053
4.15000 31695.48991 31723.97579 0.0000053
4.16000 31879.54610 31788.97734 0.0000053
4.17000 31922.72208 31888.51694 0.0000052
4.18000 32197.65850 32053.02774 0.0000052
4.19000 32670.51002 32362.13671 0.0000052
4.20000 33266.46467 32994.47486 0.0000051
4.21000 34427.27212 34269.33179 0.0000051
4.22000 36660.92148 36599.32584 0.0000050
4.23000 40499.26590 40263.79524 0.0000049
4.24000 45186.79850 45041.70782 0.0000047
4.25000 50544.89390 49865.35926 0.0000046
4.26000 52838.76671 52920.35248 0.0000045
4.27000 53203.91561 52594.15645 0.0000045
4.28000 49702.53420 49165.81099 0.0000046
4.29000 44924.05372 44459.47640 0.0000046
4.30000 40073.06749 40193.55600 0.0000047
4.31000 37390.43451 37189.01479 0.0000047
4.32000 35425.61702 35522.53768 0.0000048
4.33000 35048.02399 34863.47438 0.0000048
4.34000 34737.69594 34828.85803 0.0000047
4.35000 35257.78205 35166.51811 0.0000047
4.36000 35734.75876 35787.54616 0.0000047
4.37000 37050.53591 36772.65253 0.0000046
4.38000 39081.87843 38478.40844 0.0000046
4.39000 42711.60248 41830.04669 0.0000045
4.40000 49649.48838 48747.09370 0.0000043
4.41000 61627.28256 62232.64467 0.0000041
4.42000 84305.72654 85689.77135 0.0000037
4.43000 119022.80722 120130.01100 0.0000033
4.44000 161634.52585 161405.41949 0.0000029
4.45000 197837.27548 198798.20785 0.0000026
4.46000 217483.30876 218300.86261 0.0000025
4.47000 215100.83660 215253.65815 0.0000025
4.48000 202176.36952 203253.96937 0.0000026
4.49000 195510.81799 200622.83201 0.0000026
4.50000 210754.69497 215253.41904 0.0000025
4.51000 234735.46037 239665.53338 0.0000023
4.52000 247011.02392 253993.72461 0.0000023
4.53000 236146.75345 240091.00213 0.0000023
4.54000 197957.80759 199748.03891 0.0000025
4.55000 147959.79990 149816.21072 0.0000029
4.56000 103770.80076 105425.53019 0.0000033
4.57000 73967.02989 73710.49983 0.0000037
4.58000 55569.70677 54690.47605 0.0000040
4.59000 47058.88282 44739.50407 0.0000041
4.60000 41676.93739 39912.08681 0.0000042
4.61000 39216.09652 37519.60674 0.0000042
4.62000 37234.58304 36168.19359 0.0000042
4.63000 36019.80394 35275.80807 0.0000042
4.64000 35276.63375 34621.44315 0.0000042
4.65000 34934.26475 34119.77106 0.0000042
4.66000 34483.67075 33732.23289 0.0000042
4.67000 34798.48958 33440.38668 0.0000042
4.68000 34556.65838 33244.21765 0.0000042
4.69000 34647.93998 33177.60150 0.0000042
4.70000 34758.36937 33343.45103 0.0000042
4.71000 35401.87588 33957.94504 0.0000042
4.72000 36554.93481 35352.84653 0.0000041
4.73000 38473.14676 37853.36409 0.0000041
4.74000 41838.58112 41479.11574 0.0000040
4.75000 45292.01498 45637.70730 0.0000040
4.76000 48414.68053 48978.35013 0.0000039
4.77000 48949.31981 49834.53268 0.0000039
4.78000 47318.38418 47649.21433 0.0000039
4.79000 44140.13648 43633.88882 0.0000040
4.80000 40430.74771 39446.30179 0.0000040
4.81000 37520.05636 36108.50506 0.0000041
4.82000 35691.79001 33959.54451 0.0000041
4.83000 35132.04002 32787.53979 0.0000041
4.84000 34367.29630 32240.17498 0.0000041
4.85000 34474.09740 32034.02568 0.0000041
4.86000 34331.88889 32029.74369 0.0000041
4.87000 34699.49697 32234.38865 0.0000041
4.88000 35030.11348 32810.65630 0.0000041
4.89000 36738.33892 34093.84420 0.0000041
4.90000 38945.63942 36529.06142 0.0000041
4.91000 43512.20551 40423.12339 0.0000040
4.92000 48923.80969 45538.64309 0.0000039
4.93000 54791.20262 50758.35605 0.0000038
4.94000 58519.85035 54139.97534 0.0000038
4.95000 58717.62642 53990.11713 0.0000038
4.96000 54657.60034 50701.57691 0.0000038
4.97000 49508.69785 46332.34829 0.0000039
4.98000 44706.91125 42611.35999 0.0000040
4.99000 41946.02267 40129.62378 0.0000040
5.00000 40100.25295 38487.26279 0.0000041
5.01000 38632.00573 37006.23639 0.0000041
5.02000 37173.30744 35460.52260 0.0000041
5.03000 35473.69068 34014.35831 0.0000042
5.04000 35014.46174 32862.34401 0.0000042
5.05000 33894.42819 32080.30529 0.0000042
5.06000 33593.14684 31621.53662 0.0000042
5.07000 33238.89082 31396.20062 0.0000043
5.08000 33169.61130 31279.98232 0.0000043
5.09000 32769.48643 31226.26295 0.0000043
5.10000 33026.08724 31204.81207 0.0000043
5.11000 32935.10866 31203.62636 0.0000043
5.12000 33035.52487 31220.07553 0.0000043
5.13000 32710.69164 31253.81692 0.0000044
5.14000 33088.49613 31313.71873 0.0000044
5.15000 33050.67813 31422.35006 0.0000044
5.16000 33209.14705 31630.91497 0.0000044
5.17000 33743.70611 32026.75537 0.0000044
5.18000 34465.67949 32738.26938 0.0000044
5.19000 35594.08380 33843.38011 0.0000044
5.20000 37300.08997 35280.24328 0.0000044
5.21000 38923.65234 36751.80668 0.0000043
5.22000 39726.28205 37735.97925 0.0000044
5.23000 39933.93609 37766.81666 0.0000044
5.24000 38679.81089 36927.90148 0.0000044
5.25000 37368.61762 35760.59466 0.0000044
5.26000 35800.25569 34761.73913 0.0000045
5.27000 35364.68770 34189.21785 0.0000045
5.28000 35069.00425 34100.77765 0.0000045
5.29000 35463.36742 34462.60555 0.0000045
5.30000 36606.22116 35362.54150 0.0000045
5.31000 38889.46249 37238.01321 0.0000045
5.32000 43111.90627 41232.75952 0.0000044
5.33000 51307.70733 49516.17980 0.0000043
5.34000 65101.53361 65050.76749 0.0000041
5.35000 90554.11115 90131.89924 0.0000037
5.36000 124920.46104 123775.58985 0.0000033
5.37000 160010.27179 159364.33669 0.0000030
5.38000 185251.27136 184506.15633 0.0000028
5.39000 188131.03748 187023.58460 0.0000028
5.40000 170522.24217 167736.81372 0.0000029
5.41000 140293.84653 139661.33488 0.0000032
5.42000 115474.74039 114350.89275 0.0000035
5.43000 96398.88988 95921.97879 0.0000037
5.44000 83446.71223 82257.52427 0.0000039
5.45000 72336.03042 70147.76505 0.0000041
5.46000 60837.87964 58988.25068 0.0000044
5.47000 50226.67752 49640.88560 0.0000046
5.48000 43254.59703 42791.57918 0.0000048
5.49000 38687.27439 38434.45934 0.0000049
5.50000 36071.40914 36000.74553 0.0000050
5.51000 35066.04629 34768.79382 0.0000050
5.52000 34057.41621 34183.81427 0.0000051
5.53000 33857.10678 33933.84341 0.0000051
5.54000 33582.55131 33889.14749 0.0000051
5.55000 34253.55401 34037.21099 0.0000051
5.56000 34687.22046 34485.50806 0.0000052
5.57000 35988.79353 35564.86687 0.0000051
5.58000 38403.25835 38026.06714 0.0000051
5.59000 43381.77605 43194.46755 0.0000050
5.60000 51629.92294 52736.37501 0.0000048
5.61000 66541.60750 67697.83631 0.0000045
5.62000 85781.19670 86967.41272 0.0000042
5.63000 103868.80874 106044.35537 0.0000039
5.64000 115349.90352 117344.44561 0.0000037
5.65000 112841.05107 114568.36389 0.0000038
5.66000 98769.94191 99448.50267 0.0000040
5.67000 78770.97619 79664.22994 0.0000044
5.68000 61140.12754 61867.11966 0.0000048
5.69000 48750.15515 49209.26218 0.0000051
5.70000 42309.42904 41853.87687 0.0000053
5.71000 39309.26694 38491.93996 0.0000054
5.72000 39079.31530 37890.90433 0.0000054
5.73000 40629.88791 39791.71950 0.0000054
5.74000 45740.34696 45044.05470 0.0000053
5.75000 54990.34245 55154.79398 0.0000051
5.76000 71645.79549 71026.78335 0.0000047
5.77000 92853.10610 91268.64650 0.0000043
5.78000 112688.73297 110918.83486 0.0000040
5.79000 124577.71986 121918.80594 0.0000038
5.80000 120912.18319 118000.74407 0.0000038
5.81000 104226.09445 101489.15469 0.0000041
5.82000 82324.60975 80496.65420 0.0000046
5.83000 62188.89235 61801.95916 0.0000050
5.84000 48697.46838 48500.65814 0.0000054
5.85000 41404.74365 40588.44379 0.0000057
5.86000 36967.39202 36516.62662 0.0000059
5.87000 34900.29386 34615.38238 0.0000059
5.88000 33601.01984 33752.62794 0.0000060
5.89000 33135.54577 33352.08586 0.0000061
5.90000 32506.22107 33172.04166 0.0000061
5.91000 32908.28611 33132.36325 0.0000061
5.92000 32489.13046 33213.72855 0.0000062
5.93000 33033.54248 33429.73638 0.0000062
5.94000 33387.04886 33841.33057 0.0000062
5.95000 34857.59396 34630.73520 0.0000062
5.96000 36838.02892 36280.54030 0.0000061
5.97000 40994.74353 39870.20481 0.0000060
5.98000 47811.27533 47314.67117 0.0000058
5.99000 61516.24415 61060.08755 0.0000054
6.00000 83341.43769 82714.94803 0.0000048
6.01000 113122.73252 110807.23259 0.0000042
6.02000 141967.48482 138938.61213 0.0000038
6.03000 158974.64093 156067.68627 0.0000036
6.04000 156485.61733 152646.33807 0.0000036
6.05000 134438.54018 130744.73704 0.0000039
6.06000 104202.59587 101570.52227 0.0000045
6.07000 75243.79212 75021.97258 0.0000051
6.08000 56736.19619 55848.95197 0.0000057
6.09000 45056.21010 44312.84566 0.0000061
6.10000 39214.30046 38328.38239 0.0000064
6.11000 35845.41758 35526.88646 0.0000065
6.12000 34451.83388 34271.77184 0.0000066
6.13000 33480.69989 33738.79530 0.0000067
6.14000 33517.17994 33654.21659 0.0000067
6.15000 33941.81980 34100.21732 0.0000067
6.16000 35562.90237 35474.65664 0.0000067
6.17000 38474.89396 38472.82688 0.0000066
6.18000 43963.66078 43856.97490 0.0000064
6.19000 52792.48409 51865.74789 0.0000060
6.20000 62341.78667 61441.29696 0.0000057
6.21000 71665.58568 69770.92291 0.0000055
6.22000 74734.53014 72921.00727 0.0000054
6.23000 71281.79674 68904.47302 0.0000055
6.24000 62217.05996 60097.75768 0.0000058
6.25000 52183.56944 50422.14437 0.0000062
6.26000 43546.02371 42503.09187 0.0000066
6.27000 38078.47984 37261.89527 0.0000068
6.28000 35198.78378 34351.70569 0.0000070
6.29000 33362.91882 32973.21194 0.0000071
6.30000 32486.08789 32427.62691 0.0000072
6.31000 32208.64217 32323.08485 0.0000072
6.32000 32300.00338 32546.93943 0.0000072
6.33000 33150.56087 33311.55707 0.0000072
6.34000 34694.58279 35113.84607 0.0000072
6.35000 37985.47528 38839.46632 0.0000070
6.36000 43946.04968 45473.03201 0.0000068
6.37000 53620.00650 55383.88383 0.0000064
6.38000 65381.81832 67379.14942 0.0000059
6.39000 74995.91132 78115.97527 0.0000056
6.40000 79557.75425 82730.62129 0.0000055
6.41000 75937.30042 78455.98455 0.0000056
6.42000 66225.75907 67966.13805 0.0000060
6.43000 54311.38790 56143.57222 0.0000064
6.44000 45477.50669 46412.78999 0.0000068
6.45000 39388.91933 40093.81712 0.0000072
6.46000 36994.30442 37045.23481 0.0000073
6.47000 36814.66364 36722.11712 0.0000074
6.48000 39537.04401 38982.23906 0.0000072
6.49000 44391.82860 44219.28517 0.0000070
6.50000 53666.55726 52826.56149 0.0000066
6.51000 66690.96615 64362.26217 0.0000061
6.52000 79905.07129 76957.73063 0.0000056
6.53000 90639.58473 87485.07255 0.0000053
6.54000 97167.23086 93643.34833 0.0000052
6.55000 100520.14270 96523.80012 0.0000051
6.56000 100764.73298 98139.57037 0.0000051
6.57000 99678.95478 97570.89164 0.0000051
6.58000 93362.10076 91601.88692 0.0000053
6.59000 82138.19252 79728.54743 0.0000057
6.60000 66843.55550 65507.57430 0.0000062
6.61000 53195.20101 52713.56623 0.0000068
6.62000 43121.33684 43311.07179 0.0000073
6.63000 37451.78690 37477.61538 0.0000076
6.64000 33916.50436 34334.14600 0.0000079
6.65000 32562.45864 32793.85696 0.0000080
6.66000 31422.44255 32055.76522 0.0000081
6.67000 30931.04503 31682.60394 0.0000081
6.68000 30645.48268 31482.87426 0.0000082
6.69000 30407.88550 31385.67149 0.0000082
6.70000 30509.90591 31368.37549 0.0000082
6.71000 30336.16437 31425.41054 0.0000083
6.72000 30802.47587 31555.73126 0.0000083
6.73000 30899.42285 31757.39021 0.0000083
6.74000 31520.87903 32025.30304 0.0000083
6.75000 31560.46924 32362.30418 0.0000083
6.76000 32041.49115 32790.82701 0.0000083
6.77000 32453.81282 33376.87320 0.0000083
6.78000 33538.95900 34263.49422 0.0000082
6.79000 35156.72787 35800.39783 0.0000081
6.80000 39222.83717 38855.04457 0.0000079
6.81000 45422.30511 45306.35618 0.0000075
6.82000 57715.49678 58386.88884 0.0000069
6.83000 79324.43968 82066.27928 0.0000060
6.84000 116817.79574 118677.91047 0.0000049
6.85000 163961.33518 165323.86119 0.0000040
6.86000 208347.33054 211053.84197 0.0000034
6.87000 235222.10728 237791.10730 0.0000031
6.88000 229729.22942 231292.31496 0.0000032
6.89000 196879.65028 196687.90612 0.0000035
6.90000 149963.44011 151919.62722 0.0000043
6.91000 108095.93930 111329.40283 0.0000052
6.92000 78349.15940 80927.19783 0.0000061
6.93000 59924.46834 60839.01480 0.0000069
6.94000 47884.34157 48664.34665 0.0000076
6.95000 41002.61007 41623.61455 0.0000080
6.96000 36555.08912 37640.97144 0.0000083
6.97000 34283.59872 35445.63306 0.0000085
6.98000 32753.21972 34307.47494 0.0000086
6.99000 32595.63081 33857.80309 0.0000087
7.00000 33037.68167 34060.26670 0.0000086
7.01000 34399.58058 35266.88941 0.0000086
7.02000 37286.01075 38364.14296 0.0000084
7.03000 43597.64336 44694.31209 0.0000080
7.04000 54088.47158 55481.43735 0.0000074
7.05000 69517.66290 70650.63861 0.0000066
7.06000 86967.04189 87561.75379 0.0000059
7.07000 98860.38478 100544.13751 0.0000056
7.08000 102495.37538 102956.98918 0.0000055
7.09000 93252.96304 93245.41785 0.0000058
7.10000 76976.94051 76831.15962 0.0000064
7.11000 59261.90107 60249.37154 0.0000072
7.12000 46710.23658 47368.63825 0.0000079
7.13000 38526.16108 39179.68649 0.0000085
7.14000 34740.05827 34870.73028 0.0000088
7.15000 32655.62548 33130.20624 0.0000089
7.16000 32341.80882 32921.19710 0.0000090
7.17000 32757.87421 33584.05527 0.0000090
7.18000 33823.64458 34602.94179 0.0000089
7.19000 34323.40470 35385.87484 0.0000089
7.20000 34478.17928 35369.47437 0.0000089
7.21000 33752.49166 34407.05659 0.0000090
7.22000 32173.67805 32935.71779 0.0000091
7.23000 30806.69448 31477.70484 0.0000092
7.24000 29853.88435 30344.86691 0.0000093
7.25000 29211.84088 29608.01046 0.0000094
7.26000 28704.76577 29195.95769 0.0000095
7.27000 28490.60518 28985.06817 0.0000095
7.28000 28359.10496 28886.75832 0.0000095
7.29000 28246.76641 28850.34152 0.0000096
7.30000 28386.80483 28858.33055 0.0000096
7.31000 28265.51699 28919.65965 0.0000096
7.32000 28365.88420 29077.47754 0.0000096
7.33000 28921.75605 29431.16870 0.0000096
7.34000 29172.28036 30152.51412 0.0000096
7.35000 30327.22792 31453.88597 0.0000095
7.36000 31997.40180 33449.84634 0.0000093
7.37000 34085.58266 35982.69051 0.0000092
7.38000 36145.10782 38463.30059 0.0000090
7.39000 37480.74108 39927.06986 0.0000089
7.40000 37451.05401 39643.76569 0.0000089
7.41000 36114.73790 37951.75076 0.0000091
7.42000 34568.14979 35910.93010 0.0000092
7.43000 33422.85323 34513.93946 0.0000093
7.44000 33854.82095 34558.86361 0.0000093
7.45000 36265.29387 36918.25102 0.0000091
7.46000 41896.52875 42692.70789 0.0000087
7.47000 51428.47607 52951.16377 0.0000080
7.48000 66754.67947 67830.52273 0.0000072
7.49000 83301.36812 85474.60565 0.0000064
7.50000 98577.34026 101513.80808 0.0000058
7.51000 106808.45424 110474.44400 0.0000056
7.52000 107034.83229 110564.00844 0.0000056
7.53000 100103.38365 104916.45176 0.0000058
7.54000 90409.18810 96162.53723 0.0000062
7.55000 79024.14079 84387.34508 0.0000066
7.56000 66856.51715 70472.18334 0.0000072
7.57000 54613.76028 57101.88187 0.0000079
7.58000 44517.86759 46367.50780 0.0000086
7.59000 37655.68118 38983.14114 0.0000092
7.60000 33586.12196 34588.67328 0.0000096
7.61000 31750.75558 32343.22689 0.0000097
7.62000 30864.29500 31440.62566 0.0000099
7.63000 31086.56484 31468.17307 0.0000098
7.64000 31967.49603 32459.43959 0.0000098
7.65000 34388.39568 34754.98319 0.0000096
7.66000 38514.03959 38673.42456 0.0000092
7.67000 44452.65649 44033.38028 0.0000087
7.68000 50448.11077 49731.17655 0.0000083
7.69000 54603.22904 53666.85835 0.0000081
7.70000 54690.46487 53714.06250 0.0000081
7.71000 51113.58061 49931.53968 0.0000083
7.72000 45172.80745 44526.60448 0.0000088
7.73000 40141.46661 39680.67730 0.0000092
7.74000 36726.15386 36696.65247 0.0000095
7.75000 36469.93526 36173.68886 0.0000095
7.76000 39167.32743 38456.31729 0.0000093
7.77000 45468.73904 43965.71491 0.0000088
7.78000 55458.62081 53197.99084 0.0000081
7.79000 68931.66510 66441.00217 0.0000073
7.80000 85379.54535 83240.97747 0.0000065
7.81000 104219.35142 102114.22739 0.0000058
7.82000 123034.93690 121175.27206 0.0000052
7.83000 136594.10656 136878.15531 0.0000049
7.84000 141123.79828 142197.38009 0.0000048
7.85000 130828.54548 131711.28564 0.0000051
7.86000 108835.21705 109188.25092 0.0000057
7.87000 82793.54504 83681.65022 0.0000067
7.88000 61267.67782 62054.68802 0.0000078
7.89000 46263.51877 47048.48210 0.0000089
7.90000 38340.50955 38207.92863 0.0000096
7.91000 33694.25544 33619.37435 0.0000100
7.92000 31392.47679 31389.30522 0.0000103
7.93000 30046.94224 30274.32402 0.0000104
7.94000 29118.78280 29646.74001 0.0000105
7.95000 28709.90111 29243.86611 0.0000106
7.96000 28367.83721 28966.59139 0.0000107
7.97000 28044.69581 28776.96221 0.0000107
7.98000 28112.92348 28665.10842 0.0000107
7.99000 28233.19229 28613.52869 0.0000107
8.00000 28193.24076 28632.94578 0.0000108
8.01000 28385.34664 28746.98331 0.0000107
8.02000 28714.29461 29017.91337 0.0000107
8.03000 29466.24878 29598.00664 0.0000106
8.04000 30569.34405 30758.22869 0.0000106
8.05000 32929.59625 32917.17840 0.0000103
8.06000 36615.63970 36602.02218 0.0000100
8.07000 42095.04557 42310.99231 0.0000094
8.08000 49426.93338 50362.83007 0.0000089
8.09000 59459.95858 60520.71186 0.0000081
8.10000 71200.98367 71862.41400 0.0000074
8.11000 82465.88683 82854.43761 0.0000069
8.12000 89595.93806 90435.56535 0.0000066
8.13000 90126.98506 90298.53354 0.0000065
8.14000 81730.63257 81235.44647 0.0000069
8.15000 67819.88492 67287.54777 0.0000077
8.16000 53508.99905 53480.52966 0.0000086
8.17000 42575.52356 42772.93910 0.0000095
8.18000 35866.45845 35881.84851 0.0000102
8.19000 32279.44032 32091.16326 0.0000106
8.20000 30556.30309 30252.10563 0.0000108
8.21000 29371.28373 29436.14427 0.0000110
8.22000 29037.00667 29121.18716 0.0000111
8.23000 28785.31560 29068.10097 0.0000111
8.24000 28905.89865 29184.81459 0.0000111
8.25000 29116.23517 29423.38144 0.0000111
8.26000 29752.03484 29739.25977 0.0000110
8.27000 30107.64623 30106.96825 0.0000110
8.28000 30929.00393 30608.02558 0.0000109
8.29000 31854.66913 31556.88438 0.0000109
8.30000 34425.58725 33659.54445 0.0000106
8.31000 38623.17542 38318.99337 0.0000101
8.32000 47287.26043 47745.86069 0.0000093
8.33000 62827.49984 64337.10830 0.0000082
8.34000 86980.06085 88932.02315 0.0000068
8.35000 115608.60155 118522.98825 0.0000057
8.36000 139671.10985 144776.91574 0.0000050
8.37000 150099.01086 155590.34207 0.0000048
8.38000 140968.87520 144270.95213 0.0000050
8.39000 115470.18095 117765.44570 0.0000057
8.40000 86364.50316 88161.99518 0.0000069
8.41000 62455.31253 63666.49744 0.0000083
8.42000 46706.73885 47174.80894 0.0000095
8.43000 38160.57955 37772.59713 0.0000104
8.44000 33375.17131 33041.47366 0.0000110
8.45000 30987.62647 30798.03368 0.0000113
8.46000 29389.42485 29704.18841 0.0000115
8.47000 28992.94891 29140.09729 0.0000116
8.48000 28450.91621 28899.70865 0.0000117
8.49000 28642.38959 28969.97264 0.0000117
8.50000 28997.75994 29397.90006 0.0000117
8.51000 30017.40675 30183.97997 0.0000115
8.52000 31272.12208 31185.32610 0.0000114
8.53000 32259.35020 32069.35185 0.0000113
8.54000 32616.44614 32400.82380 0.0000113
8.55000 32394.27782 32018.82204 0.0000113
8.56000 31745.65094 31305.75688 0.0000114
8.57000 31361.99874 30912.19870 0.0000115
8.58000 31858.95885 31544.56352 0.0000114
8.59000 34205.86076 33941.57975 0.0000112
8.60000 38946.34122 38711.05286 0.0000106
8.61000 46588.90254 45879.44995 0.0000098
8.62000 55203.33117 54312.80549 0.0000091
8.63000 62022.94615 61396.59378 0.0000086
8.64000 64752.34535 63732.30915 0.0000084
8.65000 61260.53022 59943.35426 0.0000086
8.66000 53551.70745 52325.43118 0.0000093
8.67000 44680.43062 44166.70407 0.0000101
8.68000 38015.42163 37536.50397 0.0000109
8.69000 33328.27023 33148.52783 0.0000115
8.70000 31022.37492 30726.40097 0.0000118
8.71000 29922.27389 29670.01183 0.0000120
8.72000 29932.17017 29523.67650 0.0000120
8.73000 30591.50392 30227.79791 0.0000119
8.74000 32577.02434 32237.46098 0.0000117
8.75000 36530.27399 36555.65633 0.0000112
8.76000 43981.12668 44457.51961 0.0000103
8.77000 56085.55938 56656.06746 0.0000092
8.78000 71241.61925 72093.20558 0.0000081
8.79000 85519.03682 86982.80172 0.0000072
8.80000 93152.39390 95128.63464 0.0000069
8.81000 90913.28342 91829.14286 0.0000070
8.82000 79020.16952 79185.24147 0.0000076
8.83000 63418.15718 63565.83538 0.0000087
8.84000 49943.52574 50132.72313 0.0000098
8.85000 41632.32665 41284.61810 0.0000107
8.86000 37802.99859 37163.24749 0.0000112
8.87000 37317.53672 36680.97783 0.0000112
8.88000 38664.96239 38336.80903 0.0000111
8.89000 40729.88479 40568.10325 0.0000108
8.90000 41408.25859 41854.31700 0.0000108
8.91000 40844.10639 41413.78056 0.0000109
8.92000 39175.41213 39649.97987 0.0000111
8.93000 36784.95847 37258.03487 0.0000114
8.94000 34254.35923 34695.42674 0.0000117
8.95000 32218.04994 32392.38568 0.0000120
8.96000 30681.10312 30654.78695 0.0000123
8.97000 29755.97579 29605.59460 0.0000124
8.98000 29639.45692 29276.13113 0.0000124
8.99000 30358.49782 29816.53965 0.0000123
9.00000 32122.06532 31656.82517 0.0000121
9.01000 35628.87129 35552.04649 0.0000116
9.02000 42331.74939 42276.22500 0.0000108
9.03000 52044.63914 51903.52568 0.0000098
9.04000 63010.58641 62967.87123 0.0000088
9.05000 71288.12496 72040.50044 0.0000082
9.06000 74302.84517 74752.19862 0.0000080
9.07000 69628.42329 69599.94094 0.0000083
9.08000 60561.90875 59940.80172 0.0000090
9.09000 50687.42908 50476.49035 0.0000099
9.10000 44846.31870 44517.16701 0.0000105
9.11000 43856.26488 43611.61902 0.0000106
9.12000 48208.23378 47747.09900 0.0000102
9.13000 55843.81422 55507.19379 0.0000094
9.14000 63988.81998 64078.81867 0.0000088
9.15000 68944.94957 69528.70608 0.0000084
9.16000 68647.52814 68855.39848 0.0000084
9.17000 63059.00478 62841.57814 0.0000088
9.18000 54890.17868 54502.19018 0.0000095
9.19000 46463.09431 46205.65401 0.0000104
9.20000 39895.20711 39322.36246 0.0000111
9.21000 35371.13846 34401.27690 0.0000117
9.22000 32330.18273 31288.71315 0.0000121
9.23000 30397.63311 29546.14002 0.0000124
9.24000 29673.17635 28781.53567 0.0000125
9.25000 29541.03853 28787.03887 0.0000126
9.26000 30074.20769 29546.70106 0.0000125
9.27000 31400.01612 31124.79419 0.0000123
9.28000 33426.39118 33453.84977 0.0000120
9.29000 35999.33470 36106.07731 0.0000116
9.30000 37898.10353 38213.27605 0.0000114
9.31000 38499.01532 38775.72084 0.0000113
9.32000 37749.48086 37640.59685 0.0000114
9.33000 36330.03717 35889.08528 0.0000116
9.34000 35729.18942 34980.92358 0.0000116
9.35000 37088.80687 36205.61233 0.0000114
9.36000 41492.49438 40426.68362 0.0000109
9.37000 49216.63098 47647.47907 0.0000101
9.38000 58006.40105 56524.23098 0.0000092
9.39000 65390.09057 64095.96963 0.0000086
9.40000 67874.50068 66544.07404 0.0000085
9.41000 64149.92002 62264.64728 0.0000087
9.42000 55303.62634 53770.17669 0.0000095
9.43000 45966.42619 44729.41237 0.0000104
9.44000 38537.64274 37469.62065 0.0000113
9.45000 33927.55401 32707.42125 0.0000119
9.46000 31491.73647 30073.65982 0.0000122
9.47000 30098.12577 28819.28640 0.0000124
9.48000 29656.53961 28309.22819 0.0000125
9.49000 29292.00805 28177.32661 0.0000126
9.50000 29308.12818 28271.33707 0.0000125
9.51000 29375.73671 28557.82003 0.0000125
9.52000 30059.41135 29026.18532 0.0000124
9.53000 30566.44283 29641.15406 0.0000124
9.54000 31369.33324 30320.32590 0.0000122
9.55000 31987.35334 30973.63677 0.0000121
9.56000 32876.02753 31675.15828 0.0000120
9.57000 34369.87418 32860.76820 0.0000118
9.58000 37031.90736 35396.57208 0.0000114
9.59000 42381.84335 40585.22310 0.0000108
9.60000 52733.96363 50016.62232 0.0000097
9.61000 68227.95275 65056.00534 0.0000084
9.62000 89873.20827 85941.19206 0.0000071
9.63000 114121.08094 110656.46251 0.0000061
9.64000 138673.39562 134409.99612 0.0000053
9.65000 156460.01187 152040.58404 0.0000048
9.66000 163289.64941 159863.33591 0.0000047
9.67000 155869.42131 153648.57796 0.0000048
9.68000 135672.64199 132964.38066 0.0000054
9.69000 107838.67681 105303.52847 0.0000063
9.70000 80722.54561 79424.52273 0.0000076
9.71000 61617.12445 60323.08754 0.0000089
9.72000 51114.21912 49455.73740 0.0000098
9.73000 48312.25502 46445.24349 0.0000101
9.74000 52105.61525 50688.80876 0.0000097
9.75000 63826.44786 61767.89660 0.0000087
9.76000 80621.14687 78417.29127 0.0000076
9.77000 99780.69183 97003.89623 0.0000066
9.78000 113114.62421 110839.97831 0.0000061
9.79000 116096.11424 112723.08048 0.0000060
9.80000 105967.22613 102184.23126 0.0000064
9.81000 90068.59758 86762.47364 0.0000071
9.82000 76691.72298 75085.91213 0.0000079
9.83000 73699.89320 73013.54573 0.0000080
9.84000 83172.81912 82652.16187 0.0000075
9.85000 103083.08615 101853.20132 0.0000065
9.86000 123890.70839 124039.00794 0.0000057
9.87000 138110.16190 138999.78831 0.0000053
9.88000 137719.26178 138006.70672 0.0000053
9.89000 122929.78019 122058.63516 0.0000058
9.90000 99441.92776 99268.50116 0.0000067
9.91000 76926.10954 76719.96260 0.0000078
9.92000 59138.30832 58505.41478 0.0000091
9.93000 46748.31352 45931.45349 0.0000103
9.94000 39329.54047 38224.51617 0.0000111
9.95000 34895.25063 33884.21754 0.0000117
9.96000 32218.84773 31561.36056 0.0000121
9.97000 30754.05693 30333.33317 0.0000123
9.98000 29862.17441 29678.76408 0.0000124
9.99000 29422.22020 29329.09456 0.0000125
10.00000 29306.33773 29172.40142 0.0000125
10.01000 29338.81503 29181.43915 0.0000126
10.02000 29886.13342 29412.97003 0.0000125
10.03000 30675.44563 30075.02694 0.0000123
10.04000 32574.87737 31644.71859 0.0000121
10.05000 35858.99671 34947.95159 0.0000116
10.06000 42139.70081 41017.73257 0.0000108
10.07000 52050.40827 50555.18284 0.0000098
10.08000 65329.92228 63052.63327 0.0000086
10.09000 77948.69359 76054.66802 0.0000078
10.10000 87254.57966 85127.49983 0.0000073
10.11000 89166.47648 86430.20598 0.0000072
10.12000 83386.77077 80451.17031 0.0000075
10.13000 72195.31279 70285.74166 0.0000082
10.14000 60339.34843 58683.00304 0.0000090
10.15000 49457.01710 48051.64942 0.0000100
10.16000 41139.47713 39874.14312 0.0000109
10.17000 35348.30540 34390.26376 0.0000117
10.18000 32098.75944 31103.59046 0.0000122
10.19000 30127.38922 29348.64587 0.0000125
10.20000 29161.12526 28524.65173 0.0000126
10.21000 28663.99936 28228.60122 0.0000127
10.22000 28537.35657 28212.06123 0.0000127
10.23000 28807.87007 28300.08450 0.0000127
10.24000 28590.28859 28336.97859 0.0000127
10.25000 28628.64229 28223.68762 0.0000127
10.26000 28234.26945 28016.02871 0.0000128
10.27000 28317.80084 27889.39935 0.0000128
10.28000 28332.63505 28029.79089 0.0000128
10.29000 29310.84792 28557.72839 0.0000126
10.30000 30145.50995 29459.07896 0.0000125
10.31000 31654.73898 30523.79178 0.0000123
10.32000 32393.59283 31334.41560 0.0000122
10.33000 32642.03134 31431.31993 0.0000121
10.34000 31732.73996 30732.48459 0.0000123
10.35000 30523.02763 29635.03505 0.0000124
10.36000 29092.63609 28574.26188 0.0000127
10.37000 28180.41703 27791.78702 0.0000128
10.38000 27533.16651 27355.18490 0.0000130
10.39000 27505.38408 27243.31407 0.0000130
10.40000 27610.73846 27458.16611 0.0000130
10.41000 28269.88449 28096.67761 0.0000128
10.42000 29172.61314 29336.39456 0.0000127
10.43000 30825.52281 31309.29632 0.0000124
10.44000 33285.96976 33895.83402 0.0000121
10.45000 35344.64908 36542.67711 0.0000118
10.46000 37184.64266 38257.31490 0.0000115
10.47000 36897.20314 38125.27834 0.0000116
10.48000 35474.69205 36312.18526 0.0000118
10.49000 33167.63567 33895.14297 0.0000121
10.50000 31569.80450 31887.51200 0.0000123
10.51000 30509.46949 30919.29088 0.0000125
10.52000 31136.33335 31324.11932 0.0000124
10.53000 32800.90727 33254.32188 0.0000122
10.54000 36301.68063 36646.03576 0.0000117
10.55000 40332.09728 41001.34225 0.0000112
10.56000 44437.33236 45203.37671 0.0000107
10.57000 46407.61416 47549.46255 0.0000105
10.58000 45869.36340 46706.67211 0.0000105
10.59000 42488.20154 43228.21468 0.0000109
10.60000 38267.61381 38949.44584 0.0000114
10.61000 34594.00491 35436.46049 0.0000119
10.62000 33045.63008 33571.47888 0.0000122
10.63000 33347.09066 33757.10696 0.0000121
10.64000 35679.45473 36107.86462 0.0000118
10.65000 40261.75159 40458.01833 0.0000112
10.66000 46153.87423 46084.70989 0.0000105
10.67000 51425.55596 51448.06364 0.0000100
10.68000 54672.69725 54433.79406 0.0000096
10.69000 54428.18781 54104.48301 0.0000097
10.70000 53029.19774 52520.26105 0.0000098
10.71000 53412.00655 53360.07224 0.0000098
10.72000 59761.55676 59926.72921 0.0000092
10.73000 73762.89829 73906.79728 0.0000082
10.74000 93561.39129 94229.23716 0.0000070
10.75000 114986.13345 116209.96115 0.0000061
10.76000 130151.00280 131945.71998 0.0000056
10.77000 134416.04151 135210.90055 0.0000055
10.78000 125399.33184 126611.01069 0.0000057
10.79000 108261.36267 109763.44429 0.0000064
10.80000 87641.64227 88973.90145 0.0000073
10.81000 68407.43471 69357.88640 0.0000085
10.82000 53221.06067 54310.92021 0.0000098
10.83000 44009.66472 44810.62983 0.0000108
10.84000 39518.05039 40480.39341 0.0000114
10.85000 39299.69569 40515.68931 0.0000114
10.86000 42337.45492 44017.12299 0.0000110
10.87000 47910.91448 49761.90692 0.0000104
10.88000 53257.22840 55799.13528 0.0000098
10.89000 56724.63956 59395.66744 0.0000095
10.90000 56106.42979 58569.00903 0.0000096
10.91000 52597.24771 54410.62443 0.0000099
10.92000 48434.16536 50177.93217 0.0000103
10.93000 47383.01352 48795.94597 0.0000104
10.94000 50630.13892 51755.85132 0.0000101
10.95000 58224.94183 58726.91736 0.0000094
10.96000 66726.97717 67455.67098 0.0000087
10.97000 73714.58492 74160.62385 0.0000082
10.98000 75573.80765 75694.42757 0.0000081
10.99000 71820.81813 71960.87876 0.0000083
11.00000 64104.72747 64496.43111 0.0000089
11.01000 55006.49222 55248.65600 0.0000097
11.02000 46090.45395 46549.68279 0.0000106
11.03000 39496.17351 40006.49706 0.0000114
11.04000 35465.32738 36202.02547 0.0000120
11.05000 34256.52991 35180.34005 0.0000121
11.06000 35684.30338 36806.99793 0.0000119
11.07000 39501.51998 40733.27639 0.0000114
11.08000 44686.23970 46100.94031 0.0000108
11.09000 49195.69268 51198.39619 0.0000103
11.10000 51581.06410 53616.78957 0.0000100
11.11000 50044.45970 51882.87497 0.0000102
11.12000 45895.63367 47251.78631 0.0000106
11.13000 41061.60141 42275.13718 0.0000112
11.14000 37729.85504 38829.28715 0.0000117
11.15000 36623.61164 37579.65187 0.0000118
11.16000 37577.03782 38068.15017 0.0000117
11.17000 38597.10280 39055.49108 0.0000116
11.18000 38698.07784 39091.25720 0.0000115
11.19000 37044.85571 37549.94906 0.0000118
11.20000 34486.28303 35035.25538 0.0000121
11.21000 31736.19405 32478.53348 0.0000126
11.22000 29589.27194 30461.83296 0.0000129
11.23000 28288.32576 29163.22814 0.0000131
11.24000 27682.79151 28487.91366 0.0000132
11.25000 27438.89297 28252.32922 0.0000133
11.26000 27501.39366 28330.49041 0.0000133
11.27000 27724.74303 28652.97330 0.0000132
11.28000 28485.24399 29170.28468 0.0000131
11.29000 29135.89672 29796.73714 0.0000130
11.30000 29954.20362 30405.11526 0.0000129
11.31000 30599.41763 30939.99269 0.0000128
11.32000 31319.16079 31679.42087 0.0000126
11.33000 32983.70642 33298.61938 0.0000124
11.34000 36301.39599 36619.66148 0.0000119
11.35000 42172.64794 42257.29873 0.0000111
11.36000 50159.44141 50162.57389 0.0000102
11.37000 59529.24522 59135.61837 0.0000093
11.38000 67262.04165 66674.88779 0.0000087
11.39000 71904.85775 70284.10512 0.0000084
11.40000 70853.05288 69194.81860 0.0000084
11.41000 65501.84439 63704.86869 0.0000088
11.42000 56697.10870 55266.34810 0.0000096
11.43000 47265.98003 46456.76593 0.0000105
11.44000 39476.63723 39192.71999 0.0000115
11.45000 34007.47173 34144.28347 0.0000122
11.46000 30636.60016 31095.06740 0.0000128
11.47000 28924.41681 29462.97255 0.0000131
11.48000 28037.36392 28656.03924 0.0000132
11.49000 27593.58511 28256.19402 0.0000133
11.50000 27367.14086 28049.28140 0.0000134
11.51000 27295.73291 27921.14357 0.0000133
11.52000 27131.45720 27839.96364 0.0000134
11.53000 27055.35504 27820.42094 0.0000134
11.54000 27079.71517 27900.03836 0.0000134
11.55000 27378.15401 28125.43693 0.0000133
11.56000 27913.18277 28535.63820 0.0000133
11.57000 28436.53616 29129.73276 0.0000132
11.58000 29194.06569 29828.31753 0.0000131
11.59000 30048.71614 30468.85600 0.0000129
11.60000 30422.83280 30838.44963 0.0000128
11.61000 30337.25930 30755.69962 0.0000128
11.62000 29787.40566 30249.95765 0.0000129
11.63000 29032.50095 29589.55608 0.0000131
11.64000 28468.03799 29019.32949 0.0000132
11.65000 27718.54700 28659.01096 0.0000133
11.66000 27533.79851 28524.26977 0.0000133
11.67000 27672.86078 28578.30134 0.0000133
11.68000 27744.94673 28785.99080 0.0000133
11.69000 28196.33735 29151.51495 0.0000132
11.70000 28940.98648 29801.33593 0.0000131
11.71000 30253.74199 31024.72638 0.0000129
11.72000 32714.10867 33409.21504 0.0000125
11.73000 37156.70710 37852.33756 0.0000118
11.74000 44830.01232 45300.33500 0.0000108
11.75000 55493.12521 56143.35473 0.0000097
11.76000 69181.50095 69394.34642 0.0000086
11.77000 81477.65219 82069.56392 0.0000078
11.78000 89614.42447 89844.34793 0.0000073
11.79000 89994.30233 90292.60251 0.0000073
11.80000 83642.75667 84121.65570 0.0000076
11.81000 72679.41075 73433.17195 0.0000083
11.82000 60903.31777 61673.84724 0.0000092
11.83000 51533.44598 52321.40403 0.0000101
11.84000 46627.49780 47565.41951 0.0000106
11.85000 47483.02859 48568.84926 0.0000105
11.86000 54702.11797 55733.52408 0.0000098
11.87000 68039.28292 68314.00217 0.0000087
11.88000 83003.82183 83615.13210 0.0000077
11.89000 95442.82230 96530.34584 0.0000070
11.90000 100204.98151 101050.31575 0.0000068
11.91000 95621.57855 95779.91623 0.0000070
11.92000 86401.67665 86552.56503 0.0000075
11.93000 79859.67651 80799.68088 0.0000079
11.94000 82099.15625 82691.24428 0.0000077
11.95000 90977.77987 91605.17973 0.0000072
11.96000 101056.91761 102165.81539 0.0000067
11.97000 104661.72038 106132.08763 0.0000066
11.98000 97973.92259 98525.17586 0.0000069
11.99000 82026.94346 82752.92107 0.0000077
12.00000 64537.09974 65494.11622 0.0000089
12.01000 49783.11462 51294.31312 0.0000103
12.02000 40568.87906 41781.66413 0.0000113
12.03000 35379.31235 36523.92768 0.0000120
12.04000 33391.88440 34297.23077 0.0000123
12.05000 32903.43319 33998.98920 0.0000124
12.06000 33648.68596 34897.66007 0.0000123
12.07000 35285.60847 36453.69949 0.0000121
12.08000 36717.56439 38109.65895 0.0000118
12.09000 38283.13664 39348.03917 0.0000116
12.10000 39375.24872 40335.58729 0.0000115
12.11000 41577.07593 42357.51317 0.0000112
12.12000 46387.82506 47090.64893 0.0000106
12.13000 55320.69396 55533.70131 0.0000097
12.14000 66868.73367 67120.41964 0.0000087
12.15000 79079.18684 79085.81965 0.0000079
12.16000 86336.84053 86754.36727 0.0000075
12.17000 87145.22369 86661.42924 0.0000074
12.18000 80172.49476 79649.87586 0.0000078
12.19000 68793.15512 68627.65262 0.0000086
12.20000 56757.20056 56825.73430 0.0000096
12.21000 46972.01336 47005.17569 0.0000105
12.22000 40110.58275 40471.99510 0.0000114
12.23000 36877.64924 37339.51907 0.0000118
12.24000 36704.76118 37141.51819 0.0000118
12.25000 38830.20565 39104.93353 0.0000115
12.26000 41806.82942 42138.94893 0.0000111
12.27000 44235.36147 44742.79730 0.0000108
12.28000 44826.30220 45351.16768 0.0000108
12.29000 43171.61845 43613.43378 0.0000109
12.30000 40507.68584 40856.47186 0.0000113
12.31000 38364.27883 38728.50365 0.0000116
12.32000 37939.17241 38247.33071 0.0000116
12.33000 39399.48988 39591.03288 0.0000114
12.34000 42234.68852 42112.39682 0.0000111
12.35000 44902.47568 44586.52742 0.0000107
12.36000 46187.29791 45860.87991 0.0000106
12.37000 45456.36495 45219.32978 0.0000107
12.38000 42758.15080 42584.64213 0.0000110
12.39000 38910.82938 38926.29324 0.0000115
12.40000 35100.75805 35486.26617 0.0000120
12.41000 32593.16792 33012.40490 0.0000123
12.42000 31304.23321 31727.72751 0.0000125
12.43000 31186.98589 31499.73261 0.0000126
12.44000 31745.01058 32030.10015 0.0000125
12.45000 32860.49305 32966.69242 0.0000123
12.46000 34154.72532 34019.11286 0.0000121
12.47000 35459.47349 35231.03641 0.0000119
12.48000 37784.46520 37324.48773 0.0000116
12.49000 42095.21862 41493.27155 0.0000110
12.50000 50021.17960 48724.09215 0.0000101
12.51000 60527.84623 59063.43798 0.0000092
12.52000 72957.04783 70903.97517 0.0000082
12.53000 82402.93062 80762.54273 0.0000076
12.54000 86843.57216 85034.80790 0.0000074
12.55000 83390.52932 82581.16278 0.0000076
12.56000 74419.15232 74253.87619 0.0000081
12.57000 62413.12255 62672.86456 0.0000090
12.58000 50891.90248 51395.61217 0.0000100
12.59000 42274.83833 42688.05667 0.0000110
12.60000 36673.91287 37187.66962 0.0000117
12.61000 34147.40412 34479.85703 0.0000120
12.62000 33402.47328 33733.69325 0.0000121
12.63000 33759.77174 34061.28813 0.0000121
12.64000 34393.42474 34700.62104 0.0000120
12.65000 34905.15917 35193.53621 0.0000119
12.66000 35566.83792 35757.78394 0.0000118
12.67000 37037.12816 37182.71762 0.0000116
12.68000 40198.59900 40122.70252 0.0000112
12.69000 44991.18546 44507.81059 0.0000106
12.70000 49906.66585 49217.33572 0.0000101
12.71000 52738.57067 52151.05525 0.0000098
12.72000 52098.37225 51434.40388 0.0000099
12.73000 48131.24572 47433.89748 0.0000102
12.74000 42653.48776 42252.87323 0.0000108
12.75000 37772.75775 37761.63995 0.0000115
12.76000 34992.19261 34998.47064 0.0000118
12.77000 34168.24625 34385.93796 0.0000119
12.78000 36236.78997 36075.39015 0.0000116
12.79000 40288.46055 40070.74593 0.0000111
12.80000 46781.46785 45982.31295 0.0000104
12.81000 53779.66749 52645.68795 0.0000097
12.82000 58973.11534 57963.95841 0.0000092
12.83000 61039.38723 59889.07809 0.0000090
12.84000 60249.09680 58958.08677 0.0000091
12.85000 59205.99883 58425.72499 0.0000092
12.86000 61570.83375 61314.26803 0.0000090
12.87000 69051.86796 68481.70907 0.0000084
12.88000 77896.46244 77939.52009 0.0000078
12.89000 84994.41277 85147.79524 0.0000074
12.90000 85899.96352 85719.19254 0.0000074
12.91000 79516.58514 79345.30780 0.0000077
12.92000 69024.99685 68896.44790 0.0000084
12.93000 57716.23608 57861.14653 0.0000093
12.94000 49091.13307 49270.14634 0.0000101
12.95000 44933.12162 44853.72724 0.0000105
12.96000 45135.55554 45198.00924 0.0000105
12.97000 50793.53430 50062.00213 0.0000099
12.98000 58926.09831 58254.52628 0.0000091
12.99000 68736.33928 67321.38997 0.0000084
13.00000 74755.47986 73648.82315 0.0000080
13.01000 75926.00654 74487.77115 0.0000079
13.02000 72810.91807 71412.80437 0.0000081
13.03000 70044.65060 69152.65946 0.0000083
13.04000 72167.11465 71353.17987 0.0000081
13.05000 78979.70712 78491.87365 0.0000077
13.06000 87356.99197 87414.42162 0.0000072
13.07000 92676.16635 92400.07737 0.0000070
13.08000 89763.61024 89426.02211 0.0000071
13.09000 80166.38334 79677.48288 0.0000076
13.10000 66772.94951 66806.40457 0.0000085
13.11000 54295.86965 54376.99879 0.0000095
13.12000 44615.61114 44719.77315 0.0000104
13.13000 38341.88042 38454.73656 0.0000112
13.14000 34907.70993 35088.76193 0.0000116
13.15000 33823.93857 33756.83520 0.0000118
13.16000 33564.26654 33631.48548 0.0000118
13.17000 34038.78726 34056.93425 0.0000117
13.18000 34794.92526 34619.25370 0.0000116
13.19000 35777.49818 35401.52349 0.0000115
13.20000 37717.47678 37210.51504 0.0000112
13.21000 41903.16517 41334.13332 0.0000107
13.22000 50080.11155 49107.89310 0.0000098
13.23000 62457.02295 61175.99134 0.0000088
13.24000 77874.63316 76471.09722 0.0000077
13.25000 92689.35647 91581.97747 0.0000069
13.26000 101213.47125 101129.44488 0.0000065
13.27000 100153.97093 99884.28017 0.0000066
13.28000 88570.25127 88028.91559 0.0000071
13.29000 71878.98705 71478.11948 0.0000081
13.30000 55601.95933 55962.59867 0.0000093
13.31000 44408.71331 44398.57312 0.0000104
13.32000 37193.72966 37212.09874 0.0000112
13.33000 33663.71516 33414.59828 0.0000117
13.34000 31696.96558 31699.49765 0.0000119
13.35000 31146.98124 31096.78712 0.0000120
13.36000 31058.99502 31168.73894 0.0000120
13.37000 31884.74915 31929.37883 0.0000119
13.38000 33523.22229 33558.53542 0.0000117
13.39000 36098.97479 36036.58528 0.0000113
13.40000 38908.61817 38873.07554 0.0000110
13.41000 40878.23739 41007.15969 0.0000107
13.42000 40914.64107 41211.09872 0.0000107
13.43000 39402.81102 39276.24080 0.0000109
13.44000 36357.88830 36258.19349 0.0000112
13.45000 33233.72180 33317.27419 0.0000116
13.46000 30980.12584 31102.12901 0.0000120
13.47000 29764.93182 29768.50689 0.0000121
13.48000 29221.13776 29176.88180 0.0000122
13.49000 29205.25701 29111.59342 0.0000122
13.50000 29688.56706 29422.76230 0.0000121
13.51000 30351.35523 30106.51154 0.0000120
13.52000 31881.73824 31376.71093 0.0000118
13.53000 34288.02015 33777.39588 0.0000115
13.54000 38765.33447 38202.87855 0.0000109
13.55000 45943.80162 45533.43835 0.0000101
13.56000 56997.82621 55880.03355 0.0000091
13.57000 68309.52205 67771.46154 0.0000082
13.58000 78113.17762 77698.30681 0.0000076
13.59000 81599.57317 81257.11974 0.0000074
13.60000 77453.94918 77007.26219 0.0000076
13.61000 67998.14829 67617.26226 0.0000082
13.62000 56757.54754 56884.52409 0.0000091
13.63000 47920.24386 48010.97589 0.0000099
13.64000 43227.02190 42891.69110 0.0000103
13.65000 42756.69416 42097.15973 0.0000104
13.66000 46428.85422 45233.33800 0.0000100
13.67000 52441.49828 51035.99152 0.0000094
13.68000 59132.38728 57264.61694 0.0000089
13.69000 62699.66606 60912.60671 0.0000086
13.70000 62025.67354 60027.13114 0.0000086
13.71000 57733.34086 55986.11073 0.0000090
13.72000 53107.92056 51902.47854 0.0000094
13.73000 50635.42320 49820.26332 0.0000096
13.74000 50391.54603 49849.66359 0.0000096
13.75000 50485.48904 50336.13475 0.0000096
13.76000 49353.66140 49117.20804 0.0000097
13.77000 45972.32979 45650.42644 0.0000100
13.78000 41360.48292 41154.35681 0.0000105
13.79000 37108.96672 37049.56213 0.0000110
13.80000 34282.16974 34287.10483 0.0000113
13.81000 33507.41088 33302.60721 0.0000114
13.82000 34758.77397 34112.98928 0.0000112
13.83000 37412.24033 36442.14864 0.0000109
13.84000 41158.16043 39690.39286 0.0000105
13.85000 44573.73641 42898.91614 0.0000101
13.86000 46814.29885 45046.22682 0.0000099
13.87000 47929.60728 46148.56923 0.0000098
13.88000 49391.62816 47790.27708 0.0000096
13.89000 53107.26091 51649.85734 0.0000093
13.90000 59195.04233 58017.90602 0.0000088
13.91000 65856.76041 65188.19740 0.0000083
13.92000 70223.60189 69725.67401 0.0000080
13.93000 69315.83980 68841.72816 0.0000081
13.94000 63365.00546 63009.79014 0.0000085
13.95000 54541.45890 54687.31712 0.0000092
13.96000 46435.57156 46572.65863 0.0000099
13.97000 40422.75022 40661.94921 0.0000105
13.98000 37662.58132 37782.82055 0.0000108
13.99000 37873.12168 37821.06473 0.0000108
14.00000 40203.40745 40012.77542 0.0000105
14.01000 43068.66182 43097.17061 0.0000102
14.02000 45310.27018 45444.92197 0.0000100
14.03000 45801.83272 45867.16247 0.0000099
14.04000 45137.14747 44898.34773 0.0000100
14.05000 44643.94960 44235.88724 0.0000101
14.06000 45603.71801 44989.04135 0.0000100
14.07000 47627.91096 46901.68138 0.0000098
14.08000 49191.76356 48382.32601 0.0000096
14.09000 48525.51912 47487.91159 0.0000097
14.10000 44979.88268 43965.08806 0.0000100
14.11000 40100.16544 39340.41162 0.0000105
14.12000 35497.26708 35156.11434 0.0000111
14.13000 32403.52163 32249.73061 0.0000115
14.14000 31117.49701 30825.87016 0.0000116
14.15000 30855.28054 30695.96794 0.0000117
14.16000 31811.39880 31496.04039 0.0000115
14.17000 32860.34085 32777.85601 0.0000114
14.18000 34168.51649 34024.93566 0.0000112
14.19000 35007.71249 34832.90640 0.0000111
14.20000 35661.15145 35431.87718 0.0000110
14.21000 36936.63727 36812.01421 0.0000109
14.22000 40188.16241 40107.86743 0.0000105
14.23000 46184.58563 45961.10640 0.0000099
14.24000 53978.67786 53947.04391 0.0000092
14.25000 62537.50308 62228.19781 0.0000085
14.26000 67934.20783 67875.44156 0.0000081
14.27000 68131.42484 67972.46935 0.0000081
14.28000 62641.00379 62137.95131 0.0000085
14.29000 53440.57692 53356.70182 0.0000092
14.30000 44987.88851 45009.57715 0.0000100
14.31000 38895.36438 39005.93619 0.0000106
14.32000 35855.82813 35787.46182 0.0000110
14.33000 35117.32682 34874.24073 0.0000111
14.34000 35630.61244 35523.06052 0.0000110
14.35000 37466.81169 37307.49536 0.0000108
14.36000 40458.59588 40574.83428 0.0000105
14.37000 46387.07611 46256.56733 0.0000098
14.38000 54811.19605 54791.83420 0.0000091
14.39000 65479.57839 65041.59596 0.0000083
14.40000 73516.95774 73801.35924 0.0000078
14.41000 76568.41923 76725.74171 0.0000076
14.42000 72385.75892 72035.49569 0.0000078
14.43000 62576.46315 62337.41889 0.0000085
14.44000 51689.61965 51480.06307 0.0000094
14.45000 42110.40572 42218.34280 0.0000103
14.46000 35687.77964 35688.49427 0.0000110
14.47000 31857.43774 31734.42479 0.0000115
14.48000 29806.97663 29634.68967 0.0000118
14.49000 28793.81576 28690.79546 0.0000119
14.50000 28441.41946 28496.91001 0.0000119
14.51000 29030.09144 28979.12321 0.0000119
14.52000 30396.08933 30298.01776 0.0000117
14.53000 33029.25509 32668.82124 0.0000113
14.54000 36552.84452 36079.94601 0.0000109
14.55000 40905.70966 40006.33267 0.0000104
14.56000 44011.73105 43253.87454 0.0000101
14.57000 45228.98141 44332.56862 0.0000099
14.58000 43614.33880 42785.80577 0.0000101
14.59000 40278.30284 39615.57929 0.0000105
14.60000 36799.94398 36255.78596 0.0000109
14.61000 34316.71674 33927.61874 0.0000112
14.62000 33268.28538 33375.92888 0.0000113
14.63000 34768.57338 34802.11970 0.0000111
14.64000 37432.57776 37834.83174 0.0000108
14.65000 40814.52460 41461.87568 0.0000104
14.66000 42747.21698 44023.24152 0.0000102
14.67000 42831.03534 43875.96793 0.0000102
14.68000 40234.81476 40986.75796 0.0000105
14.69000 36327.22203 36893.53110 0.0000109
14.70000 32651.22672 33049.69434 0.0000114
14.71000 29959.59432 30181.08917 0.0000117
14.72000 28253.60914 28377.78118 0.0000120
14.73000 27311.59517 27373.46228 0.0000121
14.74000 26817.37435 26860.14362 0.0000122
14.75000 26616.87697 26623.71205 0.0000122
14.76000 26522.07268 26578.24636 0.0000123
14.77000 26609.77696 26720.39156 0.0000122
14.78000 26984.57674 27084.04216 0.0000122
14.79000 27789.27171 27693.65693 0.0000121
14.80000 28424.38614 28522.75676 0.0000120
14.81000 29542.48535 29481.90704 0.0000118
14.82000 30433.78076 30473.64880 0.0000117
14.83000 31712.12474 31599.70005 0.0000115
14.84000 33383.00256 33312.45486 0.0000113
14.85000 36393.41971 36061.16201 0.0000109
14.86000 40171.87211 39790.83267 0.0000105
14.87000 44300.25763 43644.28884 0.0000101
14.88000 46580.07796 46081.45547 0.0000098
14.89000 46573.64882 45949.53351 0.0000098
14.90000 44090.26200 43466.52080 0.0000101
14.91000 40130.64317 39751.42068 0.0000105
14.92000 36538.11259 36240.61593 0.0000109
14.93000 33971.76807 34031.42930 0.0000112
14.94000 33371.66461 33573.89826 0.0000113
14.95000 34578.72207 34703.04947 0.0000112
14.96000 36292.70388 36759.65193 0.0000110
14.97000 38327.22675 38735.56643 0.0000107
14.98000 39074.62503 39740.76514 0.0000106
14.99000 39625.98578 39975.56581 0.0000106
15.00000 40520.88848 40657.43504 0.0000105
15.01000 42919.96703 42750.27127 0.0000102
15.02000 46422.24473 46180.11848 0.0000099
15.03000 50334.39027 49666.13097 0.0000095
15.04000 52024.30921 51377.60052 0.0000094
15.05000 50953.67635 50260.19831 0.0000094
15.06000 47096.76905 46524.24760 0.0000098
15.07000 41899.19198 41552.38982 0.0000103
15.08000 36977.59771 37059.38786 0.0000109
15.09000 33770.21517 34089.73511 0.0000113
15.10000 32361.84909 32857.99957 0.0000115
15.11000 32275.41542 32938.45561 0.0000115
15.12000 32624.95437 33533.53791 0.0000114
15.13000 32807.28163 33760.67034 0.0000114
15.14000 32493.89535 33269.91111 0.0000115
15.15000 31782.14578 32545.35614 0.0000115
15.16000 31629.82500 32306.63076 0.0000116
15.17000 32522.56676 32954.52754 0.0000114
15.18000 34090.09943 34371.23240 0.0000113
15.19000 35601.31943 35934.95088 0.0000111
15.20000 36490.35222 36769.60976 0.0000110
15.21000 36023.43632 36202.64482 0.0000110
15.22000 34345.14082 34435.24048 0.0000112
15.23000 32272.70734 32396.00169 0.0000115
15.24000 30626.36586 30900.05860 0.0000117
15.25000 30220.05679 30314.23458 0.0000118
15.26000 30506.42146 30567.41258 0.0000117
15.27000 31339.89254 31270.50473 0.0000116
15.28000 31815.47355 31910.56185 0.0000116
15.29000 32388.52366 32264.06058 0.0000115
15.30000 32856.43135 32659.14718 0.0000114
15.31000 33952.74740 33490.84855 0.0000113
15.32000 35213.01634 34707.18765 0.0000111
15.33000 36287.24097 35685.14355 0.0000110
15.34000 36113.16763 35553.92432 0.0000110
15.35000 34537.60488 34088.39990 0.0000112
15.36000 32267.77891 31963.29622 0.0000115
15.37000 29901.68572 29981.26153 0.0000118
15.38000 28442.34708 28635.48957 0.0000120
15.39000 27718.83596 28093.87517 0.0000121
15.40000 27927.66963 28284.71956 0.0000121
15.41000 28501.13692 28996.30329 0.0000120
15.42000 29271.10759 29952.21596 0.0000119
15.43000 30206.95506 30888.25078 0.0000118
15.44000 30936.65969 31802.89973 0.0000117
15.45000 32466.59997 33056.71406 0.0000115
15.46000 34106.96293 34944.27948 0.0000113
15.47000 36395.88795 37204.62958 0.0000110
15.48000 37849.26653 38905.77551 0.0000108
15.49000 37937.00142 38883.56563 0.0000108
15.50000 36182.60547 36953.42666 0.0000110
15.51000 33374.96246 34143.25598 0.0000113
15.52000 31013.68793 31600.37230 0.0000117
15.53000 29354.31348 30037.30023 0.0000119
15.54000 29081.92057 29700.69537 0.0000119
15.55000 30005.51934 30459.44207 0.0000118
15.56000 31358.91995 31863.77844 0.0000116
15.57000 32574.34485 33204.29495 0.0000114
15.58000 32828.09595 33669.91968 0.0000114
15.59000 32502.22755 32925.79800 0.0000114
15.60000 30972.89472 31477.75296 0.0000117
15.61000 29641.78762 30056.26959 0.0000118
15.62000 28806.26216 29083.97625 0.0000119
15.63000 28320.75270 28610.09984 0.0000120
15.64000 28373.07045 28419.16296 0.0000120
15.65000 28167.54418 28231.52270 0.0000120
15.66000 27828.88553 27885.10837 0.0000121
15.67000 27215.32728 27437.51893 0.0000122
15.68000 26765.94442 27078.45786 0.0000122
15.69000 26684.00700 26956.64733 0.0000122
15.70000 26763.98224 27121.53794 0.0000122
15.71000 27323.88540 27514.56032 0.0000121
15.72000 27655.89597 28027.04372 0.0000121
15.73000 28390.22822 28577.41889 0.0000120
15.74000 28821.75382 29277.96805 0.0000119
15.75000 30047.66346 30380.39463 0.0000118
15.76000 31492.12551 31976.92516 0.0000116
15.77000 33276.43295 33781.91467 0.0000113
15.78000 34562.01421 35125.40504 0.0000112
15.79000 34954.14153 35347.84191 0.0000111
15.80000 34162.52649 34361.97037 0.0000112
15.81000 32525.40609 32596.85848 0.0000114
15.82000 30577.90751 30736.43104 0.0000117
15.83000 29289.82915 29346.95861 0.0000118
15.84000 28453.67298 28672.11106 0.0000120
15.85000 28506.42994 28694.72086 0.0000119
15.86000 28982.39586 29263.32732 0.0000119
15.87000 30166.50120 30236.50982 0.0000117
15.88000 31345.55411 31651.95539 0.0000115
15.89000 33523.29694 33778.90428 0.0000113
15.90000 36462.57558 36754.94390 0.0000109
15.91000 39812.89768 40115.07435 0.0000105
15.92000 41972.17325 42618.38178 0.0000103
15.93000 42113.69720 42757.41494 0.0000103
15.94000 39811.51995 40269.85706 0.0000105
15.95000 36108.81472 36445.19566 0.0000109
15.96000 32253.99301 32696.17440 0.0000114
15.97000 29264.21359 29805.78355 0.0000118
15.98000 27525.44048 27958.17423 0.0000121
15.99000 26741.72789 26977.19849 0.0000122
16.00000 26437.73369 26607.89681 0.0000122
16.01000 26480.57166 26698.26369 0.0000122
16.02000 26819.54262 27251.21668 0.0000121
16.03000 27934.86491 28360.80528 0.0000120
16.04000 29668.19117 30068.05895 0.0000117
16.05000 31764.04844 32191.84261 0.0000114
16.06000 33374.06049 34196.19225 0.0000112
16.07000 34276.66680 35237.15247 0.0000111
16.08000 33848.51218 34754.10042 0.0000112
16.09000 32268.84201 33104.37735 0.0000114
16.10000 30235.07274 31093.87154 0.0000116
16.11000 28821.61044 29400.86356 0.0000118
16.12000 27955.30650 28377.13491 0.0000120
16.13000 27766.44995 28068.03291 0.0000120
16.14000 28047.21201 28292.56458 0.0000119
16.15000 28514.79260 28757.66719 0.0000119
16.16000 29047.26566 29150.90588 0.0000118
16.17000 29222.24100 29340.77241 0.0000118
16.18000 29641.44080 29503.43379 0.0000117
16.19000 30125.22494 29849.77278 0.0000116
16.20000 30883.42790 30352.49710 0.0000115
16.21000 31429.99937 30707.56472 0.0000115
16.22000 31042.37235 30548.45743 0.0000115
16.23000 30265.43264 29843.60388 0.0000116
16.24000 29138.18029 28881.16458 0.0000118
16.25000 28046.38091 27988.65881 0.0000119
16.26000 27269.90940 27380.98276 0.0000120
16.27000 26936.30664 27142.17661 0.0000121
16.28000 27190.06516 27250.45184 0.0000120
16.29000 27589.31657 27674.20665 0.0000120
16.30000 28321.55293 28448.30119 0.0000119
16.31000 29651.98280 29761.56693 0.0000117
16.32000 31883.72693 31975.77670 0.0000114
16.33000 35303.12112 35404.25415 0.0000110
16.34000 39781.13801 39940.31281 0.0000105
16.35000 44552.88176 44733.67398 0.0000100
16.36000 47934.00058 48256.85332 0.0000096
16.37000 48635.78845 49049.78649 0.0000096
16.38000 46419.66599 46603.00793 0.0000098
16.39000 41862.18529 41972.74607 0.0000102
16.40000 36777.52229 36974.98891 0.0000108
16.41000 32705.44461 32874.26695 0.0000113
16.42000 29981.10685 30134.12995 0.0000117
16.43000 28769.70559 28689.93803 0.0000118
16.44000 28332.82912 28287.99935 0.0000119
16.45000 28711.88331 28725.81778 0.0000118
16.46000 29989.31614 29894.21243 0.0000117
16.47000 31668.85357 31637.22396 0.0000114
16.48000 33576.84147 33559.92803 0.0000112
16.49000 34900.40021 34935.36701 0.0000110
16.50000 34744.49103 34980.85640 0.0000111
16.51000 33500.44724 33646.93665 0.0000112
16.52000 31492.56531 31675.66036 0.0000115
16.53000 29661.12371 29816.64755 0.0000117
16.54000 28318.13704 28473.01656 0.0000119
16.55000 27686.78032 27742.69123 0.0000120
16.56000 27516.35382 27550.46402 0.0000120
16.57000 27878.34468 27800.01101 0.0000120
16.58000 28621.52583 28481.60383 0.0000119
16.59000 29974.06900 29715.22318 0.0000117
16.60000 32313.99177 31698.05446 0.0000114
16.61000 35228.26214 34497.76987 0.0000110
16.62000 38783.28331 37777.38314 0.0000106
16.63000 41655.26490 40655.18849 0.0000103
16.64000 42958.85644 42024.76815 0.0000102
16.65000 42450.29063 41544.31584 0.0000102
16.66000 40779.29412 39980.23231 0.0000104
16.67000 39237.32955 38732.56377 0.0000106
16.68000 39233.25247 39162.21793 0.0000106
16.69000 41733.87059 41920.89925 0.0000103
16.70000 46643.88620 46581.80981 0.0000098
16.71000 51076.10186 51530.45397 0.0000094
16.72000 53675.72362 54265.03048 0.0000092
16.73000 52573.81299 53100.86665 0.0000093
16.74000 48633.44356 49072.07742 0.0000097
16.75000 44210.50465 44551.29712 0.0000101
16.76000 40755.50072 41098.31926 0.0000105
16.77000 38686.17887 38966.02853 0.0000107
16.78000 37569.85470 37504.26245 0.0000109
16.79000 36003.13637 35952.34234 0.0000111
16.80000 33887.46474 33991.82035 0.0000113
16.81000 31960.01108 31870.99915 0.0000116
16.82000 30080.48926 30009.54152 0.0000119
16.83000 28673.68096 28649.79993 0.0000121
16.84000 27901.04753 27838.38890 0.0000122
16.85000 27735.46916 27523.45446 0.0000122
16.86000 27996.10903 27672.76307 0.0000122
16.87000 28685.82164 28331.80903 0.0000121
16.88000 30086.42629 29599.21779 0.0000119
16.89000 32163.04549 31511.42871 0.0000117
16.90000 34853.49678 33882.03468 0.0000113
16.91000 37195.49990 36180.46566 0.0000110
16.92000 38806.39633 37663.10169 0.0000109
16.93000 38613.79076 37781.08765 0.0000109
16.94000 37722.51520 36737.09063 0.0000110
16.95000 36261.97198 35533.24089 0.0000112
16.96000 35984.07290 35148.64855 0.0000112
16.97000 36697.01100 35954.99009 0.0000112
16.98000 38464.91477 37593.47085 0.0000110
16.99000 39891.27941 39062.05023 0.0000108
17.00000 40108.13697 39247.65427 0.0000108
17.01000 38844.38257 38022.51871 0.0000110
17.02000 36859.73677 36259.99769 0.0000112
17.03000 35039.07897 34710.80264 0.0000115
17.04000 33710.70147 33511.42792 0.0000117
17.05000 32498.88564 32352.39987 0.0000119
17.06000 31257.60171 31027.15367 0.0000120
17.07000 29907.47453 29684.09591 0.0000123
17.08000 28758.88523 28544.30009 0.0000125
17.09000 27990.77620 27728.70462 0.0000126
17.10000 27356.39282 27252.41067 0.0000127
17.11000 27270.40689 27073.73096 0.0000128
17.12000 27406.47464 27160.41441 0.0000128
17.13000 27799.41106 27549.10044 0.0000127
17.14000 28455.34302 28367.05230 0.0000126
17.15000 29793.00400 29794.16902 0.0000124
17.16000 31765.05362 31936.39080 0.0000122
17.17000 34284.24109 34639.39755 0.0000118
17.18000 36602.01789 37342.07164 0.0000115
17.19000 38308.69774 39148.77929 0.0000113
17.20000 38421.15648 39228.61603 0.0000113
17.21000 36911.40349 37500.29025 0.0000115
17.22000 34493.08673 34851.39391 0.0000119
17.23000 32298.34342 32311.62396 0.0000122
17.24000 30568.99011 30508.94773 0.0000125
17.25000 29892.97527 29720.69991 0.0000127
17.26000 30319.06768 30078.18117 0.0000126
17.27000 32208.74349 31721.91144 0.0000123
17.28000 35382.84299 34771.42334 0.0000119
17.29000 39851.83804 39079.57964 0.0000113
17.30000 44321.23812 43909.03099 0.0000108
17.31000 48156.32173 47739.04447 0.0000104
17.32000 48880.59442 48808.64692 0.0000103
17.33000 47044.66392 46735.21269 0.0000105
17.34000 42813.80447 42831.51320 0.0000111
17.35000 38868.66212 38807.78337 0.0000116
17.36000 36010.16858 35926.07628 0.0000120
17.37000 34974.25753 34683.58529 0.0000122
17.38000 35661.77978 34938.70818 0.0000121
17.39000 36912.35925 36193.72256 0.0000119
17.40000 38447.58216 37911.49132 0.0000117
17.41000 40571.25572 39966.14001 0.0000115
17.42000 42972.79311 42669.46471 0.0000112
17.43000 45931.65003 45968.53274 0.0000108
17.44000 48265.83251 48842.20245 0.0000106
17.45000 48831.49346 49591.93700 0.0000106
17.46000 46742.95883 47447.57172 0.0000108
17.47000 43096.54750 43580.21917 0.0000113
17.48000 39404.33493 39822.37857 0.0000118
17.49000 37126.39169 37511.80881 0.0000121
17.50000 37125.39580 37204.29331 0.0000122
17.51000 38815.94242 38749.11096 0.0000119
17.52000 41600.54351 41519.95605 0.0000116
17.53000 44637.10416 44723.22091 0.0000112
17.54000 48103.33746 48037.87066 0.0000108
17.55000 52434.95921 51997.82988 0.0000103
17.56000 57080.32631 56846.99281 0.0000099
17.57000 61044.82146 61309.12156 0.0000095
17.58000 62276.79214 62681.00494 0.0000094
17.59000 59118.28490 59166.62148 0.0000097
17.60000 52223.17665 52252.57052 0.0000104
17.61000 44659.63330 44806.79284 0.0000114
17.62000 38714.66820 38811.26000 0.0000122
17.63000 34937.80999 35017.99868 0.0000128
17.64000 33376.04882 33248.67547 0.0000131
17.65000 33063.57480 32856.62386 0.0000132
17.66000 33451.53898 33157.61551 0.0000132
17.67000 33947.34301 33794.88000 0.0000131
17.68000 35211.12515 34952.87707 0.0000129
17.69000 37188.24478 37009.98932 0.0000126
17.70000 40461.13941 39966.78804 0.0000121
17.71000 43696.81338 43141.92972 0.0000117
17.72000 45871.77400 45279.99358 0.0000114
17.73000 45656.62201 45166.86702 0.0000115
17.74000 43192.67021 42684.62845 0.0000118
17.75000 39558.49673 39082.01133 0.0000124
17.76000 36108.33527 35747.25442 0.0000130
17.77000 33474.20201 33414.68998 0.0000135
17.78000 32516.17424 32166.09216 0.0000137
17.79000 31819.55961 31687.08116 0.0000138
17.80000 31861.36034 31651.14111 0.0000138
17.81000 32111.29022 32073.47066 0.0000138
17.82000 33399.35550 33188.35434 0.0000136
17.83000 35382.77397 35071.33745 0.0000133
17.84000 37594.23407 37377.37579 0.0000129
17.85000 39420.23999 39263.74322 0.0000126
17.86000 39742.90909 39687.09858 0.0000126
17.87000 38592.33688 38335.47986 0.0000128
17.88000 36063.21086 36035.30405 0.0000133
17.89000 33978.55824 33869.37592 0.0000137
17.90000 32874.09903 32598.48732 0.0000139
17.91000 32969.50375 32695.62054 0.0000139
17.92000 35003.49037 34528.37711 0.0000136
17.93000 38951.26111 38427.12505 0.0000129
17.94000 45031.12402 44499.52204 0.0000120
17.95000 52749.18717 52126.59716 0.0000110
17.96000 59614.29804 59445.54805 0.0000102
17.97000 63335.49361 63435.36339 0.0000099
17.98000 61974.07243 61923.84973 0.0000100
17.99000 55846.35970 55914.30300 0.0000107
18.00000 48132.41361 48209.88034 0.0000116
18.01000 41009.25545 41227.07903 0.0000127
18.02000 35874.39716 36209.41827 0.0000136
18.03000 33220.17246 33310.72645 0.0000142
18.04000 32116.15715 32071.62922 0.0000144
18.05000 31920.27202 31889.16349 0.0000145
18.06000 32457.20768 32337.75122 0.0000144
18.07000 33474.19039 33254.41965 0.0000142
18.08000 34570.03676 34473.70060 0.0000140
18.09000 35795.51929 35551.05956 0.0000138
18.10000 36039.16728 35803.29754 0.0000138
18.11000 35175.81691 34905.94285 0.0000139
18.12000 33509.39308 33341.71080 0.0000143
18.13000 31963.92718 31862.51539 0.0000146
18.14000 30993.05120 30970.03342 0.0000149
18.15000 30972.67677 30833.07158 0.0000149
18.16000 31428.70445 31321.40698 0.0000148
18.17000 32376.57061 32098.64560 0.0000146
18.18000 33041.92882 32784.26057 0.0000145
18.19000 33513.64983 33287.30831 0.0000144
18.20000 34235.14422 33945.53272 0.0000143
18.21000 35184.54863 35091.26101 0.0000141
18.22000 36607.31210 36654.55184 0.0000139
18.23000 37807.66578 38125.20252 0.0000137
18.24000 38364.78434 38868.11216 0.0000136
18.25000 38124.95449 38678.23622 0.0000136
18.26000 37697.20165 38203.11687 0.0000137
18.27000 38027.16827 38438.91500 0.0000137
18.28000 39474.23694 39905.66580 0.0000134
18.29000 41767.66416 42318.33942 0.0000130
18.30000 44003.79386 44611.61348 0.0000127
18.31000 45038.00652 45539.60025 0.0000125
18.32000 44839.96076 45032.13328 0.0000126
18.33000 44479.27414 44237.89754 0.0000126
18.34000 44389.68290 44025.10953 0.0000127
18.35000 44684.26043 44237.51594 0.0000126
18.36000 44685.92106 43972.52749 0.0000126
18.37000 43006.43529 42440.36859 0.0000129
18.38000 40168.25991 39636.80927 0.0000134
18.39000 36755.74836 36351.53150 0.0000141
18.40000 33612.45996 33457.38711 0.0000148
18.41000 31226.30026 31440.47552 0.0000153
18.42000 30394.24974 30453.13957 0.0000155
18.43000 30294.77347 30511.79752 0.0000156
18.44000 31476.94180 31655.48256 0.0000153
18.45000 33808.47199 33959.04470 0.0000148
18.46000 37305.84567 37356.98641 0.0000141
18.47000 41133.07147 41377.61057 0.0000134
18.48000 44737.43710 45009.82438 0.0000128
18.49000 46588.43908 47020.16693 0.0000125
18.50000 46142.11002 46749.95255 0.0000126
18.51000 44387.31025 44973.38738 0.0000129
18.52000 42685.34600 43407.61463 0.0000131
18.53000 42395.93981 43275.61923 0.0000132
18.54000 43527.89609 44737.06991 0.0000130
18.55000 45406.03863 46944.21662 0.0000127
18.56000 47027.37832 48602.62976 0.0000125
18.57000 47907.43447 49278.37510 0.0000123
18.58000 48392.67198 49659.33487 0.0000123
18.59000 48846.68595 50117.78051 0.0000122
18.60000 48557.52480 49890.05018 0.0000123
18.61000 46852.69356 47833.74961 0.0000125
18.62000 43250.60780 44083.67877 0.0000131
18.63000 39469.32023 40007.05424 0.0000138
18.64000 36290.60595 36838.60099 0.0000145
18.65000 34866.50101 35195.42912 0.0000148
18.66000 34989.02643 35147.83950 0.0000148
18.67000 36545.50831 36416.97994 0.0000145
18.68000 38585.86506 38608.12253 0.0000140
18.69000 41671.77657 41505.59175 0.0000135
18.70000 45384.17760 45185.95792 0.0000128
18.71000 49741.96792 49389.18673 0.0000122
18.72000 52806.79475 52858.87512 0.0000117
18.73000 53720.70268 53672.21071 0.0000116
18.74000 51195.56754 51111.04209 0.0000120
18.75000 46730.93161 46713.09571 0.0000126
18.76000 42395.79059 42664.53501 0.0000134
18.77000 39745.92277 40414.96163 0.0000139
18.78000 39647.23750 40332.31507 0.0000139
18.79000 40876.74453 41766.58122 0.0000137
18.80000 42185.63017 43317.75452 0.0000134
18.81000 42501.37719 43537.91127 0.0000134
18.82000 41526.06251 42206.11939 0.0000136
18.83000 39612.41926 40258.46741 0.0000139
18.84000 37856.02047 38441.61409 0.0000143
18.85000 36224.07408 36802.46720 0.0000147
18.86000 34614.57038 35062.61313 0.0000150
18.87000 32846.99645 33210.48354 0.0000154
18.88000 31253.19776 31489.35036 0.0000158
18.89000 29819.96077 30138.12203 0.0000162
18.90000 28938.53658 29297.40030 0.0000164
18.91000 28686.95755 29043.78063 0.0000165
18.92000 29148.02199 29470.19191 0.0000164
18.93000 30332.86676 30737.24251 0.0000161
18.94000 32811.91551 33025.19585 0.0000155
18.95000 36008.15931 36351.24183 0.0000147
18.96000 40015.53509 40320.58023 0.0000139
18.97000 43379.63906 43949.58820 0.0000133
18.98000 45382.15931 45936.02816 0.0000130
18.99000 44911.14782 45531.35910 0.0000131
19.00000 42784.54792 43162.50607 0.0000134
19.01000 39887.42057 40214.90435 0.0000140
19.02000 37924.77609 37987.42878 0.0000144
19.03000 37082.70001 36997.47821 0.0000146
19.04000 37088.25323 36967.92659 0.0000145
19.05000 37285.45003 37115.59817 0.0000145
19.06000 37104.61386 36834.33950 0.0000146
19.07000 36482.09677 36242.37546 0.0000147
19.08000 35676.15488 35667.04333 0.0000149
19.09000 35018.76383 35079.91035 0.0000150
19.10000 34049.46479 34166.43163 0.0000153
19.11000 32815.98978 32861.76828 0.0000155
19.12000 31390.17597 31503.44918 0.0000159
19.13000 30334.10773 30455.24186 0.0000162
19.14000 29848.10722 29943.03927 0.0000163
19.15000 30022.95852 30097.95297 0.0000163
19.16000 30986.00362 31054.11269 0.0000160
19.17000 33299.82283 33036.07142 0.0000154
19.18000 36533.56160 36367.45175 0.0000147
19.19000 41727.82353 41296.93455 0.0000137
19.20000 48263.00445 47552.97372 0.0000126
19.21000 54765.05201 53898.48430 0.0000116
19.22000 58864.25682 58215.47621 0.0000111
19.23000 59486.64049 58702.76095 0.0000110
19.24000 55970.23161 55244.00576 0.0000115
19.25000 50524.67719 49688.47749 0.0000122
19.26000 45172.36780 44401.18906 0.0000131
19.27000 41605.41694 40779.93114 0.0000137
19.28000 40207.36294 39029.46045 0.0000140
19.29000 39961.28944 38528.98948 0.0000140
19.30000 39938.23473 38518.45557 0.0000140
19.31000 40017.76435 38743.78737 0.0000140
19.32000 40499.64514 39176.89869 0.0000139
19.33000 40427.24337 39419.78441 0.0000139
19.34000 39555.94349 38762.11337 0.0000141
19.35000 37688.10501 36979.97593 0.0000145
19.36000 35191.62409 34696.89832 0.0000150
19.37000 32893.51321 32687.96708 0.0000156
19.38000 31561.14463 31427.09281 0.0000159
19.39000 31012.18680 31069.41078 0.0000161
19.40000 31599.62174 31552.49936 0.0000159
19.41000 32719.55398 32714.20001 0.0000156
19.42000 34614.29828 34420.69315 0.0000152
19.43000 36828.95060 36607.75016 0.0000147
19.44000 39389.65144 38984.94429 0.0000141
19.45000 40987.23950 40734.76264 0.0000138
19.46000 41154.09831 40787.20675 0.0000138
19.47000 39272.08604 38920.40393 0.0000142
19.48000 36406.97248 36110.39256 0.0000148
19.49000 33545.58559 33469.49233 0.0000154
19.50000 31695.87910 31627.84441 0.0000159
19.51000 30922.87219 30704.91261 0.0000161
19.52000 30698.61431 30445.51092 0.0000161
19.53000 30711.83587 30415.55868 0.0000161
19.54000 30410.86102 30280.98384 0.0000162
19.55000 30158.66539 30018.79134 0.0000163
19.56000 29706.46835 29749.71245 0.0000164
19.57000 29343.09840 29506.17142 0.0000165
19.58000 28851.78018 29229.53295 0.0000166
19.59000 28693.38130 28944.76783 0.0000167
19.60000 28528.81846 28810.64809 0.0000167
19.61000 28798.40183 28999.00295 0.0000167
19.62000 29332.67779 29618.46731 0.0000165
19.63000 30449.75076 30704.10632 0.0000162
19.64000 31848.92593 32209.76743 0.0000159
19.65000 33667.94197 34039.07170 0.0000154
19.66000 35919.11015 36192.30194 0.0000149
19.67000 38789.93025 38787.42529 0.0000143
19.68000 41553.07266 41613.59862 0.0000137
19.69000 43752.69160 43801.88243 0.0000133
19.70000 44178.62936 44259.34636 0.0000133
19.71000 42731.54065 42778.37669 0.0000135
19.72000 40195.23091 40266.98115 0.0000140
19.73000 37651.28505 37980.32496 0.0000145
19.74000 36427.54683 36811.75241 0.0000148
19.75000 36648.31310 37039.51190 0.0000147
19.76000 37895.58649 38438.20686 0.0000145
19.77000 39812.31651 40575.75018 0.0000141
19.78000 42861.62650 43321.96437 0.0000135
19.79000 46443.23697 46835.00454 0.0000129
19.80000 50141.32996 50725.64416 0.0000123
19.81000 52820.89495 53602.19824 0.0000119
19.82000 53200.69114 53844.63269 0.0000118
19.83000 50449.43947 51055.92951 0.0000122
19.84000 46034.94091 46393.74036 0.0000129
19.85000 41323.50055 41665.23622 0.0000138
19.86000 37823.02553 38169.74758 0.0000145
19.87000 36036.90591 36361.47715 0.0000149
19.88000 35718.01216 36050.50225 0.0000149
19.89000 36541.87382 36831.91888 0.0000148
19.90000 38142.25435 38522.45873 0.0000144
19.91000 40448.76715 41039.59539 0.0000139
19.92000 42875.72366 43852.45774 0.0000135
19.93000 44780.72661 45841.98951 0.0000131
19.94000 44857.08458 45935.86516 0.0000131
19.95000 42918.16866 43994.35688 0.0000135
19.96000 40341.86456 41003.35437 0.0000140
19.97000 37646.37246 38315.32835 0.0000145
19.98000 36219.89447 36789.53926 0.0000148
19.99000 36032.05805 36615.44608 0.0000149
20.00000 36689.71065 37488.75110 0.0000147
20.01000 38552.59735 39013.71618 0.0000143
20.02000 40633.86595 41001.05508 0.0000139
20.03000 42361.27314 43079.61916 0.0000136
20.04000 43330.82511 44243.86027 0.0000134
20.05000 42538.68905 43324.65262 0.0000135
20.06000 39799.49420 40358.36329 0.0000141
20.07000 36269.12785 36575.15610 0.0000148
20.08000 32754.17147 33113.01536 0.0000156
20.09000 30440.28459 30550.06020 0.0000162
20.10000 28908.33028 29009.71879 0.0000166
20.11000 28476.23593 28369.21976 0.0000167
20.12000 28822.83434 28459.22743 0.0000166
20.13000 29546.13590 29150.86219 0.0000164
20.14000 31215.65479 30308.67632 0.0000160
20.15000 32723.38777 31681.77791 0.0000156
20.16000 34202.37748 32828.35430 0.0000153
20.17000 34688.63344 33250.85804 0.0000152
20.18000 34059.50953 32715.79984 0.0000153
20.19000 32591.53386 31478.51016 0.0000157
20.20000 31029.28606 30079.98137 0.0000160
20.21000 29429.54021 28945.83664 0.0000165
20.22000 28673.23889 28267.95366 0.0000167
20.23000 28428.31246 28075.64847 0.0000167
20.24000 28709.82931 28330.20505 0.0000167
20.25000 29331.92129 28983.62888 0.0000165
20.26000 30197.70245 29941.18249 0.0000163
20.27000 31272.91999 30976.40806 0.0000160
20.28000 31903.51564 31742.56397 0.0000158
20.29000 32291.28819 31951.63525 0.0000157
20.30000 31817.05684 31629.23534 0.0000158
20.31000 31397.15382 31156.49103 0.0000159
20.32000 31239.04472 30927.74513 0.0000160
20.33000 31396.34549 31084.87708 0.0000159
20.34000 31676.25092 31496.39233 0.0000159
20.35000 32187.96343 31907.64402 0.0000157
20.36000 32458.97279 32269.57507 0.0000157
20.37000 32958.89571 32802.24016 0.0000156
20.38000 33706.12269 33648.97590 0.0000154
20.39000 34650.87708 34690.71631 0.0000152
20.40000 35485.83385 35680.91761 0.0000150
20.41000 36347.66695 36595.75131 0.0000148
20.42000 37714.91898 37912.21754 0.0000145
20.43000 40168.64039 40271.59589 0.0000140
20.44000 43831.72389 43824.02503 0.0000133
20.45000 47744.29545 47902.68455 0.0000127
20.46000 51043.50320 51122.69122 0.0000121
20.47000 52909.38364 52490.81913 0.0000119
20.48000 53400.54940 52499.64186 0.0000118
20.49000 52880.58252 51919.64904 0.0000119
20.50000 51362.29468 50446.96743 0.0000121
20.51000 48103.72311 47276.06416 0.0000126
20.52000 43646.94231 42674.77204 0.0000133
20.53000 38478.84119 37862.19950 0.0000144
20.54000 34152.33223 33822.13433 0.0000153
20.55000 31015.90184 30983.30645 0.0000161
20.56000 29347.27872 29366.24974 0.0000165
20.57000 28793.43150 28791.10192 0.0000167
20.58000 29170.78718 29049.05032 0.0000166
20.59000 30082.47484 29955.88144 0.0000163
20.60000 31509.25093 31278.31003 0.0000160
20.61000 32998.62648 32626.72889 0.0000156
20.62000 33688.36179 33463.65895 0.0000154
20.63000 33660.64477 33381.09625 0.0000154
20.64000 32642.06767 32417.75847 0.0000157
20.65000 31145.78642 31050.31767 0.0000160
20.66000 29872.48280 29824.48112 0.0000164
20.67000 29187.17413 29076.47578 0.0000166
20.68000 29037.44652 28929.41570 0.0000166
20.69000 29563.55016 29367.43132 0.0000165
20.70000 30598.14461 30318.53200 0.0000162
20.71000 32123.51587 31629.89643 0.0000158
20.72000 33540.99198 32948.65219 0.0000155
20.73000 34503.15706 33703.68639 0.0000152
20.74000 34166.18820 33461.60618 0.0000153
20.75000 33059.10259 32309.46057 0.0000156
20.76000 31565.24289 30738.72291 0.0000160
20.77000 29805.70884 29287.85019 0.0000164
20.78000 28698.73796 28309.25558 0.0000167
20.79000 28081.42755 27966.42891 0.0000169
20.80000 28418.84189 28300.96148 0.0000168
20.81000 29180.67370 29260.26788 0.0000166
20.82000 30688.21941 30664.09025 0.0000162
20.83000 31886.72337 32135.00565 0.0000159
20.84000 32968.22358 33094.14308 0.0000156
20.85000 33047.12037 33064.27594 0.0000156
20.86000 32194.80836 32092.35290 0.0000158
20.87000 30899.39681 30658.89552 0.0000162
20.88000 29479.62298 29298.29278 0.0000165
20.89000 28496.42599 28351.84289 0.0000168
20.90000 28141.09449 27942.12176 0.0000169
20.91000 28229.13218 28048.42251 0.0000169
20.92000 29011.04098 28571.72131 0.0000167
20.93000 29892.54168 29362.91766 0.0000164
20.94000 30552.23999 30170.57114 0.0000163
20.95000 31214.25626 30620.33993 0.0000161
20.96000 30972.21433 30429.26075 0.0000162
20.97000 30210.36109 29725.03015 0.0000164
20.98000 29111.02662 28904.82910 0.0000167
20.99000 28654.73605 28306.96916 0.0000168
21.00000 28342.30537 28135.92909 0.0000169
21.01000 28734.72611 28508.34309 0.0000168
21.02000 29598.29674 29498.75139 0.0000165
21.03000 31134.21442 31157.93553 0.0000161
21.04000 33449.73079 33458.02663 0.0000156
21.05000 35852.63033 36129.25252 0.0000150
21.06000 38024.72456 38545.03581 0.0000145
21.07000 39404.66577 39976.68039 0.0000142
21.08000 39705.13617 40240.26203 0.0000142
21.09000 39315.85757 39995.96384 0.0000143
21.10000 39614.29654 40277.46562 0.0000142
21.11000 40608.12077 41690.47357 0.0000140
21.12000 42802.52162 44010.59311 0.0000136
21.13000 44627.01139 46259.04533 0.0000133
21.14000 46093.22192 47496.14580 0.0000130
21.15000 46684.22471 47831.26954 0.0000129
21.16000 46714.29337 47768.45050 0.0000129
21.17000 46189.75350 47074.05996 0.0000130
21.18000 44307.31259 45044.72447 0.0000133
21.19000 41380.01949 41705.89483 0.0000139
21.20000 37823.94276 37943.15992 0.0000146
21.21000 34460.32567 34687.47185 0.0000154
21.22000 32239.95513 32458.34469 0.0000159
21.23000 30967.35252 31329.91583 0.0000162
21.24000 30709.72670 31069.73791 0.0000163
21.25000 31154.38371 31369.10431 0.0000162
21.26000 31732.91325 32018.08053 0.0000161
21.27000 32602.78131 32797.82495 0.0000158
21.28000 32919.57926 33298.59273 0.0000158
21.29000 32757.45235 33076.53099 0.0000158
21.30000 31990.34806 32084.53863 0.0000160
21.31000 30621.74977 30699.16798 0.0000164
21.32000 29492.03015 29372.14469 0.0000167
21.33000 28482.58438 28380.87131 0.0000170
21.34000 27904.18007 27784.61805 0.0000172
21.35000 27534.45830 27487.21937 0.0000173
21.36000 27445.06279 27352.58041 0.0000173
21.37000 27296.20402 27302.27878 0.0000174
21.38000 27446.68541 27300.65731 0.0000173
21.39000 27046.97373 27293.56211 0.0000174
21.40000 27129.16121 27246.35678 0.0000174
21.41000 27201.91253 27214.98302 0.0000174
21.42000 27445.15087 27327.63593 0.0000173
21.43000 27947.34128 27730.29330 0.0000172
21.44000 28812.48538 28583.31570 0.0000169
21.45000 30269.81629 30068.60334 0.0000165
21.46000 32395.35980 32341.92977 0.0000160
21.47000 35622.35652 35461.26170 0.0000152
21.48000 39130.97935 39238.75731 0.0000144
21.49000 42573.30727 42943.19965 0.0000138
21.50000 44389.59548 45224.64760 0.0000134
21.51000 44178.24364 44940.75913 0.0000135
21.52000 41530.87643 42310.37882 0.0000140
21.53000 38122.53770 38620.98163 0.0000147
21.54000 34729.30959 35187.74892 0.0000155
21.55000 32562.38791 32742.63554 0.0000160
21.56000 31033.76935 31397.93122 0.0000164
21.57000 30602.34367 30877.10040 0.0000165
21.58000 30845.79169 30846.48822 0.0000165
21.59000 31156.34523 31104.08660 0.0000164
21.60000 31583.99950 31442.05947 0.0000163
21.61000 31700.77334 31546.72515 0.0000162
21.62000 31676.23478 31209.13202 0.0000162
21.63000 31111.11545 30567.40206 0.0000164
21.64000 30462.51234 29971.48447 0.0000166
21.65000 30309.92264 29741.19373 0.0000166
21.66000 30807.31477 30047.47275 0.0000165
21.67000 31647.12579 30902.36625 0.0000163
21.68000 33190.32513 32209.99491 0.0000159
21.69000 34850.62746 33892.99818 0.0000155
21.70000 36967.64801 35821.51655 0.0000150
21.71000 38676.76348 37545.89592 0.0000146
21.72000 39219.06286 38344.12721 0.0000145
21.73000 38771.15457 37856.40181 0.0000146
21.74000 37228.08964 36514.43692 0.0000150
21.75000 35775.45659 35157.25530 0.0000153
21.76000 34678.62028 34397.21389 0.0000156
21.77000 34510.21221 34302.83791 0.0000156
21.78000 34544.93476 34430.73235 0.0000156
21.79000 34596.40809 34198.36530 0.0000156
21.80000 33981.47328 33477.42740 0.0000158
21.81000 33091.18973 32537.27523 0.0000160
21.82000 32076.35535 31529.28404 0.0000163
21.83000 30924.04827 30426.07697 0.0000166
21.84000 29765.93395 29286.74975 0.0000169
21.85000 28620.27369 28292.13466 0.0000173
21.86000 27865.98819 27588.09848 0.0000175
21.87000 27338.46808 27266.63061 0.0000177
21.88000 27483.22497 27412.41522 0.0000176
21.89000 28072.13025 28141.10245 0.0000175
21.90000 29595.68344 29574.60117 0.0000170
21.91000 31535.27968 31739.13227 0.0000165
21.92000 34197.46364 34405.48022 0.0000158
21.93000 36422.06815 36958.94839 0.0000153
21.94000 37779.77740 38451.28515 0.0000149
21.95000 37415.91790 38139.69111 0.0000150
21.96000 35727.25983 36298.77327 0.0000154
21.97000 33508.04287 33967.00469 0.0000160
21.98000 31480.56463 32029.14018 0.0000165
21.99000 30638.36181 30900.47838 0.0000168
22.00000 30242.66225 30613.53228 0.0000169
22.01000 30792.62868 31001.27784 0.0000167
22.02000 31418.59855 31797.48508 0.0000166
22.03000 32238.90498 32586.13494 0.0000163
22.04000 32277.93464 32871.15143 0.0000164
22.05000 32065.80125 32451.75264 0.0000164
22.06000 31320.28731 31613.88740 0.0000166
22.07000 30647.53140 30830.53696 0.0000168
22.08000 30123.89452 30408.57225 0.0000170
22.09000 30091.16174 30345.36933 0.0000170
22.10000 30189.36040 30371.57007 0.0000170
22.11000 30012.24478 30185.69318 0.0000170
22.12000 29946.40901 29773.78859 0.0000171
22.13000 29526.51994 29327.34398 0.0000172
22.14000 29336.94159 28968.06163 0.0000173
22.15000 29058.71303 28703.37653 0.0000174
22.16000 29042.71127 28533.90007 0.0000174
22.17000 29064.58278 28534.46023 0.0000174
22.18000 29562.39729 28809.55863 0.0000172
22.19000 30146.19054 29383.04791 0.0000171
22.20000 30929.25379 30137.21996 0.0000168
22.21000 31544.37870 30847.95196 0.0000167
22.22000 31896.95418 31376.89514 0.0000166
22.23000 32231.11548 31753.81360 0.0000165
22.24000 32197.91229 31933.31545 0.0000165
22.25000 31762.31848 31722.85401 0.0000166
22.26000 31185.79740 31116.94602 0.0000168
22.27000 30657.07992 30469.08362 0.0000170
22.28000 30395.71864 30171.44102 0.0000171
22.29000 30554.11027 30418.74653 0.0000170
22.30000 31350.88595 31178.74919 0.0000168
22.31000 32438.52304 32225.01004 0.0000165
22.32000 33353.89060 33305.37835 0.0000163
22.33000 34333.37369 34371.33900 0.0000160
22.34000 35159.44555 35398.90488 0.0000158
22.35000 35606.45912 36052.71233 0.0000157
22.36000 35602.69091 35853.60642 0.0000157
22.37000 34360.70111 34712.00862 0.0000160
22.38000 32927.16541 33094.82873 0.0000164
22.39000 31626.27680 31704.29940 0.0000168
22.40000 31023.08518 31116.87626 0.0000170
22.41000 31385.66041 31684.66331 0.0000169
22.42000 33153.69959 33518.87693 0.0000164
22.43000 36089.93051 36433.98282 0.0000156
22.44000 39276.56615 39836.27042 0.0000149
22.45000 41871.11256 42580.70476 0.0000144
22.46000 42360.97557 43296.87859 0.0000143
22.47000 40959.82747 41545.74911 0.0000146
22.48000 37708.73021 38257.55398 0.0000153
22.49000 34301.33302 34750.16274 0.0000161
22.50000 31551.41244 31965.97881 0.0000169
22.51000 30045.35761 30349.91682 0.0000173
22.52000 29879.14782 29990.15587 0.0000174
22.53000 30735.70703 30771.45235 0.0000172
22.54000 32540.24310 32436.28724 0.0000166
22.55000 34599.69748 34547.82622 0.0000161
22.56000 36291.49589 36452.38619 0.0000157
22.57000 37298.59106 37488.84968 0.0000154
22.58000 37377.44354 37465.38198 0.0000154
22.59000 36716.28668 36903.61287 0.0000156
22.60000 36609.25020 36561.69244 0.0000156
22.61000 36779.06595 36781.50600 0.0000156
22.62000 37349.49758 37298.71233 0.0000155
22.63000 37625.37901 37532.45302 0.0000154
22.64000 37559.50048 37272.93688 0.0000154
22.65000 36883.36091 36705.69151 0.0000156
22.66000 35654.84013 35808.52126 0.0000159
22.67000 34199.14071 34378.25329 0.0000163
22.68000 32406.91324 32553.83917 0.0000168
22.69000 30760.87778 30798.04840 0.0000173
22.70000 29342.09319 29485.09217 0.0000177
22.71000 28664.19529 28799.35122 0.0000179
22.72000 28572.64502 28790.56545 0.0000180
22.73000 29374.25052 29422.55172 0.0000177
22.74000 30553.80992 30608.65654 0.0000174
22.75000 32225.26722 32171.51744 0.0000169
22.76000 33917.59724 33730.92300 0.0000164
22.77000 34803.99692 34722.75434 0.0000162
22.78000 34949.04773 34742.86360 0.0000162
22.79000 33992.59734 33917.32536 0.0000164
22.80000 32980.98403 32831.75414 0.0000167
22.81000 31946.88481 32045.06364 0.0000170
22.82000 31489.21767 31787.96258 0.0000171
22.83000 31645.82896 31981.53678 0.0000171
22.84000 32232.88931 32470.03470 0.0000169
22.85000 32982.16639 33222.00044 0.0000167
22.86000 33876.32169 34134.37905 0.0000165
22.87000 34648.78616 34822.82813 0.0000163
22.88000 34634.27162 34788.26976 0.0000163
22.89000 33834.57043 33860.28804 0.0000165
22.90000 32502.03737 32429.35732 0.0000169
22.91000 31070.13170 31092.91178 0.0000173
22.92000 30115.26181 30250.85463 0.0000176
22.93000 29900.43321 30026.53317 0.0000177
22.94000 30200.72051 30351.05080 0.0000176
22.95000 30821.57678 31075.06676 0.0000174
22.96000 31594.06294 31941.97551 0.0000172
22.97000 32004.19022 32524.97174 0.0000171
22.98000 32065.29540 32440.36097 0.0000171
22.99000 31362.98970 31701.72920 0.0000173
23.00000 30440.04735 30714.04207 0.0000176
23.01000 29819.80165 29977.06552 0.0000178
23.02000 29694.65913 29851.22324 0.0000178
23.03000 30281.66529 30489.28053 0.0000177
23.04000 31849.11923 31837.41869 0.0000172
23.05000 33574.92505 33649.38274 0.0000167
23.06000 35393.28821 35422.14672 0.0000162
23.07000 36351.95976 36347.54857 0.0000160
23.08000 35765.88449 35775.18423 0.0000161
23.09000 34061.44592 33934.17812 0.0000166
23.10000 31668.17913 31653.50409 0.0000173
23.11000 29638.28988 29611.66330 0.0000179
23.12000 27930.64937 28134.90313 0.0000185
23.13000 27110.96390 27266.83167 0.0000188
23.14000 26758.76764 26891.14705 0.0000189
23.15000 26812.66090 26853.21905 0.0000189
23.16000 26975.18497 27017.32486 0.0000189
23.17000 27196.60090 27272.08025 0.0000188
23.18000 27553.80600 27542.63658 0.0000187
23.19000 27985.02764 27840.75591 0.0000185
23.20000 28555.26315 28274.92118 0.0000183
23.21000 29312.16857 28973.71410 0.0000181
23.22000 30381.58929 29977.81088 0.0000178
23.23000 31642.10621 31174.11014 0.0000174
23.24000 32978.90696 32330.20952 0.0000170
23.25000 34241.78865 33302.61232 0.0000166
23.26000 35007.44652 34054.40933 0.0000164
23.27000 35330.74764 34374.23934 0.0000163
23.28000 34609.52048 33959.56205 0.0000166
23.29000 33713.51814 32955.36014 0.0000168
23.30000 32274.69963 31939.65615 0.0000172
23.31000 31348.07552 31386.21864 0.0000175
23.32000 31080.10116 31456.53881 0.0000176
23.33000 31496.73079 32023.76866 0.0000175
23.34000 32301.34173 32808.78304 0.0000172
23.35000 33240.76962 33680.17958 0.0000170
23.36000 34457.61780 34710.83685 0.0000166
23.37000 35387.37485 35808.48041 0.0000164
23.38000 36382.63627 36527.60933 0.0000161
23.39000 36170.96855 36360.43628 0.0000162
23.40000 35276.48402 35297.52673 0.0000164
23.41000 33646.90710 33897.52951 0.0000169
23.42000 32296.87604 32690.15314 0.0000173
23.43000 31253.51224 31811.19383 0.0000176
23.44000 30492.11284 31073.32361 0.0000178
23.45000 29952.52905 30306.59645 0.0000180
23.46000 29174.88700 29541.55213 0.0000183
23.47000 28694.02677 28842.30791 0.0000184
23.48000 28206.82172 28209.68482 0.0000186
23.49000 27679.32199 27678.66349 0.0000188
23.50000 27337.62430 27353.76907 0.0000189
23.51000 27310.09521 27361.95262 0.0000189
23.52000 27731.33564 27849.59206 0.0000188
23.53000 28902.99554 28971.79452 0.0000184
23.54000 30733.51080 30813.79517 0.0000178
23.55000 33282.55825 33265.79550 0.0000170
23.56000 35893.62553 35898.40333 0.0000163
23.57000 37954.48004 37922.44476 0.0000158
23.58000 38625.99542 38556.70504 0.0000156
23.59000 37960.92219 37867.55844 0.0000158
23.60000 37120.52291 36766.68164 0.0000160
23.61000 36289.01363 36147.15648 0.0000162
23.62000 36366.16982 36394.99246 0.0000162
23.63000 37141.19611 37313.80535 0.0000160
23.64000 38408.39030 38351.59491 0.0000157
23.65000 39583.40150 39173.16243 0.0000154
23.66000 40203.96839 39758.38291 0.0000153
23.67000 40420.00192 39857.78556 0.0000152
23.68000 39606.72430 38985.08061 0.0000154
23.69000 37823.21804 37086.31606 0.0000159
23.70000 35419.67831 34742.87354 0.0000165
23.71000 33137.75779 32716.22138 0.0000171
23.72000 31707.50323 31560.54944 0.0000175
23.73000 31451.66031 31529.62895 0.0000176
23.74000 32401.66219 32596.04488 0.0000173
23.75000 34214.32880 34475.62755 0.0000168
23.76000 36155.07408 36596.21430 0.0000163
23.77000 37329.35847 38091.66400 0.0000160
23.78000 37584.98780 38236.59282 0.0000159
23.79000 36680.24545 37146.31660 0.0000162
23.80000 35190.23561 35617.56819 0.0000166
23.81000 34008.29250 34371.95836 0.0000169
23.82000 33289.37641 33622.29316 0.0000171
23.83000 32693.36110 33056.84245 0.0000173
23.84000 31979.73783 32184.35909 0.0000175
23.85000 30932.85116 30895.39130 0.0000178
23.86000 29455.55268 29476.17035 0.0000183
23.87000 28275.56610 28212.21590 0.0000187
23.88000 27289.47746 27244.87243 0.0000191
23.89000 26683.45344 26604.01359 0.0000193
23.90000 26311.46540 26258.71207 0.0000194
23.91000 26119.03600 26165.38382 0.0000195
23.92000 26440.02942 26313.24102 0.0000194
23.93000 26572.09632 26732.77569 0.0000193
23.94000 27534.70256 27462.67933 0.0000190
23.95000 28626.49604 28491.43070 0.0000186
23.96000 29826.66968 29695.58503 0.0000182
23.97000 31026.91363 30806.99040 0.0000178
23.98000 31655.89704 31489.28547 0.0000176
23.99000 31788.47658 31619.90283 0.0000176
24.00000 31412.37806 31492.88925 0.0000177
24.01000 31257.20687 31532.38912 0.0000177
24.02000 31413.13678 31949.54485 0.0000177
24.03000 32076.35917 32677.38123 0.0000175
24.04000 32952.23788 33549.76233 0.0000172
24.05000 34027.74518 34452.44326 0.0000169
24.06000 34755.26298 35111.13380 0.0000167
24.07000 34666.78721 35035.28797 0.0000167
24.08000 33641.25051 33990.10077 0.0000170
24.09000 32149.41652 32301.04272 0.0000175
24.10000 30434.46480 30563.56579 0.0000180
24.11000 28966.10514 29267.99687 0.0000185
24.12000 28322.12463 28666.42411 0.0000187
24.13000 28464.60619 28784.69721 0.0000187
24.14000 29027.46674 29461.67362 0.0000185
24.15000 30115.17275 30377.58941 0.0000181
24.16000 30724.44441 31099.28746 0.0000179
24.17000 30994.59432 31298.21773 0.0000178
24.18000 30778.52271 31098.00573 0.0000179
24.19000 30920.94018 30937.53089 0.0000178
24.20000 31022.11375 31118.51230 0.0000178
24.21000 31543.13218 31613.83069 0.0000176
24.22000 32032.18235 32068.94275 0.0000175
24.23000 32056.41386 32044.06374 0.0000175
24.24000 31474.31292 31467.00229 0.0000177
24.25000 30582.47868 30603.11038 0.0000179
24.26000 29579.35022 29660.82452 0.0000183
24.27000 28737.75097 28748.05466 0.0000186
24.28000 27921.67687 28008.89139 0.0000188
24.29000 27546.98640 27591.74331 0.0000190
24.30000 27474.86985 27599.78789 0.0000190
24.31000 27884.09042 28109.96649 0.0000188
24.32000 28954.72267 29166.45477 0.0000185
24.33000 30428.04730 30753.04349 0.0000180
24.34000 32336.87687 32722.62235 0.0000174
24.35000 34177.12226 34672.78069 0.0000168
24.36000 35563.54395 35942.18895 0.0000165
24.37000 35803.39379 35975.80565 0.0000164
24.38000 34898.16237 34833.18688 0.0000166
24.39000 33421.14236 33185.24211 0.0000170
24.40000 31877.41415 31728.74114 0.0000175
24.41000 30981.47158 30807.48613 0.0000178
24.42000 30698.49484 30435.86357 0.0000179
24.43000 30691.62914 30476.83869 0.0000179
24.44000 30937.77987 30751.67412 0.0000178
24.45000 31094.58536 30980.95302 0.0000177
24.46000 30875.65039 30859.42048 0.0000178
24.47000 30382.24125 30320.04299 0.0000180
24.48000 29800.29268 29621.02730 0.0000181
24.49000 29261.55109 29156.91463 0.0000183
24.50000 29330.08392 29251.69468 0.0000183
24.51000 30128.89511 30076.09845 0.0000180
24.52000 31738.40697 31607.75809 0.0000175
24.53000 34058.33652 33591.27055 0.0000168
24.54000 36145.70996 35469.15214 0.0000163
24.55000 37099.40033 36440.64790 0.0000160
24.56000 37002.85473 35999.45080 0.0000160
24.57000 35464.03599 34450.92862 0.0000164
24.58000 33422.26737 32577.90702 0.0000170
24.59000 31529.28782 31054.68381 0.0000176
24.60000 30411.02465 30200.38907 0.0000179
24.61000 30004.17527 30007.53388 0.0000180
24.62000 30163.49540 30287.08090 0.0000180
24.63000 30678.81057 30785.79564 0.0000178
24.64000 30771.82846 31171.13938 0.0000178
24.65000 30783.95172 31152.66796 0.0000178
24.66000 30503.17678 30807.88705 0.0000179
24.67000 30236.82472 30517.51890 0.0000179
24.68000 30328.75150 30566.18279 0.0000179
24.69000 30560.58201 30968.14091 0.0000178
24.70000 31017.78080 31472.69732 0.0000177
24.71000 31489.42265 31751.27791 0.0000175
24.72000 31824.12663 31734.90302 0.0000174
24.73000 31753.38814 31560.70709 0.0000174
24.74000 31839.17131 31266.02490 0.0000174
24.75000 31261.29369 30820.57300 0.0000176
24.76000 30853.37810 30330.94475 0.0000177
24.77000 30429.19927 30029.91901 0.0000178
24.78000 30233.67473 30098.71162 0.0000179
24.79000 30563.12050 30547.81594 0.0000178
24.80000 31186.01336 31223.52800 0.0000176
24.81000 32072.96392 31960.04682 0.0000173
24.82000 32788.49361 32662.91533 0.0000171
24.83000 33348.85937 33115.74893 0.0000169
24.84000 33086.63109 32966.40979 0.0000170
24.85000 32384.88243 32088.49461 0.0000172
24.86000 31171.66020 30776.77796 0.0000176
24.87000 29726.09678 29516.50346 0.0000180
24.88000 28965.65768 28708.52855 0.0000183
24.89000 28596.32114 28588.61381 0.0000184
24.90000 29304.76088 29228.12012 0.0000181
24.91000 30673.13115 30519.68624 0.0000177
24.92000 32237.55203 32140.30663 0.0000172
24.93000 33672.81017 33538.43874 0.0000168
24.94000 34130.40098 34076.52663 0.0000167
24.95000 33679.56782 33495.89529 0.0000168
24.96000 32479.38979 32231.27747 0.0000171
24.97000 31146.55651 30965.77428 0.0000175
24.98000 30222.70968 30155.09020 0.0000178
24.99000 29941.12225 29939.90467 0.0000179
25.00000 30266.19616 30217.95412 0.0000178
25.01000 30716.98105 30717.46127 0.0000176
25.02000 31014.02365 31036.23880 0.0000175
25.03000 30874.20823 30863.16727 0.0000176
25.04000 30374.76059 30313.24891 0.0000177
25.05000 29841.44884 29818.46392 0.0000179
25.06000 29707.69146 29776.30168 0.0000179
25.07000 30232.38684 30418.22127 0.0000178
25.08000 31649.77649 31770.61709 0.0000173
25.09000 33633.98994 33660.39043 0.0000167
25.10000 35805.23081 35724.38275 0.0000162
25.11000 37574.54456 37311.30520 0.0000157
25.12000 37979.08065 37619.18893 0.0000156
25.13000 36979.54867 36416.09120 0.0000158
25.14000 34835.76777 34328.61260 0.0000164
25.15000 32575.09946 32200.00232 0.0000170
25.16000 30764.98872 30578.51864 0.0000175
25.17000 29748.25520 29631.54288 0.0000179
25.18000 29272.58764 29255.84679 0.0000180
25.19000 29339.68983 29259.22159 0.0000180
25.20000 29402.04306 29432.72115 0.0000180
25.21000 29463.40691 29518.37614 0.0000179
25.22000 29276.80349 29310.83813 0.0000180
25.23000 28992.49384 28831.75960 0.0000181
25.24000 28220.23536 28280.97541 0.0000183
25.25000 27988.97762 27853.80473 0.0000184
25.26000 27612.56622 27629.24160 0.0000185
25.27000 27563.73849 27578.46050 0.0000185
25.28000 27714.60647 27646.69774 0.0000185
25.29000 27821.57015 27810.04234 0.0000185
25.30000 28042.46099 28039.21886 0.0000184
25.31000 28103.32393 28300.35669 0.0000183
25.32000 28548.51065 28630.39063 0.0000182
25.33000 28868.38210 29133.63660 0.0000181
25.34000 29799.81141 29863.70529 0.0000178
25.35000 30627.81361 30701.38460 0.0000175
25.36000 31300.63107 31342.57160 0.0000173
25.37000 31889.42776 31526.05144 0.0000171
25.38000 31837.95133 31293.18277 0.0000171
25.39000 31380.91367 30807.69318 0.0000173
25.40000 30518.34174 30143.21816 0.0000175
25.41000 29743.76294 29424.53978 0.0000178
25.42000 29073.82672 28885.00240 0.0000180
25.43000 28778.80036 28712.12349 0.0000181
25.44000 28755.82400 28981.55633 0.0000181
25.45000 29433.34352 29669.28271 0.0000178
25.46000 30313.32469 30696.34388 0.0000176
25.47000 31631.37889 31995.43675 0.0000172
25.48000 32944.64292 33425.46439 0.0000168
25.49000 34226.84894 34633.03111 0.0000164
25.50000 35000.25922 35172.49426 0.0000162
25.51000 35042.83115 34933.22416 0.0000162
25.52000 34772.04882 34336.84140 0.0000163
25.53000 34378.60377 33860.75034 0.0000164
25.54000 33980.13842 33620.02669 0.0000165
25.55000 34007.06713 33420.46318 0.0000165
25.56000 33694.39900 33105.90352 0.0000166
25.57000 33231.25694 32670.22313 0.0000167
25.58000 32492.13608 32030.71829 0.0000169
25.59000 31434.12056 31107.28455 0.0000172
25.60000 30311.30001 30075.86878 0.0000175
25.61000 29367.53033 29273.92480 0.0000178
25.62000 28927.86315 29000.36212 0.0000179
25.63000 29394.56056 29438.53722 0.0000178
25.64000 30532.39631 30615.80404 0.0000175
25.65000 32370.21213 32343.32951 0.0000169
25.66000 34233.98467 34166.08431 0.0000164
25.67000 35780.84167 35387.35112 0.0000160
25.68000 35863.89519 35457.60687 0.0000160
25.69000 35229.41261 34547.68636 0.0000161
25.70000 33993.45951 33328.85543 0.0000164
25.71000 32833.48148 32324.47080 0.0000168
25.72000 32167.97377 31648.24347 0.0000169
25.73000 31528.18239 31066.26320 0.0000171
25.74000 30838.58646 30324.29072 0.0000173
25.75000 29856.38574 29446.62851 0.0000176
25.76000 28846.07995 28591.01909 0.0000179
25.77000 28034.49278 27866.61556 0.0000182
25.78000 27445.90641 27352.93263 0.0000184
25.79000 27046.32135 27121.98316 0.0000185
25.80000 27014.44469 27225.97766 0.0000185
25.81000 27562.21639 27698.26826 0.0000184
25.82000 28416.60393 28540.53823 0.0000181
25.83000 29439.23996 29688.61604 0.0000177
25.84000 30855.72310 30975.95285 0.0000173
25.85000 31898.91068 32083.65490 0.0000170
25.86000 32428.21044 32638.83106 0.0000168
25.87000 32493.33529 32570.35155 0.0000168
25.88000 32214.49139 32213.83346 0.0000169
25.89000 31776.93974 31966.31828 0.0000170
25.90000 31591.31264 31983.30454 0.0000171
25.91000 31680.40082 32118.47228 0.0000170
25.92000 31887.11988 32128.32717 0.0000170
25.93000 31883.21293 31963.34119 0.0000170
25.94000 31674.11653 31682.28083 0.0000170
25.95000 31366.83209 31263.76091 0.0000171
25.96000 30842.90144 30724.14425 0.0000173
25.97000 30360.93909 30241.53765 0.0000174
25.98000 30183.24194 30043.87139 0.0000175
25.99000 30332.89701 30262.88974 0.0000174
26.00000 30953.17661 30881.78628 0.0000173
26.01000 31917.61454 31790.04829 0.0000170
26.02000 32949.48516 32877.86064 0.0000167
26.03000 34127.82409 33941.08714 0.0000164
26.04000 34895.05320 34568.54018 0.0000162
26.05000 34553.29912 34363.77700 0.0000162
26.06000 33674.43587 33366.86902 0.0000165
26.07000 32408.26605 32101.72867 0.0000168
26.08000 31001.77974 31131.72159 0.0000172
26.09000 30457.38608 30759.40269 0.0000174
26.10000 30557.12797 30997.41546 0.0000174
26.11000 31084.61169 31621.99009 0.0000172
26.12000 31785.55923 32211.59150 0.0000170
26.13000 31893.09681 32279.93753 0.0000170
26.14000 31475.14635 31682.06985 0.0000171
26.15000 30653.12567 30767.01350 0.0000173
26.16000 29788.07997 29986.24131 0.0000176
26.17000 29398.20197 29616.15853 0.0000177
26.18000 29410.63507 29724.88999 0.0000177
26.19000 30100.48620 30229.85983 0.0000175
26.20000 31115.05446 30988.98501 0.0000172
26.21000 32024.34184 31785.32057 0.0000169
26.22000 32635.69285 32290.21649 0.0000168
26.23000 32676.97549 32240.00715 0.0000168
26.24000 32168.59400 31695.80391 0.0000169
26.25000 31283.35139 30992.06971 0.0000172
26.26000 30531.25113 30415.76038 0.0000174
26.27000 29912.89831 30030.91418 0.0000176
26.28000 29536.93399 29756.37257 0.0000177
26.29000 29408.08393 29549.87083 0.0000177
26.30000 29240.10330 29413.02458 0.0000178
26.31000 29116.46489 29283.64227 0.0000178
26.32000 29022.44205 29075.80884 0.0000179
26.33000 28777.95665 28811.51872 0.0000179
26.34000 28355.97244 28639.39498 0.0000181
26.35000 28324.39042 28706.65772 0.0000181
26.36000 28451.84091 29065.46465 0.0000180
26.37000 29000.53499 29674.18267 0.0000179
26.38000 29845.77776 30437.58949 0.0000176
26.39000 30468.77810 31167.61213 0.0000174
26.40000 30897.91282 31569.14739 0.0000173
26.41000 30945.51706 31449.97097 0.0000173
26.42000 30676.69809 30953.55727 0.0000173
26.43000 30149.48995 30475.39316 0.0000175
26.44000 29834.99919 30370.55916 0.0000176
26.45000 30406.56906 30781.25162 0.0000174
26.46000 31229.75571 31621.99675 0.0000172
26.47000 32318.80840 32620.00298 0.0000169
26.48000 33198.46254 33305.50670 0.0000166
26.49000 33114.98562 33162.10226 0.0000167
26.50000 32366.88960 32125.18010 0.0000169
26.51000 30725.87008 30670.23271 0.0000173
26.52000 29373.88167 29326.78992 0.0000178
26.53000 28217.72233 28423.15130 0.0000181
26.54000 27859.99348 28084.73400 0.0000183
26.55000 28188.97858 28277.77931 0.0000182
26.56000 28644.52228 28846.22207 0.0000180
26.57000 29465.36544 29543.03303 0.0000177
26.58000 30023.53744 30086.90588 0.0000176
26.59000 30116.48557 30319.73144 0.0000175
26.60000 30114.40532 30335.04359 0.0000175
26.61000 29769.38459 30350.86666 0.0000177
26.62000 29811.54700 30461.80707 0.0000176
26.63000 29904.20179 30559.26307 0.0000176
26.64000 29821.51215 30499.22269 0.0000176
26.65000 29854.72048 30285.97091 0.0000176
26.66000 29549.75181 29960.00215 0.0000177
26.67000 29093.16244 29517.00325 0.0000179
26.68000 28793.74636 29039.42131 0.0000180
26.69000 28490.77756 28699.62982 0.0000181
26.70000 28143.74595 28617.51707 0.0000182
26.71000 28340.64508 28783.15417 0.0000181
26.72000 28703.48368 29074.21656 0.0000180
26.73000 28941.83953 29362.94647 0.0000179
26.74000 29345.79700 29587.71839 0.0000178
26.75000 29304.82870 29663.76810 0.0000178
26.76000 29314.49461 29497.98845 0.0000178
26.77000 29035.38083 29149.33637 0.0000179
26.78000 28721.73735 28821.30802 0.0000180
26.79000 28474.46732 28694.93294 0.0000181
26.80000 28544.81728 28817.14846 0.0000181
26.81000 28820.01476 29099.88253 0.0000180
26.82000 29238.95513 29413.91672 0.0000179
26.83000 29681.47483 29625.17811 0.0000177
26.84000 29646.95509 29547.45981 0.0000177
26.85000 29340.66985 29083.29629 0.0000178
26.86000 28691.99195 28409.89909 0.0000181
26.87000 27992.53710 27825.58074 0.0000183
26.88000 27414.11042 27557.29949 0.0000185
26.89000 27520.77695 27719.72779 0.0000185
26.90000 28141.76174 28308.98040 0.0000183
26.91000 29043.38785 29195.69170 0.0000180
26.92000 30118.53515 30125.25951 0.0000176
26.93000 30629.83641 30785.58256 0.0000175
26.94000 30994.06382 31046.95576 0.0000174
26.95000 31039.12344 31115.86584 0.0000173
26.96000 31130.69351 31322.81269 0.0000173
26.97000 31502.71926 31835.32587 0.0000172
26.98000 32183.19129 32552.06732 0.0000170
26.99000 32895.32247 33232.84516 0.0000168
27.00000 33631.02705 33732.34261 0.0000166
27.01000 33754.91979 33911.66541 0.0000166
27.02000 33666.40784 33501.85881 0.0000166
27.03000 32650.99877 32395.65913 0.0000169
27.04000 31322.46564 30872.33965 0.0000173
27.05000 29794.36465 29381.74458 0.0000178
27.06000 28560.49285 28267.00747 0.0000182
27.07000 27869.35238 27687.75954 0.0000184
27.08000 27982.71206 27643.72410 0.0000184
27.09000 28346.48314 28007.81922 0.0000182
27.10000 29155.49154 28551.59801 0.0000180
27.11000 29611.16546 28982.35199 0.0000178
27.12000 29902.15476 29077.34656 0.0000177
27.13000 29519.70449 28886.68715 0.0000179
27.14000 29206.42631 28649.52501 0.0000180
27.15000 28772.10922 28536.23417 0.0000181
27.16000 28668.55048 28561.65466 0.0000182
27.17000 28880.33625 28656.56634 0.0000181
27.18000 29016.74238 28713.94473 0.0000180
27.19000 28930.86128 28564.04566 0.0000181
27.20000 28651.01450 28108.16723 0.0000182
27.21000 27955.56925 27479.99923 0.0000184
27.22000 27321.28268 26912.57599 0.0000186
27.23000 26940.34038 26574.76235 0.0000188
27.24000 26801.30814 26542.40562 0.0000188
27.25000 27140.39024 26805.92834 0.0000187
27.26000 27499.70951 27279.80132 0.0000186
27.27000 28114.58264 27803.30689 0.0000184
27.28000 28518.48706 28164.64821 0.0000182
27.29000 28466.31963 28221.38396 0.0000183
27.30000 28396.03925 28037.31467 0.0000183
27.31000 28220.20456 27836.00697 0.0000184
27.32000 28153.22901 27816.25203 0.0000184
27.33000 28208.91005 28046.85342 0.0000184
27.34000 28802.89566 28478.39964 0.0000182
27.35000 29344.75591 28984.44953 0.0000180
27.36000 29781.88756 29352.02657 0.0000179
27.37000 29920.79093 29374.78740 0.0000178
27.38000 29554.55082 29081.70403 0.0000179
27.39000 29120.65218 28735.99978 0.0000181
27.40000 28788.19751 28598.70586 0.0000182
27.41000 28702.71895 28781.74148 0.0000182
27.42000 29073.72289 29236.59294 0.0000181
27.43000 29441.94339 29840.77094 0.0000180
27.44000 29975.90189 30437.23707 0.0000178
27.45000 30340.50905 30792.21741 0.0000177
27.46000 30256.60387 30747.99200 0.0000177
27.47000 30230.46634 30446.76150 0.0000178
27.48000 30026.35048 30191.38598 0.0000178
27.49000 30036.55536 30163.21415 0.0000178
27.50000 30180.71874 30307.27287 0.0000178
27.51000 30295.18518 30432.20563 0.0000177
27.52000 30362.30403 30421.77211 0.0000177
27.53000 30158.14526 30229.07142 0.0000178
27.54000 29639.57405 29786.01378 0.0000180
27.55000 29208.29845 29162.29280 0.0000181
27.56000 28573.07459 28600.71233 0.0000183
27.57000 28339.30820 28299.34796 0.0000184
27.58000 28268.69540 28300.22601 0.0000184
27.59000 28631.47952 28503.50841 0.0000183
27.60000 28709.34534 28769.90333 0.0000183
27.61000 29101.39741 29000.55000 0.0000182
27.62000 28955.76984 29078.60546 0.0000182
27.63000 28999.64053 28902.34964 0.0000182
27.64000 28633.09362 28538.17968 0.0000183
27.65000 28436.86722 28182.53301 0.0000184
27.66000 28277.31010 27989.67424 0.0000185
27.67000 28347.95907 27982.66688 0.0000184
27.68000 28422.79685 28078.97993 0.0000184
27.69000 28631.32082 28194.11447 0.0000183
27.70000 28566.34403 28256.58134 0.0000184
27.71000 28237.63404 28173.45670 0.0000185
27.72000 27919.40593 27924.16765 0.0000186
27.73000 27587.82217 27636.49043 0.0000187
27.74000 27168.19861 27491.63623 0.0000189
27.75000 27177.90516 27616.19562 0.0000189
27.76000 27356.83445 28037.78517 0.0000188
27.77000 28082.74869 28685.63897 0.0000186
27.78000 28579.15887 29395.42856 0.0000184
27.79000 29109.27504 29902.81529 0.0000182
