#------------------------------------------------------------------------------
#$Date: 2021-01-01 01:25:10 +0200 (Fri, 01 Jan 2021) $
#$Revision: 260302 $
#$URL: file:///home/coder/svn-repositories/cod/cif/4/00/38/4003850.cif $
#------------------------------------------------------------------------------
#
# This file is available in the Crystallography Open Database (COD),
# http://www.crystallography.net/
#
# All data on this site have been placed in the public domain by the
# contributors.
#
data_4003850
loop_
_publ_author_name
'Goodenough, Isabella'
'Devulapalli, Venkata Swaroopa Datta'
'Xu, Wenqian'
'Boyanich, Mikaela C.'
'Luo, Tian-Yi'
'De Souza, Mattheus'
'Richard, M\'elissandre'
'Rosi, Nathaniel L.'
'Borguet, Eric'
_publ_section_title
;
 Interplay between Intrinsic Thermal Stability and Expansion Properties of
 Functionalized UiO-67 Metal--Organic Frameworks
;
_journal_name_full               'Chemistry of Materials'
_journal_paper_doi               10.1021/acs.chemmater.0c03889
_journal_year                    2020
_chemical_compound_source        synthetic
_chemical_formula_sum            'C78.12 H43.06 N5.58 O40 Zr6'
_chemical_formula_weight         2247.21
_chemical_name_common            UiO-67-NH2
_chemical_name_systematic
'Zr(IV) 2-Amino-4,4'-biphenyldicarboxylate metal-organic framework'
_space_group_crystal_system      cubic
_space_group_IT_number           225
_space_group_name_Hall           '-F 4 2 3'
_space_group_name_H-M_alt        'F m -3 m'
_cell_angle_alpha                90
_cell_angle_beta                 90
_cell_angle_gamma                90
_cell_formula_units_Z            4
_cell_length_a                   26.7196(5)
_cell_length_b                   26.7196(5)
_cell_length_c                   26.7196(5)
_cell_measurement_temperature    480
_cell_volume                     19076.1(6)
_diffrn_ambient_pressure         101
_diffrn_ambient_temperature      480
_diffrn_measurement_device_type
'Debye-scherrer geometry diffractometer with area detector at Beamline 17-BM'
_diffrn_radiation_probe          x-ray
_diffrn_radiation_wavelength     0.35364
_diffrn_source                   synchrotron
_diffrn_source_type              'APS Beamline 17-BM'
_exptl_crystal_description       powder
_exptl_crystal_preparation
'powder loaded in a quartz capillary, measured under vacuum'
_exptl_crystal_thermal_history
'activated at 473 K for 10 min, and cooled to 90 K, then stepwisely heated to 480 K'
_pd_proc_ls_prof_R_factor        0.0240
_pd_proc_ls_prof_wR_factor       0.0396
_refine_ls_goodness_of_fit_all   9.608
_refine_ls_hydrogen_treatment    constr
_refine_ls_R_I_factor            0.0570
_reflns_d_resolution_high        0.736
_reflns_d_resolution_low         15.464
_reflns_limit_h_max              36
_reflns_limit_h_min              0
_reflns_limit_k_max              36
_reflns_limit_k_min              0
_reflns_limit_l_max              36
_reflns_limit_l_min              0
_reflns_number_total             1375
_cod_data_source_file            cm0c03889_si_002.cif
_cod_data_source_block           UiO67NH2-4_90to480Ka_480K_d400-00000-sub0_9qtz
_cod_original_cell_volume        19076.2(12)
_cod_database_code               4003850
loop_
_symmetry_equiv_pos_as_xyz
'x, y, z '
'-x, -y, z '
'-x, -z, -y '
'-x, -z, y '
'-x, z, -y '
'-x, z, y '
'-x, y, -z '
'-x, y, z '
'-y, -x, -z '
'-y, -x, z '
'-y, -z, -x '
'-y, -z, x '
'-y, z, -x '
'-y, z, x '
'-y, x, -z '
'-y, x, z '
'-z, -x, -y '
'-z, -x, y '
'-z, -y, -x '
'-z, -y, x '
'-z, y, -x '
'-z, y, x '
'-z, x, -y '
'-z, x, y '
'z, -x, -y '
'z, -x, y '
'z, -y, -x '
'z, -y, x '
'z, y, -x '
'z, y, x '
'z, x, -y '
'z, x, y '
'y, -x, -z '
'y, -x, z '
'y, -z, -x '
'y, -z, x '
'y, z, -x '
'y, z, x '
'y, x, -z '
'y, x, z '
'x, -y, -z '
'x, -y, z '
'x, -z, -y '
'x, -z, y '
'x, z, -y '
'x, z, y '
'x, y, -z '
'-x, -y, -z '
'x+1/2, y+1/2, z '
'-x+1/2, -y+1/2, z '
'-x+1/2, -z+1/2, -y '
'-x+1/2, -z+1/2, y '
'-x+1/2, z+1/2, -y '
'-x+1/2, z+1/2, y '
'-x+1/2, y+1/2, -z '
'-x+1/2, y+1/2, z '
'-y+1/2, -x+1/2, -z '
'-y+1/2, -x+1/2, z '
'-y+1/2, -z+1/2, -x '
'-y+1/2, -z+1/2, x '
'-y+1/2, z+1/2, -x '
'-y+1/2, z+1/2, x '
'-y+1/2, x+1/2, -z '
'-y+1/2, x+1/2, z '
'-z+1/2, -x+1/2, -y '
'-z+1/2, -x+1/2, y '
'-z+1/2, -y+1/2, -x '
'-z+1/2, -y+1/2, x '
'-z+1/2, y+1/2, -x '
'-z+1/2, y+1/2, x '
'-z+1/2, x+1/2, -y '
'-z+1/2, x+1/2, y '
'z+1/2, -x+1/2, -y '
'z+1/2, -x+1/2, y '
'z+1/2, -y+1/2, -x '
'z+1/2, -y+1/2, x '
'z+1/2, y+1/2, -x '
'z+1/2, y+1/2, x '
'z+1/2, x+1/2, -y '
'z+1/2, x+1/2, y '
'y+1/2, -x+1/2, -z '
'y+1/2, -x+1/2, z '
'y+1/2, -z+1/2, -x '
'y+1/2, -z+1/2, x '
'y+1/2, z+1/2, -x '
'y+1/2, z+1/2, x '
'y+1/2, x+1/2, -z '
'y+1/2, x+1/2, z '
'x+1/2, -y+1/2, -z '
'x+1/2, -y+1/2, z '
'x+1/2, -z+1/2, -y '
'x+1/2, -z+1/2, y '
'x+1/2, z+1/2, -y '
'x+1/2, z+1/2, y '
'x+1/2, y+1/2, -z '
'-x+1/2, -y+1/2, -z '
'x+1/2, y, z+1/2 '
'-x+1/2, -y, z+1/2 '
'-x+1/2, -z, -y+1/2 '
'-x+1/2, -z, y+1/2 '
'-x+1/2, z, -y+1/2 '
'-x+1/2, z, y+1/2 '
'-x+1/2, y, -z+1/2 '
'-x+1/2, y, z+1/2 '
'-y+1/2, -x, -z+1/2 '
'-y+1/2, -x, z+1/2 '
'-y+1/2, -z, -x+1/2 '
'-y+1/2, -z, x+1/2 '
'-y+1/2, z, -x+1/2 '
'-y+1/2, z, x+1/2 '
'-y+1/2, x, -z+1/2 '
'-y+1/2, x, z+1/2 '
'-z+1/2, -x, -y+1/2 '
'-z+1/2, -x, y+1/2 '
'-z+1/2, -y, -x+1/2 '
'-z+1/2, -y, x+1/2 '
'-z+1/2, y, -x+1/2 '
'-z+1/2, y, x+1/2 '
'-z+1/2, x, -y+1/2 '
'-z+1/2, x, y+1/2 '
'z+1/2, -x, -y+1/2 '
'z+1/2, -x, y+1/2 '
'z+1/2, -y, -x+1/2 '
'z+1/2, -y, x+1/2 '
'z+1/2, y, -x+1/2 '
'z+1/2, y, x+1/2 '
'z+1/2, x, -y+1/2 '
'z+1/2, x, y+1/2 '
'y+1/2, -x, -z+1/2 '
'y+1/2, -x, z+1/2 '
'y+1/2, -z, -x+1/2 '
'y+1/2, -z, x+1/2 '
'y+1/2, z, -x+1/2 '
'y+1/2, z, x+1/2 '
'y+1/2, x, -z+1/2 '
'y+1/2, x, z+1/2 '
'x+1/2, -y, -z+1/2 '
'x+1/2, -y, z+1/2 '
'x+1/2, -z, -y+1/2 '
'x+1/2, -z, y+1/2 '
'x+1/2, z, -y+1/2 '
'x+1/2, z, y+1/2 '
'x+1/2, y, -z+1/2 '
'-x+1/2, -y, -z+1/2 '
'x, y+1/2, z+1/2 '
'-x, -y+1/2, z+1/2 '
'-x, -z+1/2, -y+1/2 '
'-x, -z+1/2, y+1/2 '
'-x, z+1/2, -y+1/2 '
'-x, z+1/2, y+1/2 '
'-x, y+1/2, -z+1/2 '
'-x, y+1/2, z+1/2 '
'-y, -x+1/2, -z+1/2 '
'-y, -x+1/2, z+1/2 '
'-y, -z+1/2, -x+1/2 '
'-y, -z+1/2, x+1/2 '
'-y, z+1/2, -x+1/2 '
'-y, z+1/2, x+1/2 '
'-y, x+1/2, -z+1/2 '
'-y, x+1/2, z+1/2 '
'-z, -x+1/2, -y+1/2 '
'-z, -x+1/2, y+1/2 '
'-z, -y+1/2, -x+1/2 '
'-z, -y+1/2, x+1/2 '
'-z, y+1/2, -x+1/2 '
'-z, y+1/2, x+1/2 '
'-z, x+1/2, -y+1/2 '
'-z, x+1/2, y+1/2 '
'z, -x+1/2, -y+1/2 '
'z, -x+1/2, y+1/2 '
'z, -y+1/2, -x+1/2 '
'z, -y+1/2, x+1/2 '
'z, y+1/2, -x+1/2 '
'z, y+1/2, x+1/2 '
'z, x+1/2, -y+1/2 '
'z, x+1/2, y+1/2 '
'y, -x+1/2, -z+1/2 '
'y, -x+1/2, z+1/2 '
'y, -z+1/2, -x+1/2 '
'y, -z+1/2, x+1/2 '
'y, z+1/2, -x+1/2 '
'y, z+1/2, x+1/2 '
'y, x+1/2, -z+1/2 '
'y, x+1/2, z+1/2 '
'x, -y+1/2, -z+1/2 '
'x, -y+1/2, z+1/2 '
'x, -z+1/2, -y+1/2 '
'x, -z+1/2, y+1/2 '
'x, z+1/2, -y+1/2 '
'x, z+1/2, y+1/2 '
'x, y+1/2, -z+1/2 '
'-x, -y+1/2, -z+1/2 '
loop_
_atom_site_label
_atom_site_type_symbol
_atom_site_symmetry_multiplicity
_atom_site_fract_x
_atom_site_fract_y
_atom_site_fract_z
_atom_site_occupancy
_atom_site_B_iso_or_equiv
Zr1 Zr 24 0 0 0.09288(16) 1 2.45(12)
O1a O 32 0.0562(8) 0.0562(8) 0.0562(8) 0.5 0.4(8)
H1a H 32 0.0769 0.0769 0.0769 0.5 0.6
O1b O 32 0.0351(7) 0.0351(7) 0.0351(7) 0.5 0.4(8)
O2 O 96 0.1323(16) 0 0.0724(13) 1 3.9(4)
C4 C 48 0.1144(10) 0 0.1144(10) 0.93 3.4(5)
C5 C 48 0.1559(5) 0 0.1559(5) 0.93 3.4(5)
C6 C 48 0.2305(4) 0 0.2305(4) 0.93 3.4(5)
C2 C 192 0.2399(4) 0.0227(4) 0.1838(5) 0.465 3.4(5)
C3 C 192 0.2026(4) 0.0227(4) 0.1465(6) 0.465 3.4(5)
N1 N 192 0.282(3) 0.0490(15) 0.161(3) 0.11625 3.4(5)
H2 H 192 0.2761 0.0402 0.1766 0.34875 5.1
H3 H 192 0.2099 0.0402 0.1104 0.465 5.1
Ow1 O 32 0.126(3) 0.126(3) 0.126(3) 1 390(40)
loop_
_geom_angle_atom_site_label_1
_geom_angle_atom_site_label_2
_geom_angle_atom_site_label_3
_geom_angle
_geom_angle_site_symmetry_1
_geom_angle_site_symmetry_2
_geom_angle_site_symmetry_3
O1b Zr1 O1b 54.9(11) 26_555 1_555 1_555
O1b Zr1 O1b 81.4(18) 6_555 1_555 26_555
O1b Zr1 O1b 54.9(11) 6_555 1_555 1_555
O1b Zr1 O1b 54.9(11) 2_555 1_555 6_555
O1b Zr1 O1b 54.9(11) 2_555 1_555 26_555
O1b Zr1 O1b 81.4(18) 2_555 1_555 1_555
O2 Zr1 O1b 87.6(7) 12_555 1_555 2_555
O2 Zr1 O1b 140.1(2) 12_555 1_555 6_555
O2 Zr1 O1b 87.6(7) 12_555 1_555 26_555
O2 Zr1 O1b 140.1(2) 12_555 1_555 1_555
O2 Zr1 O2 76.78(9) 20_555 1_555 12_555
O2 Zr1 O1b 87.6(7) 20_555 1_555 2_555
O2 Zr1 O1b 87.6(7) 20_555 1_555 6_555
O2 Zr1 O1b 140.1(2) 20_555 1_555 26_555
O2 Zr1 O1b 140.1(2) 20_555 1_555 1_555
O2 Zr1 O2 122.9(2) 28_555 1_555 20_555
O2 Zr1 O2 76.78(9) 28_555 1_555 12_555
O2 Zr1 O1b 140.1(2) 28_555 1_555 2_555
O2 Zr1 O1b 140.1(2) 28_555 1_555 6_555
O2 Zr1 O1b 87.6(7) 28_555 1_555 26_555
O2 Zr1 O1b 87.6(7) 28_555 1_555 1_555
O2 Zr1 O2 76.78(9) 14_555 1_555 28_555
O2 Zr1 O2 76.78(9) 14_555 1_555 20_555
O2 Zr1 O2 122.9(2) 14_555 1_555 12_555
O2 Zr1 O1b 140.1(2) 14_555 1_555 2_555
O2 Zr1 O1b 87.6(7) 14_555 1_555 6_555
O2 Zr1 O1b 140.1(2) 14_555 1_555 26_555
O2 Zr1 O1b 87.6(7) 14_555 1_555 1_555
O1a Zr1 O2 68.7(6) 6_555 1_555 14_555
O1a Zr1 O2 139.8(2) 6_555 1_555 28_555
O1a Zr1 O2 68.7(6) 6_555 1_555 20_555
O1a Zr1 O2 139.8(2) 6_555 1_555 12_555
O1a Zr1 O1b 71.5(6) 6_555 1_555 2_555
O1a Zr1 O1b 24.6(12) 6_555 1_555 6_555
O1a Zr1 O1b 106.0(12) 6_555 1_555 26_555
O1a Zr1 O1b 71.5(6) 6_555 1_555 1_555
O1a Zr1 O1a 130.5(15) 26_555 1_555 6_555
O1a Zr1 O2 139.8(2) 26_555 1_555 14_555
O1a Zr1 O2 68.7(6) 26_555 1_555 28_555
O1a Zr1 O2 139.8(2) 26_555 1_555 20_555
O1a Zr1 O2 68.7(6) 26_555 1_555 12_555
O1a Zr1 O1b 71.5(6) 26_555 1_555 2_555
O1a Zr1 O1b 106.0(12) 26_555 1_555 6_555
O1a Zr1 O1b 24.6(12) 26_555 1_555 26_555
O1a Zr1 O1b 71.5(6) 26_555 1_555 1_555
O1a Zr1 O1a 79.9(6) 1_555 1_555 26_555
O1a Zr1 O1a 79.9(6) 1_555 1_555 6_555
O1a Zr1 O2 68.7(6) 1_555 1_555 14_555
O1a Zr1 O2 68.7(6) 1_555 1_555 28_555
O1a Zr1 O2 139.8(2) 1_555 1_555 20_555
O1a Zr1 O2 139.8(2) 1_555 1_555 12_555
O1a Zr1 O1b 106.0(12) 1_555 1_555 2_555
O1a Zr1 O1b 71.5(6) 1_555 1_555 6_555
O1a Zr1 O1b 71.5(6) 1_555 1_555 26_555
O1a Zr1 O1b 24.6(12) 1_555 1_555 1_555
O1a Zr1 O1a 130.5(15) 2_555 1_555 1_555
O1a Zr1 O1a 79.9(6) 2_555 1_555 26_555
O1a Zr1 O1a 79.9(6) 2_555 1_555 6_555
O1a Zr1 O2 139.8(2) 2_555 1_555 14_555
O1a Zr1 O2 139.8(2) 2_555 1_555 28_555
O1a Zr1 O2 68.7(6) 2_555 1_555 20_555
O1a Zr1 O2 68.7(6) 2_555 1_555 12_555
O1a Zr1 O1b 24.6(12) 2_555 1_555 2_555
O1a Zr1 O1b 71.5(6) 2_555 1_555 6_555
O1a Zr1 O1b 71.5(6) 2_555 1_555 26_555
O1a Zr1 O1b 106.0(12) 2_555 1_555 1_555
Zr1 O1a H1a 120.0(7) 5_555 1_555 1_555
Zr1 O1a Zr1 97.2(10) 25_555 1_555 5_555
Zr1 O1a H1a 120.0(7) 25_555 1_555 1_555
Zr1 O1a Zr1 97.2(10) 1_555 1_555 25_555
Zr1 O1a Zr1 97.2(10) 1_555 1_555 5_555
Zr1 O1a H1a 120.0(7) 1_555 1_555 1_555
Zr1 O1b Zr1 119.1(3) 5_555 1_555 25_555
Zr1 O1b Zr1 119.1(3) 1_555 1_555 5_555
Zr1 O1b Zr1 119.1(3) 1_555 1_555 25_555
Zr1 O2 C4 128.28(10) 25_555 1_555 1_555
O2 C4 O2 136.303 1_555 1_555 28_555
C5 C4 O2 111.849 1_555 1_555 1_555
C5 C4 O2 111.849 1_555 1_555 28_555
C3 C5 C3 120.000 42_555 1_555 30_555
C3 C5 C3 120.000 1_555 1_555 28_555
C4 C5 C3 120.000 1_555 1_555 1_555
C4 C5 C3 120.000 1_555 1_555 42_555
C4 C5 C3 120.000 1_555 1_555 28_555
C4 C5 C3 120.000 1_555 1_555 30_555
C2 C6 C2 120.000 30_555 1_555 42_555
C2 C6 C2 120.000 28_555 1_555 1_555
C6 C6 C2 120.000 103_555 1_555 28_555
C6 C6 C2 120.000 103_555 1_555 30_555
C6 C6 C2 120.000 103_555 1_555 42_555
C6 C6 C2 120.000 103_555 1_555 1_555
C6 C2 H2 120.000 1_555 1_555 1_555
C3 C2 C6 120.000 1_555 1_555 1_555
C3 C2 H2 120.000 1_555 1_555 1_555
N1 C2 C3 104.834 1_555 1_555 1_555
N1 C2 C6 135.166 1_555 1_555 1_555
C5 C3 H3 120.000 1_555 1_555 1_555
C2 C3 C5 120.000 1_555 1_555 1_555
C2 C3 H3 120.000 1_555 1_555 1_555
loop_
_geom_bond_atom_site_label_1
_geom_bond_atom_site_label_2
_geom_bond_distance
_geom_bond_site_symmetry_1
_geom_bond_site_symmetry_2
Zr1 O1b 2.036(4) 1_555 1_555
Zr1 O1b 2.036(4) 1_555 26_555
Zr1 O1b 2.036(4) 1_555 6_555
Zr1 O1b 2.036(4) 1_555 2_555
Zr1 O2 2.203(2) 1_555 12_555
Zr1 O2 2.203(2) 1_555 20_555
Zr1 O2 2.203(2) 1_555 28_555
Zr1 O2 2.203(2) 1_555 14_555
Zr1 O1a 2.340(18) 1_555 6_555
Zr1 O1a 2.340(18) 1_555 26_555
Zr1 O1a 2.340(18) 1_555 1_555
Zr1 O1a 2.340(18) 1_555 2_555
O1a H1a 0.95799 1_555 1_555
O2 C4 1.21953 1_555 1_555
C4 C5 1.57000 1_555 1_555
C5 C3 1.41000 1_555 30_555
C5 C3 1.41000 1_555 28_555
C5 C3 1.41000 1_555 42_555
C5 C3 1.41000 1_555 1_555
C6 C2 1.41000 1_555 1_555
C6 C2 1.41000 1_555 42_555
C6 C2 1.41000 1_555 30_555
C6 C2 1.41000 1_555 28_555
C6 C6 1.47016 1_555 103_555
C2 H2 1.09000 1_555 1_555
C2 C3 1.41000 1_555 1_555
C2 N1 1.46264 1_555 1_555
C3 H3 1.09000 1_555 1_555
loop_
_pd_meas_2theta_scan
_pd_proc_intensity_total
_pd_calc_intensity_total
_pd_proc_ls_weight
1.00000 181352.81900 153187.08485 0.0000042
1.01000 182415.35860 154257.04116 0.0000042
1.02000 179455.17108 155557.80420 0.0000043
1.03000 180792.00116 157119.20534 0.0000042
1.04000 177786.89699 158976.60182 0.0000043
1.05000 179435.11927 161172.13376 0.0000042
1.06000 177612.57375 163756.32719 0.0000043
1.07000 178142.31927 166790.15609 0.0000043
1.08000 178697.67279 170347.71885 0.0000042
1.09000 179688.99652 174519.74668 0.0000042
1.10000 181212.89678 179418.25091 0.0000042
1.11000 181271.27214 185182.74901 0.0000042
1.12000 185912.26854 192017.47785 0.0000041
1.13000 185735.54807 200088.21533 0.0000041
1.14000 191804.25466 209710.16431 0.0000040
1.15000 195690.43644 221256.65551 0.0000039
1.16000 204102.84250 235220.57869 0.0000038
1.17000 212434.41320 252263.01855 0.0000037
1.18000 227289.06090 273288.44346 0.0000035
1.19000 243960.77188 299575.07342 0.0000033
1.20000 273164.01061 333056.51590 0.0000030
1.21000 311417.23330 377081.37157 0.0000027
1.22000 378448.19975 438587.16633 0.0000023
1.23000 486001.04279 533659.77840 0.0000018
1.24000 655232.63277 698756.12871 0.0000014
1.25000 975502.09156 1005936.64009 0.0000010
1.26000 1505200.72372 1568980.75181 0.0000006
1.27000 2452254.26301 2514856.83144 0.0000004
1.28000 3935304.18644 3902610.66616 0.0000003
1.29000 5815977.68092 5603747.41894 0.0000002
1.30000 7244424.71699 7171232.70433 0.0000001
1.31000 7835092.44957 7835842.50387 0.0000001
1.32000 7077802.64366 7135023.29517 0.0000001
1.33000 5556297.08727 5554690.76354 0.0000002
1.34000 3774853.82270 3860351.68375 0.0000003
1.35000 2488991.22415 2487873.80322 0.0000004
1.36000 1629420.47906 1558099.44371 0.0000006
1.37000 1114212.64740 1008369.63173 0.0000008
1.38000 827760.37240 711360.37200 0.0000011
1.39000 651824.26808 554652.25648 0.0000014
1.40000 538087.45480 467874.80042 0.0000017
1.41000 465341.85416 416096.58233 0.0000019
1.42000 425950.36606 384962.70510 0.0000020
1.43000 400546.00121 370649.36004 0.0000021
1.44000 409346.50103 376606.70732 0.0000021
1.45000 441046.82594 414819.28865 0.0000020
1.46000 538930.51198 507603.51768 0.0000017
1.47000 697206.22709 683845.65458 0.0000013
1.48000 989858.64081 964116.14249 0.0000009
1.49000 1373421.79782 1334998.67936 0.0000007
1.50000 1735803.80402 1718066.36846 0.0000006
1.51000 1944151.15810 1951352.07994 0.0000005
1.52000 1829191.98964 1881419.25178 0.0000005
1.53000 1501461.43040 1552376.42796 0.0000006
1.54000 1092297.41913 1144040.67257 0.0000009
1.55000 746298.82234 787196.70367 0.0000012
1.56000 512399.83911 530656.43130 0.0000017
1.57000 375085.40085 370480.64420 0.0000023
1.58000 288361.98380 279475.35857 0.0000028
1.59000 241476.55140 229131.63262 0.0000032
1.60000 206091.62898 199653.45082 0.0000036
1.61000 185436.79326 180333.49337 0.0000039
1.62000 168490.04141 166241.79648 0.0000042
1.63000 157131.75672 155235.87527 0.0000044
1.64000 146593.82916 146311.58796 0.0000046
1.65000 139667.92368 138911.14306 0.0000048
1.66000 133105.50147 132673.70445 0.0000049
1.67000 127327.43143 127345.34788 0.0000051
1.68000 123287.02406 122740.09768 0.0000051
1.69000 117501.92104 118718.59068 0.0000053
1.70000 115549.50991 115174.56937 0.0000053
1.71000 110173.62769 112025.79495 0.0000055
1.72000 109120.13733 109207.75207 0.0000055
1.73000 105183.55238 106669.20546 0.0000057
1.74000 103669.18699 104369.01115 0.0000057
1.75000 100993.52744 102273.79389 0.0000058
1.76000 99057.53141 100356.23194 0.0000058
1.77000 96572.76261 98593.77452 0.0000059
1.78000 95458.18485 96968.37106 0.0000059
1.79000 93332.01243 95462.93948 0.0000060
1.80000 92276.53622 94064.96852 0.0000060
1.81000 90503.97353 92763.29715 0.0000061
1.82000 89206.03414 91548.45860 0.0000061
1.83000 88915.41344 90412.40668 0.0000061
1.84000 86731.32700 89348.30038 0.0000062
1.85000 86222.84160 88350.33466 0.0000062
1.86000 84668.05105 87413.60891 0.0000063
1.87000 84288.96649 86534.02674 0.0000063
1.88000 82709.36653 85708.22305 0.0000063
1.89000 83079.29920 84933.51567 0.0000063
1.90000 81327.78751 84207.88090 0.0000064
1.91000 81150.84584 83529.95345 0.0000064
1.92000 80089.48628 82899.05357 0.0000064
1.93000 79860.15014 82315.24613 0.0000064
1.94000 79147.85918 81779.43974 0.0000064
1.95000 78722.87020 81293.53852 0.0000064
1.96000 77997.69452 80860.66554 0.0000064
1.97000 77836.86054 80485.48723 0.0000064
1.98000 77915.33359 80186.04255 0.0000064
1.99000 76818.39120 79949.10994 0.0000065
2.00000 77536.14687 79799.03028 0.0000064
2.01000 76246.04627 79754.18095 0.0000065
2.02000 77189.42537 79840.84616 0.0000064
2.03000 76679.54414 80098.53889 0.0000064
2.04000 77710.45448 80593.47947 0.0000064
2.05000 78089.41074 81456.12439 0.0000064
2.06000 80285.56803 82977.61584 0.0000063
2.07000 82713.64333 85810.29797 0.0000062
2.08000 87881.47575 91258.97742 0.0000060
2.09000 96696.63902 101452.91421 0.0000056
2.10000 113325.16370 118939.29858 0.0000052
2.11000 139981.60418 145293.23518 0.0000045
2.12000 172213.33595 178836.37637 0.0000039
2.13000 206056.22313 211746.36534 0.0000035
2.14000 219121.17101 228750.54831 0.0000033
2.15000 211119.02889 218073.32510 0.0000034
2.16000 182911.03019 187182.32722 0.0000038
2.17000 151134.21696 152166.49228 0.0000043
2.18000 124838.37882 122952.28924 0.0000048
2.19000 108127.03037 102576.02210 0.0000052
2.20000 97788.21370 90091.34773 0.0000055
2.21000 92386.80219 83038.07344 0.0000057
2.22000 88610.77420 79102.13260 0.0000058
2.23000 86580.55477 76761.52974 0.0000059
2.24000 85157.06832 75219.01044 0.0000059
2.25000 84180.33738 74112.05317 0.0000059
2.26000 83455.07679 73281.77361 0.0000059
2.27000 82582.05864 72652.48874 0.0000060
2.28000 82348.67328 72182.63382 0.0000060
2.29000 81369.96868 71847.10329 0.0000060
2.30000 81844.48017 71630.71781 0.0000060
2.31000 81110.36647 71525.38066 0.0000060
2.32000 81416.81706 71528.66492 0.0000060
2.33000 81061.53812 71645.96800 0.0000060
2.34000 81069.05287 71879.27747 0.0000060
2.35000 80902.35213 72244.29585 0.0000060
2.36000 81295.00806 72760.34057 0.0000059
2.37000 81433.79445 73454.83559 0.0000059
2.38000 81957.61342 74366.11261 0.0000059
2.39000 82627.09373 75548.16474 0.0000059
2.40000 83613.93764 77080.07779 0.0000058
2.41000 85216.12412 79089.14076 0.0000058
2.42000 87120.74273 81813.71386 0.0000057
2.43000 91458.10723 85763.16962 0.0000055
2.44000 96648.12508 92050.09790 0.0000054
2.45000 107496.11468 102877.14598 0.0000051
2.46000 125980.83965 121841.76718 0.0000047
2.47000 158160.05525 153308.25846 0.0000040
2.48000 207707.76069 200157.62450 0.0000034
2.49000 275020.14432 259984.45480 0.0000027
2.50000 333567.61179 320041.29378 0.0000024
2.51000 363129.19830 354464.07347 0.0000022
2.52000 349590.71187 342480.46708 0.0000023
2.53000 301184.35856 296651.03241 0.0000026
2.54000 243964.99051 246148.01730 0.0000030
2.55000 206071.01402 211137.50153 0.0000034
2.56000 196966.49285 202634.89015 0.0000035
2.57000 219175.80307 228736.63766 0.0000032
2.58000 290460.19789 297631.47320 0.0000026
2.59000 407042.58243 414703.49138 0.0000020
2.60000 589628.32827 573568.81933 0.0000015
2.61000 758026.45854 742110.24563 0.0000012
2.62000 860454.37289 850688.47409 0.0000010
2.63000 830655.11968 827934.52998 0.0000011
2.64000 687954.70321 688819.88288 0.0000013
2.65000 507389.57471 513163.87991 0.0000017
2.66000 344792.73902 359039.25992 0.0000023
2.67000 232428.45482 247470.13935 0.0000031
2.68000 169007.46865 176969.81721 0.0000038
2.69000 129680.21373 136328.91820 0.0000045
2.70000 108859.51630 113592.43852 0.0000049
2.71000 96210.25107 100275.31009 0.0000053
2.72000 86717.45445 91666.09749 0.0000056
2.73000 82040.78430 85529.03650 0.0000057
2.74000 77094.87216 80861.42806 0.0000059
2.75000 74659.03632 77181.81394 0.0000059
2.76000 71693.73021 74220.56362 0.0000060
2.77000 70600.88898 71804.21679 0.0000060
2.78000 68473.80139 69812.24510 0.0000061
2.79000 67703.52072 68157.93547 0.0000061
2.80000 65992.07236 66777.89741 0.0000062
2.81000 65426.49257 65625.48952 0.0000062
2.82000 64161.27373 64667.02134 0.0000063
2.83000 63518.72102 63876.75631 0.0000063
2.84000 62535.02606 63238.19749 0.0000063
2.85000 62272.28369 62740.83903 0.0000063
2.86000 61936.55072 62380.14163 0.0000063
2.87000 61028.38761 62157.66025 0.0000064
2.88000 61490.52548 62081.19986 0.0000063
2.89000 60295.14269 62166.49722 0.0000064
2.90000 60994.02541 62439.46856 0.0000063
2.91000 60655.54470 62940.40376 0.0000064
2.92000 61313.48858 63732.83217 0.0000063
2.93000 61925.96584 64925.90686 0.0000063
2.94000 64077.89441 66735.20911 0.0000062
2.95000 66289.48172 69633.84414 0.0000061
2.96000 71572.56360 74653.96951 0.0000059
2.97000 79815.54381 83798.98505 0.0000056
2.98000 96695.39646 100236.60720 0.0000051
2.99000 124090.15319 127603.52508 0.0000045
3.00000 167329.21179 167944.14670 0.0000038
3.01000 223185.93940 218319.76709 0.0000031
3.02000 266983.93985 266105.33417 0.0000027
3.03000 285290.48133 287130.47970 0.0000026
3.04000 263219.13638 265766.27734 0.0000028
3.05000 215051.94106 217578.28905 0.0000032
3.06000 160907.04198 166749.78779 0.0000038
3.07000 118783.54888 125934.75514 0.0000046
3.08000 91133.90382 98088.30597 0.0000052
3.09000 75720.56308 81174.31345 0.0000057
3.10000 66055.64861 71550.13606 0.0000060
3.11000 61299.84343 66045.81016 0.0000062
3.12000 57603.50565 62652.90884 0.0000063
3.13000 55809.46040 60335.01358 0.0000064
3.14000 54375.59077 58615.39351 0.0000064
3.15000 53022.42381 57274.99125 0.0000065
3.16000 52576.96712 56200.94319 0.0000065
3.17000 51371.52502 55325.53530 0.0000065
3.18000 51365.71357 54603.64660 0.0000065
3.19000 50581.29545 53189.95569 0.0000066
3.20000 50819.14976 52698.17479 0.0000065
3.21000 50054.39013 52290.07157 0.0000065
3.22000 50000.41279 51955.16284 0.0000065
3.23000 49522.23082 51687.70519 0.0000065
3.24000 49789.22059 51486.84409 0.0000065
3.25000 49323.65244 51357.16140 0.0000065
3.26000 49501.53852 51307.16185 0.0000065
3.27000 49571.70966 51348.48226 0.0000065
3.28000 49699.86079 51491.65766 0.0000065
3.29000 50015.37260 51744.37781 0.0000064
3.30000 50071.53419 52121.62386 0.0000064
3.31000 51120.64506 52708.68075 0.0000064
3.32000 51315.28051 53776.35933 0.0000064
3.33000 53947.95024 55838.32224 0.0000062
3.34000 57415.29381 59614.73923 0.0000061
3.35000 63912.80303 65832.25301 0.0000059
3.36000 73332.20753 74753.27830 0.0000055
3.37000 85284.48771 85429.53705 0.0000052
3.38000 93453.56738 94699.13462 0.0000050
3.39000 95737.65075 97447.42956 0.0000049
3.40000 90111.23167 91386.61848 0.0000050
3.41000 80049.28832 80829.24537 0.0000053
3.42000 68569.27843 70312.80142 0.0000056
3.43000 60334.36439 62081.86670 0.0000059
3.44000 55066.05853 56533.03698 0.0000061
3.45000 51822.29622 53161.70384 0.0000062
3.46000 50259.16246 51218.14466 0.0000062
3.47000 48968.75301 50073.32072 0.0000063
3.48000 48779.69278 49343.35525 0.0000062
3.49000 47861.81748 48829.91153 0.0000063
3.50000 47904.02542 48440.95327 0.0000062
3.51000 47496.25243 48133.24923 0.0000062
3.52000 47533.56697 47883.94958 0.0000062
3.53000 47321.72731 47679.11358 0.0000062
3.54000 47542.38365 47509.39837 0.0000062
3.55000 47175.70216 47368.28558 0.0000062
3.56000 47491.28734 47251.19616 0.0000062
3.57000 46999.46494 47154.98037 0.0000062
3.58000 47088.27713 47077.61830 0.0000061
3.59000 47321.76000 47018.07563 0.0000061
3.60000 47225.85771 46976.32833 0.0000061
3.61000 47636.01491 46953.70166 0.0000061
3.62000 47097.02252 46953.98352 0.0000061
3.63000 47741.39460 46986.31628 0.0000060
3.64000 47389.11778 47071.14812 0.0000060
3.65000 47906.14973 47257.95284 0.0000060
3.66000 47792.64560 47594.52092 0.0000060
3.67000 48514.47603 48170.75308 0.0000059
3.68000 48913.58098 49044.02633 0.0000059
3.69000 49993.84663 50178.89006 0.0000058
3.70000 50667.77382 51341.85753 0.0000058
3.71000 51161.64640 52022.26776 0.0000058
3.72000 51083.13026 51774.50032 0.0000057
3.73000 50530.29177 50817.78562 0.0000057
3.74000 49916.88917 49717.69066 0.0000057
3.75000 49210.06272 48824.38387 0.0000057
3.76000 49051.44610 48242.68871 0.0000057
3.77000 48208.32960 47947.68285 0.0000057
3.78000 48698.41786 47875.71282 0.0000057
3.79000 48445.86330 47944.18230 0.0000057
3.80000 48806.86548 48120.86528 0.0000056
3.81000 48630.93865 48392.58732 0.0000056
3.82000 49262.21923 48766.87322 0.0000056
3.83000 49238.88749 49269.49783 0.0000056
3.84000 50245.53666 49952.80365 0.0000055
3.85000 50818.23547 50925.53658 0.0000055
3.86000 52418.71567 52422.37666 0.0000054
3.87000 54493.35272 54923.57895 0.0000053
3.88000 58934.02661 59280.30620 0.0000052
3.89000 65561.81647 66696.08341 0.0000050
3.90000 77253.78595 78353.45635 0.0000047
3.91000 94224.12986 94579.04621 0.0000043
3.92000 113235.12255 113526.57816 0.0000040
3.93000 128951.74837 129395.15956 0.0000037
3.94000 131516.96291 133321.69433 0.0000037
3.95000 121744.48934 122450.01601 0.0000038
3.96000 102997.42670 104048.27519 0.0000041
3.97000 85389.96459 86048.70231 0.0000044
3.98000 70966.71995 72069.40910 0.0000047
3.99000 62598.13397 62672.03332 0.0000049
4.00000 56842.51211 56970.28458 0.0000050
4.01000 54325.27194 53695.52614 0.0000050
4.02000 52559.45876 51808.08749 0.0000051
4.03000 51711.77265 50635.95305 0.0000051
4.04000 51198.14764 49828.41657 0.0000050
4.05000 50967.40779 49260.40315 0.0000050
4.06000 50579.65335 48836.89004 0.0000050
4.07000 50167.73086 48516.90808 0.0000050
4.08000 50488.83805 48275.45958 0.0000050
4.09000 49970.68748 48095.85927 0.0000050
4.10000 50516.49448 47966.54164 0.0000049
4.11000 50020.70625 47879.45981 0.0000049
4.12000 50442.04600 47829.15784 0.0000049
4.13000 50275.64391 47812.21617 0.0000049
4.14000 50802.86855 47826.93837 0.0000048
4.15000 50533.72601 47873.32013 0.0000048
4.16000 51000.42872 47952.92942 0.0000048
4.17000 50794.05122 48069.54972 0.0000048
4.18000 51164.39864 48230.17001 0.0000047
4.19000 51088.92655 48447.81925 0.0000047
4.20000 51393.77181 48755.04588 0.0000047
4.21000 52074.97897 49195.65250 0.0000046
4.22000 52622.74375 49889.55348 0.0000046
4.23000 54014.19690 51038.16743 0.0000046
4.24000 55814.00952 52927.56276 0.0000045
4.25000 59711.07616 55842.88438 0.0000044
4.26000 64159.21601 59871.59829 0.0000043
4.27000 70091.04266 64577.12647 0.0000042
4.28000 73878.83299 68532.99182 0.0000041
4.29000 75262.06948 69562.82369 0.0000041
4.30000 72590.42256 67077.74773 0.0000041
4.31000 67562.41379 62951.11091 0.0000042
4.32000 62521.63486 59075.48000 0.0000042
4.33000 59207.94527 56260.62093 0.0000043
4.34000 56495.02796 54607.33406 0.0000043
4.35000 55594.50525 53905.39755 0.0000043
4.36000 55194.39988 53886.96236 0.0000043
4.37000 55254.32000 54343.42253 0.0000043
4.38000 55664.31503 55193.83315 0.0000042
4.39000 56253.21315 56468.11755 0.0000042
4.40000 58303.67838 58336.34348 0.0000042
4.41000 60047.67826 61202.98060 0.0000041
4.42000 64752.59689 65841.55058 0.0000040
4.43000 71356.80406 73661.02688 0.0000039
4.44000 84239.56296 86386.21138 0.0000037
4.45000 103115.23922 105527.64090 0.0000035
4.46000 130968.04995 131059.57696 0.0000031
4.47000 157533.70937 159312.33730 0.0000029
4.48000 176355.22423 180648.06266 0.0000027
4.49000 179960.56986 184668.91319 0.0000027
4.50000 171760.46495 175123.55564 0.0000028
4.51000 162252.41950 166455.89312 0.0000028
4.52000 163692.85497 168114.77464 0.0000028
4.53000 174961.87820 180373.42982 0.0000027
4.54000 185171.08457 194104.11058 0.0000026
4.55000 184470.35122 193748.68218 0.0000026
4.56000 166859.22387 173308.87024 0.0000028
4.57000 139129.68662 142994.56436 0.0000030
4.58000 110225.39418 114362.01726 0.0000033
4.59000 89407.41578 92369.67172 0.0000035
4.60000 74914.17597 77509.68032 0.0000037
4.61000 67275.30872 68294.57670 0.0000037
4.62000 62529.87229 62785.53311 0.0000038
4.63000 59692.41919 59416.00954 0.0000038
4.64000 58015.94204 57207.79606 0.0000039
4.65000 57040.16102 55643.72438 0.0000039
4.66000 56208.34006 54470.91721 0.0000039
4.67000 55968.29025 53562.40462 0.0000039
4.68000 55488.98827 52847.13475 0.0000039
4.69000 55153.17633 52280.64447 0.0000039
4.70000 55065.35355 51833.91115 0.0000038
4.71000 54471.40268 51489.82322 0.0000039
4.72000 54792.40546 51243.88405 0.0000038
4.73000 54404.52205 51107.92819 0.0000039
4.74000 54768.37195 51113.37920 0.0000038
4.75000 54436.29281 51306.49162 0.0000038
4.76000 54973.68887 51727.12778 0.0000038
4.77000 55007.68755 52366.73593 0.0000038
4.78000 55658.55354 53096.56815 0.0000038
4.79000 55601.27383 53582.98772 0.0000038
4.80000 55589.43647 53468.13542 0.0000038
4.81000 55051.67849 52775.94821 0.0000038
4.82000 54878.07033 51933.27634 0.0000038
4.83000 54327.07107 51221.53773 0.0000038
4.84000 53995.88574 50730.20328 0.0000038
4.85000 54036.83940 50450.58661 0.0000038
4.86000 53806.57779 50335.37310 0.0000038
4.87000 54126.16881 50342.64978 0.0000038
4.88000 53757.17264 50452.34199 0.0000038
4.89000 54437.07653 50678.63609 0.0000038
4.90000 54600.18269 51083.86813 0.0000038
4.91000 55715.47964 51797.71645 0.0000038
4.92000 56793.75417 53023.98203 0.0000038
4.93000 59675.08082 54998.90998 0.0000037
4.94000 62793.72244 57871.01500 0.0000037
4.95000 67556.09220 61457.30390 0.0000036
4.96000 71291.96225 64993.12065 0.0000036
4.97000 72887.43142 66738.01157 0.0000036
4.98000 71628.17123 65470.92230 0.0000036
4.99000 67771.95675 62223.41546 0.0000037
5.00000 63221.97808 58776.44231 0.0000037
5.01000 59444.08583 56030.15923 0.0000038
5.02000 57117.58528 54154.51305 0.0000038
5.03000 54811.45150 52938.44607 0.0000039
5.04000 54439.04150 52112.47817 0.0000039
5.05000 53438.21144 51529.98043 0.0000039
5.06000 53224.36596 51125.29416 0.0000039
5.07000 52909.31918 50854.09313 0.0000039
5.08000 52735.56389 50682.55089 0.0000039
5.09000 52410.40295 50583.86356 0.0000040
5.10000 52535.14226 50536.86192 0.0000040
5.11000 52435.51979 50527.39573 0.0000040
5.12000 52568.18872 50543.84729 0.0000040
5.13000 52418.78765 50581.94894 0.0000040
5.14000 52388.52460 50639.19013 0.0000040
5.15000 52448.42113 50714.92315 0.0000040
5.16000 52386.27724 50810.17923 0.0000040
5.17000 52464.63814 50928.32034 0.0000041
5.18000 52563.82607 51076.66860 0.0000041
5.19000 52907.06822 51268.77054 0.0000041
5.20000 52952.00501 51525.64478 0.0000041
5.21000 53479.78019 51872.74317 0.0000041
5.22000 53999.21677 52329.68055 0.0000041
5.23000 55251.77197 52890.84392 0.0000041
5.24000 55585.90968 53491.96845 0.0000041
5.25000 56247.68822 53981.85180 0.0000041
5.26000 55708.32090 54230.43247 0.0000041
5.27000 55794.93319 54318.38555 0.0000041
5.28000 55079.96248 54438.38074 0.0000042
5.29000 54860.36384 54720.65917 0.0000042
5.30000 54657.23322 55227.91558 0.0000042
5.31000 54806.15182 56006.56621 0.0000042
5.32000 55470.57049 57131.11941 0.0000042
5.33000 56513.27014 58763.13806 0.0000042
5.34000 59000.11634 61279.20733 0.0000042
5.35000 62124.20432 65369.94253 0.0000042
5.36000 69104.63961 72152.84728 0.0000040
5.37000 79496.59766 83028.78507 0.0000039
5.38000 97448.98978 99137.87938 0.0000037
5.39000 119565.27641 120313.40678 0.0000034
5.40000 144061.18991 143228.44907 0.0000031
5.41000 158690.18572 159336.60584 0.0000030
5.42000 158751.03524 159049.12321 0.0000030
5.43000 145757.56247 144081.06430 0.0000032
5.44000 127658.26321 125179.58763 0.0000034
5.45000 110969.84275 109560.74077 0.0000036
5.46000 99240.00471 98415.26441 0.0000037
5.47000 89901.45791 89526.13623 0.0000039
5.48000 81626.18242 81158.97911 0.0000040
5.49000 73857.21631 73724.62950 0.0000042
5.50000 66924.16417 67896.71921 0.0000043
5.51000 62603.14444 63732.84107 0.0000044
5.52000 58887.78141 60963.63938 0.0000045
5.53000 57316.93051 59230.10772 0.0000046
5.54000 56026.24853 58202.65588 0.0000046
5.55000 55806.85126 57643.12127 0.0000046
5.56000 55108.33901 57413.20109 0.0000047
5.57000 55379.72964 57460.35019 0.0000047
5.58000 55377.09376 57786.17868 0.0000047
5.59000 56439.27963 58480.47380 0.0000047
5.60000 57403.07760 59753.01135 0.0000047
5.61000 59735.83288 62012.24500 0.0000047
5.62000 63194.92708 65913.22480 0.0000046
5.63000 69545.91255 72271.42974 0.0000045
5.64000 79601.85104 81735.02153 0.0000043
5.65000 92498.36427 94142.33592 0.0000041
5.66000 105233.09611 107368.06788 0.0000039
5.67000 112240.05906 116058.62221 0.0000038
5.68000 111449.09601 114476.38585 0.0000038
5.69000 101967.13061 103910.37175 0.0000040
5.70000 89370.17574 90796.63632 0.0000042
5.71000 77151.94140 79502.44833 0.0000045
5.72000 69126.69746 71420.14211 0.0000047
5.73000 63289.86264 66417.63202 0.0000048
5.74000 61086.73917 63840.13308 0.0000049
5.75000 59953.02268 63094.45549 0.0000049
5.76000 61011.53691 63961.53315 0.0000049
5.77000 63543.76990 66667.10751 0.0000049
5.78000 68644.62638 71736.01899 0.0000048
5.79000 76696.24130 79633.39266 0.0000046
5.80000 87659.56976 90166.34712 0.0000044
5.81000 98667.22749 101477.47464 0.0000042
5.82000 104968.97282 108941.07090 0.0000041
5.83000 104371.68574 107512.44990 0.0000042
5.84000 96018.46709 98115.74345 0.0000043
5.85000 85299.94864 86298.80674 0.0000045
5.86000 74197.20279 75949.15056 0.0000048
5.87000 66893.25770 68320.36587 0.0000050
5.88000 61436.53851 63294.11217 0.0000052
5.89000 58729.29266 60228.34522 0.0000053
5.90000 56752.69515 58428.66563 0.0000053
5.91000 56124.87919 57361.34144 0.0000054
5.92000 55431.41766 56734.71245 0.0000054
5.93000 55127.74336 56376.66365 0.0000054
5.94000 55012.58449 56215.46690 0.0000055
5.95000 55174.63795 56222.57082 0.0000055
5.96000 55157.40205 56400.58204 0.0000055
5.97000 55399.72910 56786.67539 0.0000055
5.98000 55845.07666 57446.53945 0.0000055
5.99000 57003.95308 58557.58921 0.0000055
6.00000 58566.98336 60449.17096 0.0000055
6.01000 61201.33434 63662.61693 0.0000054
6.02000 66571.98378 68909.57148 0.0000053
6.03000 74153.50017 76839.11541 0.0000051
6.04000 85959.13732 87548.27155 0.0000048
6.05000 97065.77732 99673.88425 0.0000046
6.06000 106072.58017 109040.29839 0.0000044
6.07000 106352.04299 109865.75529 0.0000044
6.08000 99654.32203 101556.63425 0.0000046
6.09000 88165.91816 89578.79257 0.0000048
6.10000 77083.05417 78574.86736 0.0000051
6.11000 68248.06793 70271.03378 0.0000054
6.12000 63131.41481 64734.50457 0.0000056
6.13000 59614.11935 61372.62595 0.0000057
6.14000 57958.08406 59474.76966 0.0000058
6.15000 57118.50910 58485.66328 0.0000058
6.16000 56975.02392 58080.70052 0.0000058
6.17000 57328.78853 58141.14187 0.0000058
6.18000 57916.46395 58723.17784 0.0000058
6.19000 59910.62211 60069.97051 0.0000058
6.20000 62786.29244 62560.08401 0.0000057
6.21000 68529.75892 66709.68942 0.0000056
6.22000 76038.99769 72903.84779 0.0000053
6.23000 86814.88728 80982.93292 0.0000051
6.24000 96357.51639 89441.19654 0.0000048
6.25000 102008.72313 94626.74432 0.0000047
6.26000 100640.72913 92962.79465 0.0000048
6.27000 93012.02466 85680.41677 0.0000050
6.28000 82624.46365 76991.96920 0.0000053
6.29000 73260.84622 69584.30814 0.0000055
6.30000 65657.00248 64230.25290 0.0000058
6.31000 61433.05903 60771.93540 0.0000060
6.32000 58736.36690 58728.79261 0.0000061
6.33000 57215.77617 57618.44499 0.0000061
6.34000 56725.77679 57102.81364 0.0000062
6.35000 56211.28034 57016.47140 0.0000062
6.36000 56742.10015 57350.60824 0.0000062
6.37000 57105.96156 58239.86631 0.0000062
6.38000 58961.33413 59957.58840 0.0000062
6.39000 61290.46878 62863.72638 0.0000061
6.40000 66031.91684 67261.16461 0.0000059
6.41000 71540.84617 73115.58355 0.0000058
6.42000 77610.38086 79529.36301 0.0000056
6.43000 81192.53648 84064.62705 0.0000055
6.44000 81407.14596 83816.88482 0.0000055
6.45000 77201.20822 79045.85687 0.0000056
6.46000 72069.08361 72803.74359 0.0000058
6.47000 66673.77290 67383.95197 0.0000060
6.48000 62838.41454 63553.72403 0.0000062
6.49000 60864.86328 61358.99706 0.0000063
6.50000 60218.50862 60622.59372 0.0000063
6.51000 61285.60322 61225.94455 0.0000063
6.52000 63955.10437 63223.67561 0.0000062
6.53000 69158.09435 66772.57909 0.0000060
6.54000 75850.11457 72001.72209 0.0000058
6.55000 84966.43894 78519.92065 0.0000055
6.56000 92049.92711 84873.20609 0.0000053
6.57000 97430.31894 88748.02554 0.0000052
6.58000 98695.94072 89585.78339 0.0000052
6.59000 99011.50955 89375.95967 0.0000052
6.60000 97174.75808 89253.95432 0.0000052
6.61000 94350.68836 87692.82744 0.0000053
6.62000 88444.98862 82938.99737 0.0000055
6.63000 81189.58320 76126.17853 0.0000057
6.64000 73214.13857 69554.11616 0.0000060
6.65000 67030.40534 64368.64535 0.0000063
6.66000 62361.46611 60718.34992 0.0000065
6.67000 59425.98092 58341.39371 0.0000066
6.68000 57766.99357 56870.48037 0.0000067
6.69000 56820.22544 55978.93774 0.0000068
6.70000 56267.86017 55441.05150 0.0000068
6.71000 55644.24943 55125.13065 0.0000068
6.72000 55744.85213 54961.80924 0.0000068
6.73000 55487.43848 54919.62293 0.0000069
6.74000 55876.90421 54985.28941 0.0000069
6.75000 55505.49422 55156.62031 0.0000069
6.76000 56035.39456 55438.93962 0.0000069
6.77000 56167.64844 55843.96372 0.0000069
6.78000 56536.33366 56389.86267 0.0000069
6.79000 56682.55158 57109.38214 0.0000069
6.80000 57407.31203 58060.05909 0.0000069
6.81000 58004.02767 59343.70346 0.0000069
6.82000 59385.56603 61143.88277 0.0000068
6.83000 61163.22038 63812.62395 0.0000067
6.84000 64711.89208 67987.72649 0.0000066
6.85000 70599.40372 74731.90072 0.0000064
6.86000 80504.12928 85496.07838 0.0000060
6.87000 97232.86421 101771.38885 0.0000055
6.88000 120764.66683 124267.86049 0.0000048
6.89000 148822.38607 151339.77841 0.0000043
6.90000 171038.66798 176194.87922 0.0000039
6.91000 180650.11793 186367.02500 0.0000038
6.92000 171459.36042 175063.66502 0.0000039
6.93000 149481.27070 150968.54980 0.0000043
6.94000 123619.02911 125957.36647 0.0000048
6.95000 101950.13122 105296.78594 0.0000054
6.96000 85279.81575 89694.09027 0.0000059
6.97000 74627.54170 78617.56051 0.0000063
6.98000 67580.05989 71220.57864 0.0000066
6.99000 63337.17602 66465.71322 0.0000068
7.00000 60705.22885 63464.71095 0.0000070
7.01000 59261.54054 61622.63979 0.0000071
7.02000 58181.24504 60601.75761 0.0000071
7.03000 58148.02266 60263.59543 0.0000071
7.04000 58705.19727 60652.60408 0.0000071
7.05000 59909.23211 62011.70556 0.0000071
7.06000 62755.28998 64786.81964 0.0000069
7.07000 67054.89428 69557.82456 0.0000068
7.08000 74876.35771 76808.20165 0.0000064
7.09000 84414.85806 86480.72457 0.0000061
7.10000 94603.95115 97108.31773 0.0000057
7.11000 100282.00034 104649.36365 0.0000055
7.12000 100433.02215 104149.92255 0.0000055
7.13000 93953.90092 95833.85102 0.0000058
7.14000 84332.73201 84782.28756 0.0000061
7.15000 74478.04746 74854.04924 0.0000065
7.16000 67209.00126 67390.06216 0.0000068
7.17000 61859.61916 62409.58512 0.0000071
7.18000 59127.41159 59447.62963 0.0000073
7.19000 57798.58329 57968.59987 0.0000073
7.20000 57831.53127 57545.15833 0.0000074
7.21000 58942.44932 57857.07153 0.0000073
7.22000 59820.07674 58552.11404 0.0000073
7.23000 60826.78131 59039.09790 0.0000072
7.24000 60355.58953 58632.10087 0.0000073
7.25000 59536.32447 57294.51503 0.0000073
7.26000 57445.85504 55636.38766 0.0000074
7.27000 55904.64761 54146.59593 0.0000075
7.28000 54199.51439 52995.58622 0.0000077
7.29000 53562.58603 52182.29028 0.0000077
7.30000 52776.50761 51639.53590 0.0000078
7.31000 52419.13154 51288.32319 0.0000078
7.32000 51985.85594 51064.86387 0.0000078
7.33000 51986.07059 50928.63900 0.0000078
7.34000 51930.43331 50859.81135 0.0000079
7.35000 51959.45424 50859.27681 0.0000079
7.36000 51907.38460 50927.84222 0.0000079
7.37000 52243.73631 51094.66569 0.0000079
7.38000 52637.55917 51406.64242 0.0000079
7.39000 53623.82625 51889.17953 0.0000078
7.40000 54744.85325 52581.62435 0.0000077
7.41000 56043.58866 53464.33719 0.0000077
7.42000 57509.12621 54396.67256 0.0000076
7.43000 58090.50860 55068.85349 0.0000076
7.44000 58335.39534 55227.05887 0.0000076
7.45000 57232.54551 55093.01193 0.0000077
7.46000 56756.16811 55075.45853 0.0000077
7.47000 55773.20452 55520.79503 0.0000078
7.48000 56753.61010 56725.59031 0.0000077
7.49000 58362.80120 59062.64128 0.0000076
7.50000 62327.00287 62961.67273 0.0000074
7.51000 68384.03811 68857.88942 0.0000071
7.52000 77723.76294 76903.38112 0.0000067
7.53000 87356.60499 86413.32544 0.0000063
7.54000 96066.08411 94957.73882 0.0000059
7.55000 100097.18949 98836.46454 0.0000058
7.56000 99437.34526 97039.86555 0.0000058
7.57000 94918.62688 92410.34231 0.0000060
7.58000 88392.19936 87056.80987 0.0000063
7.59000 81043.20908 80816.50434 0.0000066
7.60000 73732.36963 73852.39915 0.0000069
7.61000 67046.55323 67471.93230 0.0000073
7.62000 61331.50076 62530.31518 0.0000076
7.63000 57724.61470 59094.31158 0.0000078
7.64000 54973.70785 56914.98226 0.0000080
7.65000 53983.20851 55710.26723 0.0000081
7.66000 53230.14935 55283.09573 0.0000081
7.67000 54101.37017 55576.71778 0.0000081
7.68000 54742.06895 56684.72037 0.0000080
7.69000 57288.35424 58806.06845 0.0000079
7.70000 60873.65061 62133.01720 0.0000077
7.71000 66318.27239 66640.05891 0.0000074
7.72000 71673.44053 71733.52356 0.0000071
7.73000 75748.00004 75648.36988 0.0000069
7.74000 75996.03013 76066.37910 0.0000069
7.75000 73210.58859 72805.50041 0.0000070
7.76000 68421.21976 68107.45875 0.0000073
7.77000 63694.43529 63943.22620 0.0000076
7.78000 59981.92000 61136.33854 0.0000078
7.79000 58171.49481 59907.03927 0.0000079
7.80000 58524.88834 60283.78688 0.0000079
7.81000 60551.14766 62302.53768 0.0000078
7.82000 64711.24877 66066.83644 0.0000076
7.83000 70037.42860 71604.48430 0.0000073
7.84000 77528.65227 78512.21164 0.0000069
7.85000 84533.22071 85930.26371 0.0000066
7.86000 92215.25084 93370.11120 0.0000063
7.87000 97608.34352 100213.90369 0.0000061
7.88000 99773.13094 103664.63116 0.0000060
7.89000 96158.53982 100289.40358 0.0000061
7.90000 88410.71037 91061.27522 0.0000065
7.91000 78281.50587 80280.34295 0.0000069
7.92000 69434.97744 70919.10882 0.0000074
7.93000 62036.97620 63881.67623 0.0000078
7.94000 57698.51337 59034.91152 0.0000081
7.95000 54563.00082 55879.18586 0.0000083
7.96000 52810.21140 53872.66208 0.0000085
7.97000 51806.17410 52583.45619 0.0000085
7.98000 51155.18997 51727.91391 0.0000086
7.99000 50822.47323 51141.47060 0.0000086
8.00000 50275.30643 50737.88777 0.0000087
8.01000 50437.26459 50472.60433 0.0000087
8.02000 50031.88061 50323.49273 0.0000087
8.03000 50355.36574 50281.97158 0.0000087
8.04000 50087.31272 50350.58191 0.0000088
8.05000 50599.10414 50544.91990 0.0000087
8.06000 50588.25719 50899.74468 0.0000087
8.07000 51325.92482 51479.63493 0.0000087
8.08000 51677.22951 52393.75693 0.0000087
8.09000 53288.95904 53812.51654 0.0000086
8.10000 54927.41685 55979.93440 0.0000085
8.11000 58144.14702 59195.79889 0.0000082
8.12000 62010.39080 63708.77465 0.0000080
8.13000 67891.56981 69528.95156 0.0000076
8.14000 74690.67394 76324.22409 0.0000073
8.15000 82211.63376 83669.35277 0.0000069
8.16000 88321.10694 90254.28755 0.0000066
8.17000 90269.00973 92863.02660 0.0000066
8.18000 87608.69473 89118.95001 0.0000067
8.19000 80976.87275 81066.78690 0.0000070
8.20000 72803.87631 72415.21517 0.0000074
8.21000 65026.49764 65210.04544 0.0000079
8.22000 59767.09604 59946.74044 0.0000083
8.23000 55694.59475 56424.74743 0.0000086
8.24000 53675.32350 54217.42938 0.0000087
8.25000 52111.36609 52900.89070 0.0000089
8.26000 51724.41036 52155.63398 0.0000089
8.27000 51231.93355 51783.07071 0.0000089
8.28000 51329.13595 51678.77867 0.0000089
8.29000 51271.57687 51800.87450 0.0000090
8.30000 51739.00764 52136.60992 0.0000089
8.31000 51830.69370 52704.73211 0.0000089
8.32000 52481.40880 53591.40694 0.0000089
8.33000 53175.46130 54960.05381 0.0000089
8.34000 54670.42539 57125.43895 0.0000088
8.35000 57203.09211 60598.42441 0.0000086
8.36000 61473.64318 66103.30020 0.0000083
8.37000 68628.73407 74440.78188 0.0000078
8.38000 79423.02248 86214.30602 0.0000072
8.39000 93472.64237 101176.28523 0.0000066
8.40000 106584.27688 116941.96344 0.0000061
8.41000 115191.82203 127565.82973 0.0000058
8.42000 114392.70897 126454.54105 0.0000058
8.43000 106173.46713 114358.42653 0.0000061
8.44000 92850.91626 98325.93786 0.0000066
8.45000 79496.92518 83731.43592 0.0000073
8.46000 68729.77777 72470.11337 0.0000079
8.47000 61559.25300 64577.91409 0.0000084
8.48000 56669.76833 59388.46972 0.0000088
8.49000 53954.37012 56085.17113 0.0000090
8.50000 52179.51180 53988.58295 0.0000092
8.51000 51367.33122 52633.56341 0.0000093
8.52000 50677.72484 51767.18516 0.0000093
8.53000 50487.79365 51258.20076 0.0000094
8.54000 50309.52770 51055.12185 0.0000094
8.55000 50746.02030 51137.36919 0.0000094
8.56000 51170.32657 51462.17796 0.0000094
8.57000 51611.56995 51921.53609 0.0000093
8.58000 52061.28012 52277.93480 0.0000093
8.59000 52015.63533 52289.24220 0.0000093
8.60000 52051.88098 52033.52829 0.0000093
8.61000 51806.03301 51860.03043 0.0000094
8.62000 52210.66473 52097.67191 0.0000093
8.63000 52906.63289 52991.29503 0.0000093
8.64000 55217.27384 54735.78659 0.0000091
8.65000 58339.06669 57444.58335 0.0000089
8.66000 62872.30495 61012.61040 0.0000085
8.67000 66741.99031 64831.12039 0.0000083
8.68000 69781.18097 67419.09283 0.0000081
8.69000 69550.38456 67181.91628 0.0000081
8.70000 67193.14452 64305.13223 0.0000083
8.71000 62854.49466 60503.45499 0.0000086
8.72000 58927.96958 57084.67567 0.0000089
8.73000 55601.75775 54527.84739 0.0000092
8.74000 53331.26762 52873.42417 0.0000094
8.75000 51940.09835 52002.15835 0.0000095
8.76000 51434.98100 51785.62068 0.0000096
8.77000 51447.49785 52173.32024 0.0000096
8.78000 52309.37563 53244.98125 0.0000095
8.79000 54270.36922 55222.48336 0.0000094
8.80000 57359.25015 58429.86875 0.0000091
8.81000 62348.02354 63180.95569 0.0000087
8.82000 69029.68678 69559.21098 0.0000082
8.83000 77004.76301 76974.22713 0.0000077
8.84000 82438.69537 83420.14399 0.0000074
8.85000 84904.68756 85611.25388 0.0000073
8.86000 82124.44373 82062.75709 0.0000075
8.87000 76292.27776 75141.65414 0.0000078
8.88000 68956.61229 68001.13148 0.0000083
8.89000 63070.93888 62238.00340 0.0000087
8.90000 58356.25079 58238.44542 0.0000091
8.91000 55901.10994 55860.88674 0.0000093
8.92000 54547.77599 54774.85006 0.0000095
8.93000 54470.74986 54574.59249 0.0000095
8.94000 54502.21499 54788.59905 0.0000095
8.95000 54810.36090 54938.35608 0.0000095
8.96000 54306.72376 54827.33742 0.0000095
8.97000 53847.71657 54491.03672 0.0000096
8.98000 53232.62300 53863.11702 0.0000096
8.99000 52572.14937 52923.24664 0.0000097
9.00000 51797.36250 51917.59561 0.0000098
9.01000 51115.21135 51124.46051 0.0000098
9.02000 51045.83563 50683.89588 0.0000098
9.03000 51122.04864 50638.99210 0.0000098
9.04000 51811.89672 51095.00756 0.0000098
9.05000 52463.01626 52136.98923 0.0000097
9.06000 54247.32515 53899.63345 0.0000096
9.07000 56722.75960 56496.72027 0.0000093
9.08000 60389.65933 59892.04808 0.0000090
9.09000 63694.16228 63645.43296 0.0000088
9.10000 66350.07507 66569.33541 0.0000086
9.11000 66741.70309 67155.28803 0.0000086
9.12000 65714.57506 65291.80743 0.0000086
9.13000 63062.42637 62509.19684 0.0000088
9.14000 60863.74315 60284.48687 0.0000090
9.15000 59579.73671 59363.66768 0.0000091
9.16000 60065.24309 60025.83060 0.0000091
9.17000 62117.46341 62283.25632 0.0000089
9.18000 65327.85296 65831.53858 0.0000087
9.19000 68419.63093 69752.52721 0.0000084
9.20000 70735.25036 72399.56515 0.0000083
9.21000 71411.86200 72596.07706 0.0000082
9.22000 70401.13441 70830.34312 0.0000083
9.23000 68013.17588 67964.11471 0.0000085
9.24000 64811.50394 64331.40158 0.0000087
9.25000 61535.67096 60496.55702 0.0000090
9.26000 58798.08729 57154.21112 0.0000092
9.27000 56793.43927 54646.60516 0.0000094
9.28000 55183.64130 52973.06946 0.0000095
9.29000 54609.89736 52027.71034 0.0000095
9.30000 54338.66584 51695.78444 0.0000096
9.31000 54799.72186 51904.89024 0.0000095
9.32000 55311.43555 52606.59151 0.0000095
9.33000 56651.13263 53731.83598 0.0000094
9.34000 57590.88535 55091.84973 0.0000093
9.35000 58734.36749 56253.15416 0.0000092
9.36000 59008.69800 56693.63790 0.0000092
9.37000 59145.59473 56419.39732 0.0000091
9.38000 58978.65863 56051.42062 0.0000092
9.39000 59222.13897 56256.98082 0.0000091
9.40000 60191.36451 57459.75512 0.0000091
9.41000 62647.09318 59878.18340 0.0000088
9.42000 66062.03107 63495.36164 0.0000086
9.43000 69745.94938 67831.50500 0.0000083
9.44000 72998.40946 71539.41674 0.0000081
9.45000 73868.62675 72597.64358 0.0000081
9.46000 72570.62001 70227.74436 0.0000081
9.47000 69350.35613 65887.64541 0.0000084
9.48000 65778.20061 61423.23123 0.0000086
9.49000 62131.22263 57756.20859 0.0000089
9.50000 59954.01272 55092.85859 0.0000091
9.51000 58320.50076 53328.41504 0.0000092
9.52000 57460.14463 52259.13563 0.0000093
9.53000 56829.97652 51684.64204 0.0000093
9.54000 57130.17437 51454.08149 0.0000093
9.55000 56783.26084 51475.34283 0.0000093
9.56000 57218.45392 51702.50379 0.0000093
9.57000 57245.74232 52120.25445 0.0000093
9.58000 57855.09600 52726.26662 0.0000092
9.59000 58222.87256 53520.49441 0.0000092
9.60000 59252.10052 54510.05209 0.0000091
9.61000 60196.48654 55783.59878 0.0000090
9.62000 61906.14117 57571.44160 0.0000089
9.63000 64150.57142 60242.71798 0.0000087
9.64000 68133.31777 64251.87334 0.0000084
9.65000 74056.31021 70115.96400 0.0000080
9.66000 82897.63547 78296.20850 0.0000075
9.67000 93989.71307 88873.53847 0.0000069
9.68000 106066.88350 100920.77458 0.0000064
9.69000 117426.85452 112237.93818 0.0000059
9.70000 125586.50616 120765.64303 0.0000057
9.71000 128872.79797 125311.75369 0.0000056
9.72000 125659.60725 123789.40573 0.0000057
9.73000 117301.42888 115180.35711 0.0000060
9.74000 105376.27225 102714.46828 0.0000064
9.75000 93531.70383 90721.20950 0.0000069
9.76000 83567.28706 81466.85541 0.0000075
9.77000 77398.56250 75545.65529 0.0000078
9.78000 74360.58585 72883.86654 0.0000080
9.79000 75375.91497 73238.84786 0.0000079
9.80000 79160.01653 76330.49023 0.0000077
9.81000 86034.71883 81733.83106 0.0000073
9.82000 93331.95252 88449.27887 0.0000069
9.83000 99287.97632 94248.97724 0.0000067
9.84000 101170.09206 96170.87684 0.0000066
9.85000 98764.08121 93466.50018 0.0000067
9.86000 93664.46244 88800.39249 0.0000069
9.87000 89484.07078 85358.81887 0.0000071
9.88000 88163.79032 84957.81845 0.0000072
9.89000 91764.19895 88227.56780 0.0000070
9.90000 99008.91645 94858.30348 0.0000067
9.91000 107532.92924 103180.23211 0.0000063
9.92000 113695.57387 109480.32815 0.0000061
9.93000 114082.38418 109472.17095 0.0000061
9.94000 108321.58426 102762.86858 0.0000063
9.95000 98617.45669 92869.25484 0.0000067
9.96000 87819.97787 82879.78784 0.0000072
9.97000 77955.94092 74230.15057 0.0000078
9.98000 70363.44182 67465.26181 0.0000083
9.99000 64875.99173 62566.45214 0.0000087
10.00000 61606.34840 59192.63206 0.0000089
10.01000 58976.93868 56929.18891 0.0000091
10.02000 57768.14444 55424.99679 0.0000092
10.03000 56555.17915 54429.23689 0.0000094
10.04000 56198.17686 53790.66536 0.0000094
10.05000 55483.08812 53421.79109 0.0000095
10.06000 55680.31149 53291.40125 0.0000094
10.07000 55390.36980 53406.60734 0.0000095
10.08000 55795.83506 53847.16733 0.0000094
10.09000 56187.24470 54726.36757 0.0000094
10.10000 57565.66991 56219.26222 0.0000093
10.11000 59348.43875 58520.63456 0.0000091
10.12000 62580.11907 61790.86659 0.0000089
10.13000 66514.16727 66009.47679 0.0000086
10.14000 70810.10761 70683.35509 0.0000083
10.15000 74141.74530 74500.41337 0.0000080
10.16000 75982.92226 75838.19920 0.0000079
10.17000 75181.26233 74399.57663 0.0000080
10.18000 72722.37363 71225.09555 0.0000081
10.19000 69057.82264 67231.25040 0.0000084
10.20000 65007.54102 63091.21394 0.0000087
10.21000 61031.78199 59437.73262 0.0000090
10.22000 57864.18257 56589.16114 0.0000093
10.23000 55649.95610 54542.90877 0.0000095
10.24000 53934.35227 53155.49125 0.0000096
10.25000 53151.15785 52265.25782 0.0000097
10.26000 52389.25305 51726.85928 0.0000098
10.27000 52395.64788 51436.46373 0.0000098
10.28000 52138.24558 51302.70345 0.0000098
10.29000 52154.19010 51233.87096 0.0000098
10.30000 51906.07568 51144.05137 0.0000098
10.31000 51969.39972 51018.46732 0.0000098
10.32000 51596.73577 50926.92710 0.0000099
10.33000 51746.85485 50951.07918 0.0000098
10.34000 51617.87897 51138.37327 0.0000099
10.35000 52169.15983 51503.22382 0.0000098
10.36000 52560.56252 51993.97675 0.0000098
10.37000 53129.21308 52469.37420 0.0000097
10.38000 53183.77125 52677.15483 0.0000097
10.39000 53090.51218 52473.27493 0.0000097
10.40000 52369.28397 51974.30161 0.0000098
10.41000 51843.91908 51423.80154 0.0000099
10.42000 51090.54846 50965.31538 0.0000099
10.43000 50574.72003 50654.86736 0.0000100
10.44000 50314.59590 50497.78719 0.0000100
10.45000 50278.14351 50489.79197 0.0000100
10.46000 50244.05620 50628.47041 0.0000100
10.47000 50432.51997 50918.17277 0.0000100
10.48000 50742.05679 51365.08148 0.0000100
10.49000 50981.01742 51961.17699 0.0000100
10.50000 51504.12486 52649.68136 0.0000099
10.51000 51866.38294 53274.19745 0.0000099
10.52000 52069.57656 53600.69274 0.0000099
10.53000 51983.26943 53532.84205 0.0000099
10.54000 51924.54105 53252.43609 0.0000099
10.55000 51627.47820 53024.12802 0.0000099
10.56000 51834.99020 53023.50171 0.0000099
10.57000 51677.43519 53343.34213 0.0000099
10.58000 52453.39488 54039.11545 0.0000098
10.59000 53189.66969 55112.22068 0.0000098
10.60000 54672.38501 56509.83872 0.0000096
10.61000 55842.26141 58055.44326 0.0000095
10.62000 57019.56738 59366.95653 0.0000094
10.63000 57302.26010 59922.85245 0.0000094
10.64000 57131.11355 59538.82689 0.0000094
10.65000 56344.68240 58687.29678 0.0000095
10.66000 55706.34010 57951.88385 0.0000095
10.67000 55143.37113 57709.95018 0.0000096
10.68000 55542.71226 58153.94602 0.0000096
10.69000 56526.35747 59388.13035 0.0000095
10.70000 58506.69312 61453.52022 0.0000093
10.71000 61200.33533 64279.12280 0.0000091
10.72000 64149.43912 67534.55537 0.0000088
10.73000 66738.69050 70446.22949 0.0000087
10.74000 67974.75264 72119.58755 0.0000086
10.75000 68802.41258 72595.66288 0.0000085
10.76000 69244.35753 73074.76327 0.0000085
10.77000 71287.80456 74856.56973 0.0000083
10.78000 75308.32951 78693.01684 0.0000081
10.79000 82580.94519 84708.79609 0.0000076
10.80000 90302.80247 92154.48735 0.0000072
10.81000 97678.02691 98952.34095 0.0000068
10.82000 101620.87678 102294.39927 0.0000067
10.83000 101479.76762 101016.01074 0.0000067
10.84000 97038.56703 96211.58260 0.0000069
10.85000 89913.75619 89351.43204 0.0000072
10.86000 81611.64784 81854.60720 0.0000077
10.87000 74266.88891 75126.87321 0.0000081
10.88000 68190.64107 69992.38068 0.0000086
10.89000 63995.13542 66632.90189 0.0000089
10.90000 61799.04888 64920.06781 0.0000091
10.91000 61499.67970 64630.75094 0.0000091
10.92000 62350.46262 65501.11666 0.0000090
10.93000 64061.53687 67145.27900 0.0000089
10.94000 65698.12619 68888.13465 0.0000088
10.95000 66482.05251 69777.07579 0.0000087
10.96000 66066.42997 69339.07115 0.0000087
10.97000 65282.07643 68211.09266 0.0000088
10.98000 64469.96045 67440.18477 0.0000089
10.99000 64676.21544 67703.99033 0.0000089
11.00000 66245.75943 69219.05377 0.0000087
11.01000 68974.30102 71760.36353 0.0000085
11.02000 71768.04355 74527.29150 0.0000083
11.03000 73439.12576 76280.88112 0.0000082
11.04000 73897.17184 76230.42536 0.0000082
11.05000 72238.15803 74531.25099 0.0000083
11.06000 69626.95299 71653.51567 0.0000085
11.07000 65859.21513 68218.35683 0.0000088
11.08000 62553.86564 65016.13156 0.0000090
11.09000 59733.95222 62604.25821 0.0000093
11.10000 57932.78584 61196.55298 0.0000094
11.11000 57145.39761 60806.00460 0.0000095
11.12000 57703.32696 61381.63473 0.0000095
11.13000 58861.80243 62772.84417 0.0000094
11.14000 60816.88441 64654.77832 0.0000092
11.15000 61878.70330 66348.01116 0.0000091
11.16000 62585.64661 66898.17892 0.0000090
11.17000 61844.20106 65870.04641 0.0000091
11.18000 60442.09535 63861.41499 0.0000092
11.19000 58945.68145 61791.17119 0.0000094
11.20000 57972.07765 60199.06518 0.0000094
11.21000 57371.57562 59227.80604 0.0000095
11.22000 57474.02726 58757.99770 0.0000095
11.23000 57485.02173 58467.79985 0.0000095
11.24000 57172.27316 57970.02573 0.0000095
11.25000 56142.56422 57122.53523 0.0000096
11.26000 55097.12670 56110.13467 0.0000097
11.27000 53872.14669 55166.85998 0.0000098
11.28000 52871.49149 54408.07772 0.0000099
11.29000 52074.07322 53857.82215 0.0000100
11.30000 51662.35099 53501.26009 0.0000101
11.31000 51300.44529 53307.92859 0.0000101
11.32000 51257.32310 53252.49961 0.0000101
11.33000 51173.92064 53316.63314 0.0000101
11.34000 51151.91553 53492.30018 0.0000101
11.35000 51309.44847 53780.34186 0.0000101
11.36000 51621.41434 54190.47809 0.0000101
11.37000 52132.18985 54757.71247 0.0000100
11.38000 52581.78925 55570.78111 0.0000100
11.39000 53880.42776 56761.71755 0.0000098
11.40000 55176.03063 58469.00999 0.0000097
11.41000 57820.51754 60765.17719 0.0000095
11.42000 60408.45503 63570.34812 0.0000093
11.43000 63670.37865 66485.21649 0.0000090
11.44000 66330.08453 68752.45946 0.0000088
11.45000 67919.18912 69706.91222 0.0000087
11.46000 67908.83877 69204.64002 0.0000087
11.47000 66432.36856 67401.78829 0.0000088
11.48000 63805.03311 64711.36861 0.0000090
11.49000 60801.50277 61818.22664 0.0000092
11.50000 57859.28208 59261.15816 0.0000095
11.51000 55654.15174 57253.79913 0.0000097
11.52000 53887.56816 55783.92533 0.0000099
11.53000 52744.98615 54756.79918 0.0000100
11.54000 52049.13067 54060.31412 0.0000100
11.55000 51605.45670 53599.80219 0.0000101
11.56000 51410.21210 53300.15073 0.0000101
11.57000 51392.08265 53115.06379 0.0000101
11.58000 51143.42747 53012.17744 0.0000101
11.59000 51447.88634 52982.78880 0.0000101
11.60000 51456.11681 53025.21572 0.0000101
11.61000 51723.27398 53143.61713 0.0000101
11.62000 52126.98685 53341.25964 0.0000100
11.63000 52799.83251 53612.67864 0.0000100
11.64000 53300.74721 53934.45190 0.0000099
11.65000 53974.80953 54258.56825 0.0000099
11.66000 54429.28649 54507.29168 0.0000098
11.67000 54663.10983 54598.33133 0.0000098
11.68000 54422.49608 54533.87626 0.0000098
11.69000 54140.33472 54408.70488 0.0000098
11.70000 53795.55243 54323.34649 0.0000099
11.71000 53522.53377 54333.44501 0.0000099
11.72000 53440.75053 54464.18974 0.0000099
11.73000 53458.57530 54730.03456 0.0000099
11.74000 53875.76538 55154.74286 0.0000099
11.75000 54095.80757 55782.45709 0.0000098
11.76000 55120.55506 56690.27511 0.0000097
11.77000 55947.99741 57993.45287 0.0000097
11.78000 57961.34938 59860.65600 0.0000095
11.79000 60398.25960 62472.92337 0.0000093
11.80000 64653.14970 65994.84951 0.0000089
11.81000 69800.54224 70467.69452 0.0000085
11.82000 75580.28754 75612.69689 0.0000081
11.83000 80807.36796 80555.84008 0.0000078
11.84000 84661.59601 83949.72667 0.0000076
11.85000 85506.86035 84911.31522 0.0000075
11.86000 84299.06041 83583.32939 0.0000076
11.87000 80597.10099 80644.19171 0.0000078
11.88000 76636.74375 77113.80179 0.0000081
11.89000 72641.23257 74147.23106 0.0000083
11.90000 70084.23140 72555.63081 0.0000085
11.91000 69882.17141 72714.92582 0.0000085
11.92000 71871.80094 74713.09309 0.0000084
11.93000 75941.07765 78399.40225 0.0000081
11.94000 81045.89205 83221.24316 0.0000078
11.95000 85470.71071 87892.21781 0.0000075
11.96000 87996.53041 90521.40832 0.0000074
11.97000 87780.99553 90120.26463 0.0000074
11.98000 86175.72845 87854.65499 0.0000075
11.99000 84369.92929 85759.75388 0.0000076
12.00000 83975.82581 85104.09274 0.0000076
12.01000 84982.98972 86039.26055 0.0000075
12.02000 86577.44286 87635.32831 0.0000074
12.03000 86960.88255 88058.29249 0.0000074
12.04000 84978.36949 85771.03954 0.0000075
12.05000 80764.26106 81073.70352 0.0000078
12.06000 75252.76015 75537.45571 0.0000081
12.07000 69790.92087 70440.06417 0.0000085
12.08000 65258.32267 66340.55166 0.0000089
12.09000 62037.56837 63312.01977 0.0000091
12.10000 59927.68225 61242.70653 0.0000093
12.11000 58773.58501 59960.60785 0.0000094
12.12000 58023.74585 59297.73745 0.0000095
12.13000 58078.49600 59114.18249 0.0000094
12.14000 58251.31956 59296.93345 0.0000094
12.15000 58945.83071 59760.24421 0.0000094
12.16000 59482.48535 60496.26437 0.0000093
12.17000 60872.37125 61634.60817 0.0000092
12.18000 62853.01932 63375.39628 0.0000090
12.19000 66100.95761 65844.94796 0.0000088
12.20000 69727.79887 68950.79910 0.0000085
12.21000 73712.62232 72222.98149 0.0000082
12.22000 76461.85407 74686.65868 0.0000080
12.23000 77497.52705 75368.59907 0.0000080
12.24000 76286.26581 74108.99176 0.0000081
12.25000 73563.49168 71490.97559 0.0000082
12.26000 69686.20322 68265.97705 0.0000085
12.27000 66220.58020 65131.10625 0.0000088
12.28000 63181.32891 62568.16644 0.0000090
12.29000 61361.08599 60770.13172 0.0000091
12.30000 60200.27590 59724.06309 0.0000092
12.31000 60117.85764 59341.86922 0.0000092
12.32000 60291.47450 59437.14484 0.0000092
12.33000 60981.21268 59732.91564 0.0000092
12.34000 61119.01580 59871.04988 0.0000092
12.35000 61028.26826 59618.02071 0.0000091
12.36000 60640.20995 59086.74560 0.0000092
12.37000 60303.19604 58590.09489 0.0000092
12.38000 60219.08384 58367.62439 0.0000092
12.39000 60630.27683 58498.93191 0.0000092
12.40000 61495.76663 58918.67854 0.0000091
12.41000 62588.14036 59435.45002 0.0000090
12.42000 63348.56042 59807.29396 0.0000089
12.43000 63572.13638 59829.69387 0.0000089
12.44000 63108.33468 59391.51349 0.0000090
12.45000 61877.70119 58593.13235 0.0000091
12.46000 60576.04186 57719.20277 0.0000092
12.47000 58973.54588 57022.44834 0.0000093
12.48000 58159.52167 56630.72827 0.0000094
12.49000 57432.27562 56583.51441 0.0000094
12.50000 57524.74415 56874.51518 0.0000094
12.51000 57649.22719 57462.66233 0.0000094
12.52000 58364.92945 58265.03997 0.0000093
12.53000 58860.62770 59204.80359 0.0000093
12.54000 60136.99468 60333.37944 0.0000092
12.55000 61751.42188 61866.92721 0.0000090
12.56000 64375.30939 64050.03372 0.0000088
12.57000 67712.92025 66957.93101 0.0000086
12.58000 71800.79297 70357.43988 0.0000083
12.59000 75167.27460 73572.36856 0.0000081
12.60000 77614.18565 75642.28597 0.0000079
12.61000 77819.90821 75930.28722 0.0000079
12.62000 76085.97941 74401.85148 0.0000080
12.63000 72895.70048 71474.68442 0.0000082
12.64000 69081.82272 67944.34268 0.0000085
12.65000 65341.98493 64618.06223 0.0000087
12.66000 62265.31066 61949.28359 0.0000090
12.67000 60220.73220 60060.16933 0.0000091
12.68000 58960.94817 58900.22366 0.0000092
12.69000 58501.84364 58343.59846 0.0000093
12.70000 58305.14429 58221.89534 0.0000093
12.71000 58564.99836 58352.29956 0.0000093
12.72000 58934.07252 58630.57417 0.0000092
12.73000 59774.16327 59111.46209 0.0000092
12.74000 61011.32736 59928.69027 0.0000090
12.75000 62494.76245 61138.46528 0.0000089
12.76000 64414.81939 62604.68585 0.0000088
12.77000 65876.47875 63905.55561 0.0000087
12.78000 66609.78735 64419.14916 0.0000086
12.79000 65923.34776 63817.00762 0.0000087
12.80000 64701.53495 62446.29602 0.0000087
12.81000 62896.25801 60947.98467 0.0000089
12.82000 61467.21657 59781.91176 0.0000090
12.83000 60534.31922 59168.11672 0.0000091
12.84000 60614.68030 59190.67488 0.0000090
12.85000 61489.58387 59866.87832 0.0000090
12.86000 63236.25914 61160.33348 0.0000088
12.87000 65564.04397 62942.65762 0.0000087
12.88000 67722.18445 64910.52509 0.0000085
12.89000 69428.30452 66585.24319 0.0000084
12.90000 70226.67267 67639.23392 0.0000083
12.91000 70757.06733 68316.22461 0.0000083
12.92000 71031.52404 69237.48808 0.0000082
12.93000 72259.57329 70854.65376 0.0000082
12.94000 73963.31173 73148.02424 0.0000080
12.95000 75950.16812 75516.42858 0.0000079
12.96000 76800.30333 76927.44175 0.0000079
12.97000 76610.00363 76641.87290 0.0000079
12.98000 74921.60884 74824.13828 0.0000080
12.99000 72319.16435 72198.27493 0.0000081
13.00000 69469.18975 69561.66076 0.0000083
13.01000 67590.99036 67573.03301 0.0000085
13.02000 66466.64639 66625.39656 0.0000085
13.03000 67001.90543 66857.84394 0.0000085
13.04000 68581.79789 68210.93579 0.0000084
13.05000 71033.56165 70402.46874 0.0000082
13.06000 73358.72834 72814.88543 0.0000081
13.07000 75372.92385 74560.87544 0.0000079
13.08000 75782.65378 75111.80800 0.0000079
13.09000 76081.16834 74888.69165 0.0000079
13.10000 76296.25665 74824.62370 0.0000079
13.11000 77355.20698 75531.56651 0.0000078
13.12000 78904.22578 76940.62691 0.0000077
13.13000 80465.13357 78274.42254 0.0000076
13.14000 80597.95158 78407.52774 0.0000076
13.15000 79316.88797 76738.51318 0.0000077
13.16000 76162.93936 73609.14349 0.0000078
13.17000 72238.41683 69795.04682 0.0000081
13.18000 68257.80050 66021.26598 0.0000084
13.19000 64744.24754 62767.39189 0.0000086
13.20000 61926.84969 60237.55073 0.0000088
13.21000 60100.73538 58435.35876 0.0000090
13.22000 59020.50043 57282.77239 0.0000090
13.23000 58441.03521 56688.19322 0.0000091
13.24000 58264.01366 56584.00820 0.0000091
13.25000 58563.65422 56951.32671 0.0000091
13.26000 59057.01019 57838.91858 0.0000090
13.27000 60487.64645 59356.37975 0.0000089
13.28000 62704.04585 61622.99667 0.0000087
13.29000 66169.15601 64725.01533 0.0000085
13.30000 70321.93214 68576.69288 0.0000082
13.31000 74737.20976 72805.47062 0.0000079
13.32000 78512.32347 76615.05706 0.0000077
13.33000 80387.85059 78770.84424 0.0000075
13.34000 79765.57092 78185.37807 0.0000076
13.35000 76729.67095 74997.12012 0.0000078
13.36000 72156.83342 70501.58812 0.0000080
13.37000 67646.31998 65977.97075 0.0000083
13.38000 63201.00403 62099.99218 0.0000087
13.39000 59948.70201 59071.84020 0.0000089
13.40000 57803.34805 56871.20551 0.0000091
13.41000 56267.37321 55387.38568 0.0000092
13.42000 55448.02734 54490.69581 0.0000093
13.43000 55135.58512 54066.32643 0.0000093
13.44000 55025.99206 54035.51043 0.0000093
13.45000 55426.23339 54329.86918 0.0000093
13.46000 55928.22671 54863.81536 0.0000092
13.47000 56242.40797 55476.33046 0.0000092
13.48000 56782.98523 55892.83759 0.0000091
13.49000 56593.19194 55827.64405 0.0000091
13.50000 56241.45911 55229.44849 0.0000092
13.51000 55520.08021 54325.50899 0.0000092
13.52000 54743.72471 53403.35473 0.0000093
13.53000 54040.26752 52632.25099 0.0000093
13.54000 53624.86207 52080.14334 0.0000094
13.55000 53296.84685 51769.55886 0.0000094
13.56000 53263.75733 51704.70757 0.0000094
13.57000 53308.09283 51898.09531 0.0000094
13.58000 53946.07514 52375.12781 0.0000093
13.59000 54583.02752 53183.74239 0.0000093
13.60000 56065.08633 54388.88092 0.0000091
13.61000 57967.86362 56062.03677 0.0000090
13.62000 60707.81189 58243.89574 0.0000088
13.63000 63925.46434 60865.83351 0.0000085
13.64000 67293.76023 63623.40523 0.0000083
13.65000 69787.98715 65873.85566 0.0000081
13.66000 70853.30597 66844.84288 0.0000080
13.67000 70003.54100 66246.76216 0.0000081
13.68000 67948.23585 64510.33361 0.0000082
13.69000 65022.64311 62364.78069 0.0000084
13.70000 62552.27771 60426.63086 0.0000086
13.71000 60585.44334 59077.86200 0.0000087
13.72000 59959.24507 58479.77259 0.0000088
13.73000 60251.82851 58625.68167 0.0000088
13.74000 61284.39376 59357.05595 0.0000087
13.75000 62550.72355 60326.71981 0.0000086
13.76000 63200.94304 61020.09510 0.0000085
13.77000 63166.67674 61034.54060 0.0000085
13.78000 62510.56503 60441.79254 0.0000086
13.79000 61496.16283 59675.29741 0.0000087
13.80000 60655.39049 59095.84597 0.0000087
13.81000 59921.95219 58761.57607 0.0000088
13.82000 59366.09901 58446.08369 0.0000088
13.83000 58642.51551 57831.87692 0.0000089
13.84000 57655.92551 56823.06183 0.0000089
13.85000 56460.57910 55627.43073 0.0000090
13.86000 55491.49357 54531.94387 0.0000091
13.87000 54676.31318 53733.19399 0.0000092
13.88000 54220.76849 53325.65005 0.0000092
13.89000 54421.00354 53338.18459 0.0000092
13.90000 55021.40223 53755.39979 0.0000091
13.91000 55974.92182 54509.34643 0.0000091
13.92000 56917.23537 55454.13554 0.0000090
13.93000 57878.72013 56392.61342 0.0000089
13.94000 58540.92415 57232.18910 0.0000088
13.95000 59183.09410 58108.17309 0.0000088
13.96000 60226.14108 59243.46765 0.0000087
13.97000 61424.00170 60698.52136 0.0000086
13.98000 62613.06426 62220.27579 0.0000085
13.99000 63174.24603 63264.44172 0.0000085
14.00000 63219.51783 63305.21798 0.0000085
14.01000 61847.01991 62278.29992 0.0000086
14.02000 60201.80151 60568.87147 0.0000087
14.03000 58048.54802 58697.92806 0.0000089
14.04000 56443.05248 57097.77224 0.0000090
14.05000 55316.09468 56022.69011 0.0000091
14.06000 54925.51574 55555.49724 0.0000091
14.07000 54950.14466 55643.61912 0.0000091
14.08000 55331.77905 56102.69615 0.0000091
14.09000 55782.21402 56612.33562 0.0000090
14.10000 56154.15800 56845.51655 0.0000090
14.11000 56140.15127 56723.64664 0.0000090
14.12000 56197.32148 56465.08174 0.0000090
14.13000 56161.81734 56320.04330 0.0000090
14.14000 56442.63354 56334.20150 0.0000090
14.15000 56221.58055 56299.71081 0.0000090
14.16000 55829.52868 55891.74440 0.0000090
14.17000 55204.56765 54971.37178 0.0000091
14.18000 53925.37911 53730.89359 0.0000092
14.19000 52688.22148 52488.72019 0.0000093
14.20000 51599.37780 51464.36779 0.0000094
14.21000 50786.36188 50753.49643 0.0000094
14.22000 50237.74198 50374.93859 0.0000095
14.23000 50112.32349 50309.20722 0.0000095
14.24000 50079.39961 50505.60526 0.0000095
14.25000 50383.03117 50879.32106 0.0000095
14.26000 50771.41336 51332.96312 0.0000094
14.27000 51106.96117 51834.83263 0.0000094
14.28000 51840.90928 52476.58114 0.0000093
14.29000 52830.84072 53400.93882 0.0000093
14.30000 54353.01948 54686.60970 0.0000091
14.31000 56175.05839 56270.98258 0.0000090
14.32000 58060.34641 57914.63038 0.0000088
14.33000 59405.79532 59197.64365 0.0000087
14.34000 59842.82222 59634.94815 0.0000087
14.35000 59279.03056 58981.32382 0.0000087
14.36000 57621.16886 57491.36084 0.0000089
14.37000 55902.02560 55720.65544 0.0000090
14.38000 53765.29361 54135.38568 0.0000092
14.39000 52496.48604 52982.45078 0.0000093
14.40000 51327.28285 52351.62810 0.0000094
14.41000 51099.73079 52248.18698 0.0000094
14.42000 51157.05515 52634.36264 0.0000094
14.43000 52013.90666 53487.33226 0.0000093
14.44000 53432.58031 54804.04852 0.0000092
14.45000 55381.25154 56564.77291 0.0000090
14.46000 57536.70761 58612.29103 0.0000089
14.47000 59771.53958 60511.92758 0.0000087
14.48000 60739.51955 61582.32076 0.0000086
14.49000 60646.41978 61280.31470 0.0000086
14.50000 59042.97509 59670.02414 0.0000087
14.51000 56847.02075 57320.65834 0.0000089
14.52000 54258.82064 54831.97856 0.0000091
14.53000 52076.22560 52586.45970 0.0000093
14.54000 49986.99028 50754.79911 0.0000095
14.55000 48772.89648 49373.54746 0.0000096
14.56000 47628.47854 48411.16289 0.0000097
14.57000 47307.44088 47829.03782 0.0000097
14.58000 47127.38045 47573.89191 0.0000098
14.59000 47159.84723 47606.29097 0.0000098
14.60000 47555.21786 47893.20896 0.0000097
14.61000 48356.89672 48394.22629 0.0000097
14.62000 48968.97270 49033.90293 0.0000096
14.63000 49775.55743 49661.45644 0.0000095
14.64000 50057.66347 50077.70984 0.0000095
14.65000 50191.75753 50116.52653 0.0000095
14.66000 49693.07856 49806.44049 0.0000095
14.67000 49180.45981 49333.14993 0.0000096
14.68000 48425.98828 48907.35679 0.0000097
14.69000 48044.42941 48682.45658 0.0000097
14.70000 47984.64075 48733.17285 0.0000097
14.71000 48377.75293 49054.79384 0.0000097
14.72000 48688.58543 49550.59475 0.0000096
14.73000 49324.89987 50008.83827 0.0000096
14.74000 49327.99934 50141.61370 0.0000096
14.75000 48968.15125 49764.67103 0.0000096
14.76000 48265.85661 48956.46006 0.0000097
14.77000 47303.05004 47963.24836 0.0000098
14.78000 46389.45349 46997.78357 0.0000099
14.79000 45656.03136 46165.06175 0.0000099
14.80000 44808.80402 45492.45318 0.0000100
14.81000 44625.71869 44972.16687 0.0000100
14.82000 44150.98293 44587.55322 0.0000101
14.83000 44007.95579 44321.09106 0.0000101
14.84000 43789.26179 44157.23394 0.0000101
14.85000 43876.30531 44081.21069 0.0000101
14.86000 44088.14895 44091.85426 0.0000101
14.87000 44201.60144 44184.85190 0.0000101
14.88000 44269.89771 44364.35701 0.0000101
14.89000 44692.48717 44631.95523 0.0000100
14.90000 44939.18175 44991.42945 0.0000100
14.91000 45405.95479 45454.33810 0.0000100
14.92000 45886.70086 46036.52596 0.0000099
14.93000 46572.97197 46729.37900 0.0000098
14.94000 47189.18623 47464.89666 0.0000098
14.95000 47861.27894 48094.24314 0.0000097
14.96000 48067.94615 48438.36831 0.0000097
14.97000 48032.09588 48405.67935 0.0000097
14.98000 47611.79541 48054.11379 0.0000098
14.99000 47116.89346 47543.11717 0.0000098
15.00000 46386.15271 47048.94421 0.0000099
15.01000 46046.53212 46703.37780 0.0000099
15.02000 45741.24635 46570.77703 0.0000099
15.03000 45749.16897 46654.26040 0.0000099
15.04000 45882.41075 46902.51317 0.0000099
15.05000 46246.85894 47225.61940 0.0000099
15.06000 46353.53448 47552.58751 0.0000099
15.07000 46859.00603 47899.34207 0.0000098
15.08000 47331.28698 48341.18544 0.0000098
15.09000 48077.05621 48912.90074 0.0000097
15.10000 48789.81800 49540.43289 0.0000097
15.11000 49299.20615 50037.12072 0.0000096
15.12000 49405.37568 50196.13460 0.0000096
15.13000 49245.19192 49909.90813 0.0000096
15.14000 48431.55107 49229.60029 0.0000097
15.15000 47448.24499 48345.45975 0.0000098
15.16000 46466.51698 47477.65218 0.0000099
15.17000 45705.08537 46774.92621 0.0000099
15.18000 45129.94567 46289.61111 0.0000100
15.19000 44974.20177 46000.74204 0.0000100
15.20000 44653.08351 45836.41347 0.0000101
15.21000 44562.26516 45712.85675 0.0000101
15.22000 44358.69509 45597.99185 0.0000101
15.23000 44467.22906 45530.41685 0.0000101
15.24000 44405.21418 45569.27140 0.0000101
15.25000 44831.73685 45738.59566 0.0000100
15.26000 45050.65609 46004.72524 0.0000100
15.27000 45404.63283 46266.07252 0.0000100
15.28000 45423.78094 46383.91199 0.0000100
15.29000 45504.99867 46245.12627 0.0000100
15.30000 45044.22753 45878.07132 0.0000100
15.31000 44602.23355 45415.64038 0.0000101
15.32000 44298.85596 44995.42072 0.0000101
15.33000 44134.60857 44696.87479 0.0000101
15.34000 43887.95799 44542.36041 0.0000101
15.35000 44102.61955 44513.63363 0.0000101
15.36000 44144.21934 44571.21975 0.0000101
15.37000 44283.03829 44689.38544 0.0000101
15.38000 44544.79651 44870.45007 0.0000101
15.39000 44852.77437 45113.54281 0.0000100
15.40000 44853.11360 45369.34627 0.0000100
15.41000 45079.70896 45527.42602 0.0000100
15.42000 44547.19944 45471.84947 0.0000101
15.43000 44428.01469 45184.50035 0.0000101
15.44000 43979.50124 44766.09568 0.0000101
15.45000 43500.57407 44349.47245 0.0000102
15.46000 43149.32862 44027.15825 0.0000102
15.47000 42926.14481 43841.39879 0.0000102
15.48000 42835.62830 43806.78703 0.0000102
15.49000 42886.26751 43908.23832 0.0000102
15.50000 43008.70154 44108.78478 0.0000102
15.51000 43259.41377 44358.86537 0.0000102
15.52000 43361.90602 44629.32868 0.0000102
15.53000 43865.49596 44928.50315 0.0000101
15.54000 44017.83621 45267.46596 0.0000101
15.55000 44348.73477 45603.96507 0.0000101
15.56000 44333.27733 45823.13762 0.0000101
15.57000 44376.63222 45801.38011 0.0000101
15.58000 44012.05377 45519.48531 0.0000101
15.59000 43660.39360 45091.52733 0.0000101
15.60000 43177.91920 44667.62616 0.0000102
15.61000 42946.40405 44356.85705 0.0000102
15.62000 42716.65855 44202.36405 0.0000102
15.63000 42845.88477 44201.13988 0.0000102
15.64000 42881.96288 44306.60702 0.0000102
15.65000 43051.95422 44427.08677 0.0000102
15.66000 43018.26133 44451.57674 0.0000102
15.67000 43060.59627 44321.29180 0.0000102
15.68000 42721.87857 44073.12591 0.0000102
15.69000 42679.30808 43802.20863 0.0000102
15.70000 42430.92874 43570.54445 0.0000103
15.71000 42416.70629 43396.01117 0.0000103
15.72000 42312.09418 43254.94023 0.0000103
15.73000 42322.30234 43111.53998 0.0000103
15.74000 42073.20314 42942.27288 0.0000103
15.75000 42070.87355 42756.13323 0.0000103
15.76000 41823.03968 42587.62684 0.0000103
15.77000 41752.78692 42470.04507 0.0000103
15.78000 41636.33327 42421.58493 0.0000103
15.79000 41570.66126 42443.54750 0.0000103
15.80000 41530.28820 42521.89693 0.0000103
15.81000 41958.69129 42645.92479 0.0000103
15.82000 41918.24313 42806.85357 0.0000103
15.83000 42375.23314 43009.47505 0.0000102
15.84000 42691.47854 43250.57140 0.0000102
15.85000 43146.66693 43496.74953 0.0000102
15.86000 43499.27707 43683.17566 0.0000101
15.87000 43679.42038 43742.68486 0.0000101
15.88000 43573.38473 43664.04344 0.0000101
15.89000 43468.80414 43483.71335 0.0000101
15.90000 43127.92773 43273.48004 0.0000102
15.91000 42936.68053 43106.30287 0.0000102
15.92000 42623.32265 43032.28550 0.0000102
15.93000 42627.54696 43077.31908 0.0000102
15.94000 42737.61573 43246.56194 0.0000102
15.95000 42929.35339 43529.94947 0.0000102
15.96000 43374.75479 43913.07184 0.0000101
15.97000 44029.42782 44386.29550 0.0000100
15.98000 44702.60598 44930.79964 0.0000100
15.99000 45434.85350 45479.63402 0.0000099
16.00000 45735.82186 45892.33446 0.0000099
16.01000 46011.39772 45999.55517 0.0000098
16.02000 45570.99737 45727.63640 0.0000099
16.03000 45064.33931 45169.84496 0.0000099
16.04000 44100.06517 44502.62932 0.0000100
16.05000 43323.75296 43869.93486 0.0000101
16.06000 42566.69730 43349.90020 0.0000102
16.07000 42182.12409 42973.53772 0.0000102
16.08000 42024.49799 42750.04241 0.0000102
16.09000 41885.27107 42676.30373 0.0000103
16.10000 41794.96486 42740.44198 0.0000103
16.11000 41996.01415 42938.05798 0.0000102
16.12000 42489.44563 43243.48212 0.0000102
16.13000 42872.32383 43616.35766 0.0000101
16.14000 43192.09678 43983.04136 0.0000101
16.15000 43445.58342 44239.10911 0.0000101
16.16000 43508.38097 44296.17027 0.0000101
16.17000 43187.29001 44145.38085 0.0000101
16.18000 43067.45853 43861.35259 0.0000101
16.19000 42729.60324 43543.70931 0.0000102
16.20000 42463.65639 43269.80327 0.0000102
16.21000 42363.90982 43078.59997 0.0000102
16.22000 42344.22806 42974.69728 0.0000102
16.23000 42527.87822 42934.06807 0.0000102
16.24000 42469.76359 42912.91203 0.0000102
16.25000 42618.69608 42872.11180 0.0000102
16.26000 42757.47510 42803.97780 0.0000101
16.27000 42953.02587 42727.02473 0.0000101
16.28000 43141.06533 42660.69490 0.0000101
16.29000 43128.18198 42601.02256 0.0000101
16.30000 43158.11131 42533.21498 0.0000101
16.31000 42874.96561 42452.92428 0.0000101
16.32000 42801.00520 42377.27958 0.0000101
16.33000 42690.36319 42334.24351 0.0000102
16.34000 42558.76667 42347.66533 0.0000102
16.35000 42275.42501 42433.79068 0.0000102
16.36000 42499.80701 42603.04449 0.0000102
16.37000 42602.19734 42860.37936 0.0000102
16.38000 42838.15184 43206.22402 0.0000101
16.39000 43230.96378 43640.31512 0.0000101
16.40000 43775.73367 44168.70700 0.0000100
16.41000 44636.16660 44795.53867 0.0000100
16.42000 45389.04371 45500.90626 0.0000099
16.43000 46177.28846 46210.88632 0.0000098
16.44000 46858.93483 46792.17341 0.0000097
16.45000 47066.95644 47090.98274 0.0000097
16.46000 46981.51540 47007.28465 0.0000097
16.47000 46359.93192 46572.81317 0.0000098
16.48000 45666.57525 45928.34952 0.0000099
16.49000 44958.60856 45244.91816 0.0000099
16.50000 44283.38168 44646.01658 0.0000100
16.51000 43711.73154 44191.86289 0.0000101
16.52000 43503.11803 43899.54001 0.0000101
16.53000 43288.00938 43762.88222 0.0000101
16.54000 43467.74606 43763.75293 0.0000101
16.55000 43529.56283 43874.49466 0.0000101
16.56000 43925.76774 44049.63724 0.0000101
16.57000 44075.58250 44217.31249 0.0000100
16.58000 44282.94192 44291.06628 0.0000100
16.59000 44161.57619 44224.13790 0.0000100
16.60000 43971.46132 44038.38550 0.0000101
16.61000 43571.97186 43808.06295 0.0000101
16.62000 43450.76175 43607.39258 0.0000101
16.63000 43217.31922 43486.20055 0.0000102
16.64000 43282.09789 43473.52996 0.0000101
16.65000 43266.40284 43585.74776 0.0000102
16.66000 43432.51773 43835.88699 0.0000101
16.67000 43770.78519 44228.77168 0.0000101
16.68000 44432.26760 44762.92626 0.0000100
16.69000 45002.66115 45421.89516 0.0000100
16.70000 45960.70739 46157.67324 0.0000099
16.71000 46512.31371 46875.45557 0.0000099
16.72000 47316.12345 47449.93387 0.0000098
16.73000 47437.99709 47794.07773 0.0000098
16.74000 47549.29353 47928.92960 0.0000098
16.75000 47442.55926 47971.00200 0.0000098
16.76000 47578.76583 48063.06335 0.0000098
16.77000 47664.00106 48304.24831 0.0000098
16.78000 48276.49172 48715.09096 0.0000097
16.79000 48896.36363 49211.67857 0.0000097
16.80000 49268.37869 49615.71110 0.0000097
16.81000 49388.61626 49726.52381 0.0000096
16.82000 49074.28417 49461.94554 0.0000097
16.83000 48725.57004 48919.08875 0.0000097
16.84000 48151.58551 48267.84168 0.0000098
16.85000 47519.77756 47627.60258 0.0000099
16.86000 47212.23561 47022.86325 0.0000099
16.87000 46635.59082 46435.04155 0.0000100
16.88000 46164.89606 45856.17594 0.0000100
16.89000 45490.87823 45305.15326 0.0000101
16.90000 45096.61969 44819.00976 0.0000101
16.91000 44611.11428 44431.92665 0.0000102
16.92000 44261.92117 44163.81096 0.0000102
16.93000 44171.17947 44022.18949 0.0000103
16.94000 44140.56322 44008.08972 0.0000103
16.95000 44147.98937 44119.29426 0.0000103
16.96000 44443.90829 44348.95265 0.0000103
16.97000 44942.64191 44685.95096 0.0000102
16.98000 45402.66776 45099.69742 0.0000102
16.99000 45995.83702 45536.92661 0.0000101
17.00000 46461.20581 45922.85244 0.0000101
17.01000 46809.45505 46185.19454 0.0000101
17.02000 46729.39192 46293.74117 0.0000101
17.03000 46777.73467 46284.70583 0.0000101
17.04000 46603.42557 46244.46670 0.0000101
17.05000 46742.30291 46246.87534 0.0000101
17.06000 46814.56241 46316.09937 0.0000101
17.07000 46874.01467 46413.29192 0.0000102
17.08000 46918.46869 46456.05796 0.0000102
17.09000 46836.02851 46372.53558 0.0000102
17.10000 46579.04889 46159.06978 0.0000102
17.11000 46183.29703 45871.65886 0.0000103
17.12000 45935.66481 45564.85506 0.0000103
17.13000 45544.12174 45254.90964 0.0000104
17.14000 45240.53579 44934.65483 0.0000104
17.15000 44931.03612 44609.52223 0.0000105
17.16000 44698.89772 44305.15910 0.0000105
17.17000 44553.79662 44051.32214 0.0000105
17.18000 44365.21528 43867.69414 0.0000106
17.19000 44364.33749 43763.08512 0.0000106
17.20000 44249.75844 43740.66810 0.0000106
17.21000 44435.94924 43801.74713 0.0000106
17.22000 44603.62373 43946.61166 0.0000106
17.23000 44857.20268 44174.94072 0.0000106
17.24000 45201.95328 44478.96823 0.0000106
17.25000 45866.05623 44846.89155 0.0000105
17.26000 45999.46785 45242.83598 0.0000105
17.27000 46482.73076 45610.62652 0.0000105
17.28000 46767.33968 45880.32608 0.0000105
17.29000 46917.80048 46001.00550 0.0000105
17.30000 46692.10273 45979.23930 0.0000105
17.31000 46671.90566 45884.32834 0.0000105
17.32000 46337.73566 45807.44285 0.0000106
17.33000 46346.09416 45823.73612 0.0000106
17.34000 46271.42510 45980.02889 0.0000106
17.35000 46647.08901 46298.91003 0.0000106
17.36000 47119.28518 46784.03204 0.0000106
17.37000 47707.47572 47419.95361 0.0000105
17.38000 48571.95471 48158.28026 0.0000105
17.39000 49266.36529 48897.59471 0.0000104
17.40000 49814.23651 49481.92918 0.0000104
17.41000 50083.30452 49770.13788 0.0000103
17.42000 49840.91286 49714.62364 0.0000104
17.43000 49529.63663 49403.01618 0.0000104
17.44000 49202.52567 48992.72937 0.0000105
17.45000 48912.05031 48631.47520 0.0000105
17.46000 48650.54379 48413.31373 0.0000106
17.47000 48628.44854 48370.48280 0.0000106
17.48000 48945.75313 48484.52750 0.0000106
17.49000 49045.39996 48711.17536 0.0000106
17.50000 49462.04408 49012.94504 0.0000106
17.51000 49853.31086 49367.99972 0.0000105
17.52000 50213.97792 49736.21461 0.0000105
17.53000 50553.24259 50026.03907 0.0000105
17.54000 50555.75318 50123.32917 0.0000105
17.55000 50186.28648 49980.16709 0.0000106
17.56000 49891.42863 49667.75140 0.0000106
17.57000 49442.30571 49327.88884 0.0000107
17.58000 49286.48919 49089.84761 0.0000107
17.59000 49216.90104 49032.02583 0.0000108
17.60000 49378.16669 49172.59441 0.0000108
17.61000 49551.72896 49480.85130 0.0000108
17.62000 50216.46250 49894.65975 0.0000107
17.63000 50773.03562 50355.12002 0.0000107
17.64000 51525.68388 50829.14305 0.0000106
17.65000 51979.93174 51276.57606 0.0000106
17.66000 52495.70708 51597.56716 0.0000105
17.67000 52206.91819 51644.50855 0.0000106
17.68000 52033.76354 51325.95438 0.0000106
17.69000 51217.17314 50697.84426 0.0000107
17.70000 50607.30987 49931.19805 0.0000108
17.71000 49732.08893 49195.35150 0.0000109
17.72000 48980.41016 48598.46493 0.0000110
17.73000 48565.17481 48185.87050 0.0000111
17.74000 48365.95183 47958.65361 0.0000111
17.75000 48118.36072 47892.49313 0.0000112
17.76000 48447.15176 47958.73857 0.0000112
17.77000 48632.74332 48141.36957 0.0000112
17.78000 48968.56889 48431.04148 0.0000112
17.79000 49530.65792 48799.37552 0.0000111
17.80000 49957.51696 49175.52962 0.0000111
17.81000 50176.61317 49446.83279 0.0000111
17.82000 50201.08205 49501.58427 0.0000111
17.83000 49985.73950 49299.78150 0.0000111
17.84000 49639.64272 48907.70306 0.0000112
17.85000 49111.48515 48447.87148 0.0000113
17.86000 48608.96027 48024.84609 0.0000113
17.87000 48333.54468 47692.63749 0.0000114
17.88000 48027.99715 47463.46963 0.0000115
17.89000 47839.14106 47330.40657 0.0000115
17.90000 47911.51792 47288.53969 0.0000115
17.91000 47890.19533 47338.84168 0.0000115
17.92000 47948.56786 47474.09903 0.0000115
17.93000 48096.90410 47664.04501 0.0000115
17.94000 48377.56822 47852.78983 0.0000115
17.95000 48478.81708 47982.50969 0.0000115
17.96000 48460.72809 48030.86293 0.0000115
17.97000 48443.28036 48039.67625 0.0000116
17.98000 48269.85890 48089.86232 0.0000116
17.99000 48490.61870 48260.12346 0.0000116
18.00000 48616.86995 48602.69796 0.0000116
18.01000 49238.13728 49141.80489 0.0000115
18.02000 49950.98838 49874.58828 0.0000114
18.03000 50916.50312 50765.61896 0.0000113
18.04000 51939.76686 51726.27610 0.0000112
18.05000 52888.63910 52589.94521 0.0000111
18.06000 53231.99403 53131.41343 0.0000111
18.07000 53243.60309 53167.35974 0.0000111
18.08000 52788.88879 52682.91978 0.0000112
18.09000 52085.30151 51838.27445 0.0000113
18.10000 50930.87698 50854.16626 0.0000114
18.11000 50106.09803 49907.21627 0.0000115
18.12000 49365.36882 49100.50144 0.0000117
18.13000 48796.24022 48472.57367 0.0000117
18.14000 48522.38815 48022.34069 0.0000118
18.15000 48289.77912 47730.37222 0.0000118
18.16000 48273.84599 47567.90937 0.0000119
18.17000 48461.48562 47500.34788 0.0000118
18.18000 48579.24406 47480.80831 0.0000118
18.19000 48460.30137 47454.35196 0.0000119
18.20000 48531.54662 47382.17797 0.0000119
18.21000 48219.35462 47266.45835 0.0000119
18.22000 48019.32689 47144.48919 0.0000120
18.23000 47989.67716 47059.66574 0.0000120
18.24000 47841.00167 47040.24489 0.0000120
18.25000 47879.98590 47091.50744 0.0000120
18.26000 47880.28387 47198.39684 0.0000120
18.27000 47985.78423 47334.07607 0.0000120
18.28000 48185.21362 47476.81129 0.0000120
18.29000 48253.10407 47625.00134 0.0000120
18.30000 48506.12069 47791.07168 0.0000120
18.31000 48635.73599 47978.32807 0.0000120
18.32000 48835.17150 48172.08769 0.0000120
18.33000 48961.97349 48346.57239 0.0000120
18.34000 49093.23052 48490.61609 0.0000120
18.35000 49098.72492 48622.64232 0.0000120
18.36000 49346.76890 48781.96131 0.0000119
18.37000 49468.02884 49000.15171 0.0000119
18.38000 49841.24281 49274.27325 0.0000119
18.39000 50081.54983 49558.64345 0.0000119
18.40000 50381.05196 49785.62073 0.0000118
18.41000 50453.51581 49912.78912 0.0000118
18.42000 50860.27786 49951.73062 0.0000118
18.43000 50848.00887 49941.46319 0.0000118
18.44000 50926.24017 49899.13874 0.0000118
18.45000 50760.89916 49800.77585 0.0000118
18.46000 50731.28004 49606.32689 0.0000118
18.47000 50301.12749 49304.12179 0.0000119
18.48000 49790.05374 48930.00230 0.0000120
18.49000 49328.27734 48554.16656 0.0000121
18.50000 48879.42055 48246.17103 0.0000121
18.51000 48523.44848 48053.91159 0.0000122
18.52000 48387.48187 48002.41300 0.0000122
18.53000 48337.14488 48100.17648 0.0000123
18.54000 48593.45550 48343.55721 0.0000122
18.55000 49001.20665 48714.86805 0.0000122
18.56000 49397.93368 49176.71239 0.0000121
18.57000 49780.37515 49666.78182 0.0000121
18.58000 50189.95996 50108.92122 0.0000120
18.59000 50387.49064 50441.70171 0.0000120
18.60000 50402.04768 50656.90851 0.0000120
18.61000 50625.74010 50807.32215 0.0000120
18.62000 50665.72925 50969.53096 0.0000120
18.63000 50806.82504 51189.99930 0.0000120
18.64000 50858.51358 51460.19275 0.0000120
18.65000 51124.54270 51724.30890 0.0000119
18.66000 51373.31569 51925.94073 0.0000119
18.67000 51633.27674 52046.78736 0.0000119
18.68000 51607.07173 52093.45371 0.0000119
18.69000 51597.46543 52051.28495 0.0000119
18.70000 51393.56610 51878.28886 0.0000119
18.71000 51061.02085 51557.23319 0.0000120
18.72000 50585.39421 51141.73115 0.0000120
18.73000 50220.37820 50734.26860 0.0000121
18.74000 49913.10491 50429.93727 0.0000122
18.75000 49835.64535 50285.00038 0.0000122
18.76000 49828.36766 50311.38419 0.0000122
18.77000 50190.59690 50487.54162 0.0000121
18.78000 50433.45146 50773.94315 0.0000121
18.79000 51048.96423 51129.90810 0.0000120
18.80000 51504.76198 51513.42907 0.0000119
18.81000 51850.70036 51858.44833 0.0000119
18.82000 51996.33504 52066.83191 0.0000119
18.83000 51946.79424 52054.28671 0.0000119
18.84000 51515.11449 51817.67245 0.0000120
18.85000 51025.63401 51445.90828 0.0000120
18.86000 50652.84902 51058.67365 0.0000121
18.87000 50122.90749 50743.14138 0.0000122
18.88000 50002.26852 50528.40524 0.0000122
18.89000 49747.51351 50388.91577 0.0000122
18.90000 49652.97832 50266.94617 0.0000123
18.91000 49441.69783 50111.12561 0.0000123
18.92000 49409.83854 49907.42182 0.0000123
18.93000 49220.86362 49670.06959 0.0000123
18.94000 49057.11854 49408.97696 0.0000124
18.95000 48741.10744 49116.59145 0.0000124
18.96000 48480.27066 48788.80929 0.0000125
18.97000 47986.93386 48445.51080 0.0000125
18.98000 47810.92511 48126.71382 0.0000126
18.99000 47470.21487 47875.09267 0.0000126
19.00000 47433.92132 47721.37473 0.0000126
19.01000 47295.55405 47683.67955 0.0000127
19.02000 47584.47252 47768.84387 0.0000126
19.03000 47728.66357 47974.48647 0.0000126
19.04000 48089.07090 48287.01601 0.0000125
19.05000 48648.34482 48676.15712 0.0000125
19.06000 48998.28278 49088.64373 0.0000124
19.07000 49390.59786 49450.54221 0.0000124
19.08000 49521.42464 49688.25999 0.0000123
19.09000 49652.59067 49763.19840 0.0000123
19.10000 49450.03577 49693.92761 0.0000124
19.11000 49395.59251 49543.43522 0.0000124
19.12000 49026.28606 49378.52319 0.0000124
19.13000 49097.88483 49235.47881 0.0000124
19.14000 48928.46952 49110.04068 0.0000124
19.15000 48807.42765 48978.25213 0.0000125
19.16000 48629.31014 48821.40965 0.0000125
19.17000 48565.82936 48643.68929 0.0000125
19.18000 48197.32376 48458.71500 0.0000126
19.19000 48131.29587 48271.71182 0.0000126
19.20000 47858.29692 48082.75817 0.0000126
19.21000 47760.41330 47903.94579 0.0000126
19.22000 47583.84109 47763.97693 0.0000127
19.23000 47652.10134 47697.70462 0.0000126
19.24000 47556.85418 47733.26986 0.0000127
19.25000 47836.77198 47887.73725 0.0000126
19.26000 48045.71373 48167.92986 0.0000126
19.27000 48545.94594 48571.41037 0.0000125
19.28000 49187.49297 49085.72684 0.0000124
19.29000 49896.70296 49682.79600 0.0000123
19.30000 50610.82866 50307.12831 0.0000122
19.31000 51219.67027 50868.47923 0.0000121
19.32000 51694.35879 51259.86549 0.0000120
19.33000 51743.38936 51399.86540 0.0000120
19.34000 51646.18279 51281.26521 0.0000121
19.35000 51193.87112 50976.68521 0.0000121
19.36000 50956.93864 50595.53742 0.0000122
19.37000 50348.80683 50226.88614 0.0000122
19.38000 50271.28398 49912.68790 0.0000123
19.39000 49980.79682 49653.76759 0.0000123
19.40000 49893.50448 49434.79957 0.0000123
19.41000 49801.66109 49243.45711 0.0000123
19.42000 49599.52752 49068.20272 0.0000124
19.43000 49516.85059 48886.79558 0.0000124
19.44000 49231.10170 48673.21452 0.0000124
19.45000 48712.78444 48420.96602 0.0000125
19.46000 48266.79639 48155.37183 0.0000126
19.47000 47966.36255 47917.79222 0.0000126
19.48000 47783.58930 47742.76504 0.0000126
19.49000 47631.51439 47645.65836 0.0000127
19.50000 47477.91906 47623.03741 0.0000127
19.51000 47475.08242 47658.40829 0.0000127
19.52000 47733.59829 47730.62942 0.0000127
19.53000 47983.88723 47817.61488 0.0000126
19.54000 48088.57553 47892.07117 0.0000126
19.55000 48159.30937 47915.79011 0.0000126
19.56000 48159.18178 47851.35931 0.0000126
19.57000 47967.44663 47687.83820 0.0000126
19.58000 47657.80840 47451.94897 0.0000127
19.59000 47500.54395 47190.53133 0.0000127
19.60000 46953.69824 46944.56129 0.0000128
19.61000 46942.68269 46736.35954 0.0000128
19.62000 46562.68437 46570.20777 0.0000129
19.63000 46573.80357 46438.96784 0.0000128
19.64000 46346.67468 46334.41051 0.0000129
19.65000 46380.90979 46251.18625 0.0000129
19.66000 46139.89545 46190.31133 0.0000129
19.67000 46200.45086 46150.89572 0.0000129
19.68000 46043.97320 46132.51542 0.0000129
19.69000 46091.56734 46138.72533 0.0000129
19.70000 45936.89601 46179.32054 0.0000130
19.71000 46132.17972 46266.85406 0.0000129
19.72000 46277.95104 46411.86062 0.0000129
19.73000 46370.23246 46618.99550 0.0000129
19.74000 46609.65644 46886.06665 0.0000128
19.75000 46837.59314 47204.68212 0.0000128
19.76000 47289.33904 47562.64037 0.0000127
19.77000 47607.94948 47942.47494 0.0000127
19.78000 48053.64265 48314.36863 0.0000126
19.79000 48286.33141 48633.02597 0.0000126
19.80000 48314.31046 48853.80308 0.0000126
19.81000 48374.68308 48958.82991 0.0000126
19.82000 48445.10023 48975.11143 0.0000125
19.83000 48163.13383 48961.58501 0.0000126
19.84000 48147.91607 48979.26479 0.0000126
19.85000 48155.97549 49066.71286 0.0000126
19.86000 48376.11192 49231.84717 0.0000126
19.87000 48326.16484 49460.37744 0.0000126
19.88000 48841.20352 49730.16204 0.0000125
19.89000 49203.52431 50016.28250 0.0000124
19.90000 49415.51864 50279.34046 0.0000124
19.91000 49683.74270 50456.02654 0.0000124
19.92000 49674.19497 50478.92562 0.0000124
19.93000 49631.38236 50317.02733 0.0000124
19.94000 49261.87827 50000.70542 0.0000124
19.95000 48892.25029 49606.53295 0.0000125
19.96000 48447.76653 49220.17173 0.0000125
19.97000 48315.03951 48900.97980 0.0000126
19.98000 47916.45521 48676.37769 0.0000126
19.99000 47970.34954 48548.42096 0.0000126
20.00000 47930.18212 48506.67538 0.0000126
20.01000 48042.68957 48532.02668 0.0000126
20.02000 48047.67967 48591.71463 0.0000126
20.03000 48068.07764 48638.54289 0.0000126
20.04000 48031.92774 48626.14459 0.0000126
20.05000 48086.51456 48532.08289 0.0000126
20.06000 47709.46632 48375.80398 0.0000127
20.07000 47739.74534 48201.29140 0.0000127
20.08000 47437.58896 48055.33602 0.0000127
20.09000 47397.44529 47965.85308 0.0000127
20.10000 47386.32451 47936.99901 0.0000127
20.11000 47442.79280 47955.70105 0.0000127
20.12000 47458.69936 47999.43078 0.0000127
20.13000 47520.54795 48033.53311 0.0000127
20.14000 47525.02231 48010.19909 0.0000127
20.15000 47302.28990 47881.27144 0.0000127
20.16000 47099.43503 47628.80438 0.0000128
20.17000 46640.36797 47280.74485 0.0000128
20.18000 46417.89575 46892.94436 0.0000129
20.19000 45916.43790 46519.72718 0.0000130
20.20000 45764.09425 46197.64305 0.0000130
20.21000 45539.71400 45944.99990 0.0000130
20.22000 45406.83763 45766.98816 0.0000130
20.23000 45372.40011 45659.67392 0.0000130
20.24000 45519.20720 45611.57492 0.0000130
20.25000 45559.32812 45603.53162 0.0000130
20.26000 45597.26531 45608.99999 0.0000130
20.27000 45676.13053 45599.24814 0.0000130
20.28000 45648.19024 45552.75198 0.0000130
20.29000 45621.63645 45465.69388 0.0000130
20.30000 45357.49019 45351.59994 0.0000130
20.31000 45304.55147 45233.78691 0.0000131
20.32000 45063.62097 45132.38643 0.0000131
20.33000 45024.01538 45060.28692 0.0000131
20.34000 44943.32554 45023.17365 0.0000131
20.35000 44917.19877 45021.75912 0.0000131
20.36000 44925.34700 45052.56077 0.0000131
20.37000 45053.93204 45106.65935 0.0000131
20.38000 45061.41165 45171.82282 0.0000131
20.39000 45154.17846 45233.38933 0.0000131
20.40000 45171.73453 45283.60968 0.0000131
20.41000 44996.26581 45326.46383 0.0000131
20.42000 45049.39720 45374.82237 0.0000131
20.43000 45076.47663 45442.09663 0.0000131
20.44000 45258.91448 45535.74898 0.0000131
20.45000 45237.93853 45656.12051 0.0000131
20.46000 45422.26183 45802.22352 0.0000130
20.47000 45352.72084 45975.32157 0.0000131
20.48000 45741.62472 46176.17051 0.0000130
20.49000 45679.40964 46399.18863 0.0000130
20.50000 45987.70029 46632.03282 0.0000129
20.51000 46368.72931 46864.27681 0.0000129
20.52000 46583.72125 47096.27799 0.0000128
20.53000 46828.31715 47337.89228 0.0000128
20.54000 47367.68849 47593.84795 0.0000127
20.55000 47741.76748 47847.62815 0.0000127
20.56000 48151.55023 48059.33356 0.0000126
20.57000 48393.40700 48183.63987 0.0000126
20.58000 48633.82395 48195.20417 0.0000125
20.59000 48401.56484 48093.93567 0.0000126
20.60000 48249.32555 47887.79559 0.0000126
20.61000 47933.32832 47580.32554 0.0000126
20.62000 47407.11658 47183.95017 0.0000127
20.63000 46790.29502 46731.76297 0.0000128
20.64000 46176.64914 46272.28594 0.0000129
20.65000 45801.69517 45849.57156 0.0000130
20.66000 45357.59903 45492.47524 0.0000131
20.67000 44974.01579 45213.84384 0.0000131
20.68000 44694.10416 45014.76463 0.0000132
20.69000 44740.51672 44888.17410 0.0000132
20.70000 44724.20175 44820.18431 0.0000132
20.71000 44688.89688 44790.65230 0.0000132
20.72000 44591.28870 44775.35871 0.0000132
20.73000 44693.99296 44751.84007 0.0000132
20.74000 44529.85220 44707.15170 0.0000132
20.75000 44549.26065 44645.46385 0.0000132
20.76000 44332.75761 44579.96324 0.0000133
20.77000 44259.32677 44528.02875 0.0000133
20.78000 44296.26279 44501.43608 0.0000133
20.79000 44149.60508 44504.61702 0.0000133
20.80000 44333.61637 44535.13818 0.0000133
20.81000 44345.06186 44584.57734 0.0000133
20.82000 44525.55322 44638.01206 0.0000132
20.83000 44411.67673 44674.39506 0.0000133
20.84000 44497.76461 44672.26413 0.0000132
20.85000 44332.48541 44621.61604 0.0000133
20.86000 44394.26232 44529.08373 0.0000133
20.87000 44222.62909 44415.96285 0.0000133
20.88000 44038.74980 44307.53428 0.0000133
20.89000 43879.31488 44224.03045 0.0000134
20.90000 43772.69792 44176.38484 0.0000134
20.91000 43831.56366 44168.76329 0.0000134
20.92000 43806.76985 44194.35598 0.0000134
20.93000 43850.14188 44238.27228 0.0000134
20.94000 43787.51834 44277.89000 0.0000134
20.95000 44111.47115 44289.03657 0.0000133
20.96000 43931.57375 44256.49380 0.0000134
20.97000 43904.09084 44181.63537 0.0000134
20.98000 43738.36743 44080.71126 0.0000134
20.99000 43692.99924 43974.73319 0.0000134
21.00000 43509.66416 43882.14447 0.0000134
21.01000 43631.53391 43812.69677 0.0000134
21.02000 43609.32041 43769.61390 0.0000134
21.03000 43709.21269 43750.86049 0.0000134
21.04000 43807.49546 43750.11072 0.0000134
21.05000 43837.66469 43756.74196 0.0000134
21.06000 43839.52167 43762.82254 0.0000134
21.07000 43886.11674 43762.89608 0.0000134
21.08000 43976.37983 43762.23825 0.0000134
21.09000 43773.01857 43773.64172 0.0000134
21.10000 43893.71718 43811.13242 0.0000134
21.11000 43727.85307 43885.17273 0.0000134
21.12000 44053.94576 44000.76968 0.0000134
21.13000 43977.03459 44158.50920 0.0000134
21.14000 44306.89133 44354.89976 0.0000133
21.15000 44335.43310 44581.57869 0.0000133
21.16000 44659.23028 44824.11502 0.0000133
21.17000 44862.78642 45062.75739 0.0000132
21.18000 45023.14339 45280.52475 0.0000132
21.19000 45281.94351 45472.73565 0.0000132
21.20000 45275.25744 45648.92683 0.0000132
21.21000 45505.09941 45823.29214 0.0000131
21.22000 45560.56119 45998.50132 0.0000131
21.23000 45798.34100 46160.25342 0.0000131
21.24000 45903.00787 46278.88200 0.0000131
21.25000 46024.66514 46328.87066 0.0000131
21.26000 45962.08701 46300.59087 0.0000131
21.27000 46169.26969 46195.47777 0.0000130
21.28000 45816.57777 46015.36112 0.0000131
21.29000 45579.34892 45762.98091 0.0000131
21.30000 45313.32702 45452.79327 0.0000132
21.31000 45051.97381 45114.58886 0.0000132
21.32000 44672.98401 44783.30313 0.0000133
21.33000 44401.93456 44486.85111 0.0000134
21.34000 44280.31922 44240.02004 0.0000134
21.35000 44092.30768 44045.50801 0.0000134
21.36000 44097.10116 43897.75314 0.0000134
21.37000 43946.05044 43785.31165 0.0000135
21.38000 44011.49022 43693.61235 0.0000134
21.39000 43790.83078 43604.45806 0.0000135
21.40000 43799.92858 43503.03026 0.0000135
21.41000 43511.75296 43383.84911 0.0000136
21.42000 43668.42270 43252.13756 0.0000135
21.43000 43342.58136 43118.87465 0.0000136
21.44000 43336.82838 42994.52438 0.0000136
21.45000 43267.95849 42885.63138 0.0000136
21.46000 43098.30131 42794.93146 0.0000136
21.47000 43105.34559 42723.78308 0.0000136
21.48000 42894.37483 42674.38488 0.0000137
21.49000 43077.86415 42650.07191 0.0000137
21.50000 42878.11715 42653.84640 0.0000137
21.51000 43048.32762 42692.56208 0.0000137
21.52000 42923.28966 42769.19664 0.0000137
21.53000 43213.73968 42888.12434 0.0000136
21.54000 43326.63510 43052.04341 0.0000136
21.55000 43490.74908 43261.38560 0.0000136
21.56000 43739.22260 43512.79969 0.0000136
21.57000 43972.70734 43797.73443 0.0000135
21.58000 44443.17593 44100.54842 0.0000134
21.59000 44727.42619 44395.91426 0.0000134
21.60000 45013.45402 44647.34144 0.0000133
21.61000 45068.43928 44812.75215 0.0000133
21.62000 45226.21447 44861.59929 0.0000133
21.63000 44885.82983 44792.15459 0.0000134
21.64000 44862.38520 44633.28754 0.0000134
21.65000 44495.41555 44428.37774 0.0000135
21.66000 44351.38161 44217.29190 0.0000135
21.67000 44089.46669 44024.39977 0.0000135
21.68000 43990.20290 43860.00484 0.0000136
21.69000 43734.57257 43725.40920 0.0000136
21.70000 43811.39233 43617.49755 0.0000136
21.71000 43618.00513 43529.85154 0.0000136
21.72000 43608.65092 43454.00318 0.0000137
21.73000 43478.75790 43383.56221 0.0000137
21.74000 43346.62971 43318.65757 0.0000137
21.75000 43487.04755 43266.94420 0.0000137
21.76000 43396.81519 43237.66703 0.0000137
21.77000 43565.28810 43236.91853 0.0000137
21.78000 43536.06205 43264.77744 0.0000137
21.79000 43880.92490 43315.81712 0.0000136
21.80000 43815.54984 43381.50880 0.0000137
21.81000 43913.37480 43451.08391 0.0000136
21.82000 44078.89675 43509.78021 0.0000136
21.83000 44054.87366 43542.14246 0.0000136
21.84000 44039.62023 43537.56399 0.0000136
21.85000 43891.80500 43497.44746 0.0000137
21.86000 43887.35305 43433.61023 0.0000137
21.87000 43636.71074 43359.90558 0.0000137
21.88000 43772.08254 43283.84778 0.0000137
21.89000 43375.58432 43203.71252 0.0000138
21.90000 43596.68288 43115.00317 0.0000137
21.91000 43272.10747 43014.35182 0.0000138
21.92000 43317.22634 42904.56782 0.0000138
21.93000 43140.58953 42791.70828 0.0000138
21.94000 42947.03189 42682.31151 0.0000139
21.95000 42775.18580 42583.58999 0.0000139
21.96000 42690.28863 42504.68602 0.0000139
21.97000 42580.23270 42455.56948 0.0000140
21.98000 42601.52101 42443.58090 0.0000140
21.99000 42750.63457 42473.09574 0.0000139
22.00000 42552.56418 42544.60967 0.0000140
22.01000 42890.28100 42654.18212 0.0000139
22.02000 43029.60857 42792.28613 0.0000139
22.03000 43279.25534 42942.10255 0.0000138
22.04000 43181.92618 43079.12832 0.0000139
22.05000 43442.76195 43175.38724 0.0000138
22.06000 43370.99312 43209.46974 0.0000139
22.07000 43363.49667 43177.52436 0.0000139
22.08000 43167.41866 43095.07355 0.0000139
22.09000 42996.03276 42987.69255 0.0000139
22.10000 42918.40484 42879.25064 0.0000140
22.11000 42747.95341 42783.97066 0.0000140
22.12000 42777.70142 42708.38297 0.0000140
22.13000 42629.62967 42650.40072 0.0000140
22.14000 42610.15499 42602.89032 0.0000140
22.15000 42573.70160 42556.21404 0.0000141
22.16000 42614.68989 42502.99308 0.0000141
22.17000 42547.10830 42442.44410 0.0000141
22.18000 42456.44507 42379.33176 0.0000141
22.19000 42340.75891 42321.38733 0.0000141
22.20000 42445.60779 42271.47312 0.0000141
22.21000 42521.40815 42228.52129 0.0000141
22.22000 42302.37410 42189.29377 0.0000141
22.23000 42415.42604 42151.97518 0.0000141
22.24000 42260.64301 42117.27154 0.0000142
22.25000 42402.12236 42089.47747 0.0000141
22.26000 42320.69872 42070.59690 0.0000142
22.27000 42330.88079 42062.69852 0.0000142
22.28000 42341.26416 42067.88836 0.0000142
22.29000 42410.46803 42087.86916 0.0000142
22.30000 42449.45767 42122.24806 0.0000142
22.31000 42511.19988 42167.00163 0.0000141
22.32000 42570.78227 42215.36818 0.0000141
22.33000 42579.21758 42260.24160 0.0000141
22.34000 42701.60292 42297.59475 0.0000141
22.35000 42571.24391 42325.17685 0.0000142
22.36000 42720.25628 42342.44590 0.0000141
22.37000 42582.57853 42351.12474 0.0000142
22.38000 42670.35139 42356.41501 0.0000142
22.39000 42653.11136 42369.00825 0.0000142
22.40000 42783.88478 42396.15851 0.0000141
22.41000 42692.04497 42441.00743 0.0000142
22.42000 42714.47554 42500.57024 0.0000142
22.43000 42893.99010 42568.11206 0.0000141
22.44000 42873.64543 42636.50627 0.0000142
22.45000 42964.51557 42699.50850 0.0000141
22.46000 42943.76765 42750.85401 0.0000142
22.47000 43064.45637 42783.76760 0.0000141
22.48000 42926.18332 42796.41927 0.0000142
22.49000 42987.88984 42793.86868 0.0000141
22.50000 42856.77550 42789.66226 0.0000142
22.51000 43011.38347 42800.15419 0.0000142
22.52000 42943.19944 42837.59299 0.0000142
22.53000 43003.90814 42907.16283 0.0000142
22.54000 43217.42304 43003.40474 0.0000141
22.55000 43292.60299 43110.87890 0.0000141
22.56000 43468.59414 43204.74883 0.0000141
22.57000 43295.80171 43257.01437 0.0000141
22.58000 43438.22855 43248.10858 0.0000141
22.59000 43195.05730 43177.65747 0.0000142
22.60000 43217.86812 43065.28798 0.0000142
22.61000 43057.30198 42940.62848 0.0000142
22.62000 43016.86433 42831.58890 0.0000142
22.63000 42863.09394 42757.64859 0.0000143
22.64000 42838.23505 42728.44618 0.0000143
22.65000 42991.92444 42744.25589 0.0000142
22.66000 43037.23574 42796.63412 0.0000142
22.67000 43162.72433 42869.79226 0.0000142
22.68000 43103.01297 42945.02704 0.0000142
22.69000 43395.80128 43007.15622 0.0000142
22.70000 43192.07820 43049.01673 0.0000142
22.71000 43346.81398 43072.56081 0.0000142
22.72000 43310.42066 43082.02630 0.0000142
22.73000 43329.33927 43076.97989 0.0000142
22.74000 43250.53329 43051.26582 0.0000142
22.75000 43018.11267 42998.09496 0.0000143
22.76000 43126.91876 42915.13132 0.0000143
22.77000 42912.70969 42806.07961 0.0000143
22.78000 42803.59066 42676.40313 0.0000143
22.79000 42569.64999 42534.13895 0.0000144
22.80000 42456.33086 42390.64779 0.0000144
22.81000 42341.27540 42259.44565 0.0000145
22.82000 42180.67189 42153.36572 0.0000145
22.83000 42172.79514 42080.30774 0.0000145
22.84000 42080.94221 42043.08368 0.0000145
22.85000 42210.19109 42039.65469 0.0000145
22.86000 42307.83516 42063.77979 0.0000145
22.87000 42280.26772 42105.20521 0.0000145
22.88000 42324.41978 42150.95407 0.0000145
22.89000 42317.16541 42188.64161 0.0000145
22.90000 42343.83920 42211.25494 0.0000145
22.91000 42397.67511 42220.06978 0.0000145
22.92000 42237.76680 42222.35726 0.0000145
22.93000 42241.84869 42226.18692 0.0000145
22.94000 42250.28503 42235.85092 0.0000145
22.95000 42207.10824 42250.76339 0.0000145
22.96000 42227.18712 42268.62721 0.0000146
22.97000 42305.50628 42283.91223 0.0000145
22.98000 42384.01000 42290.95438 0.0000145
22.99000 42054.50780 42280.65166 0.0000146
23.00000 42209.78519 42246.18334 0.0000146
23.01000 42016.21273 42187.44962 0.0000146
23.02000 42006.21525 42112.64897 0.0000146
23.03000 41896.34754 42034.75963 0.0000147
23.04000 41849.71977 41965.51346 0.0000147
23.05000 41794.25946 41912.63174 0.0000147
23.06000 41682.47609 41877.81932 0.0000147
23.07000 41701.70945 41858.48454 0.0000147
23.08000 41702.28782 41848.66595 0.0000147
23.09000 41762.41374 41840.92393 0.0000147
23.10000 41561.67996 41831.20465 0.0000148
23.11000 41656.37094 41819.82118 0.0000147
23.12000 41597.82411 41812.46944 0.0000148
23.13000 41582.54527 41816.45624 0.0000148
23.14000 41712.80140 41836.65916 0.0000147
23.15000 41760.86373 41872.97722 0.0000147
23.16000 41851.19860 41919.36410 0.0000147
23.17000 41822.99113 41964.08207 0.0000147
23.18000 41903.11988 41990.78111 0.0000147
23.19000 41742.48698 41983.22741 0.0000148
23.20000 41913.80544 41931.87452 0.0000147
23.21000 41707.28052 41839.84437 0.0000148
23.22000 41653.25851 41721.47753 0.0000148
23.23000 41492.68777 41595.00451 0.0000148
23.24000 41407.35424 41477.35203 0.0000149
23.25000 41256.45065 41379.23687 0.0000149
23.26000 41181.38428 41306.80295 0.0000149
23.27000 41276.66787 41262.38183 0.0000149
23.28000 41096.60541 41245.53562 0.0000149
23.29000 41317.90827 41253.89679 0.0000149
23.30000 41098.32221 41284.16071 0.0000150
23.31000 41380.36860 41333.06896 0.0000149
23.32000 41355.55232 41398.14091 0.0000149
23.33000 41486.39151 41476.42052 0.0000149
23.34000 41526.36136 41563.32988 0.0000149
23.35000 41764.67927 41652.00461 0.0000148
23.36000 41799.61228 41734.55573 0.0000148
23.37000 41815.88318 41804.14211 0.0000148
23.38000 41895.15271 41856.25860 0.0000148
23.39000 41900.09101 41888.29960 0.0000148
23.40000 41925.30962 41900.73707 0.0000148
23.41000 41788.05926 41898.83514 0.0000148
23.42000 41705.62607 41892.20813 0.0000149
23.43000 41805.50187 41891.01630 0.0000148
23.44000 41641.38995 41901.61626 0.0000149
23.45000 41732.24445 41924.70322 0.0000149
23.46000 41770.87954 41956.86571 0.0000149
23.47000 41934.27004 41992.57913 0.0000148
23.48000 41786.94234 42025.47045 0.0000149
23.49000 41980.39127 42047.38435 0.0000148
23.50000 41895.19709 42048.09301 0.0000148
23.51000 41926.00720 42020.04408 0.0000148
23.52000 41812.52154 41961.06800 0.0000149
23.53000 41771.25620 41878.01352 0.0000149
23.54000 41764.74513 41781.74280 0.0000149
23.55000 41635.05353 41682.59762 0.0000149
23.56000 41538.09287 41587.74468 0.0000149
23.57000 41430.04579 41502.03482 0.0000150
23.58000 41363.60404 41429.66556 0.0000150
23.59000 41276.72168 41374.61003 0.0000150
23.60000 41296.70958 41341.33222 0.0000150
23.61000 41299.63884 41333.73466 0.0000150
23.62000 41254.17813 41355.99890 0.0000150
23.63000 41270.82814 41411.70715 0.0000150
23.64000 41368.52382 41502.28026 0.0000150
23.65000 41606.68293 41627.44388 0.0000149
23.66000 41699.19222 41781.11246 0.0000149
23.67000 41852.79134 41953.09036 0.0000149
23.68000 41972.01768 42126.37787 0.0000149
23.69000 42288.58333 42281.00561 0.0000148
23.70000 42388.04514 42400.16959 0.0000148
23.71000 42437.45268 42477.61494 0.0000148
23.72000 42559.99986 42519.81549 0.0000147
23.73000 42464.34732 42540.29649 0.0000148
23.74000 42511.57649 42551.25937 0.0000148
23.75000 42442.18497 42557.49182 0.0000148
23.76000 42526.38322 42557.05551 0.0000148
23.77000 42569.35099 42544.86478 0.0000148
23.78000 42586.16720 42515.38917 0.0000147
23.79000 42516.60874 42464.03206 0.0000148
23.80000 42381.97881 42388.13634 0.0000148
23.81000 42242.81915 42289.46749 0.0000148
23.82000 42269.23537 42177.18788 0.0000148
23.83000 42015.89498 42065.55279 0.0000149
23.84000 41783.85446 41968.80446 0.0000149
23.85000 41814.34136 41896.49464 0.0000149
23.86000 41640.87583 41851.04743 0.0000150
23.87000 41835.32219 41827.87968 0.0000149
23.88000 41693.64657 41815.76568 0.0000150
23.89000 41780.51597 41800.16078 0.0000149
23.90000 41719.93402 41768.15951 0.0000150
23.91000 41700.26882 41713.16133 0.0000150
23.92000 41687.01791 41638.00575 0.0000150
23.93000 41368.83762 41548.49279 0.0000150
23.94000 41417.61689 41449.89510 0.0000150
23.95000 41170.00923 41343.93670 0.0000151
23.96000 41076.23678 41230.34701 0.0000151
23.97000 41037.11343 41110.38150 0.0000151
23.98000 40829.31175 40988.81362 0.0000152
23.99000 40886.10888 40872.90965 0.0000151
24.00000 40730.99091 40770.00110 0.0000152
24.01000 40727.44744 40685.79857 0.0000152
24.02000 40464.74932 40623.99524 0.0000153
24.03000 40610.48674 40586.52313 0.0000152
24.04000 40470.16043 40573.88980 0.0000153
24.05000 40569.32732 40585.28321 0.0000152
24.06000 40610.81290 40618.60605 0.0000152
24.07000 40608.35983 40670.33041 0.0000152
24.08000 40766.41847 40734.58128 0.0000152
24.09000 40701.08428 40803.85328 0.0000152
24.10000 40842.11642 40870.31636 0.0000152
24.11000 40731.74596 40928.35027 0.0000152
24.12000 40902.14458 40976.51622 0.0000152
24.13000 40841.34501 41017.03141 0.0000152
24.14000 40887.69842 41053.05803 0.0000152
24.15000 40971.35901 41085.95509 0.0000151
24.16000 40988.46844 41114.45691 0.0000151
24.17000 41007.63571 41135.11816 0.0000151
24.18000 40810.75705 41142.98016 0.0000152
24.19000 40941.59246 41132.89183 0.0000151
24.20000 40875.84378 41101.70491 0.0000152
24.21000 40892.42621 41051.58412 0.0000151
24.22000 40840.53964 40989.89673 0.0000152
24.23000 40665.05701 40927.18618 0.0000152
24.24000 40575.68091 40873.34348 0.0000152
24.25000 40653.47413 40834.86664 0.0000152
24.26000 40606.07317 40813.67094 0.0000152
24.27000 40529.39214 40807.64706 0.0000152
24.28000 40635.56829 40811.43385 0.0000152
24.29000 40507.53256 40819.15926 0.0000152
24.30000 40592.42133 40826.97300 0.0000152
24.31000 40627.95237 40833.96113 0.0000152
24.32000 40485.93854 40840.85435 0.0000152
24.33000 40675.56258 40846.70060 0.0000152
24.34000 40582.04009 40848.53355 0.0000152
24.35000 40612.81290 40841.72745 0.0000152
24.36000 40660.87268 40823.58401 0.0000152
24.37000 40578.55953 40795.16627 0.0000152
24.38000 40524.10238 40760.90201 0.0000152
24.39000 40386.43767 40726.91209 0.0000152
24.40000 40410.45347 40699.29512 0.0000152
24.41000 40410.40779 40685.07761 0.0000152
24.42000 40417.99338 40688.65684 0.0000152
24.43000 40425.22457 40712.51729 0.0000152
24.44000 40483.71586 40756.11661 0.0000152
24.45000 40523.97062 40815.27830 0.0000152
24.46000 40600.63590 40883.60835 0.0000152
24.47000 40685.85059 40950.48660 0.0000152
24.48000 40684.06634 41003.80384 0.0000152
24.49000 40782.13833 41032.76183 0.0000151
24.50000 40756.18609 41032.03356 0.0000151
24.51000 40831.57024 41004.04471 0.0000151
24.52000 40727.78292 40957.32026 0.0000151
24.53000 40656.41829 40902.18211 0.0000152
24.54000 40629.60766 40847.04953 0.0000152
24.55000 40697.09188 40797.17243 0.0000151
24.56000 40700.46323 40755.12820 0.0000151
24.57000 40588.09370 40721.65197 0.0000152
24.58000 40634.97555 40696.37869 0.0000151
24.59000 40521.64303 40679.30702 0.0000152
24.60000 40579.32677 40671.30150 0.0000152
24.61000 40542.94754 40674.82217 0.0000152
24.62000 40570.52347 40691.97633 0.0000151
24.63000 40683.59546 40723.09016 0.0000151
24.64000 40738.63180 40765.36343 0.0000151
24.65000 40750.01266 40812.46404 0.0000151
24.66000 40754.04137 40854.88394 0.0000151
24.67000 40968.21140 40881.62920 0.0000150
24.68000 40855.59349 40883.38828 0.0000151
24.69000 40933.16762 40856.68282 0.0000150
24.70000 40830.42693 40805.77471 0.0000151
24.71000 40752.92528 40740.58038 0.0000151
24.72000 40610.61568 40672.90838 0.0000151
24.73000 40549.32543 40611.67392 0.0000151
24.74000 40529.73385 40562.07025 0.0000151
24.75000 40481.42334 40524.97749 0.0000151
24.76000 40403.78116 40498.31629 0.0000151
24.77000 40329.45531 40478.64919 0.0000152
24.78000 40385.38835 40463.17552 0.0000151
24.79000 40293.48981 40450.97270 0.0000152
24.80000 40275.15394 40442.44219 0.0000152
24.81000 40284.02789 40437.43848 0.0000152
24.82000 40370.40229 40433.86090 0.0000151
24.83000 40225.89375 40428.02916 0.0000152
24.84000 40292.67534 40416.37273 0.0000151
24.85000 40381.14055 40397.68088 0.0000151
24.86000 40369.06932 40372.34340 0.0000151
24.87000 40388.39766 40342.38696 0.0000151
24.88000 40344.11505 40310.39849 0.0000151
24.89000 40252.08638 40279.60753 0.0000151
24.90000 40307.49641 40253.31938 0.0000151
24.91000 40384.83847 40233.89351 0.0000151
24.92000 40305.80502 40221.88701 0.0000151
24.93000 40303.97412 40216.05393 0.0000151
24.94000 40304.18707 40213.77692 0.0000151
24.95000 40356.11123 40211.70919 0.0000151
24.96000 40269.56351 40206.37792 0.0000151
24.97000 40368.85974 40195.21004 0.0000151
24.98000 40313.85320 40178.42847 0.0000151
24.99000 40313.19460 40159.03473 0.0000151
25.00000 40212.61877 40142.22944 0.0000151
25.01000 40116.96061 40133.21521 0.0000151
25.02000 40219.42230 40135.25138 0.0000151
25.03000 40179.86486 40148.50976 0.0000151
25.04000 40280.38425 40169.71859 0.0000151
25.05000 40184.94319 40192.57159 0.0000151
25.06000 40311.29646 40209.39463 0.0000151
25.07000 40287.55561 40213.73285 0.0000151
25.08000 40329.47067 40203.28070 0.0000151
25.09000 40218.94425 40180.83814 0.0000151
25.10000 40180.62819 40152.49561 0.0000151
25.11000 40177.59609 40125.27061 0.0000151
25.12000 40118.25131 40103.82056 0.0000151
25.13000 40275.50351 40090.70322 0.0000151
25.14000 40281.83326 40085.97617 0.0000150
25.15000 40177.20495 40088.78004 0.0000151
25.16000 40236.79926 40098.69053 0.0000150
25.17000 40163.98337 40116.68119 0.0000151
25.18000 40298.90766 40144.43893 0.0000150
25.19000 40178.91474 40184.19782 0.0000151
25.20000 40425.30209 40235.06689 0.0000150
25.21000 40441.97257 40293.36767 0.0000150
25.22000 40480.89610 40352.06232 0.0000150
25.23000 40492.96931 40401.04047 0.0000150
25.24000 40480.68338 40429.98393 0.0000150
25.25000 40484.80661 40430.03745 0.0000150
25.26000 40291.06847 40398.78550 0.0000150
25.27000 40455.75376 40340.99854 0.0000150
25.28000 40146.87213 40266.54943 0.0000150
25.29000 40122.19911 40186.18539 0.0000150
25.30000 40142.34135 40108.23842 0.0000150
25.31000 39939.53566 40037.34863 0.0000151
25.32000 39967.77981 39974.86993 0.0000151
25.33000 39863.26093 39919.66330 0.0000151
25.34000 39876.94532 39869.55621 0.0000151
25.35000 39842.28931 39822.83459 0.0000151
25.36000 39861.27660 39779.27440 0.0000151
25.37000 39769.47657 39740.69214 0.0000151
25.38000 39856.26099 39709.29097 0.0000151
25.39000 39721.96511 39687.08127 0.0000151
25.40000 39665.52716 39674.89709 0.0000151
25.41000 39733.67968 39672.44532 0.0000151
25.42000 39679.57950 39678.51146 0.0000151
25.43000 39636.67575 39691.32077 0.0000151
25.44000 39692.51541 39708.99751 0.0000151
25.45000 39690.81202 39730.11041 0.0000151
25.46000 39857.25430 39753.53064 0.0000150
25.47000 39817.39233 39777.97231 0.0000151
25.48000 39844.42487 39801.38244 0.0000150
25.49000 39855.42238 39821.08086 0.0000150
25.50000 39965.53484 39834.78356 0.0000150
25.51000 39932.40093 39841.64040 0.0000150
25.52000 40020.22803 39842.58870 0.0000150
25.53000 39988.76051 39840.00768 0.0000150
25.54000 39845.63969 39837.25933 0.0000150
25.55000 39852.84425 39838.15225 0.0000150
25.56000 39935.86705 39846.08944 0.0000150
25.57000 39891.86159 39863.09340 0.0000150
25.58000 39925.43374 39889.40504 0.0000150
25.59000 40063.16595 39923.36027 0.0000150
25.60000 40121.23856 39961.83192 0.0000149
25.61000 40215.97784 40000.14401 0.0000149
25.62000 40121.96235 40033.92549 0.0000149
25.63000 40213.43214 40058.10597 0.0000149
25.64000 40308.84163 40070.29644 0.0000149
25.65000 40309.15597 40070.55251 0.0000149
25.66000 40327.06523 40060.99837 0.0000149
25.67000 40352.70485 40044.04012 0.0000149
25.68000 40319.25368 40021.33136 0.0000149
25.69000 40249.15985 39993.84631 0.0000149
25.70000 40206.81943 39962.73269 0.0000149
25.71000 40224.95887 39929.33773 0.0000149
25.72000 40104.82981 39895.72813 0.0000149
25.73000 40117.69772 39864.84204 0.0000149
25.74000 40111.35107 39840.15896 0.0000149
25.75000 39991.64228 39825.20739 0.0000150
25.76000 40194.38701 39821.75428 0.0000149
25.77000 40200.55169 39829.41641 0.0000149
25.78000 40163.63110 39844.95641 0.0000149
25.79000 40164.03309 39862.73414 0.0000149
25.80000 40216.64479 39875.97671 0.0000149
25.81000 40265.08963 39878.96980 0.0000149
25.82000 40154.81170 39869.04562 0.0000149
25.83000 40145.88969 39847.25875 0.0000149
25.84000 40136.00555 39816.57921 0.0000149
25.85000 40054.19301 39780.09997 0.0000149
25.86000 40069.76577 39739.99032 0.0000149
25.87000 39922.29327 39697.76843 0.0000150
25.88000 39910.24024 39655.74011 0.0000150
25.89000 39774.15797 39616.78489 0.0000150
25.90000 39669.92184 39584.13005 0.0000150
25.91000 39615.73912 39560.85709 0.0000150
25.92000 39590.25761 39549.36340 0.0000150
25.93000 39635.74694 39551.07439 0.0000150
25.94000 39669.28836 39566.11503 0.0000150
25.95000 39680.02912 39593.66620 0.0000150
25.96000 39678.30577 39631.14801 0.0000150
25.97000 39750.82206 39674.79255 0.0000150
25.98000 39623.03466 39719.91625 0.0000150
25.99000 39726.23245 39761.85493 0.0000150
26.00000 39853.35961 39797.18260 0.0000150
26.01000 39744.42205 39824.80555 0.0000150
26.02000 39855.84300 39845.21800 0.0000150
26.03000 39803.95250 39859.46798 0.0000150
26.04000 39863.19023 39867.96281 0.0000150
26.05000 39963.64048 39870.32591 0.0000149
26.06000 39833.84304 39866.01911 0.0000150
26.07000 39802.03336 39854.93154 0.0000150
26.08000 39824.47427 39837.60325 0.0000150
26.09000 39938.39678 39815.35347 0.0000149
26.10000 39853.86703 39790.43096 0.0000150
26.11000 39808.31196 39765.78748 0.0000150
26.12000 39908.23789 39744.26840 0.0000149
26.13000 39836.65420 39727.87816 0.0000150
26.14000 39910.41556 39716.82636 0.0000149
26.15000 39845.76033 39710.67456 0.0000150
26.16000 39981.87746 39707.16619 0.0000149
26.17000 39909.18003 39703.71052 0.0000149
26.18000 39915.38843 39698.00097 0.0000149
26.19000 39937.54482 39689.03593 0.0000149
26.20000 39823.31419 39677.60787 0.0000150
26.21000 39890.59770 39665.88910 0.0000149
26.22000 39823.73926 39656.04372 0.0000150
26.23000 39711.38466 39649.17257 0.0000150
26.24000 39798.65673 39644.69922 0.0000150
26.25000 39656.20685 39641.05288 0.0000150
26.26000 39714.95467 39635.99661 0.0000150
26.27000 39528.48414 39628.43161 0.0000150
26.28000 39565.41533 39619.06538 0.0000150
26.29000 39615.52245 39610.34688 0.0000150
26.30000 39601.09537 39605.27003 0.0000150
26.31000 39587.67585 39606.02060 0.0000150
26.32000 39559.11798 39613.05099 0.0000150
26.33000 39606.95642 39625.11482 0.0000150
26.34000 39457.73413 39639.02864 0.0000150
26.35000 39498.98080 39650.60254 0.0000150
26.36000 39503.55271 39655.76237 0.0000150
26.37000 39488.47555 39651.97573 0.0000150
26.38000 39472.72207 39639.22430 0.0000150
26.39000 39277.69328 39619.56253 0.0000151
26.40000 39470.45198 39595.86748 0.0000150
26.41000 39315.96281 39570.72294 0.0000151
26.42000 39252.30582 39545.93618 0.0000151
26.43000 39334.55931 39522.60585 0.0000151
26.44000 39201.30546 39501.25576 0.0000151
26.45000 39220.08800 39482.42405 0.0000151
26.46000 39148.64334 39466.54153 0.0000151
26.47000 39230.80882 39454.43584 0.0000151
26.48000 39145.00511 39447.04475 0.0000151
26.49000 39156.30828 39444.78951 0.0000151
26.50000 39210.12057 39447.47942 0.0000151
26.51000 39193.29590 39453.54625 0.0000151
26.52000 39235.49661 39460.61341 0.0000151
26.53000 39142.24507 39465.93696 0.0000151
26.54000 39299.41489 39467.28554 0.0000151
26.55000 39263.71784 39463.82364 0.0000151
26.56000 39135.22872 39456.37187 0.0000151
26.57000 39288.05929 39446.66765 0.0000151
26.58000 39230.51826 39436.49840 0.0000151
26.59000 39233.60138 39426.22823 0.0000151
26.60000 39241.44347 39414.77651 0.0000151
26.61000 39199.89108 39399.88899 0.0000151
26.62000 39162.29928 39379.02144 0.0000151
26.63000 39163.19024 39350.98301 0.0000151
26.64000 39189.55590 39316.68182 0.0000151
26.65000 39040.25688 39278.96912 0.0000152
26.66000 39092.68002 39241.76524 0.0000152
26.67000 39117.65555 39208.61881 0.0000152
26.68000 39008.94762 39181.80254 0.0000152
26.69000 38974.51074 39162.01493 0.0000152
26.70000 38959.97117 39148.59381 0.0000152
26.71000 38954.01342 39139.93791 0.0000152
26.72000 38916.00615 39134.18418 0.0000152
26.73000 38914.86200 39129.80278 0.0000152
26.74000 38907.69012 39125.51902 0.0000152
26.75000 38949.50296 39121.05615 0.0000152
26.76000 38964.53411 39115.36434 0.0000152
26.77000 38926.41942 39107.30488 0.0000152
26.78000 38841.08783 39095.88610 0.0000152
26.79000 38861.55306 39080.56924 0.0000152
26.80000 38773.96863 39061.44012 0.0000153
26.81000 38766.65590 39039.23135 0.0000153
26.82000 38727.90139 39015.23381 0.0000153
26.83000 38734.04466 38990.99674 0.0000153
26.84000 38774.28470 38967.84447 0.0000153
26.85000 38636.99875 38946.48561 0.0000153
26.86000 38773.86300 38926.87762 0.0000153
26.87000 38678.23575 38908.64706 0.0000153
26.88000 38623.20500 38891.40792 0.0000153
26.89000 38640.87802 38874.57114 0.0000153
26.90000 38658.66991 38857.96278 0.0000153
26.91000 38653.49171 38841.82732 0.0000153
26.92000 38708.89833 38826.72608 0.0000153
26.93000 38734.26808 38813.01838 0.0000153
26.94000 38637.32445 38801.14766 0.0000153
26.95000 38692.77255 38790.48192 0.0000153
26.96000 38608.94278 38780.11877 0.0000153
26.97000 38641.25857 38769.07558 0.0000153
26.98000 38706.48281 38756.66794 0.0000153
26.99000 38560.69726 38743.47138 0.0000154
27.00000 38719.63527 38730.76394 0.0000153
27.01000 38503.74571 38720.62712 0.0000154
27.02000 38692.72488 38715.07573 0.0000153
27.03000 38616.35071 38715.33515 0.0000153
27.04000 38648.96881 38721.42366 0.0000153
27.05000 38682.38056 38732.11405 0.0000153
27.06000 38650.79499 38745.36172 0.0000153
27.07000 38723.62664 38758.95463 0.0000153
27.08000 38763.36036 38771.29611 0.0000153
27.09000 38718.12689 38781.65243 0.0000153
27.10000 38764.63398 38789.65107 0.0000153
27.11000 38695.02592 38794.77151 0.0000153
27.12000 38893.62303 38795.79348 0.0000153
27.13000 38793.71591 38790.78942 0.0000153
27.14000 38775.16598 38777.86979 0.0000153
27.15000 38803.67328 38755.62580 0.0000153
27.16000 38767.22046 38723.62491 0.0000153
27.17000 38759.34495 38682.81037 0.0000153
27.18000 38672.84535 38635.90596 0.0000154
27.19000 38691.22574 38586.51424 0.0000154
27.20000 38478.96743 38538.38811 0.0000154
27.21000 38594.39099 38494.37969 0.0000154
27.22000 38554.39938 38455.79619 0.0000154
27.23000 38542.35499 38422.51609 0.0000154
27.24000 38697.96462 38392.85881 0.0000154
27.25000 38617.67660 38364.97664 0.0000154
27.26000 38450.52650 38336.97957 0.0000154
27.27000 38509.67210 38308.08523 0.0000154
27.28000 38473.56112 38278.57016 0.0000154
27.29000 38396.44303 38249.23087 0.0000155
27.30000 38355.88754 38220.80851 0.0000155
27.31000 38295.53863 38193.50109 0.0000155
27.32000 38260.95963 38167.09746 0.0000155
27.33000 38392.76630 38141.32349 0.0000155
27.34000 38304.77911 38116.22862 0.0000155
27.35000 38272.23243 38092.73979 0.0000155
27.36000 38301.22940 38072.19598 0.0000155
27.37000 38197.89906 38055.98317 0.0000155
27.38000 38077.10037 38045.09179 0.0000156
27.39000 38263.11227 38039.75882 0.0000155
27.40000 38187.02074 38039.40225 0.0000155
27.41000 38198.16809 38042.78823 0.0000155
27.42000 38225.56629 38048.52023 0.0000155
27.43000 38214.77197 38055.45536 0.0000155
27.44000 38213.37366 38063.14227 0.0000155
27.45000 38168.62524 38071.75118 0.0000156
27.46000 38294.51684 38081.43160 0.0000155
27.47000 38263.17413 38092.61942 0.0000155
27.48000 38246.16725 38104.53094 0.0000155
27.49000 38267.09589 38116.05183 0.0000155
27.50000 38298.78524 38125.90474 0.0000155
27.51000 38272.26555 38133.20402 0.0000155
27.52000 38267.85090 38137.93038 0.0000155
27.53000 38227.50734 38140.97452 0.0000156
27.54000 38372.43399 38143.65978 0.0000155
27.55000 38260.49497 38147.04851 0.0000156
27.56000 38330.49993 38151.50309 0.0000155
27.57000 38286.56310 38156.65620 0.0000155
27.58000 38255.81783 38161.66988 0.0000156
27.59000 38195.23532 38165.67855 0.0000156
27.60000 38262.80030 38168.24160 0.0000156
27.61000 38229.87848 38169.54510 0.0000156
27.62000 38183.45416 38170.39014 0.0000156
27.63000 38214.30463 38171.71401 0.0000156
27.64000 38207.84587 38174.10740 0.0000156
27.65000 38157.82660 38177.56002 0.0000156
27.66000 38295.66156 38181.96749 0.0000156
27.67000 38197.36247 38186.95416 0.0000156
27.68000 38170.85212 38192.52608 0.0000156
27.69000 38120.57434 38199.06194 0.0000156
27.70000 38055.36500 38207.77152 0.0000156
27.71000 38167.12442 38219.62360 0.0000156
27.72000 38048.63264 38235.41517 0.0000156
27.73000 38131.30762 38255.40356 0.0000156
27.74000 38093.11768 38279.36283 0.0000156
27.75000 37933.50751 38306.81254 0.0000157
27.76000 38157.87710 38337.24352 0.0000156
27.77000 37996.20156 38370.20894 0.0000157
27.78000 37983.77937 38405.70775 0.0000157
27.79000 38029.64514 38443.72011 0.0000157
