#------------------------------------------------------------------------------
#$Date: 2021-01-01 01:25:10 +0200 (Fri, 01 Jan 2021) $
#$Revision: 260302 $
#$URL: file:///home/coder/svn-repositories/cod/cif/4/00/38/4003849.cif $
#------------------------------------------------------------------------------
#
# This file is available in the Crystallography Open Database (COD),
# http://www.crystallography.net/
#
# All data on this site have been placed in the public domain by the
# contributors.
#
data_4003849
loop_
_publ_author_name
'Goodenough, Isabella'
'Devulapalli, Venkata Swaroopa Datta'
'Xu, Wenqian'
'Boyanich, Mikaela C.'
'Luo, Tian-Yi'
'De Souza, Mattheus'
'Richard, M\'elissandre'
'Rosi, Nathaniel L.'
'Borguet, Eric'
_publ_section_title
;
 Interplay between Intrinsic Thermal Stability and Expansion Properties of
 Functionalized UiO-67 Metal--Organic Frameworks
;
_journal_name_full               'Chemistry of Materials'
_journal_paper_doi               10.1021/acs.chemmater.0c03889
_journal_year                    2020
_chemical_compound_source        synthetic
_chemical_formula_sum            'C78.12 H43.06 N5.58 O40 Zr6'
_chemical_formula_weight         2247.21
_chemical_name_common            UiO-67-NH2
_chemical_name_systematic
'Zr(IV) 2-Amino-4,4'-biphenyldicarboxylate metal-organic framework'
_space_group_crystal_system      cubic
_space_group_IT_number           225
_space_group_name_Hall           '-F 4 2 3'
_space_group_name_H-M_alt        'F m -3 m'
_cell_angle_alpha                90
_cell_angle_beta                 90
_cell_angle_gamma                90
_cell_formula_units_Z            4
_cell_length_a                   26.7840(5)
_cell_length_b                   26.7840(5)
_cell_length_c                   26.7840(5)
_cell_measurement_temperature    90
_cell_volume                     19214.4(6)
_diffrn_ambient_pressure         101
_diffrn_ambient_temperature      90
_diffrn_measurement_device_type
'Debye-scherrer geometry diffractometer with area detector at Beamline 17-BM'
_diffrn_radiation_probe          x-ray
_diffrn_radiation_wavelength     0.35364
_diffrn_source                   synchrotron
_diffrn_source_type              'APS Beamline 17-BM'
_exptl_crystal_description       powder
_exptl_crystal_preparation
'powder loaded in a quartz capillary, measured under vacuum'
_exptl_crystal_thermal_history
'activated at 473 K for 10 min, and cooled to 90 K'
_pd_proc_ls_prof_R_factor        0.0235
_pd_proc_ls_prof_wR_factor       0.0378
_refine_ls_goodness_of_fit_all   9.322
_refine_ls_hydrogen_treatment    constr
_refine_ls_R_I_factor            0.0540
_reflns_d_resolution_high        0.736
_reflns_d_resolution_low         15.464
_reflns_limit_h_max              36
_reflns_limit_h_min              0
_reflns_limit_k_max              36
_reflns_limit_k_min              0
_reflns_limit_l_max              36
_reflns_limit_l_min              0
_reflns_number_total             1381
_cod_data_source_file            cm0c03889_si_002.cif
_cod_data_source_block           UiO67NH2-4_90to480Ka_90K_d400-00000-sub0_9qtz
_cod_original_cell_volume        19214.3(10)
_cod_database_code               4003849
loop_
_symmetry_equiv_pos_as_xyz
'x, y, z '
'-x, -y, z '
'-x, -z, -y '
'-x, -z, y '
'-x, z, -y '
'-x, z, y '
'-x, y, -z '
'-x, y, z '
'-y, -x, -z '
'-y, -x, z '
'-y, -z, -x '
'-y, -z, x '
'-y, z, -x '
'-y, z, x '
'-y, x, -z '
'-y, x, z '
'-z, -x, -y '
'-z, -x, y '
'-z, -y, -x '
'-z, -y, x '
'-z, y, -x '
'-z, y, x '
'-z, x, -y '
'-z, x, y '
'z, -x, -y '
'z, -x, y '
'z, -y, -x '
'z, -y, x '
'z, y, -x '
'z, y, x '
'z, x, -y '
'z, x, y '
'y, -x, -z '
'y, -x, z '
'y, -z, -x '
'y, -z, x '
'y, z, -x '
'y, z, x '
'y, x, -z '
'y, x, z '
'x, -y, -z '
'x, -y, z '
'x, -z, -y '
'x, -z, y '
'x, z, -y '
'x, z, y '
'x, y, -z '
'-x, -y, -z '
'x+1/2, y+1/2, z '
'-x+1/2, -y+1/2, z '
'-x+1/2, -z+1/2, -y '
'-x+1/2, -z+1/2, y '
'-x+1/2, z+1/2, -y '
'-x+1/2, z+1/2, y '
'-x+1/2, y+1/2, -z '
'-x+1/2, y+1/2, z '
'-y+1/2, -x+1/2, -z '
'-y+1/2, -x+1/2, z '
'-y+1/2, -z+1/2, -x '
'-y+1/2, -z+1/2, x '
'-y+1/2, z+1/2, -x '
'-y+1/2, z+1/2, x '
'-y+1/2, x+1/2, -z '
'-y+1/2, x+1/2, z '
'-z+1/2, -x+1/2, -y '
'-z+1/2, -x+1/2, y '
'-z+1/2, -y+1/2, -x '
'-z+1/2, -y+1/2, x '
'-z+1/2, y+1/2, -x '
'-z+1/2, y+1/2, x '
'-z+1/2, x+1/2, -y '
'-z+1/2, x+1/2, y '
'z+1/2, -x+1/2, -y '
'z+1/2, -x+1/2, y '
'z+1/2, -y+1/2, -x '
'z+1/2, -y+1/2, x '
'z+1/2, y+1/2, -x '
'z+1/2, y+1/2, x '
'z+1/2, x+1/2, -y '
'z+1/2, x+1/2, y '
'y+1/2, -x+1/2, -z '
'y+1/2, -x+1/2, z '
'y+1/2, -z+1/2, -x '
'y+1/2, -z+1/2, x '
'y+1/2, z+1/2, -x '
'y+1/2, z+1/2, x '
'y+1/2, x+1/2, -z '
'y+1/2, x+1/2, z '
'x+1/2, -y+1/2, -z '
'x+1/2, -y+1/2, z '
'x+1/2, -z+1/2, -y '
'x+1/2, -z+1/2, y '
'x+1/2, z+1/2, -y '
'x+1/2, z+1/2, y '
'x+1/2, y+1/2, -z '
'-x+1/2, -y+1/2, -z '
'x+1/2, y, z+1/2 '
'-x+1/2, -y, z+1/2 '
'-x+1/2, -z, -y+1/2 '
'-x+1/2, -z, y+1/2 '
'-x+1/2, z, -y+1/2 '
'-x+1/2, z, y+1/2 '
'-x+1/2, y, -z+1/2 '
'-x+1/2, y, z+1/2 '
'-y+1/2, -x, -z+1/2 '
'-y+1/2, -x, z+1/2 '
'-y+1/2, -z, -x+1/2 '
'-y+1/2, -z, x+1/2 '
'-y+1/2, z, -x+1/2 '
'-y+1/2, z, x+1/2 '
'-y+1/2, x, -z+1/2 '
'-y+1/2, x, z+1/2 '
'-z+1/2, -x, -y+1/2 '
'-z+1/2, -x, y+1/2 '
'-z+1/2, -y, -x+1/2 '
'-z+1/2, -y, x+1/2 '
'-z+1/2, y, -x+1/2 '
'-z+1/2, y, x+1/2 '
'-z+1/2, x, -y+1/2 '
'-z+1/2, x, y+1/2 '
'z+1/2, -x, -y+1/2 '
'z+1/2, -x, y+1/2 '
'z+1/2, -y, -x+1/2 '
'z+1/2, -y, x+1/2 '
'z+1/2, y, -x+1/2 '
'z+1/2, y, x+1/2 '
'z+1/2, x, -y+1/2 '
'z+1/2, x, y+1/2 '
'y+1/2, -x, -z+1/2 '
'y+1/2, -x, z+1/2 '
'y+1/2, -z, -x+1/2 '
'y+1/2, -z, x+1/2 '
'y+1/2, z, -x+1/2 '
'y+1/2, z, x+1/2 '
'y+1/2, x, -z+1/2 '
'y+1/2, x, z+1/2 '
'x+1/2, -y, -z+1/2 '
'x+1/2, -y, z+1/2 '
'x+1/2, -z, -y+1/2 '
'x+1/2, -z, y+1/2 '
'x+1/2, z, -y+1/2 '
'x+1/2, z, y+1/2 '
'x+1/2, y, -z+1/2 '
'-x+1/2, -y, -z+1/2 '
'x, y+1/2, z+1/2 '
'-x, -y+1/2, z+1/2 '
'-x, -z+1/2, -y+1/2 '
'-x, -z+1/2, y+1/2 '
'-x, z+1/2, -y+1/2 '
'-x, z+1/2, y+1/2 '
'-x, y+1/2, -z+1/2 '
'-x, y+1/2, z+1/2 '
'-y, -x+1/2, -z+1/2 '
'-y, -x+1/2, z+1/2 '
'-y, -z+1/2, -x+1/2 '
'-y, -z+1/2, x+1/2 '
'-y, z+1/2, -x+1/2 '
'-y, z+1/2, x+1/2 '
'-y, x+1/2, -z+1/2 '
'-y, x+1/2, z+1/2 '
'-z, -x+1/2, -y+1/2 '
'-z, -x+1/2, y+1/2 '
'-z, -y+1/2, -x+1/2 '
'-z, -y+1/2, x+1/2 '
'-z, y+1/2, -x+1/2 '
'-z, y+1/2, x+1/2 '
'-z, x+1/2, -y+1/2 '
'-z, x+1/2, y+1/2 '
'z, -x+1/2, -y+1/2 '
'z, -x+1/2, y+1/2 '
'z, -y+1/2, -x+1/2 '
'z, -y+1/2, x+1/2 '
'z, y+1/2, -x+1/2 '
'z, y+1/2, x+1/2 '
'z, x+1/2, -y+1/2 '
'z, x+1/2, y+1/2 '
'y, -x+1/2, -z+1/2 '
'y, -x+1/2, z+1/2 '
'y, -z+1/2, -x+1/2 '
'y, -z+1/2, x+1/2 '
'y, z+1/2, -x+1/2 '
'y, z+1/2, x+1/2 '
'y, x+1/2, -z+1/2 '
'y, x+1/2, z+1/2 '
'x, -y+1/2, -z+1/2 '
'x, -y+1/2, z+1/2 '
'x, -z+1/2, -y+1/2 '
'x, -z+1/2, y+1/2 '
'x, z+1/2, -y+1/2 '
'x, z+1/2, y+1/2 '
'x, y+1/2, -z+1/2 '
'-x, -y+1/2, -z+1/2 '
loop_
_atom_site_label
_atom_site_type_symbol
_atom_site_symmetry_multiplicity
_atom_site_fract_x
_atom_site_fract_y
_atom_site_fract_z
_atom_site_occupancy
_atom_site_B_iso_or_equiv
Zr1 Zr 24 0 0 0.09241(13) 1 1.31(8)
O1a O 32 0.0548(6) 0.0548(6) 0.0548(6) 0.5 0.4(7)
H1a H 32 0.0755 0.0755 0.0755 0.5 0.6
O1b O 32 0.0368(6) 0.0368(6) 0.0368(6) 0.5 0.4(7)
O2 O 96 0.1328(11) 0 0.0710(9) 1 2.1(3)
C4 C 48 0.1147(7) 0 0.1147(7) 0.93 1.0(3)
C5 C 48 0.1561(4) 0 0.1561(4) 0.93 1.0(3)
C6 C 48 0.2306(3) 0 0.2306(3) 0.93 1.0(3)
C2 C 192 0.2410(3) 0.0200(3) 0.1830(4) 0.465 1.0(3)
C3 C 192 0.2037(3) 0.0200(3) 0.1458(5) 0.465 1.0(3)
N1 N 192 0.286(2) 0.0441(11) 0.158(2) 0.11625 1.0(3)
H2 H 192 0.2778 0.0354 0.1750 0.34875 1.6(5)
H3 H 192 0.2118 0.0354 0.1090 0.465 1.6(5)
Ow1 O 32 0.1353(12) 0.1353(12) 0.1353(12) 1 115(6)
loop_
_geom_angle_atom_site_label_1
_geom_angle_atom_site_label_2
_geom_angle_atom_site_label_3
_geom_angle
_geom_angle_site_symmetry_1
_geom_angle_site_symmetry_2
_geom_angle_site_symmetry_3
O1b Zr1 O1b 57.8(10) 26_555 1_555 1_555
O1b Zr1 O1b 86.2(16) 6_555 1_555 26_555
O1b Zr1 O1b 57.8(10) 6_555 1_555 1_555
O1b Zr1 O1b 57.8(10) 2_555 1_555 6_555
O1b Zr1 O1b 57.8(10) 2_555 1_555 26_555
O1b Zr1 O1b 86.2(16) 2_555 1_555 1_555
O2 Zr1 O1b 86.6(6) 12_555 1_555 2_555
O2 Zr1 O1b 141.34(16) 12_555 1_555 6_555
O2 Zr1 O1b 86.6(6) 12_555 1_555 26_555
O2 Zr1 O1b 141.34(16) 12_555 1_555 1_555
O2 Zr1 O2 75.86(7) 20_555 1_555 12_555
O2 Zr1 O1b 86.6(6) 20_555 1_555 2_555
O2 Zr1 O1b 86.6(6) 20_555 1_555 6_555
O2 Zr1 O1b 141.34(16) 20_555 1_555 26_555
O2 Zr1 O1b 141.34(16) 20_555 1_555 1_555
O2 Zr1 O2 120.75(16) 28_555 1_555 20_555
O2 Zr1 O2 75.86(7) 28_555 1_555 12_555
O2 Zr1 O1b 141.34(16) 28_555 1_555 2_555
O2 Zr1 O1b 141.34(16) 28_555 1_555 6_555
O2 Zr1 O1b 86.6(6) 28_555 1_555 26_555
O2 Zr1 O1b 86.6(6) 28_555 1_555 1_555
O2 Zr1 O2 75.86(7) 14_555 1_555 28_555
O2 Zr1 O2 75.86(7) 14_555 1_555 20_555
O2 Zr1 O2 120.75(16) 14_555 1_555 12_555
O2 Zr1 O1b 141.34(16) 14_555 1_555 2_555
O2 Zr1 O1b 86.6(6) 14_555 1_555 6_555
O2 Zr1 O1b 141.34(16) 14_555 1_555 26_555
O2 Zr1 O1b 86.6(6) 14_555 1_555 1_555
O1a Zr1 O2 70.3(5) 6_555 1_555 14_555
O1a Zr1 O2 140.26(18) 6_555 1_555 28_555
O1a Zr1 O2 70.3(5) 6_555 1_555 20_555
O1a Zr1 O2 140.26(18) 6_555 1_555 12_555
O1a Zr1 O1b 71.4(5) 6_555 1_555 2_555
O1a Zr1 O1b 21.0(10) 6_555 1_555 6_555
O1a Zr1 O1b 107.2(10) 6_555 1_555 26_555
O1a Zr1 O1b 71.4(5) 6_555 1_555 1_555
O1a Zr1 O1a 128.2(13) 26_555 1_555 6_555
O1a Zr1 O2 140.26(18) 26_555 1_555 14_555
O1a Zr1 O2 70.3(5) 26_555 1_555 28_555
O1a Zr1 O2 140.26(18) 26_555 1_555 20_555
O1a Zr1 O2 70.3(5) 26_555 1_555 12_555
O1a Zr1 O1b 71.4(5) 26_555 1_555 2_555
O1a Zr1 O1b 107.2(10) 26_555 1_555 6_555
O1a Zr1 O1b 21.0(10) 26_555 1_555 26_555
O1a Zr1 O1b 71.4(5) 26_555 1_555 1_555
O1a Zr1 O1a 79.0(5) 1_555 1_555 26_555
O1a Zr1 O1a 79.0(5) 1_555 1_555 6_555
O1a Zr1 O2 70.3(5) 1_555 1_555 14_555
O1a Zr1 O2 70.3(5) 1_555 1_555 28_555
O1a Zr1 O2 140.26(18) 1_555 1_555 20_555
O1a Zr1 O2 140.26(18) 1_555 1_555 12_555
O1a Zr1 O1b 107.2(10) 1_555 1_555 2_555
O1a Zr1 O1b 71.4(5) 1_555 1_555 6_555
O1a Zr1 O1b 71.4(5) 1_555 1_555 26_555
O1a Zr1 O1b 21.0(10) 1_555 1_555 1_555
O1a Zr1 O1a 128.2(13) 2_555 1_555 1_555
O1a Zr1 O1a 79.0(5) 2_555 1_555 26_555
O1a Zr1 O1a 79.0(5) 2_555 1_555 6_555
O1a Zr1 O2 140.26(18) 2_555 1_555 14_555
O1a Zr1 O2 140.26(18) 2_555 1_555 28_555
O1a Zr1 O2 70.3(5) 2_555 1_555 20_555
O1a Zr1 O2 70.3(5) 2_555 1_555 12_555
O1a Zr1 O1b 21.0(10) 2_555 1_555 2_555
O1a Zr1 O1b 71.4(5) 2_555 1_555 6_555
O1a Zr1 O1b 71.4(5) 2_555 1_555 26_555
O1a Zr1 O1b 107.2(10) 2_555 1_555 1_555
Zr1 O1a H1a 118.8(7) 25_555 1_555 1_555
Zr1 O1a Zr1 98.7(8) 1_555 1_555 25_555
Zr1 O1a H1a 118.8(7) 1_555 1_555 1_555
Zr1 O1a Zr1 98.7(8) 5_555 1_555 1_555
Zr1 O1a Zr1 98.7(8) 5_555 1_555 25_555
Zr1 O1a H1a 118.8(7) 5_555 1_555 1_555
Zr1 O1b Zr1 118.2(4) 25_555 1_555 1_555
Zr1 O1b Zr1 118.2(4) 5_555 1_555 25_555
Zr1 O1b Zr1 118.2(4) 5_555 1_555 1_555
Zr1 O2 C4 127.89(8) 25_555 1_555 1_555
O2 C4 O2 134.977 1_555 1_555 28_555
C5 C4 O2 112.511 1_555 1_555 1_555
C5 C4 O2 112.511 1_555 1_555 28_555
C3 C5 C3 120.000 42_555 1_555 30_555
C3 C5 C3 120.000 1_555 1_555 28_555
C4 C5 C3 120.000 1_555 1_555 1_555
C4 C5 C3 120.000 1_555 1_555 42_555
C4 C5 C3 120.000 1_555 1_555 30_555
C4 C5 C3 120.000 1_555 1_555 28_555
C2 C6 C2 120.000 30_555 1_555 42_555
C2 C6 C2 120.000 28_555 1_555 1_555
C6 C6 C2 120.000 103_555 1_555 28_555
C6 C6 C2 120.000 103_555 1_555 30_555
C6 C6 C2 120.000 103_555 1_555 42_555
C6 C6 C2 120.000 103_555 1_555 1_555
C6 C2 H2 120.000 1_555 1_555 1_555
C3 C2 C6 120.000 1_555 1_555 1_555
C3 C2 H2 120.000 1_555 1_555 1_555
N1 C2 C3 103.978 1_555 1_555 1_555
N1 C2 C6 136.022 1_555 1_555 1_555
C5 C3 H3 120.000 1_555 1_555 1_555
C2 C3 C5 120.000 1_555 1_555 1_555
C2 C3 H3 120.000 1_555 1_555 1_555
loop_
_geom_bond_atom_site_label_1
_geom_bond_atom_site_label_2
_geom_bond_distance
_geom_bond_site_symmetry_1
_geom_bond_site_symmetry_2
Zr1 O1b 2.040(5) 1_555 1_555
Zr1 O1b 2.040(5) 1_555 26_555
Zr1 O1b 2.040(5) 1_555 6_555
Zr1 O1b 2.040(5) 1_555 2_555
Zr1 O2 2.1877(17) 1_555 12_555
Zr1 O2 2.1877(17) 1_555 20_555
Zr1 O2 2.1877(17) 1_555 28_555
Zr1 O2 2.1877(17) 1_555 14_555
Zr1 O1a 2.307(15) 1_555 6_555
Zr1 O1a 2.307(15) 1_555 26_555
Zr1 O1a 2.307(15) 1_555 1_555
Zr1 O1a 2.307(15) 1_555 2_555
O1a H1a 0.96030 1_555 1_555
O2 C4 1.26665 1_555 1_555
C4 C5 1.57000 1_555 1_555
C5 C3 1.41000 1_555 28_555
C5 C3 1.41000 1_555 30_555
C5 C3 1.41000 1_555 42_555
C5 C3 1.41000 1_555 1_555
C6 C2 1.41000 1_555 1_555
C6 C2 1.41000 1_555 42_555
C6 C2 1.41000 1_555 30_555
C6 C2 1.41000 1_555 28_555
C6 C6 1.47000 1_555 103_555
C2 H2 1.09000 1_555 1_555
C2 C3 1.41000 1_555 1_555
C2 N1 1.52193 1_555 1_555
C3 H3 1.09000 1_555 1_555
loop_
_pd_meas_2theta_scan
_pd_proc_intensity_total
_pd_calc_intensity_total
_pd_proc_ls_weight
1.00000 192335.46973 161622.13450 0.0000040
1.01000 193329.54335 162805.13013 0.0000040
1.02000 190036.23122 164226.48444 0.0000041
1.03000 191053.35890 165917.89859 0.0000040
1.04000 188121.64966 167917.04062 0.0000041
1.05000 189275.67563 170268.88071 0.0000041
1.06000 187920.40688 173027.43990 0.0000041
1.07000 187927.54374 176258.04640 0.0000041
1.08000 188669.35566 180040.27371 0.0000041
1.09000 188447.78016 184471.80552 0.0000041
1.10000 190389.89045 189673.57447 0.0000040
1.11000 189950.93461 195796.67451 0.0000040
1.12000 195270.80837 203031.77584 0.0000039
1.13000 194965.21850 211622.12270 0.0000039
1.14000 202083.53870 221907.28616 0.0000038
1.15000 206213.86664 234247.18501 0.0000038
1.16000 215641.89072 249212.13689 0.0000036
1.17000 224673.73599 267537.63683 0.0000035
1.18000 241617.46069 290238.85994 0.0000033
1.19000 261361.74323 318775.54976 0.0000031
1.20000 295959.54169 355441.13058 0.0000028
1.21000 341455.21715 404465.84798 0.0000025
1.22000 422175.06771 475135.56590 0.0000021
1.23000 553316.70237 589326.77798 0.0000016
1.24000 762135.09939 795299.82101 0.0000012
1.25000 1161721.85901 1183048.99529 0.0000008
1.26000 1821688.57382 1882374.35923 0.0000005
1.27000 2983013.32554 3015579.15625 0.0000003
1.28000 4672157.04319 4595014.20486 0.0000002
1.29000 6626093.95117 6389877.67356 0.0000001
1.30000 7875622.69944 7805123.81000 0.0000001
1.31000 8040227.34538 8048638.62900 0.0000001
1.32000 6899379.76179 6951617.57614 0.0000001
1.33000 5203422.02707 5202230.71188 0.0000002
1.34000 3422577.49538 3511167.86770 0.0000003
1.35000 2239551.07952 2222337.85904 0.0000004
1.36000 1478029.73389 1390267.21256 0.0000006
1.37000 1027637.59726 916408.44622 0.0000009
1.38000 774473.25681 665707.60085 0.0000012
1.39000 619024.79606 533237.40173 0.0000015
1.40000 516970.72397 458549.43329 0.0000017
1.41000 453062.22310 413535.69790 0.0000019
1.42000 420822.44986 387651.62245 0.0000021
1.43000 402573.10007 379790.65639 0.0000021
1.44000 421668.52074 396705.24963 0.0000020
1.45000 467476.65967 454693.31149 0.0000019
1.46000 595063.65464 579517.95557 0.0000015
1.47000 792692.74492 798281.92151 0.0000012
1.48000 1134674.91839 1119998.20407 0.0000008
1.49000 1539597.50282 1508676.53497 0.0000006
1.50000 1857881.27406 1855957.28271 0.0000005
1.51000 1970450.34002 1988218.49671 0.0000005
1.52000 1760043.02207 1809637.74271 0.0000005
1.53000 1380886.66173 1432709.61518 0.0000007
1.54000 974984.26695 1029901.94620 0.0000010
1.55000 664813.65471 702104.31204 0.0000014
1.56000 464621.42070 477279.73770 0.0000019
1.57000 349503.49836 341392.14102 0.0000024
1.58000 275780.50029 265377.89590 0.0000029
1.59000 235920.46479 223085.27105 0.0000033
1.60000 204670.74824 197718.43992 0.0000037
1.61000 185871.52432 180608.58175 0.0000039
1.62000 169827.68793 167851.14022 0.0000042
1.63000 159718.96934 157741.51866 0.0000044
1.64000 150035.73847 149458.59750 0.0000045
1.65000 143171.71106 142531.48613 0.0000047
1.66000 136635.24920 136648.86110 0.0000048
1.67000 131235.16569 131588.77436 0.0000050
1.68000 127288.29082 127187.18965 0.0000050
1.69000 121666.43292 123320.26346 0.0000052
1.70000 119735.20271 119892.94760 0.0000052
1.71000 115164.17153 116831.24215 0.0000054
1.72000 113677.18639 114076.78405 0.0000054
1.73000 109952.93241 111582.99936 0.0000055
1.74000 108109.73150 109312.32369 0.0000055
1.75000 105000.47589 107234.16500 0.0000056
1.76000 103650.39003 105323.39105 0.0000057
1.77000 100773.99149 103559.19251 0.0000058
1.78000 100039.46926 101924.21900 0.0000058
1.79000 97627.67400 100403.91611 0.0000059
1.80000 96636.92965 98987.03432 0.0000059
1.81000 95369.21268 97661.21365 0.0000059
1.82000 93590.56954 96418.92382 0.0000060
1.83000 93342.45443 95252.22425 0.0000060
1.84000 91107.85133 94154.76267 0.0000061
1.85000 90829.95052 93121.15645 0.0000060
1.86000 88689.37135 92146.87619 0.0000061
1.87000 88565.94526 91228.15829 0.0000061
1.88000 87197.40887 90361.94338 0.0000062
1.89000 87290.56981 89545.83855 0.0000061
1.90000 85693.28604 88778.10350 0.0000062
1.91000 85221.37414 88057.66194 0.0000062
1.92000 84386.66664 87384.14193 0.0000062
1.93000 84034.23229 86757.95128 0.0000062
1.94000 83245.31650 86180.39807 0.0000063
1.95000 82650.97160 85653.87129 0.0000063
1.96000 82516.23166 85182.10512 0.0000063
1.97000 81640.09667 84770.56225 0.0000063
1.98000 81908.78827 84426.99170 0.0000063
1.99000 80624.97816 84162.24858 0.0000063
2.00000 81417.85145 84001.47023 0.0000063
2.01000 80738.03903 83946.36140 0.0000063
2.02000 81346.74252 84038.08718 0.0000062
2.03000 80724.71613 84325.87626 0.0000063
2.04000 82014.40276 84899.04464 0.0000062
2.05000 82208.12937 85948.72395 0.0000062
2.06000 85385.61163 87916.02401 0.0000061
2.07000 88286.44383 91762.46472 0.0000059
2.08000 95427.56353 99270.38344 0.0000057
2.09000 107415.04751 113005.88867 0.0000053
2.10000 129494.74389 135399.34465 0.0000048
2.11000 160829.66495 166738.07617 0.0000041
2.12000 193818.18430 202414.73559 0.0000036
2.13000 221124.33506 230085.65312 0.0000033
2.14000 222482.67197 233253.75811 0.0000033
2.15000 203660.64008 209387.84579 0.0000035
2.16000 170839.66698 173522.73093 0.0000040
2.17000 141274.74679 139807.95353 0.0000045
2.18000 119185.26117 114484.51605 0.0000050
2.19000 106193.11883 98170.21369 0.0000053
2.20000 98338.53829 88734.25914 0.0000055
2.21000 94538.44219 83522.37545 0.0000056
2.22000 91238.97765 80540.56308 0.0000057
2.23000 89452.81100 78655.55291 0.0000058
2.24000 88437.77744 77331.47790 0.0000058
2.25000 87040.86773 76336.52099 0.0000058
2.26000 86359.00926 75566.88489 0.0000058
2.27000 85094.69893 74969.27221 0.0000059
2.28000 85376.21619 74512.39509 0.0000059
2.29000 83953.04129 74176.92608 0.0000059
2.30000 84541.45315 73951.47981 0.0000059
2.31000 83668.04528 73830.68006 0.0000059
2.32000 84185.16410 73814.18172 0.0000059
2.33000 83301.80148 73906.30257 0.0000059
2.34000 83509.24364 74116.15253 0.0000059
2.35000 83140.54591 74458.26327 0.0000059
2.36000 84026.65899 74955.79123 0.0000058
2.37000 83775.14710 75634.54418 0.0000059
2.38000 84214.13981 76538.25980 0.0000058
2.39000 85046.69989 77726.67140 0.0000058
2.40000 86227.85057 79290.95869 0.0000058
2.41000 88126.41840 81389.95663 0.0000057
2.42000 90536.03955 84349.16886 0.0000056
2.43000 95827.45453 88895.06601 0.0000054
2.44000 102424.69116 96576.13549 0.0000052
2.45000 116795.79232 110217.45843 0.0000049
2.46000 140646.85862 133832.34844 0.0000044
2.47000 181163.62682 171165.53445 0.0000037
2.48000 236405.83293 222581.42150 0.0000031
2.49000 299208.54550 280740.31871 0.0000026
2.50000 341150.57491 325974.78667 0.0000023
2.51000 343197.58301 332736.28932 0.0000023
2.52000 309384.18998 299492.26051 0.0000025
2.53000 258909.47576 251876.45867 0.0000029
2.54000 213966.49854 213309.14544 0.0000033
2.55000 196396.56640 197174.07070 0.0000035
2.56000 209991.95830 212494.95692 0.0000033
2.57000 261119.43914 268495.74895 0.0000028
2.58000 371748.82609 373712.17369 0.0000022
2.59000 525744.71443 528172.67057 0.0000016
2.60000 726049.58979 709969.25661 0.0000012
2.61000 861136.43234 859472.82705 0.0000010
2.62000 883636.45323 891001.27830 0.0000010
2.63000 772141.48348 780553.01159 0.0000012
2.64000 590452.32539 599624.74187 0.0000015
2.65000 410049.45707 424209.82240 0.0000020
2.66000 274557.67621 289793.47844 0.0000027
2.67000 190420.33384 201679.36340 0.0000035
2.68000 144901.39973 150044.70267 0.0000042
2.69000 116621.91701 121437.23042 0.0000048
2.70000 101099.63789 105258.88031 0.0000051
2.71000 91650.38867 95250.17487 0.0000054
2.72000 83871.43526 88351.00812 0.0000056
2.73000 80251.26830 83201.25512 0.0000057
2.74000 76094.11277 79179.30010 0.0000059
2.75000 74123.77738 75958.06788 0.0000059
2.76000 71445.93767 73335.90653 0.0000060
2.77000 70440.56719 71175.52375 0.0000061
2.78000 68576.17906 69379.02334 0.0000061
2.79000 67878.78073 67875.09870 0.0000061
2.80000 65974.14899 66611.26198 0.0000062
2.81000 65560.57473 65548.77412 0.0000062
2.82000 64480.34859 64659.26351 0.0000063
2.83000 63814.07180 63922.48157 0.0000063
2.84000 63322.56581 63324.86910 0.0000063
2.85000 62683.20608 62859.66554 0.0000063
2.86000 62200.48570 62522.95885 0.0000063
2.87000 61201.15479 62319.42643 0.0000064
2.88000 61546.44137 62259.53702 0.0000063
2.89000 60951.38879 62362.14434 0.0000064
2.90000 61442.46941 62657.54870 0.0000063
2.91000 61177.36448 63193.65707 0.0000063
2.92000 62351.55164 64050.97234 0.0000063
2.93000 63165.40324 65383.81733 0.0000063
2.94000 65404.27602 67528.80569 0.0000061
2.95000 68764.02809 71242.11612 0.0000060
2.96000 75875.01713 78076.20107 0.0000058
2.97000 87702.17842 90681.40523 0.0000054
2.98000 109905.66243 112470.45544 0.0000048
2.99000 145031.86103 146030.44233 0.0000041
3.00000 191168.79799 190209.24561 0.0000035
3.01000 238732.38683 236081.43147 0.0000030
3.02000 260570.65500 263849.81289 0.0000028
3.03000 251526.48363 254712.79929 0.0000028
3.04000 212749.82345 215258.91623 0.0000032
3.05000 164293.45687 167891.99706 0.0000038
3.06000 121427.95784 127542.47191 0.0000045
3.07000 93144.06668 99029.24015 0.0000052
3.08000 76187.85827 81367.17933 0.0000057
3.09000 67275.28240 71302.55115 0.0000060
3.10000 61376.48078 65654.95150 0.0000062
3.11000 58036.37148 62284.18179 0.0000063
3.12000 55703.06349 60048.80768 0.0000064
3.13000 54289.06692 58420.89195 0.0000064
3.14000 53386.57420 57164.31409 0.0000065
3.15000 52417.00416 56163.31479 0.0000065
3.16000 52223.38055 55351.54080 0.0000065
3.17000 51180.65063 54686.09564 0.0000065
3.18000 51506.26179 53313.13323 0.0000065
3.19000 50349.89909 52870.62952 0.0000066
3.20000 50781.27436 52512.51997 0.0000065
3.21000 50110.67957 52233.65319 0.0000065
3.22000 50460.90095 52039.16389 0.0000065
3.23000 49678.69539 51950.44214 0.0000065
3.24000 50222.69707 52011.26161 0.0000065
3.25000 50040.24681 52284.91353 0.0000065
3.26000 50753.70729 52830.66058 0.0000065
3.27000 51005.82865 53656.44993 0.0000064
3.28000 51650.41840 54653.07623 0.0000064
3.29000 52068.34656 55528.77239 0.0000064
3.30000 52521.88019 55987.78035 0.0000063
3.31000 53485.52168 56281.46326 0.0000063
3.32000 54157.75535 57247.15374 0.0000063
3.33000 57569.56363 59871.08510 0.0000061
3.34000 62789.30366 65054.09112 0.0000059
3.35000 72109.99951 73246.02627 0.0000056
3.36000 82251.57413 83778.00725 0.0000053
3.37000 92718.80942 93891.64351 0.0000050
3.38000 95581.28003 98315.05173 0.0000049
3.39000 91626.36097 93636.95127 0.0000050
3.40000 81455.06688 83215.60164 0.0000053
3.41000 70802.51149 72257.21780 0.0000056
3.42000 61180.22918 63290.79556 0.0000059
3.43000 55546.74932 57333.20675 0.0000061
3.44000 51972.17434 53708.68600 0.0000062
3.45000 50419.04177 51641.74994 0.0000062
3.46000 49156.97611 50450.64052 0.0000062
3.47000 48116.03283 49707.52014 0.0000063
3.48000 48237.53315 49193.44485 0.0000063
3.49000 47603.69992 48808.29787 0.0000063
3.50000 47803.71940 48509.24346 0.0000062
3.51000 47199.44737 48266.48112 0.0000063
3.52000 47448.18803 48068.85954 0.0000062
3.53000 46976.39032 47906.97460 0.0000062
3.54000 47170.72222 47774.34212 0.0000062
3.55000 46986.45835 47666.48757 0.0000062
3.56000 47317.36243 47580.43504 0.0000062
3.57000 46939.70022 47514.42114 0.0000062
3.58000 47015.31941 47467.77891 0.0000061
3.59000 47246.89239 47441.01447 0.0000061
3.60000 47010.54886 47436.25997 0.0000061
3.61000 47430.20362 47458.71067 0.0000061
3.62000 47182.37760 47520.50046 0.0000061
3.63000 47576.17612 47649.22032 0.0000060
3.64000 47535.07224 47901.55229 0.0000060
3.65000 48403.53552 48374.63421 0.0000059
3.66000 48685.47837 49195.40848 0.0000059
3.67000 50160.16209 50465.39261 0.0000059
3.68000 51561.27949 52164.98111 0.0000058
3.69000 53088.67037 53958.48361 0.0000057
3.70000 54019.91419 55110.19386 0.0000057
3.71000 53917.48854 54864.73276 0.0000057
3.72000 52843.83447 53438.49796 0.0000057
3.73000 51347.42748 51703.37026 0.0000057
3.74000 49940.85190 50245.77590 0.0000057
3.75000 49059.31996 49254.28324 0.0000057
3.76000 48530.06327 48697.02612 0.0000057
3.77000 48276.83891 48457.97378 0.0000057
3.78000 48510.84118 48424.22986 0.0000057
3.79000 48172.38449 48523.17020 0.0000057
3.80000 48693.99494 48722.82252 0.0000056
3.81000 48495.94980 49019.73996 0.0000056
3.82000 49211.14401 49440.29104 0.0000056
3.83000 49614.10525 50006.15602 0.0000056
3.84000 50719.62313 50813.92362 0.0000055
3.85000 51358.61804 52057.05336 0.0000055
3.86000 53727.13880 54145.42334 0.0000054
3.87000 57113.54225 57834.75221 0.0000053
3.88000 63461.28725 64240.44874 0.0000051
3.89000 73373.85055 74520.51505 0.0000048
3.90000 88821.51343 89099.43465 0.0000045
3.91000 106547.62587 106445.52866 0.0000041
3.92000 119976.71859 121437.26199 0.0000039
3.93000 124286.08974 125847.89349 0.0000038
3.94000 115429.63167 116431.11195 0.0000039
3.95000 99478.47126 99642.57600 0.0000042
3.96000 81954.67272 83028.56913 0.0000045
3.97000 69609.41346 70125.43688 0.0000047
3.98000 60846.06921 61519.50476 0.0000049
3.99000 56294.16638 56373.04269 0.0000050
4.00000 53541.58994 53472.41585 0.0000051
4.01000 52168.90469 51824.94865 0.0000051
4.02000 51225.26809 50803.99439 0.0000051
4.03000 50928.44066 50135.85394 0.0000051
4.04000 50763.40771 49659.90463 0.0000051
4.05000 50459.40772 49309.20392 0.0000050
4.06000 50446.91790 49058.78548 0.0000050
4.07000 50117.50445 48865.95148 0.0000050
4.08000 50515.07880 48726.58023 0.0000050
4.09000 50111.75638 48630.54225 0.0000050
4.10000 50491.22395 48570.74216 0.0000049
4.11000 49840.31919 48542.34699 0.0000049
4.12000 50264.89821 48542.17157 0.0000049
4.13000 50388.92632 48568.41471 0.0000049
4.14000 50756.16159 48620.64200 0.0000048
4.15000 50530.90759 48699.75184 0.0000048
4.16000 51017.76216 48808.23027 0.0000048
4.17000 51090.83656 48950.86539 0.0000048
4.18000 51231.07189 49136.71285 0.0000047
4.19000 51294.52279 49384.30332 0.0000047
4.20000 51813.29892 49733.85567 0.0000047
4.21000 52236.81300 50269.16551 0.0000046
4.22000 53106.38740 51142.42609 0.0000046
4.23000 54849.59715 52574.50670 0.0000045
4.24000 56543.99990 54794.54459 0.0000045
4.25000 60208.60914 57860.16437 0.0000044
4.26000 63218.87016 61437.75591 0.0000043
4.27000 66098.57526 64430.04773 0.0000042
4.28000 66638.25835 65193.32785 0.0000042
4.29000 65545.01951 63348.82040 0.0000042
4.30000 62356.76263 60352.22111 0.0000043
4.31000 59716.83534 57606.34970 0.0000043
4.32000 57438.97818 55696.23050 0.0000043
4.33000 56726.66486 54681.42704 0.0000043
4.34000 55848.29299 54393.63448 0.0000043
4.35000 55917.45332 54628.81077 0.0000043
4.36000 56245.08466 55248.92832 0.0000043
4.37000 56699.88836 56209.90843 0.0000042
4.38000 58019.18159 57564.41941 0.0000042
4.39000 59106.61988 59494.88686 0.0000042
4.40000 62088.68934 62397.14096 0.0000041
4.41000 65819.23648 67157.31429 0.0000040
4.42000 73583.67560 75169.58380 0.0000039
4.43000 85206.78199 88290.07463 0.0000037
4.44000 105644.40894 108082.31944 0.0000034
4.45000 130585.39659 134401.11794 0.0000032
4.46000 158339.79845 163172.77668 0.0000029
4.47000 176056.51439 184310.33135 0.0000027
4.48000 179920.63521 188218.62717 0.0000027
4.49000 174630.40775 180581.42704 0.0000027
4.50000 172193.22075 176662.14737 0.0000028
4.51000 180033.03943 185551.93294 0.0000027
4.52000 198255.02946 205938.15194 0.0000026
4.53000 214170.68341 225425.51730 0.0000024
4.54000 211671.07751 224460.47646 0.0000025
4.55000 189546.41214 197722.94129 0.0000026
4.56000 156022.84845 159919.17729 0.0000028
4.57000 122679.39728 125190.53224 0.0000031
4.58000 96260.93426 99158.03491 0.0000034
4.59000 81023.19437 82030.93496 0.0000036
4.60000 71311.41356 71702.78535 0.0000037
4.61000 66282.29850 65671.56437 0.0000038
4.62000 62800.21637 62032.15459 0.0000038
4.63000 61359.80794 59656.32339 0.0000038
4.64000 59755.21018 57974.42391 0.0000038
4.65000 59070.27805 56716.45840 0.0000038
4.66000 58711.74874 55748.05231 0.0000038
4.67000 58132.63844 54993.58184 0.0000038
4.68000 58005.28528 54405.88489 0.0000038
4.69000 57602.43169 53955.47933 0.0000038
4.70000 57840.79665 53628.42809 0.0000038
4.71000 57395.37308 53430.35485 0.0000038
4.72000 57771.95106 53395.29914 0.0000038
4.73000 57790.17842 53592.63046 0.0000038
4.74000 58702.03723 54116.37210 0.0000038
4.75000 59258.10287 55040.31724 0.0000038
4.76000 60781.13683 56331.52969 0.0000037
4.77000 61457.73551 57708.09641 0.0000037
4.78000 62439.19126 58509.28650 0.0000037
4.79000 62068.20696 58118.84025 0.0000037
4.80000 61248.70785 56802.24586 0.0000037
4.81000 59828.57423 55306.81438 0.0000037
4.82000 58505.04642 54084.67785 0.0000038
4.83000 57710.02081 53259.34641 0.0000038
4.84000 57234.41606 52790.75239 0.0000038
4.85000 57208.65417 52606.93525 0.0000038
4.86000 57010.75771 52582.46436 0.0000038
4.87000 57432.96472 52698.69332 0.0000038
4.88000 57292.71890 52969.07293 0.0000038
4.89000 58169.30080 53475.89878 0.0000038
4.90000 58543.13088 54394.66826 0.0000038
4.91000 60231.97328 55993.23550 0.0000037
4.92000 62299.78478 58546.01728 0.0000037
4.93000 66685.29104 62252.41711 0.0000037
4.94000 70894.22971 66779.49422 0.0000036
4.95000 74637.18314 70889.53292 0.0000036
4.96000 75605.80746 72383.21826 0.0000036
4.97000 73829.70660 70221.19537 0.0000036
4.98000 69838.19647 66093.40697 0.0000036
4.99000 65559.11396 62067.52300 0.0000037
5.00000 61963.86209 59048.82318 0.0000038
5.01000 59588.15170 57069.99768 0.0000038
5.02000 58295.01538 55757.80508 0.0000038
5.03000 57063.72725 54784.96072 0.0000038
5.04000 57143.99686 54055.74847 0.0000038
5.05000 56143.67042 53523.72572 0.0000039
5.06000 56243.05484 53164.81572 0.0000039
5.07000 55737.29141 52942.02798 0.0000039
5.08000 55868.53077 52818.76546 0.0000039
5.09000 55684.96535 52764.09050 0.0000039
5.10000 55931.86715 52756.33496 0.0000039
5.11000 55663.92299 52782.80745 0.0000039
5.12000 55541.04983 52837.27903 0.0000039
5.13000 55609.33755 52917.62308 0.0000040
5.14000 55770.79454 53024.72292 0.0000040
5.15000 55701.64436 53163.88411 0.0000040
5.16000 55761.45290 53344.22624 0.0000040
5.17000 56099.12329 53589.59673 0.0000040
5.18000 56106.77640 53942.70042 0.0000040
5.19000 57023.86990 54468.75569 0.0000040
5.20000 57492.53711 55241.52651 0.0000040
5.21000 58996.22483 56306.21521 0.0000040
5.22000 60060.33807 57607.47415 0.0000040
5.23000 61756.79473 58878.73245 0.0000040
5.24000 61728.11338 59602.86406 0.0000040
5.25000 61601.16366 59485.73610 0.0000040
5.26000 60440.01744 58911.56726 0.0000040
5.27000 59587.51038 58410.25252 0.0000041
5.28000 58729.41448 58251.13501 0.0000041
5.29000 58738.04790 58512.37042 0.0000041
5.30000 58562.38960 59226.34998 0.0000041
5.31000 59347.78128 60437.01383 0.0000041
5.32000 60952.53512 62332.78973 0.0000041
5.33000 63781.86972 65387.57590 0.0000041
5.34000 68598.61455 70539.14440 0.0000040
5.35000 76571.24898 79267.51399 0.0000039
5.36000 91592.77562 93322.58627 0.0000037
5.37000 112431.69841 113865.12782 0.0000035
5.38000 140460.31834 139935.57253 0.0000032
5.39000 164246.58590 165906.00692 0.0000029
5.40000 176971.89295 179823.89619 0.0000028
5.41000 172022.38985 172924.26180 0.0000029
5.42000 154862.35618 152375.48629 0.0000031
5.43000 133450.00194 130830.30590 0.0000033
5.44000 116635.39394 114428.61383 0.0000035
5.45000 103829.63902 102854.57271 0.0000037
5.46000 94200.67083 93059.22013 0.0000038
5.47000 84681.35041 83784.68774 0.0000040
5.48000 76382.95175 75877.96302 0.0000041
5.49000 69750.63970 69906.72726 0.0000042
5.50000 64795.23338 65772.83167 0.0000044
5.51000 62072.86887 63109.40185 0.0000044
5.52000 60087.95935 61488.82275 0.0000045
5.53000 59393.14130 60552.10913 0.0000045
5.54000 58429.79050 60062.31161 0.0000046
5.55000 58770.04342 59895.92456 0.0000046
5.56000 58378.13333 60013.22435 0.0000046
5.57000 59207.31920 60444.66557 0.0000046
5.58000 59678.98933 61314.75778 0.0000046
5.59000 61592.94813 62912.73375 0.0000046
5.60000 63713.19185 65790.26836 0.0000046
5.61000 68787.46074 70799.22888 0.0000045
5.62000 76540.01161 78919.36114 0.0000043
5.63000 88130.65088 90735.62774 0.0000041
5.64000 102257.36936 105529.09506 0.0000039
5.65000 114049.66201 119688.23052 0.0000038
5.66000 119319.90670 125913.36400 0.0000037
5.67000 114616.70427 119559.95071 0.0000038
5.68000 103000.49883 105557.81559 0.0000040
5.69000 89322.44380 91158.54866 0.0000042
5.70000 78109.53098 79864.40295 0.0000044
5.71000 70243.75694 72364.35929 0.0000046
5.72000 66381.82417 68114.54043 0.0000047
5.73000 64228.04074 66277.52756 0.0000048
5.74000 64845.57558 66311.81927 0.0000048
5.75000 66609.50066 68229.04151 0.0000048
5.76000 71431.30269 72541.00798 0.0000047
5.77000 79997.80572 80035.90813 0.0000045
5.78000 93108.71441 91165.93515 0.0000043
5.79000 108513.50088 105127.18846 0.0000040
5.80000 121329.50452 118350.08931 0.0000038
5.81000 126892.13158 123856.62080 0.0000038
5.82000 121350.95282 117332.79515 0.0000039
5.83000 107894.03526 103497.08800 0.0000041
5.84000 92571.49025 89233.62884 0.0000044
5.85000 79716.71042 77871.79201 0.0000047
5.86000 70398.15317 70044.80118 0.0000049
5.87000 65442.30149 65190.38397 0.0000050
5.88000 61859.41523 62355.17011 0.0000052
5.89000 60449.71177 60726.97887 0.0000052
5.90000 59167.88522 59776.69978 0.0000053
5.91000 58811.62011 59220.71578 0.0000053
5.92000 58304.07006 58926.61091 0.0000053
5.93000 58476.88692 58840.03291 0.0000053
5.94000 58210.92456 58947.46464 0.0000054
5.95000 58671.94016 59265.76411 0.0000054
5.96000 59272.25841 59852.89540 0.0000054
5.97000 60218.89411 60845.83060 0.0000054
5.98000 61707.10995 62535.94576 0.0000053
5.99000 64678.03214 65470.56221 0.0000053
6.00000 69909.98546 70496.94330 0.0000052
6.01000 78101.43453 78622.46958 0.0000050
6.02000 91310.60042 90544.44476 0.0000047
6.03000 106645.98892 105733.64657 0.0000044
6.04000 121891.70678 120905.50256 0.0000041
6.05000 128070.58351 128826.74664 0.0000040
6.06000 124440.70308 123780.33869 0.0000041
6.07000 111210.93849 109608.73269 0.0000043
6.08000 95736.40914 94012.03941 0.0000047
6.09000 81428.28697 81225.79725 0.0000050
6.10000 71912.43377 72266.74369 0.0000053
6.11000 65754.22941 66641.98162 0.0000055
6.12000 62535.08150 63373.74627 0.0000056
6.13000 60483.65108 61564.12469 0.0000057
6.14000 59755.73984 60616.18474 0.0000057
6.15000 59408.33710 60230.14857 0.0000057
6.16000 59418.86470 60332.59882 0.0000058
6.17000 60482.65008 61037.92245 0.0000057
6.18000 62052.60466 62650.22987 0.0000057
6.19000 65541.81162 65641.51721 0.0000056
6.20000 70780.15926 70515.72776 0.0000055
6.21000 79094.77715 77486.58920 0.0000052
6.22000 87427.54639 85884.92498 0.0000050
6.23000 95064.79875 93164.13260 0.0000049
6.24000 96696.68957 95079.90924 0.0000048
6.25000 92670.86154 90120.00735 0.0000049
6.26000 84559.68420 81725.57090 0.0000052
6.27000 76113.09350 73652.58088 0.0000054
6.28000 68545.00713 67468.49245 0.0000057
6.29000 64136.44285 63341.92499 0.0000058
6.30000 60813.36834 60865.64603 0.0000060
6.31000 59274.02767 59510.19275 0.0000060
6.32000 58546.69289 58857.08393 0.0000061
6.33000 58329.71998 58670.54986 0.0000061
6.34000 58426.48942 58887.73875 0.0000061
6.35000 58748.14709 59605.10170 0.0000061
6.36000 60452.76589 61084.50559 0.0000061
6.37000 62594.16950 63738.64420 0.0000060
6.38000 66897.81331 68020.55704 0.0000059
6.39000 72592.86569 74158.90093 0.0000057
6.40000 79881.74784 81673.82027 0.0000055
6.41000 85299.35801 88538.96710 0.0000053
6.42000 87583.53211 91108.21211 0.0000053
6.43000 84770.70528 87506.87676 0.0000054
6.44000 79458.68035 80457.13438 0.0000056
6.45000 72582.19230 73453.87186 0.0000058
6.46000 67574.72312 68124.48112 0.0000060
6.47000 64240.26993 64799.19904 0.0000061
6.48000 62839.82802 63283.59324 0.0000062
6.49000 63059.26176 63409.97019 0.0000062
6.50000 65175.69487 65156.33460 0.0000061
6.51000 69823.39246 68738.39209 0.0000060
6.52000 76598.22200 74411.95762 0.0000057
6.53000 86315.73712 82072.80170 0.0000055
6.54000 95298.18328 90570.74878 0.0000052
6.55000 103189.58040 97152.31627 0.0000050
6.56000 106406.29826 99643.52937 0.0000049
6.57000 107855.95949 99673.10891 0.0000049
6.58000 106717.52154 99771.99137 0.0000050
6.59000 104975.64903 99245.10660 0.0000050
6.60000 99622.41924 95057.25611 0.0000052
6.61000 91703.29830 86962.59887 0.0000054
6.62000 82034.59698 78083.72008 0.0000057
6.63000 73746.81824 70665.72396 0.0000060
6.64000 67157.19012 65294.18972 0.0000062
6.65000 62945.96725 61759.58687 0.0000064
6.66000 60439.61511 59565.39071 0.0000065
6.67000 59090.04857 58241.77415 0.0000066
6.68000 58223.94950 57438.69105 0.0000067
6.69000 57672.17331 56946.09033 0.0000067
6.70000 57653.68275 56654.47906 0.0000067
6.71000 57010.14149 56511.55503 0.0000068
6.72000 57465.84764 56493.18175 0.0000068
6.73000 57394.33306 56593.21217 0.0000068
6.74000 58052.50663 56813.19671 0.0000068
6.75000 58104.65839 57159.77302 0.0000068
6.76000 58839.02258 57649.09490 0.0000068
6.77000 58982.62059 58306.97504 0.0000068
6.78000 59278.75808 59180.19363 0.0000068
6.79000 59611.06801 60356.77066 0.0000068
6.80000 60826.09551 61990.76382 0.0000067
6.81000 62148.28452 64376.51289 0.0000067
6.82000 65438.62812 68088.53139 0.0000065
6.83000 70546.67835 74160.26615 0.0000063
6.84000 80018.49806 84172.16225 0.0000060
6.85000 95671.63077 100011.75719 0.0000055
6.86000 119476.57081 123084.22639 0.0000049
6.87000 150267.59195 152777.76848 0.0000042
6.88000 178408.64941 183633.71716 0.0000038
6.89000 195559.34827 202689.47226 0.0000036
6.90000 191849.48522 197627.06355 0.0000036
6.91000 171572.43136 173078.64190 0.0000039
6.92000 143210.09204 143705.43087 0.0000044
6.93000 116465.17654 118315.57873 0.0000050
6.94000 95591.04201 98894.24863 0.0000056
6.95000 82084.49829 84973.69281 0.0000060
6.96000 72569.72344 75613.53418 0.0000064
6.97000 66777.04836 69605.31382 0.0000067
6.98000 62887.81278 65818.25164 0.0000069
6.99000 61096.38244 63473.49957 0.0000069
7.00000 59824.25972 62108.69228 0.0000070
7.01000 59438.71199 61497.05764 0.0000071
7.02000 59746.89171 61620.26153 0.0000071
7.03000 60785.65913 62679.19020 0.0000070
7.04000 63534.17502 65125.16545 0.0000069
7.05000 67854.54766 69622.36266 0.0000067
7.06000 75822.84157 76841.94573 0.0000064
7.07000 85968.47558 87010.83468 0.0000060
7.08000 98613.10370 99064.95438 0.0000056
7.09000 107279.93508 109272.85273 0.0000053
7.10000 109945.70496 111667.63936 0.0000053
7.11000 103937.46577 104282.25962 0.0000054
7.12000 93528.77623 92026.00364 0.0000058
7.13000 81207.17555 80163.41919 0.0000062
7.14000 71544.36926 70939.07350 0.0000066
7.15000 64587.69190 64649.17723 0.0000070
7.16000 60826.47410 60797.91946 0.0000072
7.17000 58490.96059 58710.53002 0.0000073
7.18000 57699.27341 57827.88271 0.0000073
7.19000 57665.77695 57760.89644 0.0000074
7.20000 58217.33059 58181.64396 0.0000073
7.21000 58595.89208 58607.44851 0.0000073
7.22000 58486.37616 58407.09082 0.0000073
7.23000 57966.28918 57343.85399 0.0000074
7.24000 56635.58153 55860.20953 0.0000075
7.25000 55542.35317 54455.47286 0.0000075
7.26000 54268.75322 53343.30293 0.0000076
7.27000 53683.94545 52547.42041 0.0000077
7.28000 52872.25277 52012.79270 0.0000077
7.29000 52863.19986 51665.33742 0.0000077
7.30000 52227.68947 51442.80898 0.0000078
7.31000 52442.40042 51305.21463 0.0000078
7.32000 52040.65165 51233.04853 0.0000078
7.33000 52246.15044 51222.76036 0.0000078
7.34000 51926.42258 51285.37049 0.0000079
7.35000 52165.08297 51447.64503 0.0000078
7.36000 52345.90779 51754.73028 0.0000078
7.37000 52946.99050 52263.24378 0.0000078
7.38000 53802.54265 53004.33501 0.0000078
7.39000 54724.40946 54009.39074 0.0000077
7.40000 55904.20838 55131.76550 0.0000077
7.41000 56409.65035 56023.73205 0.0000077
7.42000 56708.00263 56310.80154 0.0000077
7.43000 56013.81805 56099.45018 0.0000077
7.44000 55670.74308 55913.61817 0.0000077
7.45000 55252.92114 56175.06843 0.0000078
7.46000 56031.73357 57243.05424 0.0000077
7.47000 57499.82700 59526.91601 0.0000077
7.48000 61553.64325 63563.07324 0.0000074
7.49000 67329.54403 69927.37491 0.0000071
7.50000 76600.21165 78949.35213 0.0000067
7.51000 86903.00692 90116.03111 0.0000063
7.52000 96854.08694 100984.68639 0.0000059
7.53000 102141.82980 106998.58743 0.0000057
7.54000 102679.08098 105801.50671 0.0000057
7.55000 98746.52994 100453.13894 0.0000059
7.56000 92376.54411 94136.32733 0.0000061
7.57000 84660.68453 86945.16196 0.0000064
7.58000 76903.37551 78760.08715 0.0000067
7.59000 69486.68076 71008.19567 0.0000071
7.60000 63222.44035 64872.48565 0.0000074
7.61000 58959.84062 60549.87358 0.0000077
7.62000 55595.88851 57763.53758 0.0000079
7.63000 54375.47271 56159.27079 0.0000080
7.64000 53447.72245 55419.80251 0.0000081
7.65000 53805.29746 55445.21410 0.0000081
7.66000 54610.63448 56276.44123 0.0000080
7.67000 56852.87890 58101.83167 0.0000079
7.68000 60123.33685 61142.22651 0.0000077
7.69000 65342.82487 65444.42553 0.0000074
7.70000 70517.74166 70518.41580 0.0000071
7.71000 74799.69771 74771.40080 0.0000069
7.72000 75742.61065 75797.78202 0.0000069
7.73000 73724.73253 72976.65080 0.0000070
7.74000 68908.91061 68404.46993 0.0000073
7.75000 64159.70824 64236.83504 0.0000075
7.76000 60538.43059 61462.09641 0.0000077
7.77000 59091.60491 60377.60669 0.0000078
7.78000 59504.86528 61068.01674 0.0000078
7.79000 62160.90321 63644.11983 0.0000077
7.80000 67588.30763 68316.04247 0.0000074
7.81000 74387.24746 75239.73948 0.0000070
7.82000 83366.31481 84109.36195 0.0000066
7.83000 92365.07697 93908.57432 0.0000063
7.84000 102214.02144 103962.16314 0.0000059
7.85000 109370.32922 113641.22680 0.0000057
7.86000 112483.62788 119422.67349 0.0000056
7.87000 108633.73601 116097.76557 0.0000057
7.88000 99258.74896 104232.44690 0.0000060
7.89000 86613.87729 89804.94922 0.0000065
7.90000 74744.52171 77186.44879 0.0000071
7.91000 65428.55926 67751.02586 0.0000076
7.92000 59474.29600 61342.66281 0.0000080
7.93000 55499.90538 57251.03797 0.0000082
7.94000 53521.29886 54700.62764 0.0000084
7.95000 52042.71895 53083.87843 0.0000085
7.96000 51253.19581 52013.92933 0.0000086
7.97000 50712.85539 51274.28259 0.0000086
7.98000 50441.93628 50754.50844 0.0000087
7.99000 50241.40732 50398.74349 0.0000087
8.00000 49947.91350 50178.62341 0.0000087
8.01000 50284.87612 50081.81167 0.0000087
8.02000 50071.75611 50108.76231 0.0000087
8.03000 50455.50529 50274.76151 0.0000087
8.04000 50489.64278 50617.16162 0.0000087
8.05000 51272.56282 51208.90513 0.0000087
8.06000 51871.43795 52164.14103 0.0000086
8.07000 53396.89979 53701.81325 0.0000085
8.08000 55620.90020 56093.91651 0.0000084
8.09000 59358.07450 59690.27327 0.0000081
8.10000 63971.41741 64790.16322 0.0000079
8.11000 70680.97999 71365.50542 0.0000075
8.12000 78399.50136 78981.78265 0.0000071
8.13000 87081.73323 87177.52109 0.0000067
8.14000 93792.63860 94628.27630 0.0000064
8.15000 96350.44944 97696.90757 0.0000063
8.16000 93076.16927 93446.58848 0.0000064
8.17000 85258.19094 84148.73738 0.0000068
8.18000 75459.51435 74174.49186 0.0000073
8.19000 66964.76158 65935.49396 0.0000078
8.20000 60391.03799 59997.99910 0.0000082
8.21000 55872.66494 56096.31751 0.0000085
8.22000 53440.05413 53698.57627 0.0000087
8.23000 51852.23062 52290.95996 0.0000088
8.24000 51324.54681 51493.77531 0.0000089
8.25000 50566.91177 51095.15112 0.0000090
8.26000 50624.16279 50976.74215 0.0000090
8.27000 50330.74720 51094.22217 0.0000090
8.28000 50931.27567 51436.30773 0.0000090
8.29000 50934.80687 52027.35810 0.0000090
8.30000 51563.42197 52943.89617 0.0000090
8.31000 52621.06602 54368.26044 0.0000089
8.32000 54475.08045 56651.84543 0.0000088
8.33000 57039.84443 60390.06789 0.0000086
8.34000 62357.98371 66455.21353 0.0000082
8.35000 71035.12576 75869.42086 0.0000077
8.36000 83931.74340 89414.88995 0.0000070
8.37000 100496.06771 106834.83345 0.0000063
8.38000 115903.41435 125299.26324 0.0000057
8.39000 125882.71833 137626.72156 0.0000054
8.40000 125236.39366 135906.32725 0.0000054
8.41000 114887.87002 121340.36203 0.0000058
8.42000 98780.77283 102527.96520 0.0000064
8.43000 83216.70534 85719.12927 0.0000071
8.44000 70219.95107 72997.86959 0.0000078
8.45000 61991.08009 64281.37335 0.0000084
8.46000 56480.22249 58689.52859 0.0000088
8.47000 53643.25772 55202.44413 0.0000090
8.48000 51545.91282 53012.71401 0.0000092
8.49000 50640.58304 51598.63499 0.0000093
8.50000 49812.56826 50677.31738 0.0000094
8.51000 49827.74558 50118.11870 0.0000094
8.52000 49922.49424 49870.36709 0.0000094
8.53000 50321.02348 49911.63709 0.0000094
8.54000 50975.81050 50202.73538 0.0000093
8.55000 52023.00057 50629.67300 0.0000093
8.56000 52290.31225 50939.14345 0.0000093
8.57000 52448.02165 50900.49743 0.0000092
8.58000 51961.42977 50617.01810 0.0000093
8.59000 51700.76028 50446.41655 0.0000093
8.60000 51929.88116 50730.82654 0.0000093
8.61000 52680.78437 51726.95062 0.0000093
8.62000 54925.45147 53651.93244 0.0000091
8.63000 58297.23219 56650.28493 0.0000088
8.64000 63241.60284 60584.56720 0.0000085
8.65000 67294.50685 64721.03553 0.0000082
8.66000 70392.40443 67353.85825 0.0000080
8.67000 69989.23871 66796.37115 0.0000081
8.68000 67136.34927 63489.85592 0.0000083
8.69000 62526.79736 59372.63232 0.0000086
8.70000 58306.72014 55789.94300 0.0000089
8.71000 54640.78266 53190.37919 0.0000092
8.72000 52272.45171 51579.00302 0.0000095
8.73000 50767.54183 50806.49324 0.0000096
8.74000 50496.10436 50731.45413 0.0000096
8.75000 50558.25400 51313.21357 0.0000097
8.76000 51689.97904 52688.48230 0.0000096
8.77000 53933.64451 55175.75597 0.0000094
8.78000 57773.82102 59225.01724 0.0000091
8.79000 63869.93349 65259.06714 0.0000086
8.80000 71844.76385 73360.05662 0.0000080
8.81000 80936.52108 82653.05295 0.0000075
8.82000 87139.90254 90332.51954 0.0000072
8.83000 89322.18725 92174.29906 0.0000071
8.84000 85421.22555 86916.66893 0.0000073
8.85000 78125.14825 78067.28176 0.0000077
8.86000 69646.03673 69453.24327 0.0000082
8.87000 62817.59389 62815.82707 0.0000087
8.88000 57998.14672 58497.90680 0.0000091
8.89000 55866.45351 56249.10971 0.0000093
8.90000 54793.43993 55599.83636 0.0000094
8.91000 55072.39088 55966.73332 0.0000094
8.92000 55268.22710 56595.43733 0.0000094
8.93000 55511.16757 56745.42673 0.0000094
8.94000 55226.90298 56264.68907 0.0000094
8.95000 54594.98128 55387.37252 0.0000095
8.96000 53552.84292 54198.99383 0.0000096
8.97000 52550.36363 52752.08200 0.0000097
8.98000 51411.87800 51386.83896 0.0000098
8.99000 50861.45803 50400.63492 0.0000098
9.00000 50319.46681 49905.82054 0.0000099
9.01000 50303.24228 49959.27320 0.0000099
9.02000 51268.09800 50651.39174 0.0000098
9.03000 52557.69970 52138.80408 0.0000097
9.04000 55165.25930 54631.45801 0.0000095
9.05000 58702.38070 58287.35080 0.0000092
9.06000 63736.66215 63010.71427 0.0000088
9.07000 68030.19192 68047.47627 0.0000084
9.08000 71286.66463 71549.38045 0.0000082
9.09000 71263.00773 71539.73463 0.0000082
9.10000 69174.73417 68401.13631 0.0000084
9.11000 65489.22345 64469.08947 0.0000086
9.12000 62392.19681 61592.46600 0.0000089
9.13000 60900.45527 60616.02018 0.0000090
9.14000 61867.07016 61818.64195 0.0000089
9.15000 64652.14792 65116.84953 0.0000087
9.16000 68959.60004 69918.59896 0.0000084
9.17000 72676.22465 74716.28557 0.0000081
9.18000 74870.99529 77144.17763 0.0000080
9.19000 74585.68851 76074.66031 0.0000080
9.20000 71937.27357 72711.80458 0.0000082
9.21000 68077.87269 68352.13953 0.0000085
9.22000 64071.50942 63551.97894 0.0000088
9.23000 60395.94455 59026.84841 0.0000091
9.24000 57189.40917 55410.33706 0.0000093
9.25000 55201.96488 52863.75288 0.0000095
9.26000 53604.94448 51270.14933 0.0000096
9.27000 53140.70811 50462.16715 0.0000097
9.28000 52831.46326 50316.89936 0.0000097
9.29000 53505.32033 50769.44863 0.0000096
9.30000 54166.27503 51783.00663 0.0000096
9.31000 55648.35928 53266.04093 0.0000095
9.32000 56701.60131 54932.36088 0.0000094
9.33000 57843.91184 56171.49003 0.0000093
9.34000 58080.24622 56401.55942 0.0000092
9.35000 58230.55997 55857.54651 0.0000092
9.36000 57971.73028 55414.34647 0.0000092
9.37000 58650.57711 55849.93200 0.0000092
9.38000 60397.02918 57632.35096 0.0000090
9.39000 64090.90025 60995.88412 0.0000087
9.40000 68807.19642 65833.76284 0.0000084
9.41000 74005.79520 71331.37621 0.0000080
9.42000 77163.54405 75423.41853 0.0000078
9.43000 77665.44872 75542.75887 0.0000078
9.44000 74802.95936 71523.78222 0.0000080
9.45000 70213.45679 65795.91779 0.0000083
9.46000 65186.31834 60463.39176 0.0000087
9.47000 61191.41621 56327.02613 0.0000090
9.48000 58476.56541 53467.15956 0.0000092
9.49000 56463.32969 51668.30709 0.0000094
9.50000 55572.21599 50638.00996 0.0000094
9.51000 54977.74088 50132.00671 0.0000095
9.52000 54976.90506 49992.39599 0.0000095
9.53000 54906.44098 50119.82726 0.0000095
9.54000 55294.28678 50485.21686 0.0000095
9.55000 55702.94035 51078.50187 0.0000094
9.56000 56547.74202 51889.63686 0.0000093
9.57000 57032.74301 52888.42045 0.0000093
9.58000 58104.30296 54060.81481 0.0000092
9.59000 59143.78527 55548.38935 0.0000091
9.60000 61186.39264 57717.07419 0.0000089
9.61000 64406.52026 61083.46412 0.0000087
9.62000 69790.99892 66267.92273 0.0000083
9.63000 78008.01823 73938.47619 0.0000078
9.64000 89863.93034 84639.92912 0.0000071
9.65000 104150.26138 98215.49316 0.0000065
9.66000 119461.12304 112968.23647 0.0000059
9.67000 133007.97206 125921.20431 0.0000054
9.68000 141406.70915 135042.98568 0.0000052
9.69000 143144.27592 138630.42840 0.0000052
9.70000 136740.51261 133652.08440 0.0000053
9.71000 124274.57257 120614.03478 0.0000057
9.72000 108909.72513 104906.43974 0.0000063
9.73000 94094.95242 91224.02668 0.0000069
9.74000 82998.64222 81452.94273 0.0000075
9.75000 76874.64721 75892.72554 0.0000078
9.76000 74670.95845 74326.14691 0.0000080
9.77000 77705.14416 76456.16691 0.0000078
9.78000 83877.19489 81950.69803 0.0000074
9.79000 93824.77247 90139.81887 0.0000069
9.80000 102789.83364 99243.67135 0.0000065
9.81000 109394.19931 105595.38955 0.0000062
9.82000 109356.94424 105569.09767 0.0000063
9.83000 104790.11033 100068.95391 0.0000064
9.84000 97735.80940 93649.41149 0.0000067
9.85000 92990.25970 90029.65327 0.0000070
9.86000 92845.67824 90953.52485 0.0000070
9.87000 98994.50233 96788.79514 0.0000067
9.88000 108845.00114 106574.26358 0.0000063
9.89000 119162.76428 117170.11152 0.0000059
9.90000 124235.68010 122884.40380 0.0000057
9.91000 122417.07989 119446.99167 0.0000058
9.92000 113358.87091 108901.29027 0.0000061
9.93000 100849.06324 96090.60718 0.0000066
9.94000 87913.18615 84004.37623 0.0000072
9.95000 77140.16833 73993.17133 0.0000078
9.96000 68974.85412 66493.89859 0.0000084
9.97000 63120.67128 61267.95778 0.0000088
9.98000 59531.87341 57770.83536 0.0000091
9.99000 57155.54160 55491.81675 0.0000093
10.00000 55683.77748 54018.02070 0.0000094
10.01000 54677.19250 53085.03881 0.0000095
10.02000 54225.99712 52541.08898 0.0000096
10.03000 53756.49407 52301.68217 0.0000096
10.04000 53820.00657 52348.57246 0.0000096
10.05000 54049.98688 52713.46998 0.0000096
10.06000 54812.83860 53527.85207 0.0000095
10.07000 55949.66425 55026.06941 0.0000094
10.08000 58439.52708 57515.54505 0.0000092
10.09000 62072.30078 61308.26126 0.0000089
10.10000 67793.10947 66584.75560 0.0000085
10.11000 74010.03665 73103.16501 0.0000080
10.12000 80237.39774 79648.01964 0.0000077
10.13000 84244.90605 83796.27915 0.0000074
10.14000 85088.57023 83712.15954 0.0000074
10.15000 82466.48619 80162.52302 0.0000075
10.16000 77702.98489 74848.65786 0.0000078
10.17000 71599.23529 68870.35863 0.0000082
10.18000 65609.14377 63217.01453 0.0000086
10.19000 60688.20671 58611.45254 0.0000090
10.20000 56846.31758 55229.93834 0.0000094
10.21000 54290.39478 52908.03967 0.0000096
10.22000 52456.77896 51390.75787 0.0000098
10.23000 51482.86625 50445.90479 0.0000098
10.24000 50827.10003 49895.28453 0.0000099
10.25000 50863.89003 49604.98793 0.0000099
10.26000 50489.24334 49459.67001 0.0000100
10.27000 50628.86152 49332.28304 0.0000099
10.28000 50213.59565 49141.52388 0.0000100
10.29000 50048.31171 48912.51401 0.0000100
10.30000 49982.66511 48766.72727 0.0000100
10.31000 50178.07760 48777.42226 0.0000100
10.32000 50429.46378 48979.30397 0.0000100
10.33000 51030.46978 49360.31127 0.0000099
10.34000 51487.97138 49837.49566 0.0000099
10.35000 51936.28433 50197.24659 0.0000098
10.36000 51827.87012 50199.12001 0.0000099
10.37000 51560.36950 49819.10844 0.0000099
10.38000 50724.60692 49283.30237 0.0000100
10.39000 50014.12226 48799.37422 0.0000100
10.40000 49139.30987 48459.97533 0.0000101
10.41000 48836.82890 48290.95898 0.0000102
10.42000 48613.68790 48297.94202 0.0000102
10.43000 48587.68065 48490.30013 0.0000102
10.44000 48805.34402 48894.12537 0.0000102
10.45000 49368.77769 49532.58409 0.0000101
10.46000 49825.26324 50426.87378 0.0000101
10.47000 50647.14417 51537.80786 0.0000100
10.48000 51536.95669 52685.58486 0.0000099
10.49000 51811.72379 53484.27231 0.0000099
10.50000 52063.83539 53571.66634 0.0000098
10.51000 51519.00776 53040.72736 0.0000099
10.52000 51029.60169 52363.16918 0.0000100
10.53000 50612.39472 51921.28466 0.0000100
10.54000 50750.92533 51916.50550 0.0000100
10.55000 50923.24597 52433.61953 0.0000100
10.56000 52239.39021 53540.91482 0.0000098
10.57000 53680.77984 55188.92268 0.0000097
10.58000 55745.46210 57212.90951 0.0000095
10.59000 57278.24330 59210.75041 0.0000094
10.60000 58561.41936 60455.24563 0.0000093
10.61000 58206.29809 60342.66278 0.0000093
10.62000 57370.51252 59158.62108 0.0000094
10.63000 55701.37818 57773.69302 0.0000095
10.64000 54694.02245 56860.57493 0.0000096
10.65000 54097.29720 56759.73199 0.0000097
10.66000 54833.36859 57637.69866 0.0000096
10.67000 56719.26791 59583.49054 0.0000095
10.68000 59625.18301 62567.16131 0.0000092
10.69000 63074.20040 66352.86740 0.0000089
10.70000 66496.97857 70215.07843 0.0000087
10.71000 68640.17872 72915.39307 0.0000085
10.72000 69654.20645 73805.42467 0.0000084
10.73000 70148.85653 73966.89902 0.0000084
10.74000 71408.92482 75235.12994 0.0000083
10.75000 75597.18014 78910.73733 0.0000080
10.76000 82834.15288 85525.52056 0.0000076
10.77000 93132.06052 94696.71341 0.0000070
10.78000 102969.76662 104503.58253 0.0000066
10.79000 110897.24920 111290.87124 0.0000063
10.80000 112639.93959 112179.43391 0.0000062
10.81000 109168.62190 107708.11696 0.0000063
10.82000 101121.49901 99813.90558 0.0000067
10.83000 90842.00410 90235.74268 0.0000072
10.84000 80636.70741 80962.35998 0.0000077
10.85000 71860.19440 73502.27158 0.0000083
10.86000 65611.26416 68367.48508 0.0000088
10.87000 61941.46444 65477.50038 0.0000090
10.88000 60568.40783 64554.10069 0.0000092
10.89000 61596.09803 65269.33037 0.0000091
10.90000 63520.39000 67203.55596 0.0000089
10.91000 65853.82767 69635.07880 0.0000087
10.92000 67333.15905 71375.58191 0.0000086
10.93000 67603.70544 71408.09876 0.0000086
10.94000 66517.47599 70084.18882 0.0000087
10.95000 65647.80623 68798.21318 0.0000088
10.96000 65443.11678 68688.78213 0.0000088
10.97000 67133.36223 70261.15861 0.0000087
10.98000 70608.74055 73426.03916 0.0000084
10.99000 74587.67736 77354.33905 0.0000081
11.00000 77920.02166 80375.46419 0.0000079
11.01000 79305.77674 80950.62378 0.0000078
11.02000 78070.39741 79031.05392 0.0000079
11.03000 74667.96501 75395.13514 0.0000081
11.04000 69922.75867 70864.91353 0.0000085
11.05000 65061.27527 66442.84095 0.0000088
11.06000 61027.83488 62951.06864 0.0000092
11.07000 58062.90157 60754.07422 0.0000094
11.08000 56753.04304 59910.01660 0.0000095
11.09000 56811.75975 60354.01102 0.0000095
11.10000 58359.92018 61942.04506 0.0000094
11.11000 60335.91363 64352.46866 0.0000092
11.12000 62744.30657 66860.52270 0.0000090
11.13000 63624.92412 68229.87722 0.0000090
11.14000 63499.80718 67501.47500 0.0000090
11.15000 61909.34065 65109.09018 0.0000091
11.16000 59752.85075 62325.51374 0.0000093
11.17000 57969.09099 60063.98280 0.0000094
11.18000 57091.57195 58647.18433 0.0000095
11.19000 56787.72963 58002.61005 0.0000096
11.20000 57042.41183 57751.63401 0.0000095
11.21000 56660.00712 57323.27043 0.0000096
11.22000 55921.26307 56363.53609 0.0000096
11.23000 54557.76488 55048.51477 0.0000098
11.24000 53036.35997 53747.14394 0.0000099
11.25000 51526.35012 52676.06168 0.0000101
11.26000 50670.94862 51888.55178 0.0000101
11.27000 49854.39727 51370.82329 0.0000102
11.28000 49694.23223 51084.30940 0.0000103
11.29000 49270.50844 50984.83787 0.0000103
11.30000 49350.55488 51050.33667 0.0000103
11.31000 49548.39844 51260.62445 0.0000103
11.32000 49946.30660 51609.23907 0.0000102
11.33000 50292.05379 52094.65399 0.0000102
11.34000 50702.72286 52739.95292 0.0000102
11.35000 51405.22995 53640.83322 0.0000101
11.36000 52745.44778 54988.85488 0.0000100
11.37000 54876.56746 56996.05713 0.0000097
11.38000 57700.87763 59812.34418 0.0000095
11.39000 61932.11963 63408.67001 0.0000091
11.40000 65838.33642 67369.89541 0.0000088
11.41000 70129.51903 70715.67571 0.0000085
11.42000 72380.61140 72379.37856 0.0000083
11.43000 72853.58646 72025.60206 0.0000083
11.44000 71085.60719 69871.67454 0.0000084
11.45000 67493.70709 66397.28230 0.0000087
11.46000 63213.92829 62495.79393 0.0000090
11.47000 59092.44187 58985.50120 0.0000094
11.48000 55528.96861 56218.56814 0.0000097
11.49000 53131.42915 54203.13963 0.0000099
11.50000 51442.69207 52808.92858 0.0000101
11.51000 50328.68203 51875.19814 0.0000102
11.52000 49697.10936 51259.47056 0.0000103
11.53000 49336.07747 50855.19944 0.0000103
11.54000 49085.53839 50590.41081 0.0000104
11.55000 49099.80239 50427.39711 0.0000103
11.56000 48924.16647 50341.14241 0.0000104
11.57000 49012.11632 50327.14684 0.0000104
11.58000 49069.01923 50388.81774 0.0000104
11.59000 49598.84618 50526.80159 0.0000103
11.60000 49909.10910 50736.67439 0.0000103
11.61000 50538.32838 50999.02083 0.0000102
11.62000 50981.64553 51276.09220 0.0000102
11.63000 51541.24239 51509.60688 0.0000101
11.64000 51604.87898 51632.24523 0.0000101
11.65000 51595.49949 51629.71518 0.0000101
11.66000 51233.83709 51570.58098 0.0000101
11.67000 50898.70657 51554.02440 0.0000102
11.68000 50755.63513 51632.61639 0.0000102
11.69000 50476.76745 51824.29480 0.0000102
11.70000 50604.17216 52149.39992 0.0000102
11.71000 50717.06984 52633.87495 0.0000102
11.72000 51439.75299 53326.58621 0.0000101
11.73000 52077.12057 54316.33696 0.0000100
11.74000 53320.47985 55747.56905 0.0000099
11.75000 54950.22807 57826.97699 0.0000098
11.76000 58296.53842 60808.67277 0.0000095
11.77000 62774.76643 64943.27462 0.0000091
11.78000 69068.53839 70365.46171 0.0000086
11.79000 76099.16667 76856.02241 0.0000081
11.80000 83505.25201 83446.68196 0.0000076
11.81000 88636.27857 88359.09940 0.0000073
11.82000 90732.76169 90180.17978 0.0000072
11.83000 89224.43704 88923.38277 0.0000073
11.84000 85204.97081 85344.47808 0.0000075
11.85000 79478.93386 80693.89435 0.0000079
11.86000 74589.11910 76590.50551 0.0000082
11.87000 71062.89636 74240.45609 0.0000084
11.88000 70377.76522 74221.19756 0.0000085
11.89000 72847.57227 76700.01805 0.0000083
11.90000 78119.01417 81528.46417 0.0000080
11.91000 85208.09133 88048.83156 0.0000075
11.92000 91540.64910 94638.96518 0.0000072
11.93000 95520.95305 98675.18002 0.0000070
11.94000 95944.78442 98482.37853 0.0000070
11.95000 93260.93814 95414.89763 0.0000071
11.96000 90869.49212 92374.32171 0.0000072
11.97000 89796.20332 91341.71236 0.0000073
11.98000 91340.17686 92692.10616 0.0000072
11.99000 93727.89249 95279.64214 0.0000071
12.00000 94832.24271 96530.12227 0.0000070
12.01000 92429.34700 93982.95421 0.0000071
12.02000 87140.67341 87789.18883 0.0000074
12.03000 79676.27625 80229.59011 0.0000079
12.04000 72355.21022 73245.31750 0.0000083
12.05000 66040.53839 67656.44791 0.0000088
12.06000 61562.40797 63589.63081 0.0000092
12.07000 58635.98164 60878.32652 0.0000094
12.08000 57035.44521 59256.07703 0.0000095
12.09000 56390.40937 58488.14518 0.0000096
12.10000 56438.85221 58360.39594 0.0000096
12.11000 56974.09150 58706.81373 0.0000095
12.12000 57500.81449 59388.65206 0.0000095
12.13000 58685.63760 60376.14930 0.0000094
12.14000 60233.44446 61870.99958 0.0000093
12.15000 62980.20664 64215.29086 0.0000090
12.16000 66946.60070 67654.46314 0.0000087
12.17000 72146.14716 72132.50596 0.0000083
12.18000 77456.71561 77010.14814 0.0000080
12.19000 81953.38105 80904.02610 0.0000077
12.20000 83603.74123 82257.18125 0.0000076
12.21000 82443.07104 80708.01569 0.0000077
12.22000 78540.84666 77054.01288 0.0000079
12.23000 73491.18274 72366.24438 0.0000082
12.24000 68362.60824 67729.39559 0.0000086
12.25000 64003.44395 63930.63580 0.0000089
12.26000 61121.86406 61292.21346 0.0000092
12.27000 59493.24737 59812.01575 0.0000093
12.28000 59207.91118 59328.15422 0.0000093
12.29000 59647.86464 59571.14769 0.0000093
12.30000 60326.48581 60120.82397 0.0000092
12.31000 60932.04643 60409.82497 0.0000092
12.32000 60580.98073 60053.76324 0.0000092
12.33000 60114.73697 59229.53351 0.0000092
12.34000 59397.28332 58441.67218 0.0000093
12.35000 59218.44210 58067.15050 0.0000093
12.36000 59695.79315 58225.32494 0.0000093
12.37000 60733.30682 58800.57348 0.0000092
12.38000 62029.85817 59471.15057 0.0000091
12.39000 62832.14345 59863.49829 0.0000090
12.40000 63209.20365 59723.59050 0.0000090
12.41000 62440.76313 58954.17380 0.0000090
12.42000 60786.25579 57726.49965 0.0000092
12.43000 59092.69389 56431.33725 0.0000093
12.44000 57394.16929 55407.20656 0.0000094
12.45000 55987.93095 54799.43970 0.0000096
12.46000 55496.81679 54642.02812 0.0000096
12.47000 55237.37018 54919.08852 0.0000096
12.48000 55693.37568 55574.30109 0.0000096
12.49000 56163.65063 56515.82135 0.0000095
12.50000 57351.73501 57664.64222 0.0000094
12.51000 58641.93821 59112.64574 0.0000093
12.52000 61110.35705 61161.21978 0.0000091
12.53000 64457.11751 64126.41615 0.0000088
12.54000 69313.73813 68115.48213 0.0000085
12.55000 74657.19289 72817.17502 0.0000081
12.56000 79636.14998 77285.04781 0.0000078
12.57000 82712.04122 80164.71505 0.0000076
12.58000 83093.33073 80575.86579 0.0000076
12.59000 80487.92898 78475.62197 0.0000077
12.60000 76252.40012 74438.60883 0.0000080
12.61000 70905.28462 69610.35975 0.0000083
12.62000 65919.95640 65132.14202 0.0000087
12.63000 61857.75755 61602.88429 0.0000090
12.64000 59368.22889 59158.18507 0.0000092
12.65000 57600.47618 57701.74156 0.0000094
12.66000 56986.58950 57040.54091 0.0000094
12.67000 56783.58269 56928.33784 0.0000094
12.68000 57024.44446 57103.87336 0.0000094
12.69000 57526.10957 57431.12234 0.0000094
12.70000 58516.91577 58010.48200 0.0000093
12.71000 60034.66210 59039.42181 0.0000091
12.72000 62124.77108 60594.75416 0.0000090
12.73000 64502.93234 62485.00883 0.0000088
12.74000 66430.82416 64131.82646 0.0000086
12.75000 66945.70150 64705.04254 0.0000086
12.76000 66247.65648 63826.08383 0.0000086
12.77000 64278.21626 62023.54409 0.0000088
12.78000 62128.43945 60147.49363 0.0000089
12.79000 60011.78864 58767.56945 0.0000091
12.80000 58952.71556 58148.82479 0.0000092
12.81000 59045.06594 58396.39092 0.0000092
12.82000 60339.78558 59533.78120 0.0000091
12.83000 62696.20834 61508.39950 0.0000089
12.84000 65858.91506 64133.56415 0.0000086
12.85000 68714.52973 66951.33408 0.0000084
12.86000 71099.27064 69247.36493 0.0000083
12.87000 72233.40016 70607.62156 0.0000082
12.88000 72878.71600 71519.91855 0.0000081
12.89000 74065.44281 72948.56333 0.0000081
12.90000 76333.56390 75498.06646 0.0000079
12.91000 79532.10467 79030.61005 0.0000077
12.92000 82512.15725 82518.88499 0.0000075
12.93000 84134.33451 84346.17033 0.0000074
12.94000 83239.87950 83527.78994 0.0000075
12.95000 80458.25266 80501.66819 0.0000076
12.96000 76320.57141 76433.45113 0.0000079
12.97000 72033.94422 72512.84535 0.0000082
12.98000 68893.83467 69665.97861 0.0000084
12.99000 67653.84564 68394.75196 0.0000085
13.00000 68231.29246 68838.40384 0.0000084
13.01000 70978.13302 70862.74135 0.0000082
13.02000 74479.49792 74019.83351 0.0000080
13.03000 78219.45827 77366.52719 0.0000078
13.04000 80314.23306 79601.79071 0.0000076
13.05000 81147.35270 80109.38967 0.0000076
13.06000 81305.98781 79755.14626 0.0000076
13.07000 81930.05091 79943.08360 0.0000075
13.08000 83642.28474 81424.24161 0.0000074
13.09000 86359.72779 83898.31639 0.0000073
13.10000 88381.95444 86021.89196 0.0000072
13.11000 88669.68680 86064.81006 0.0000072
13.12000 85987.96628 83355.94699 0.0000073
13.13000 81350.99741 78654.08202 0.0000075
13.14000 75466.23022 73169.78170 0.0000079
13.15000 69716.47687 67929.26891 0.0000083
13.16000 64879.57466 63556.28926 0.0000086
13.17000 61188.19720 60282.24903 0.0000089
13.18000 58808.08248 58055.73870 0.0000091
13.19000 57358.30011 56727.00456 0.0000092
13.20000 56699.77918 56147.90089 0.0000092
13.21000 56694.67917 56199.89228 0.0000092
13.22000 57213.26296 56853.08272 0.0000092
13.23000 58308.09451 58206.90021 0.0000091
13.24000 60672.00340 60471.97019 0.0000089
13.25000 64036.32605 63872.59129 0.0000086
13.26000 69223.79725 68518.83235 0.0000083
13.27000 75576.92373 74239.80806 0.0000078
13.28000 82204.86729 80366.75686 0.0000075
13.29000 87654.74050 85555.30704 0.0000072
13.30000 89667.16752 87912.04097 0.0000071
13.31000 88065.31385 86112.19928 0.0000071
13.32000 82892.25811 80838.82692 0.0000074
13.33000 76387.03869 74178.67590 0.0000078
13.34000 69448.39033 67847.62199 0.0000082
13.35000 63873.00771 62627.77579 0.0000086
13.36000 59544.99363 58691.04733 0.0000090
13.37000 56636.21759 55934.07847 0.0000092
13.38000 54864.12174 54156.45976 0.0000093
13.39000 53879.72176 53148.93598 0.0000094
13.40000 53593.23657 52759.74365 0.0000094
13.41000 53720.97416 52879.04044 0.0000094
13.42000 54415.97108 53420.19045 0.0000094
13.43000 55321.54877 54259.68672 0.0000093
13.44000 56206.04388 55139.19403 0.0000092
13.45000 56659.72594 55636.06519 0.0000092
13.46000 56531.25168 55380.55407 0.0000092
13.47000 55575.81096 54419.75683 0.0000092
13.48000 54679.38215 53155.20276 0.0000093
13.49000 53454.72396 51961.44054 0.0000094
13.50000 52576.83238 51029.13481 0.0000095
13.51000 51774.40441 50424.74185 0.0000096
13.52000 51595.77911 50161.32678 0.0000096
13.53000 51464.10424 50240.00598 0.0000096
13.54000 51777.78248 50685.79140 0.0000095
13.55000 52474.82280 51543.91690 0.0000095
13.56000 53833.97877 52895.91040 0.0000093
13.57000 55678.40580 54859.55540 0.0000092
13.58000 58887.87595 57567.85553 0.0000089
13.59000 62744.23347 61087.17986 0.0000086
13.60000 67794.11153 65265.76095 0.0000083
13.61000 72183.29230 69506.99224 0.0000080
13.62000 75496.93555 72641.64066 0.0000078
13.63000 76136.34091 73486.12140 0.0000077
13.64000 74600.62147 71897.56039 0.0000078
13.65000 71153.10738 68817.90858 0.0000080
13.66000 67144.95813 65405.54444 0.0000083
13.67000 63854.23715 62543.02672 0.0000085
13.68000 61896.64287 60731.60619 0.0000087
13.69000 61392.82406 60133.02143 0.0000087
13.70000 62537.86060 60665.24666 0.0000086
13.71000 64438.54167 62001.65464 0.0000085
13.72000 66316.15589 63498.74856 0.0000083
13.73000 67151.69955 64303.32380 0.0000083
13.74000 66872.54943 63955.75060 0.0000083
13.75000 65670.25865 62852.15597 0.0000084
13.76000 64349.36801 61745.23370 0.0000085
13.77000 63233.26101 61064.58172 0.0000085
13.78000 62408.12967 60728.49683 0.0000086
13.79000 61515.20766 60266.68874 0.0000087
13.80000 60464.74367 59219.65687 0.0000087
13.81000 58786.23872 57600.53603 0.0000089
13.82000 56941.88262 55820.86370 0.0000090
13.83000 55285.24063 54291.97960 0.0000091
13.84000 54296.73367 53256.16076 0.0000092
13.85000 53913.61625 52823.84310 0.0000092
13.86000 54526.38741 53010.85805 0.0000092
13.87000 55631.27589 53765.90576 0.0000091
13.88000 57099.27070 54956.43383 0.0000090
13.89000 58544.94460 56325.60694 0.0000089
13.90000 59655.49408 57602.55023 0.0000088
13.91000 60825.84647 58777.11213 0.0000087
13.92000 62122.99970 60162.99340 0.0000086
13.93000 63829.01852 62059.34379 0.0000084
13.94000 66061.39158 64410.47687 0.0000083
13.95000 67837.38198 66637.48925 0.0000082
13.96000 68683.39291 67789.96375 0.0000081
13.97000 67739.78506 67236.98380 0.0000082
13.98000 65793.93450 65208.55766 0.0000083
13.99000 62612.59488 62462.88237 0.0000085
14.00000 59761.84229 59779.72053 0.0000087
14.01000 57241.41006 57719.22936 0.0000089
14.02000 55939.31217 56551.62771 0.0000090
14.03000 55327.20249 56307.27310 0.0000091
14.04000 55901.53249 56818.23789 0.0000090
14.05000 56667.41269 57704.04074 0.0000090
14.06000 57208.27999 58407.28733 0.0000089
14.07000 57464.28240 58513.30109 0.0000089
14.08000 57457.31531 58126.95193 0.0000089
14.09000 57545.89700 57701.83428 0.0000089
14.10000 57891.84762 57549.34068 0.0000089
14.11000 58088.38416 57593.74954 0.0000088
14.12000 58070.78941 57404.44594 0.0000088
14.13000 57221.93151 56532.02049 0.0000089
14.14000 55863.08093 54978.71162 0.0000090
14.15000 53932.63169 53175.65975 0.0000092
14.16000 52093.61560 51554.22392 0.0000093
14.17000 50637.77240 50343.11041 0.0000095
14.18000 49832.40853 49616.27078 0.0000095
14.19000 49358.96545 49368.04866 0.0000096
14.20000 49304.87724 49547.38915 0.0000096
14.21000 49717.06897 50052.89209 0.0000095
14.22000 50080.12124 50736.78217 0.0000095
14.23000 50727.72813 51476.83595 0.0000094
14.24000 51554.25590 52321.01397 0.0000094
14.25000 52799.81699 53491.73960 0.0000093
14.26000 54714.63715 55204.07664 0.0000091
14.27000 57527.92330 57504.25996 0.0000089
14.28000 60619.07941 60173.49990 0.0000086
14.29000 63577.38212 62694.94230 0.0000084
14.30000 65050.76398 64280.95886 0.0000083
14.31000 65048.81675 64210.52805 0.0000083
14.32000 63320.54474 62435.76538 0.0000084
14.33000 60475.33389 59707.95363 0.0000086
14.34000 57188.08527 56939.76301 0.0000089
14.35000 54402.27124 54708.35005 0.0000091
14.36000 52496.35738 53260.13784 0.0000093
14.37000 51609.50553 52657.17252 0.0000094
14.38000 51501.13277 52872.00862 0.0000094
14.39000 52257.51312 53850.03442 0.0000093
14.40000 54087.51928 55579.25864 0.0000091
14.41000 56846.10368 58076.74327 0.0000089
14.42000 60229.04457 61235.87430 0.0000087
14.43000 64118.19233 64619.19010 0.0000084
14.44000 66656.08164 67270.89563 0.0000082
14.45000 67663.00488 68031.17366 0.0000081
14.46000 66203.44695 66435.94143 0.0000082
14.47000 63251.09945 63137.56487 0.0000084
14.48000 59349.70544 59215.11488 0.0000087
14.49000 55262.20762 55474.98737 0.0000090
14.50000 51823.63058 52341.79420 0.0000093
14.51000 49453.52255 49938.02283 0.0000095
14.52000 47504.38462 48241.59983 0.0000097
14.53000 46514.50717 47171.49579 0.0000098
14.54000 46093.96683 46640.07089 0.0000099
14.55000 46251.17314 46577.20839 0.0000099
14.56000 46646.86373 46930.38536 0.0000098
14.57000 47641.77249 47653.74774 0.0000097
14.58000 48884.34245 48668.00357 0.0000096
14.59000 50317.88617 49800.54304 0.0000095
14.60000 51261.84619 50738.51976 0.0000094
14.61000 51694.93794 51129.99267 0.0000094
14.62000 51406.40455 50859.27300 0.0000094
14.63000 50400.36372 50156.16940 0.0000095
14.64000 49433.28336 49393.90903 0.0000096
14.65000 48681.09214 48885.46942 0.0000096
14.66000 48218.13477 48816.58160 0.0000097
14.67000 48547.40059 49237.95753 0.0000096
14.68000 49162.40751 50063.29217 0.0000096
14.69000 50027.39611 51023.75993 0.0000095
14.70000 50340.37992 51649.86265 0.0000095
14.71000 50360.06452 51470.17198 0.0000095
14.72000 49275.49547 50418.66524 0.0000096
14.73000 48190.45862 48857.99994 0.0000097
14.74000 46623.70686 47227.33305 0.0000098
14.75000 45351.12884 45782.11432 0.0000100
14.76000 44091.12741 44613.18634 0.0000101
14.77000 43396.02453 43716.95025 0.0000102
14.78000 42861.45755 43063.82865 0.0000102
14.79000 42581.46051 42618.24701 0.0000102
14.80000 42156.47179 42347.08871 0.0000103
14.81000 42279.24028 42224.06653 0.0000103
14.82000 42327.32625 42233.49442 0.0000103
14.83000 42531.70746 42371.02546 0.0000102
14.84000 42859.44015 42638.55007 0.0000102
14.85000 43385.22940 43042.92749 0.0000102
14.86000 43812.29781 43586.03140 0.0000101
14.87000 44680.15541 44282.69886 0.0000100
14.88000 45560.98046 45166.89774 0.0000099
14.89000 46736.87021 46261.95810 0.0000098
14.90000 48003.06511 47510.80532 0.0000097
14.91000 49256.62371 48714.26700 0.0000096
14.92000 49871.54450 49551.60725 0.0000095
14.93000 50216.53498 49769.23106 0.0000095
14.94000 49476.88569 49367.13748 0.0000096
14.95000 48614.16312 48577.32121 0.0000097
14.96000 47448.03083 47719.09511 0.0000098
14.97000 46557.93580 47066.79761 0.0000098
14.98000 45990.03975 46775.34872 0.0000099
14.99000 45997.32954 46880.20548 0.0000099
15.00000 46302.58393 47311.11299 0.0000099
15.01000 46866.00654 47904.18902 0.0000098
15.02000 47137.06847 48478.75281 0.0000098
15.03000 47921.52230 48996.28536 0.0000097
15.04000 48693.71255 49596.78576 0.0000097
15.05000 49924.95474 50423.44803 0.0000095
15.06000 51013.00795 51437.58005 0.0000094
15.07000 52188.67157 52367.48294 0.0000093
15.08000 52545.17524 52823.97549 0.0000093
15.09000 52368.29280 52544.24501 0.0000093
15.10000 51197.15011 51540.73536 0.0000094
15.11000 49725.57611 50090.30845 0.0000096
15.12000 47783.97608 48582.87587 0.0000097
15.13000 46506.26094 47325.84390 0.0000099
15.14000 45362.25717 46447.68046 0.0000100
15.15000 44620.86504 45935.29374 0.0000101
15.16000 44252.74464 45677.51238 0.0000101
15.17000 44060.21387 45503.13346 0.0000101
15.18000 43944.63402 45304.33528 0.0000101
15.19000 43828.20714 45119.31922 0.0000101
15.20000 43838.32754 45065.70441 0.0000101
15.21000 44315.82770 45220.55581 0.0000101
15.22000 44775.45982 45563.58792 0.0000100
15.23000 45320.08908 45969.03727 0.0000100
15.24000 45623.15826 46218.63859 0.0000100
15.25000 45517.37305 46101.38166 0.0000100
15.26000 45105.09189 45588.18705 0.0000100
15.27000 44564.58891 44860.40331 0.0000101
15.28000 43795.89654 44153.37507 0.0000101
15.29000 43402.55454 43619.48545 0.0000102
15.30000 43099.87889 43317.43422 0.0000102
15.31000 43337.58852 43234.12720 0.0000102
15.32000 43259.94317 43319.01430 0.0000102
15.33000 43513.44236 43521.65159 0.0000102
15.34000 43707.65833 43839.34858 0.0000102
15.35000 44204.66703 44275.89249 0.0000101
15.36000 44571.27472 44774.99173 0.0000101
15.37000 44862.71477 45171.09817 0.0000100
15.38000 44779.58546 45242.73053 0.0000100
15.39000 44479.16681 44893.36064 0.0000101
15.40000 43586.85040 44256.28856 0.0000102
15.41000 42854.97140 43569.30115 0.0000102
15.42000 42152.19828 43009.78869 0.0000103
15.43000 41756.75426 42668.38893 0.0000104
15.44000 41449.87793 42572.21127 0.0000104
15.45000 41523.72490 42703.42111 0.0000104
15.46000 41685.32954 43010.17705 0.0000104
15.47000 42245.43385 43403.69959 0.0000103
15.48000 42520.26717 43814.56688 0.0000103
15.49000 43128.24894 44248.29837 0.0000102
15.50000 43609.27989 44745.10190 0.0000102
15.51000 44280.96281 45277.56496 0.0000101
15.52000 44554.96232 45687.05541 0.0000101
15.53000 44637.13605 45746.04298 0.0000101
15.54000 44181.34654 45369.15742 0.0000101
15.55000 43605.32517 44701.58907 0.0000102
15.56000 42885.93160 44003.48939 0.0000102
15.57000 42236.80055 43466.76277 0.0000103
15.58000 41863.27220 43180.03514 0.0000103
15.59000 41911.92060 43150.40672 0.0000103
15.60000 41967.87310 43315.09084 0.0000103
15.61000 42394.13209 43535.45547 0.0000103
15.62000 42357.74002 43622.35568 0.0000103
15.63000 42291.78913 43444.39509 0.0000103
15.64000 42010.18259 43034.34157 0.0000103
15.65000 41816.36959 42536.13708 0.0000103
15.66000 41243.39094 42086.11742 0.0000104
15.67000 41105.80589 41734.36528 0.0000104
15.68000 40789.43601 41471.86144 0.0000104
15.69000 40768.52229 41257.02077 0.0000104
15.70000 40342.95903 41054.19982 0.0000105
15.71000 40118.92712 40862.64364 0.0000105
15.72000 39969.45335 40712.86890 0.0000105
15.73000 39923.48443 40652.63417 0.0000105
15.74000 39844.13359 40700.33128 0.0000105
15.75000 39896.95669 40854.55523 0.0000105
15.76000 39980.45206 41095.00004 0.0000105
15.77000 40316.13274 41386.38909 0.0000105
15.78000 40551.75837 41713.77902 0.0000105
15.79000 41151.13911 42095.07184 0.0000104
15.80000 41634.58867 42543.68653 0.0000103
15.81000 42313.41739 43014.65542 0.0000103
15.82000 42791.07820 43389.20675 0.0000102
15.83000 43154.06683 43529.72246 0.0000102
15.84000 43014.33648 43387.24355 0.0000102
15.85000 42765.00130 43029.21918 0.0000102
15.86000 42158.74632 42594.23354 0.0000103
15.87000 41713.75917 42220.18714 0.0000103
15.88000 41337.35260 42004.16972 0.0000104
15.89000 41369.58233 41995.83277 0.0000103
15.90000 41315.67988 42205.02020 0.0000103
15.91000 41790.92234 42613.09430 0.0000103
15.92000 42382.32045 43190.07425 0.0000102
15.93000 43312.87080 43922.03913 0.0000101
15.94000 44254.83506 44782.69288 0.0000100
15.95000 45525.11523 45694.87378 0.0000099
15.96000 46307.57180 46431.30432 0.0000098
15.97000 46444.66463 46688.89196 0.0000098
15.98000 46121.90543 46300.30496 0.0000098
15.99000 45267.97515 45399.59894 0.0000099
16.00000 43902.59366 44291.29123 0.0000101
16.01000 42688.83568 43231.31181 0.0000102
16.02000 41497.42892 42357.58749 0.0000103
16.03000 40833.84687 41725.61524 0.0000104
16.04000 40280.06206 41347.11053 0.0000104
16.05000 40196.24671 41217.82488 0.0000104
16.06000 40070.73751 41324.70725 0.0000105
16.07000 40582.52649 41648.71236 0.0000104
16.08000 41063.00743 42158.75682 0.0000103
16.09000 41624.78577 42794.71039 0.0000103
16.10000 42238.06783 43439.69744 0.0000102
16.11000 42690.32201 43913.92390 0.0000102
16.12000 42771.83953 44046.67146 0.0000102
16.13000 42583.31717 43809.11635 0.0000102
16.14000 42130.53287 43326.62141 0.0000102
16.15000 41511.15447 42777.84121 0.0000103
16.16000 41233.20069 42301.82179 0.0000103
16.17000 40925.95500 41971.16188 0.0000103
16.18000 40924.09277 41797.35527 0.0000103
16.19000 41020.29489 41740.81013 0.0000103
16.20000 41126.16413 41723.63488 0.0000103
16.21000 41235.13440 41671.61114 0.0000103
16.22000 41393.09805 41566.95835 0.0000103
16.23000 41559.77937 41447.01310 0.0000103
16.24000 41770.37678 41345.33579 0.0000103
16.25000 41815.25647 41258.36490 0.0000102
16.26000 41765.78425 41156.24896 0.0000103
16.27000 41622.42940 41023.78659 0.0000103
16.28000 41429.20656 40884.47109 0.0000103
16.29000 41151.78071 40784.17506 0.0000103
16.30000 40898.70095 40764.72308 0.0000103
16.31000 40891.63246 40854.28105 0.0000103
16.32000 40885.00986 41082.64500 0.0000103
16.33000 41100.59729 41462.17962 0.0000103
16.34000 41471.48713 42003.32596 0.0000103
16.35000 42072.91262 42713.28132 0.0000102
16.36000 43112.28071 43607.19906 0.0000101
16.37000 44348.82675 44694.25881 0.0000100
16.38000 45932.24084 45936.03480 0.0000098
16.39000 47263.47715 47196.82610 0.0000097
16.40000 48438.54726 48230.54104 0.0000096
16.41000 48930.01786 48754.17472 0.0000095
16.42000 48854.49596 48587.40041 0.0000096
16.43000 48064.80989 47787.04489 0.0000096
16.44000 46704.51271 46617.05913 0.0000098
16.45000 45176.05248 45389.05240 0.0000099
16.46000 44026.86855 44319.99863 0.0000100
16.47000 43109.04620 43513.56734 0.0000101
16.48000 42529.22908 42999.26182 0.0000102
16.49000 42487.73145 42766.53196 0.0000102
16.50000 42686.95524 42780.67095 0.0000102
16.51000 42988.81097 42993.57867 0.0000101
16.52000 43456.51149 43321.12062 0.0000101
16.53000 43718.32571 43635.75125 0.0000101
16.54000 44019.27102 43782.34800 0.0000100
16.55000 43839.72232 43671.22433 0.0000101
16.56000 43566.32905 43347.73040 0.0000101
16.57000 42960.25756 42947.08146 0.0000102
16.58000 42607.66435 42597.74766 0.0000102
16.59000 42128.99107 42381.99088 0.0000103
16.60000 41899.84111 42345.61918 0.0000103
16.61000 41934.93864 42513.31862 0.0000103
16.62000 42430.21581 42901.44315 0.0000102
16.63000 42897.85185 43515.18879 0.0000102
16.64000 43845.78504 44352.70580 0.0000101
16.65000 44974.27720 45392.81200 0.0000100
16.66000 46326.95158 46565.58302 0.0000099
16.67000 47546.34226 47719.29290 0.0000097
16.68000 48419.77424 48639.79564 0.0000097
16.69000 48864.14407 49182.77745 0.0000096
16.70000 49030.44973 49381.17382 0.0000096
16.71000 48934.54871 49436.52880 0.0000096
16.72000 49026.32779 49596.31481 0.0000096
16.73000 49617.61160 50031.67307 0.0000096
16.74000 50565.52380 50769.94105 0.0000095
16.75000 51524.42509 51655.85196 0.0000094
16.76000 52505.54045 52357.42275 0.0000093
16.77000 52572.13343 52507.45904 0.0000093
16.78000 52152.79692 51976.35055 0.0000094
16.79000 51190.96341 50972.06839 0.0000095
16.80000 50131.44176 49817.58966 0.0000096
16.81000 49018.89655 48719.46535 0.0000097
16.82000 48210.74223 47713.95316 0.0000098
16.83000 47032.37293 46759.00251 0.0000099
16.84000 46233.43921 45826.46327 0.0000100
16.85000 45319.50827 44939.30581 0.0000101
16.86000 44571.13002 44156.22546 0.0000102
16.87000 43752.96816 43530.48531 0.0000103
16.88000 43335.41684 43096.98118 0.0000103
16.89000 42915.77544 42863.36875 0.0000104
16.90000 42863.08618 42832.33390 0.0000104
16.91000 43166.63100 43001.83839 0.0000104
16.92000 43651.29940 43365.79326 0.0000103
16.93000 44378.75857 43904.48360 0.0000102
16.94000 45152.70499 44576.03581 0.0000102
16.95000 46171.63997 45298.59257 0.0000101
16.96000 46845.44511 45951.04822 0.0000100
16.97000 47288.20846 46409.82013 0.0000100
16.98000 47399.56394 46620.32999 0.0000100
16.99000 47339.24045 46652.95400 0.0000100
17.00000 47356.04519 46658.09094 0.0000100
17.01000 47371.13236 46760.92113 0.0000100
17.02000 47533.13182 46987.10967 0.0000100
17.03000 47817.85539 47245.51950 0.0000100
17.04000 47971.40044 47368.32755 0.0000100
17.05000 47818.63043 47226.69486 0.0000100
17.06000 47404.59683 46838.59524 0.0000101
17.07000 46861.91822 46322.84014 0.0000102
17.08000 46152.89148 45783.88744 0.0000102
17.09000 45547.53502 45236.64195 0.0000103
17.10000 45120.67275 44662.93656 0.0000104
17.11000 44483.51781 44077.36532 0.0000105
17.12000 43959.18512 43534.87471 0.0000105
17.13000 43638.27290 43092.08044 0.0000106
17.14000 43288.92581 42782.64559 0.0000106
17.15000 43126.07239 42620.90091 0.0000107
17.16000 43153.36217 42612.52114 0.0000107
17.17000 43307.38923 42761.81359 0.0000107
17.18000 43474.78552 43071.31268 0.0000107
17.19000 44021.66484 43540.08839 0.0000106
17.20000 44662.92611 44156.08403 0.0000106
17.21000 45474.23220 44882.65208 0.0000105
17.22000 46123.31592 45639.71418 0.0000105
17.23000 46952.99714 46294.56072 0.0000104
17.24000 47298.44845 46705.56194 0.0000104
17.25000 47335.08509 46776.69219 0.0000104
17.26000 46998.51426 46551.80137 0.0000104
17.27000 46786.93263 46194.75076 0.0000105
17.28000 46284.44557 45892.22728 0.0000105
17.29000 46097.48641 45781.85436 0.0000106
17.30000 46017.76232 45943.64144 0.0000106
17.31000 46642.12325 46414.04104 0.0000105
17.32000 47363.27895 47196.36508 0.0000105
17.33000 48831.57232 48254.28044 0.0000103
17.34000 50176.92833 49486.21133 0.0000102
17.35000 51592.26914 50691.41671 0.0000101
17.36000 52432.91904 51584.69072 0.0000100
17.37000 52684.76072 51923.12194 0.0000100
17.38000 52142.98914 51671.71756 0.0000101
17.39000 51434.26927 51023.71618 0.0000102
17.40000 50614.13989 50267.19086 0.0000103
17.41000 49889.14580 49646.85042 0.0000104
17.42000 49679.86136 49306.02696 0.0000104
17.43000 49754.65788 49277.34383 0.0000104
17.44000 49959.84463 49513.76274 0.0000104
17.45000 50699.21771 49935.48526 0.0000104
17.46000 51407.23564 50484.54993 0.0000103
17.47000 52150.29797 51127.29306 0.0000102
17.48000 52867.22235 51777.74650 0.0000102
17.49000 53254.49951 52253.46766 0.0000102
17.50000 53129.77767 52358.75263 0.0000102
17.51000 52653.24869 52059.26517 0.0000102
17.52000 51981.58169 51532.64209 0.0000103
17.53000 51264.01477 51047.81701 0.0000104
17.54000 50944.84110 50816.98126 0.0000105
17.55000 50891.62586 50952.02666 0.0000105
17.56000 51367.59187 51462.22501 0.0000105
17.57000 52294.80669 52266.13320 0.0000104
17.58000 53382.06508 53233.11319 0.0000103
17.59000 54580.97693 54260.94058 0.0000102
17.60000 55939.18757 55300.44215 0.0000101
17.61000 57117.11856 56251.09925 0.0000100
17.62000 57691.33415 56855.27071 0.0000099
17.63000 57460.46157 56781.27669 0.0000100
17.64000 56477.52050 55895.76124 0.0000101
17.65000 54944.01202 54416.71330 0.0000102
17.66000 53040.69978 52741.86853 0.0000105
17.67000 51383.36823 51202.10524 0.0000107
17.68000 50006.64590 49978.19491 0.0000108
17.69000 49169.37578 49131.35831 0.0000110
17.70000 48824.45378 48647.59978 0.0000110
17.71000 48557.52354 48474.78467 0.0000111
17.72000 48918.60651 48559.81386 0.0000110
17.73000 49270.27729 48870.37365 0.0000110
17.74000 50137.56896 49372.11400 0.0000109
17.75000 50952.99781 49981.95064 0.0000109
17.76000 51769.61906 50540.81411 0.0000108
17.77000 52113.26345 50843.28128 0.0000108
17.78000 52099.95289 50733.27597 0.0000108
17.79000 51487.01202 50214.91150 0.0000109
17.80000 50597.96234 49457.91132 0.0000110
17.81000 49598.34146 48673.80511 0.0000111
17.82000 48807.36037 48012.11711 0.0000112
17.83000 48190.17444 47537.03636 0.0000113
17.84000 47744.05190 47254.86746 0.0000114
17.85000 47731.56417 47152.76852 0.0000114
17.86000 47748.68366 47224.23794 0.0000115
17.87000 48092.60021 47462.79086 0.0000114
17.88000 48468.70543 47835.44652 0.0000114
17.89000 48807.71602 48256.90948 0.0000114
17.90000 49114.56055 48599.97732 0.0000113
17.91000 49142.01654 48754.78468 0.0000114
17.92000 49112.60933 48716.56990 0.0000114
17.93000 48653.51832 48607.40960 0.0000115
17.94000 48642.02403 48599.02660 0.0000115
17.95000 48758.95163 48837.28482 0.0000115
17.96000 49292.52350 49407.84504 0.0000114
17.97000 50409.78075 50348.38541 0.0000113
17.98000 51949.56039 51642.60033 0.0000111
17.99000 53884.29018 53204.53198 0.0000109
18.00000 55795.49517 54833.26380 0.0000107
18.01000 57338.17788 56178.38246 0.0000105
18.02000 57952.46056 56822.69757 0.0000105
18.03000 57633.88355 56521.05561 0.0000105
18.04000 56373.19765 55384.56430 0.0000107
18.05000 54657.16385 53778.85236 0.0000109
18.06000 52751.69976 52084.91953 0.0000111
18.07000 51014.23597 50560.01761 0.0000114
18.08000 49641.57611 49330.11398 0.0000116
18.09000 48968.31651 48427.23892 0.0000117
18.10000 48318.26520 47828.37591 0.0000118
18.11000 48174.89220 47486.09227 0.0000118
18.12000 48288.44221 47344.04683 0.0000118
18.13000 48399.19403 47329.00963 0.0000118
18.14000 48511.30769 47345.02925 0.0000118
18.15000 48389.13340 47289.25845 0.0000118
18.16000 48232.97229 47116.35844 0.0000119
18.17000 47848.92129 46866.94763 0.0000119
18.18000 47488.66072 46628.74470 0.0000120
18.19000 47329.47963 46477.65339 0.0000120
18.20000 47239.70347 46452.54133 0.0000121
18.21000 47170.17703 46554.61999 0.0000121
18.22000 47442.67440 46754.97464 0.0000121
18.23000 47750.91912 47013.57134 0.0000120
18.24000 47996.49411 47309.89727 0.0000120
18.25000 48426.18184 47655.57124 0.0000120
18.26000 48645.51879 48066.27713 0.0000119
18.27000 49135.86576 48525.62000 0.0000119
18.28000 49524.11804 48979.21974 0.0000118
18.29000 49686.77411 49373.60694 0.0000118
18.30000 49981.76116 49699.85665 0.0000118
18.31000 50127.98642 50016.56744 0.0000118
18.32000 50512.63819 50409.22335 0.0000117
18.33000 51037.09401 50920.51468 0.0000117
18.34000 51567.20784 51503.07181 0.0000116
18.35000 52092.81193 52024.63483 0.0000116
18.36000 52604.01771 52345.75897 0.0000115
18.37000 52764.95253 52428.44383 0.0000115
18.38000 53010.66787 52349.73342 0.0000115
18.39000 53064.70367 52197.20175 0.0000115
18.40000 53082.41524 51977.94906 0.0000115
18.41000 52550.30843 51626.27824 0.0000116
18.42000 52193.03493 51087.80433 0.0000116
18.43000 51318.19933 50389.73760 0.0000117
18.44000 50412.47430 49643.96459 0.0000119
18.45000 49379.58621 48987.35180 0.0000120
18.46000 48708.88839 48528.20931 0.0000121
18.47000 48275.46745 48327.18420 0.0000122
18.48000 48105.47309 48411.07639 0.0000122
18.49000 48475.72465 48782.58317 0.0000122
18.50000 49156.56948 49423.16153 0.0000121
18.51000 49910.14834 50283.37430 0.0000120
18.52000 50961.93306 51266.40538 0.0000119
18.53000 51957.11481 52224.66588 0.0000117
18.54000 52363.07284 52997.60266 0.0000117
18.55000 52642.56090 53495.18358 0.0000117
18.56000 52849.58577 53766.98119 0.0000116
18.57000 52911.80326 53974.53767 0.0000116
18.58000 52984.46582 54267.90448 0.0000116
18.59000 53376.53034 54693.48955 0.0000116
18.60000 53722.69801 55173.70997 0.0000115
18.61000 54183.78988 55573.58396 0.0000115
18.62000 54524.18009 55811.62174 0.0000114
18.63000 54769.87353 55896.93795 0.0000114
18.64000 54713.85963 55839.97638 0.0000114
18.65000 54595.57011 55573.03888 0.0000114
18.66000 53775.57667 55010.07513 0.0000116
18.67000 53169.15775 54182.62610 0.0000117
18.68000 52091.31030 53265.18961 0.0000118
18.69000 51350.33070 52468.39406 0.0000119
18.70000 50828.64540 51939.53079 0.0000120
18.71000 50829.90352 51738.84208 0.0000120
18.72000 51041.34055 51851.84843 0.0000120
18.73000 51813.51223 52216.34633 0.0000119
18.74000 52663.54040 52756.66753 0.0000118
18.75000 53708.09072 53404.03624 0.0000116
18.76000 54764.54042 54067.24428 0.0000115
18.77000 55338.62026 54589.54182 0.0000114
18.78000 55363.78301 54780.87622 0.0000114
18.79000 55006.20534 54555.24427 0.0000115
18.80000 54179.05699 54019.85671 0.0000116
18.81000 53215.73139 53394.72906 0.0000117
18.82000 52426.84757 52874.32289 0.0000118
18.83000 51809.73873 52548.80754 0.0000119
18.84000 51404.71485 52394.26498 0.0000120
18.85000 51236.34708 52300.32384 0.0000120
18.86000 51052.70382 52135.88107 0.0000120
18.87000 50565.72267 51836.87280 0.0000121
18.88000 50401.98265 51427.11019 0.0000121
18.89000 49765.72593 50951.12446 0.0000122
18.90000 49280.18961 50414.53588 0.0000123
18.91000 48677.94325 49802.62817 0.0000124
18.92000 48123.13675 49135.92005 0.0000125
18.93000 47453.13612 48484.07107 0.0000126
18.94000 46997.71977 47931.96555 0.0000127
18.95000 46584.47880 47546.44142 0.0000128
18.96000 46589.11680 47370.94957 0.0000128
18.97000 46526.40127 47423.14866 0.0000128
18.98000 47131.11951 47704.74732 0.0000127
18.99000 47756.57389 48199.87228 0.0000126
19.00000 48622.64361 48866.74770 0.0000124
19.01000 49549.05275 49624.21248 0.0000123
19.02000 50503.28065 50344.20160 0.0000122
19.03000 51079.75711 50876.65454 0.0000121
19.04000 51327.13981 51112.70639 0.0000121
19.05000 51043.39216 51047.07037 0.0000121
19.06000 50794.86350 50780.93607 0.0000121
19.07000 50437.53335 50453.85605 0.0000122
19.08000 50106.41099 50162.70095 0.0000122
19.09000 49844.36518 49925.27918 0.0000123
19.10000 49456.68540 49697.02810 0.0000123
19.11000 49447.74516 49429.48942 0.0000123
19.12000 49016.83006 49115.29825 0.0000124
19.13000 48863.72271 48782.54634 0.0000124
19.14000 48310.18538 48448.80077 0.0000125
19.15000 48028.82775 48113.47193 0.0000126
19.16000 47569.94604 47786.38561 0.0000127
19.17000 47347.56798 47511.50113 0.0000127
19.18000 46974.71421 47353.42015 0.0000128
19.19000 47045.91608 47371.21209 0.0000127
19.20000 47122.10499 47606.21882 0.0000127
19.21000 47820.25172 48081.51739 0.0000126
19.22000 48643.39896 48802.73603 0.0000125
19.23000 49937.85913 49757.84472 0.0000123
19.24000 51495.35511 50905.69737 0.0000121
19.25000 53164.46963 52155.86170 0.0000118
19.26000 54578.75858 53343.84538 0.0000116
19.27000 55775.71243 54242.40992 0.0000115
19.28000 56136.26102 54644.16258 0.0000114
19.29000 55871.79505 54476.30421 0.0000115
19.30000 55143.12310 53851.72307 0.0000116
19.31000 54124.12829 53000.95001 0.0000117
19.32000 53212.50520 52143.50827 0.0000118
19.33000 52480.51862 51406.53750 0.0000119
19.34000 52186.42200 50823.06151 0.0000120
19.35000 51636.84006 50373.76352 0.0000121
19.36000 51433.33580 50031.00419 0.0000121
19.37000 51109.13957 49765.41633 0.0000121
19.38000 51010.54790 49526.86026 0.0000121
19.39000 50313.31770 49247.01045 0.0000123
19.40000 49893.75022 48886.71857 0.0000123
19.41000 49050.90699 48475.32862 0.0000124
19.42000 48546.98348 48091.69017 0.0000125
19.43000 47882.63411 47812.89979 0.0000126
19.44000 47526.67842 47682.34388 0.0000127
19.45000 47561.94787 47707.05797 0.0000127
19.46000 47522.34222 47861.17618 0.0000127
19.47000 47946.09808 48106.99977 0.0000126
19.48000 48472.04249 48399.70267 0.0000125
19.49000 48924.84297 48683.38633 0.0000125
19.50000 49188.57226 48872.50013 0.0000124
19.51000 49208.98413 48867.89492 0.0000124
19.52000 48891.78530 48620.19051 0.0000125
19.53000 48440.74289 48173.75651 0.0000125
19.54000 47791.69771 47637.63925 0.0000127
19.55000 47335.85106 47116.04632 0.0000127
19.56000 46737.63539 46670.06837 0.0000128
19.57000 46344.00676 46316.34460 0.0000129
19.58000 45926.37242 46040.57701 0.0000130
19.59000 45825.65219 45820.50344 0.0000130
19.60000 45481.64725 45643.68762 0.0000130
19.61000 45405.82489 45512.14728 0.0000130
19.62000 45043.51050 45429.18566 0.0000131
19.63000 45115.83785 45395.90700 0.0000131
19.64000 44976.85664 45418.10113 0.0000131
19.65000 45057.09118 45513.71204 0.0000131
19.66000 45067.40694 45708.02944 0.0000131
19.67000 45397.44595 46022.56899 0.0000130
19.68000 45675.60693 46466.63424 0.0000130
19.69000 46240.48498 47031.64460 0.0000129
19.70000 46880.09764 47694.51048 0.0000128
19.71000 47677.83973 48424.82871 0.0000127
19.72000 48523.63638 49189.09406 0.0000125
19.73000 49238.44352 49935.68582 0.0000124
19.74000 49879.60412 50577.29063 0.0000123
19.75000 50153.70359 51011.07229 0.0000123
19.76000 50201.65895 51185.22676 0.0000123
19.77000 49948.72228 51151.34417 0.0000123
19.78000 49789.87376 51037.94497 0.0000123
19.79000 49354.47209 50987.24055 0.0000124
19.80000 49632.08215 51093.86019 0.0000124
19.81000 49541.61699 51385.32680 0.0000124
19.82000 50169.31049 51835.44654 0.0000123
19.83000 50904.67453 52396.82266 0.0000122
19.84000 51871.38500 53018.68730 0.0000120
19.85000 52642.04755 53624.35515 0.0000119
19.86000 53259.96802 54080.83696 0.0000118
19.87000 53342.57079 54234.62230 0.0000118
19.88000 53218.48014 53993.10275 0.0000118
19.89000 52437.07238 53400.38025 0.0000120
19.90000 51687.26306 52616.09183 0.0000121
19.91000 50725.87150 51828.21089 0.0000122
19.92000 49995.15094 51175.53200 0.0000123
19.93000 49598.44566 50722.80203 0.0000124
19.94000 49370.53395 50475.00837 0.0000124
19.95000 49580.11565 50410.35276 0.0000124
19.96000 49745.88032 50491.89931 0.0000123
19.97000 50223.12026 50656.03834 0.0000123
19.98000 50302.81008 50802.82919 0.0000123
19.99000 50490.16141 50823.77017 0.0000122
20.00000 50153.86644 50659.74838 0.0000123
20.01000 49821.30587 50340.27820 0.0000123
20.02000 49211.62178 49964.12744 0.0000124
20.03000 49020.40333 49640.65251 0.0000125
20.04000 48782.41118 49438.20210 0.0000125
20.05000 48635.46342 49370.75065 0.0000125
20.06000 48834.56134 49413.39952 0.0000125
20.07000 49059.37601 49520.34520 0.0000124
20.08000 49296.38582 49624.77898 0.0000124
20.09000 49240.64666 49627.33144 0.0000124
20.10000 49104.65613 49416.85210 0.0000124
20.11000 48534.49162 48942.39662 0.0000125
20.12000 47899.44530 48254.73645 0.0000126
20.13000 46991.44743 47473.52100 0.0000128
20.14000 46287.55271 46716.58673 0.0000129
20.15000 45476.63944 46062.29421 0.0000130
20.16000 45239.71708 45549.41207 0.0000131
20.17000 44830.84161 45188.17481 0.0000131
20.18000 44867.81124 44972.09733 0.0000131
20.19000 44974.55527 44876.82417 0.0000131
20.20000 45299.80289 44864.25066 0.0000131
20.21000 45452.19259 44882.46354 0.0000130
20.22000 45685.02068 44875.61763 0.0000130
20.23000 45701.09252 44803.16625 0.0000130
20.24000 45447.86266 44659.21485 0.0000130
20.25000 45092.89836 44471.63880 0.0000131
20.26000 44795.07259 44284.57833 0.0000131
20.27000 44533.31748 44136.58379 0.0000132
20.28000 44355.38071 44051.62820 0.0000132
20.29000 44185.19212 44039.93664 0.0000132
20.30000 44343.56863 44101.41754 0.0000132
20.31000 44435.62254 44226.59591 0.0000132
20.32000 44472.30145 44394.36665 0.0000132
20.33000 44721.98975 44572.43984 0.0000132
20.34000 44735.66467 44726.81938 0.0000132
20.35000 44882.06544 44837.99475 0.0000131
20.36000 44795.04710 44916.41365 0.0000131
20.37000 44915.55718 44994.84541 0.0000131
20.38000 44960.95114 45107.53131 0.0000131
20.39000 45014.56204 45273.01280 0.0000131
20.40000 45130.48221 45494.55290 0.0000131
20.41000 45367.97647 45770.94370 0.0000130
20.42000 45621.86103 46109.58288 0.0000130
20.43000 45924.13765 46517.81861 0.0000130
20.44000 46338.42440 46989.58334 0.0000129
20.45000 46718.04891 47500.40501 0.0000128
20.46000 47420.07468 48023.96306 0.0000127
20.47000 48002.18535 48555.19363 0.0000126
20.48000 48882.84640 49113.47977 0.0000125
20.49000 49675.44706 49710.16866 0.0000124
20.50000 50783.14315 50308.39109 0.0000122
20.51000 51526.51037 50815.27264 0.0000121
20.52000 52410.38933 51124.53241 0.0000119
20.53000 52683.60183 51179.56749 0.0000119
20.54000 52657.60005 50986.60195 0.0000119
20.55000 52233.87632 50571.53860 0.0000120
20.56000 51435.33281 49941.32447 0.0000121
20.57000 50318.12802 49120.10215 0.0000123
20.58000 49083.85908 48182.03888 0.0000125
20.59000 47811.55785 47236.01657 0.0000127
20.60000 46550.20464 46379.35046 0.0000129
20.61000 45829.02428 45672.31287 0.0000130
20.62000 45037.86912 45139.90100 0.0000131
20.63000 44743.98396 44782.41831 0.0000132
20.64000 44530.64387 44582.91351 0.0000132
20.65000 44620.50711 44511.48258 0.0000132
20.66000 44488.89315 44523.31412 0.0000132
20.67000 44819.04125 44562.52450 0.0000132
20.68000 44595.60909 44575.40869 0.0000132
20.69000 44654.24640 44529.79436 0.0000132
20.70000 44360.81749 44428.44149 0.0000132
20.71000 44123.15091 44307.47101 0.0000133
20.72000 43800.64146 44207.52458 0.0000133
20.73000 43817.46737 44157.94925 0.0000133
20.74000 43903.05320 44168.80932 0.0000133
20.75000 43960.76318 44234.91583 0.0000133
20.76000 44249.18521 44338.84236 0.0000133
20.77000 44393.38815 44449.51085 0.0000132
20.78000 44730.02024 44522.12428 0.0000132
20.79000 44602.46328 44511.33783 0.0000132
20.80000 44693.23755 44399.52220 0.0000132
20.81000 44151.58813 44207.31888 0.0000133
20.82000 43968.95059 43983.80399 0.0000133
20.83000 43474.73898 43783.42815 0.0000134
20.84000 43313.65485 43646.80585 0.0000134
20.85000 43259.80649 43593.08655 0.0000135
20.86000 43182.01548 43628.31407 0.0000135
20.87000 43443.58500 43733.84476 0.0000134
20.88000 43593.66822 43873.13798 0.0000134
20.89000 43719.96043 43992.56839 0.0000134
20.90000 43797.47509 44036.58145 0.0000134
20.91000 43856.35045 43974.35928 0.0000134
20.92000 43579.93601 43816.32540 0.0000134
20.93000 43403.11320 43604.64185 0.0000134
20.94000 43170.32308 43388.39043 0.0000135
20.95000 43088.96074 43205.14761 0.0000135
20.96000 42913.81382 43074.07844 0.0000135
20.97000 43130.33430 42999.76024 0.0000135
20.98000 43145.78302 42976.66984 0.0000135
20.99000 43311.90604 42991.46904 0.0000135
21.00000 43494.34028 43024.85250 0.0000134
21.01000 43444.83671 43055.76651 0.0000135
21.02000 43449.49666 43079.64101 0.0000135
21.03000 43466.77447 43110.09822 0.0000135
21.04000 43289.02099 43177.08625 0.0000135
21.05000 43326.01168 43311.18269 0.0000135
21.06000 43403.04725 43533.97887 0.0000135
21.07000 43555.90204 43856.36423 0.0000134
21.08000 44053.10747 44278.98451 0.0000134
21.09000 44372.89768 44792.35725 0.0000133
21.10000 45151.30894 45373.71104 0.0000132
21.11000 45586.52655 45981.65085 0.0000131
21.12000 46165.63926 46562.29751 0.0000130
21.13000 46524.36498 47072.67365 0.0000129
21.14000 46900.21349 47506.79754 0.0000129
21.15000 47250.55491 47898.48677 0.0000128
21.16000 47591.97666 48288.86795 0.0000128
21.17000 48016.17094 48689.07204 0.0000127
21.18000 48416.96212 49056.36746 0.0000126
21.19000 48812.82907 49317.77882 0.0000126
21.20000 49008.57489 49416.06240 0.0000126
21.21000 49149.70922 49336.93430 0.0000125
21.22000 49004.58908 49089.19848 0.0000126
21.23000 48655.87893 48675.29193 0.0000126
21.24000 47921.49174 48101.45748 0.0000127
21.25000 47289.69422 47408.33486 0.0000128
21.26000 46433.69394 46672.69172 0.0000130
21.27000 45677.73919 45977.46891 0.0000131
21.28000 44981.74325 45380.96341 0.0000132
21.29000 44678.90303 44906.51875 0.0000133
21.30000 44284.30060 44555.39067 0.0000134
21.31000 44179.71952 44305.30247 0.0000134
21.32000 44040.73857 44125.74948 0.0000134
21.33000 44030.84534 43975.23242 0.0000134
21.34000 43806.06739 43808.36908 0.0000135
21.35000 43675.30580 43591.86845 0.0000135
21.36000 43483.99172 43320.90796 0.0000135
21.37000 43121.18269 43017.97122 0.0000136
21.38000 42917.74440 42715.67751 0.0000136
21.39000 42600.64119 42440.44048 0.0000137
21.40000 42495.95576 42206.91524 0.0000137
21.41000 42081.26632 42020.10766 0.0000138
21.42000 42175.19054 41881.82919 0.0000138
21.43000 41918.41702 41795.12223 0.0000139
21.44000 42127.25628 41764.03686 0.0000138
21.45000 41984.85992 41795.52214 0.0000139
21.46000 41987.05837 41896.75816 0.0000139
21.47000 42215.15960 42077.60169 0.0000138
21.48000 42384.14779 42348.99287 0.0000138
21.49000 42884.61814 42719.08065 0.0000137
21.50000 43280.90080 43190.26923 0.0000136
21.51000 44051.40872 43755.00223 0.0000135
21.52000 44643.48743 44392.99383 0.0000134
21.53000 45779.00397 45066.60607 0.0000132
21.54000 46464.82173 45714.36943 0.0000131
21.55000 47074.28059 46246.41367 0.0000130
21.56000 47358.17676 46564.38837 0.0000129
21.57000 47279.61948 46607.30326 0.0000129
21.58000 46919.59560 46389.65682 0.0000130
21.59000 46270.16176 45993.11839 0.0000131
21.60000 45726.86151 45521.20520 0.0000132
21.61000 45097.36845 45057.59134 0.0000133
21.62000 44798.24551 44647.67980 0.0000134
21.63000 44257.31532 44306.89294 0.0000135
21.64000 44208.63972 44034.54939 0.0000135
21.65000 44039.22514 43822.81172 0.0000136
21.66000 43947.78316 43656.85807 0.0000136
21.67000 43752.72845 43519.50962 0.0000136
21.68000 43758.01353 43400.52121 0.0000136
21.69000 43615.95848 43309.04361 0.0000136
21.70000 43644.16366 43263.87526 0.0000136
21.71000 43708.62431 43284.22286 0.0000136
21.72000 43853.06965 43378.46877 0.0000136
21.73000 44278.57260 43540.91763 0.0000135
21.74000 44545.15559 43756.68642 0.0000135
21.75000 44906.05355 44002.68002 0.0000134
21.76000 45246.19777 44250.12082 0.0000134
21.77000 45559.37296 44458.43522 0.0000133
21.78000 45566.27993 44586.60080 0.0000133
21.79000 45492.37438 44613.46981 0.0000133
21.80000 45351.57857 44551.57329 0.0000134
21.81000 45283.34434 44436.25514 0.0000134
21.82000 45001.23105 44299.89634 0.0000134
21.83000 44682.25087 44152.26039 0.0000135
21.84000 44539.95900 43980.51781 0.0000135
21.85000 44237.71535 43767.80372 0.0000136
21.86000 44014.67480 43512.54611 0.0000136
21.87000 43632.15320 43230.48558 0.0000137
21.88000 43501.31196 42943.86199 0.0000137
21.89000 42911.09229 42671.38102 0.0000139
21.90000 42670.27708 42435.20463 0.0000139
21.91000 42265.47801 42257.40457 0.0000140
21.92000 42237.47209 42159.23099 0.0000140
21.93000 42140.44538 42155.62539 0.0000140
21.94000 42368.19608 42253.07040 0.0000140
21.95000 42370.29779 42449.29511 0.0000140
21.96000 42909.09866 42731.13160 0.0000139
21.97000 43328.00446 43074.04671 0.0000138
21.98000 43839.29876 43433.21684 0.0000137
21.99000 44295.63942 43746.52440 0.0000136
22.00000 44323.66461 43947.48109 0.0000136
22.01000 44436.29658 43994.10575 0.0000136
22.02000 44091.59499 43892.40892 0.0000137
22.03000 43913.95833 43695.60114 0.0000137
22.04000 43570.62289 43465.93775 0.0000138
22.05000 43225.73194 43251.71492 0.0000139
22.06000 43040.32631 43077.80874 0.0000139
22.07000 42891.37050 42949.14804 0.0000140
22.08000 42878.07216 42855.07104 0.0000140
22.09000 42792.65879 42773.78058 0.0000140
22.10000 42778.45288 42680.72430 0.0000140
22.11000 42623.92125 42561.61273 0.0000140
22.12000 42658.53379 42421.86353 0.0000140
22.13000 42421.48563 42278.18129 0.0000141
22.14000 42453.10865 42146.26616 0.0000141
22.15000 42279.44695 42031.08872 0.0000141
22.16000 42249.75212 41926.02298 0.0000141
22.17000 42155.61252 41826.93857 0.0000141
22.18000 42149.82174 41732.94883 0.0000142
22.19000 42046.37688 41651.97125 0.0000142
22.20000 42011.49873 41593.38457 0.0000142
22.21000 42092.62203 41563.84332 0.0000142
22.22000 41947.75561 41567.89762 0.0000142
22.23000 42226.73426 41609.34107 0.0000142
22.24000 42212.48143 41689.92546 0.0000142
22.25000 42538.98621 41804.75282 0.0000141
22.26000 42464.75122 41943.23882 0.0000141
22.27000 42614.11839 42088.46113 0.0000141
22.28000 42791.80489 42226.47034 0.0000141
22.29000 42790.78975 42348.69017 0.0000141
22.30000 42888.67489 42449.08005 0.0000141
22.31000 42821.23775 42525.87886 0.0000141
22.32000 42827.15235 42585.26970 0.0000141
22.33000 42787.98166 42646.59996 0.0000141
22.34000 42926.72853 42734.29860 0.0000141
22.35000 42860.78439 42864.88880 0.0000141
22.36000 43115.64652 43038.96068 0.0000141
22.37000 43307.33991 43242.63008 0.0000140
22.38000 43594.53135 43455.31573 0.0000140
22.39000 43649.60698 43657.89411 0.0000140
22.40000 43891.70183 43831.99554 0.0000139
22.41000 43988.02975 43956.54007 0.0000139
22.42000 44032.23286 44014.81524 0.0000139
22.43000 43899.70140 44009.95068 0.0000139
22.44000 43812.79835 43971.59598 0.0000140
22.45000 43772.27920 43947.29910 0.0000140
22.46000 43733.35261 43979.86339 0.0000140
22.47000 44043.49883 44096.51689 0.0000139
22.48000 44355.43571 44298.30176 0.0000139
22.49000 44706.41788 44559.82701 0.0000138
22.50000 45034.65209 44828.51144 0.0000138
22.51000 45247.17857 45031.07990 0.0000137
22.52000 45263.73676 45097.34659 0.0000137
22.53000 45052.71760 44995.22946 0.0000138
22.54000 44697.14440 44749.97626 0.0000138
22.55000 44294.75139 44431.15018 0.0000139
22.56000 43854.10382 44116.01084 0.0000140
22.57000 43653.37609 43866.47295 0.0000141
22.58000 43551.03597 43719.62463 0.0000141
22.59000 43526.83872 43688.28287 0.0000141
22.60000 43831.17994 43764.43292 0.0000140
22.61000 44065.18923 43919.12525 0.0000140
22.62000 44341.06072 44108.71304 0.0000140
22.63000 44518.22219 44286.93085 0.0000139
22.64000 44671.09947 44423.38138 0.0000139
22.65000 44767.97973 44513.33095 0.0000139
22.66000 44776.50865 44569.15907 0.0000139
22.67000 45038.80878 44599.61519 0.0000138
22.68000 44824.82865 44597.33699 0.0000139
22.69000 44930.43764 44544.38611 0.0000139
22.70000 44721.73505 44427.68260 0.0000139
22.71000 44463.64107 44246.72456 0.0000140
22.72000 44081.79930 44008.33349 0.0000141
22.73000 43714.36771 43723.18932 0.0000141
22.74000 43121.47900 43412.82263 0.0000143
22.75000 42889.28840 43111.64704 0.0000143
22.76000 42509.02135 42854.86071 0.0000144
22.77000 42240.65582 42669.70769 0.0000145
22.78000 42229.06557 42569.48118 0.0000145
22.79000 42189.05985 42553.61575 0.0000145
22.80000 42543.54890 42609.77493 0.0000144
22.81000 42649.82321 42714.63817 0.0000144
22.82000 42895.09350 42835.95988 0.0000143
22.83000 43051.21256 42937.68841 0.0000143
22.84000 42992.02185 42993.74110 0.0000143
22.85000 43107.87438 43000.46847 0.0000143
22.86000 42911.79111 42975.14521 0.0000144
22.87000 42873.99293 42944.72815 0.0000144
22.88000 42716.27566 42927.27831 0.0000144
22.89000 42933.41735 42928.42231 0.0000144
22.90000 42875.90626 42944.26451 0.0000144
22.91000 42943.44853 42966.66453 0.0000144
22.92000 42993.05487 42983.61149 0.0000144
22.93000 42904.82071 42976.84624 0.0000144
22.94000 42879.69560 42926.46008 0.0000144
22.95000 42738.79061 42823.32930 0.0000144
22.96000 42541.48598 42679.12648 0.0000145
22.97000 42297.60561 42521.57761 0.0000145
22.98000 42261.09290 42380.76528 0.0000146
22.99000 41965.60075 42277.35081 0.0000146
23.00000 41983.50275 42218.00075 0.0000146
23.01000 41825.92321 42199.66472 0.0000147
23.02000 41868.21825 42207.41132 0.0000147
23.03000 41912.53922 42220.92629 0.0000147
23.04000 41870.13827 42222.21920 0.0000147
23.05000 41784.46969 42206.15770 0.0000147
23.06000 41688.45817 42183.70017 0.0000147
23.07000 41829.09251 42175.74573 0.0000147
23.08000 41747.40351 42200.81705 0.0000147
23.09000 41961.62323 42266.26100 0.0000147
23.10000 42171.37928 42365.33753 0.0000146
23.11000 42555.92453 42476.01163 0.0000145
23.12000 42676.32627 42562.68217 0.0000145
23.13000 42747.17434 42583.09573 0.0000145
23.14000 42601.04087 42504.49994 0.0000146
23.15000 42329.66073 42322.57186 0.0000146
23.16000 42039.33414 42064.47894 0.0000147
23.17000 41625.32302 41774.22419 0.0000148
23.18000 41402.67104 41493.58249 0.0000148
23.19000 40998.51974 41252.39509 0.0000149
23.20000 40920.75005 41067.58742 0.0000149
23.21000 40689.85741 40946.55953 0.0000150
23.22000 40662.15966 40889.53076 0.0000150
23.23000 40726.77116 40891.46417 0.0000150
23.24000 40760.53291 40944.99907 0.0000150
23.25000 40854.78271 41042.33100 0.0000150
23.26000 41025.00063 41178.04424 0.0000149
23.27000 41339.40019 41347.62443 0.0000149
23.28000 41549.45149 41543.71735 0.0000148
23.29000 42046.42547 41755.15799 0.0000147
23.30000 42268.52119 41965.28634 0.0000147
23.31000 42632.37148 42157.69148 0.0000146
23.32000 42741.64511 42319.98782 0.0000146
23.33000 42780.10156 42443.31453 0.0000146
23.34000 42831.43774 42523.86345 0.0000146
23.35000 42729.94546 42568.39915 0.0000146
23.36000 42487.64261 42596.84581 0.0000147
23.37000 42414.65579 42635.34201 0.0000147
23.38000 42381.32146 42701.11202 0.0000147
23.39000 42453.14946 42797.32978 0.0000147
23.40000 42539.66943 42914.54579 0.0000147
23.41000 42645.85987 43037.46730 0.0000147
23.42000 42822.64291 43152.88206 0.0000146
23.43000 42958.19506 43241.70160 0.0000146
23.44000 43070.09876 43281.44032 0.0000146
23.45000 43081.90547 43247.61421 0.0000146
23.46000 42841.75989 43130.20425 0.0000146
23.47000 42825.91332 42941.31212 0.0000146
23.48000 42392.11308 42708.13497 0.0000147
23.49000 42231.80852 42457.96571 0.0000148
23.50000 41856.60730 42209.33169 0.0000149
23.51000 41751.97332 41974.87413 0.0000149
23.52000 41417.22195 41765.92907 0.0000150
23.53000 41214.83523 41595.45322 0.0000150
23.54000 41085.73583 41476.33849 0.0000150
23.55000 41008.89775 41419.94942 0.0000151
23.56000 41035.53140 41437.82195 0.0000150
23.57000 41001.41196 41537.85083 0.0000151
23.58000 41413.72981 41726.05283 0.0000150
23.59000 41731.38427 42000.92182 0.0000149
23.60000 42179.72175 42352.82387 0.0000148
23.61000 42669.27746 42760.19897 0.0000147
23.62000 43311.42780 43187.01617 0.0000146
23.63000 43619.79473 43585.53565 0.0000145
23.64000 44012.57978 43910.83336 0.0000144
23.65000 44333.05568 44139.83359 0.0000144
23.66000 44291.40140 44282.88483 0.0000144
23.67000 44470.11627 44372.65512 0.0000143
23.68000 44503.20187 44439.95174 0.0000143
23.69000 44697.25864 44500.31987 0.0000143
23.70000 44847.12554 44547.88215 0.0000143
23.71000 44918.23457 44568.82785 0.0000142
23.72000 45055.02265 44549.48426 0.0000142
23.73000 44918.03671 44477.67630 0.0000143
23.74000 44720.49179 44343.55754 0.0000143
23.75000 44275.63512 44147.69070 0.0000144
23.76000 44045.62589 43909.78760 0.0000144
23.77000 43609.09093 43666.21265 0.0000145
23.78000 43410.45944 43456.50310 0.0000146
23.79000 43164.95170 43309.33447 0.0000146
23.80000 43138.88571 43234.92522 0.0000146
23.81000 43111.83613 43223.24489 0.0000146
23.82000 43031.82546 43245.45011 0.0000147
23.83000 43228.11082 43260.30282 0.0000146
23.84000 43162.78350 43227.61917 0.0000146
23.85000 43046.55434 43124.39682 0.0000147
23.86000 42850.14825 42953.27444 0.0000147
23.87000 42688.13519 42733.67551 0.0000147
23.88000 42310.48710 42485.00356 0.0000148
23.89000 42139.89730 42216.10913 0.0000149
23.90000 41827.18549 41927.57817 0.0000149
23.91000 41425.12327 41622.09949 0.0000150
23.92000 41181.18880 41311.66710 0.0000151
23.93000 40718.75275 41015.68297 0.0000152
23.94000 40461.57620 40753.82782 0.0000152
23.95000 40137.09885 40540.91163 0.0000153
23.96000 40018.26652 40385.94391 0.0000154
23.97000 39985.78941 40293.55738 0.0000154
23.98000 39884.42777 40264.25411 0.0000154
23.99000 40076.74299 40295.89769 0.0000153
24.00000 40143.21968 40383.55110 0.0000153
24.01000 40494.36426 40518.83212 0.0000152
24.02000 40565.07694 40688.89332 0.0000152
24.03000 40852.35691 40876.10525 0.0000152
24.04000 40880.25501 41061.50037 0.0000152
24.05000 41023.47410 41229.93260 0.0000151
24.06000 41316.79639 41376.40341 0.0000151
24.07000 41319.24820 41505.30400 0.0000151
24.08000 41457.59091 41623.18555 0.0000150
24.09000 41476.71082 41731.72005 0.0000150
24.10000 41765.49071 41826.67204 0.0000150
24.11000 41755.93233 41898.47972 0.0000150
24.12000 41846.70198 41935.26597 0.0000149
24.13000 41809.48208 41924.39786 0.0000149
24.14000 41750.14310 41858.20172 0.0000150
24.15000 41572.69130 41741.75454 0.0000150
24.16000 41263.10336 41594.29359 0.0000151
24.17000 41054.50784 41446.16212 0.0000151
24.18000 40800.51390 41323.11748 0.0000152
24.19000 40874.10870 41242.25678 0.0000151
24.20000 40555.13187 41208.16385 0.0000152
24.21000 40754.52293 41212.55733 0.0000152
24.22000 40849.77899 41240.40316 0.0000152
24.23000 40934.67501 41272.39478 0.0000151
24.24000 40902.47403 41296.29924 0.0000151
24.25000 41020.88400 41310.25958 0.0000151
24.26000 41077.90024 41318.30701 0.0000151
24.27000 41029.77333 41321.60967 0.0000151
24.28000 41205.16548 41313.66181 0.0000151
24.29000 41185.59581 41283.58665 0.0000151
24.30000 41046.96214 41224.72411 0.0000151
24.31000 40901.21301 41140.82231 0.0000151
24.32000 40738.06308 41044.91681 0.0000152
24.33000 40605.03337 40954.08920 0.0000152
24.34000 40443.50955 40885.49584 0.0000152
24.35000 40352.22605 40855.07174 0.0000153
24.36000 40382.42640 40874.49159 0.0000152
24.37000 40420.41307 40950.28220 0.0000152
24.38000 40726.70857 41080.68917 0.0000152
24.39000 40969.59116 41255.79893 0.0000151
24.40000 41188.97158 41456.75068 0.0000151
24.41000 41469.52202 41655.69383 0.0000150
24.42000 41768.43852 41818.79591 0.0000149
24.43000 41782.56071 41915.50452 0.0000149
24.44000 41849.33143 41930.59143 0.0000149
24.45000 41784.31345 41871.39060 0.0000149
24.46000 41746.79674 41762.75700 0.0000149
24.47000 41592.58305 41633.86419 0.0000150
24.48000 41385.49088 41508.46089 0.0000150
24.49000 41373.17305 41399.28234 0.0000150
24.50000 41180.54417 41311.17799 0.0000150
24.51000 41274.77834 41242.60491 0.0000150
24.52000 41165.22277 41189.27894 0.0000150
24.53000 41223.21492 41148.56564 0.0000150
24.54000 40956.78466 41123.44515 0.0000151
24.55000 40864.58448 41122.28917 0.0000151
24.56000 41149.00953 41154.15716 0.0000150
24.57000 41185.44380 41223.08581 0.0000150
24.58000 41602.46988 41324.46271 0.0000149
24.59000 41719.54557 41443.88734 0.0000149
24.60000 42120.94167 41557.68739 0.0000148
24.61000 42122.30847 41638.26001 0.0000148
24.62000 42231.00698 41661.20351 0.0000148
24.63000 42205.89988 41618.20883 0.0000148
24.64000 42058.39078 41521.00642 0.0000148
24.65000 41798.55204 41395.65761 0.0000149
24.66000 41537.90512 41270.40089 0.0000149
24.67000 41353.31222 41166.05840 0.0000150
24.68000 41105.15105 41092.32450 0.0000150
24.69000 41008.90459 41048.53289 0.0000150
24.70000 40915.59816 41026.23089 0.0000150
24.71000 40837.10936 41014.01186 0.0000151
24.72000 40901.84465 41003.56956 0.0000150
24.73000 40859.20367 40993.39214 0.0000151
24.74000 40874.95532 40987.46182 0.0000150
24.75000 40831.08406 40987.76934 0.0000151
24.76000 40931.20022 40990.47835 0.0000150
24.77000 40933.74385 40986.90616 0.0000150
24.78000 40957.01453 40969.14530 0.0000150
24.79000 41000.68359 40934.80131 0.0000150
24.80000 40993.73302 40887.01369 0.0000150
24.81000 40913.84461 40831.65004 0.0000150
24.82000 40926.62308 40775.94453 0.0000150
24.83000 40905.41344 40728.05745 0.0000150
24.84000 40964.87464 40695.83554 0.0000150
24.85000 40890.79177 40683.81991 0.0000150
24.86000 41013.03686 40690.80443 0.0000150
24.87000 41003.36546 40711.66619 0.0000150
24.88000 41181.84962 40737.09574 0.0000149
24.89000 41193.57447 40757.53687 0.0000149
24.90000 41240.44793 40762.76626 0.0000149
24.91000 41129.45122 40746.17143 0.0000149
24.92000 41027.52864 40709.09201 0.0000150
24.93000 40799.90385 40662.55474 0.0000150
24.94000 40648.24408 40622.85795 0.0000150
24.95000 40761.99484 40607.78606 0.0000150
24.96000 40769.53798 40626.49510 0.0000150
24.97000 40975.44827 40679.38826 0.0000149
24.98000 40949.75910 40756.53313 0.0000149
24.99000 41222.90855 40838.23261 0.0000149
25.00000 41213.21529 40901.81818 0.0000149
25.01000 41137.43717 40927.20442 0.0000149
25.02000 41248.68942 40907.69745 0.0000149
25.03000 41000.62471 40852.66023 0.0000149
25.04000 41009.04161 40781.39690 0.0000149
25.05000 40904.80836 40713.50634 0.0000149
25.06000 40928.38504 40662.26828 0.0000149
25.07000 40873.48192 40632.85408 0.0000149
25.08000 40870.41040 40624.31503 0.0000149
25.09000 40856.42225 40632.95098 0.0000149
25.10000 40845.22165 40657.38963 0.0000149
25.11000 40949.66625 40701.34601 0.0000149
25.12000 40887.13737 40771.62949 0.0000149
25.13000 41074.85398 40874.10607 0.0000149
25.14000 41256.57035 41007.40098 0.0000148
25.15000 41556.72790 41161.26142 0.0000148
25.16000 41704.93349 41316.26729 0.0000147
25.17000 41941.63776 41445.45470 0.0000147
25.18000 41954.43039 41519.47088 0.0000147
25.19000 41974.34718 41516.39702 0.0000147
25.20000 41856.79448 41432.22799 0.0000147
25.21000 41567.77191 41282.96476 0.0000147
25.22000 41259.88888 41096.52072 0.0000148
25.23000 40969.21819 40900.64219 0.0000149
25.24000 40780.37228 40715.00559 0.0000149
25.25000 40597.52681 40549.56177 0.0000149
25.26000 40337.40977 40406.09741 0.0000150
25.27000 40339.29459 40281.06137 0.0000150
25.28000 40196.74846 40168.80817 0.0000150
25.29000 40162.88335 40065.45003 0.0000150
25.30000 40020.10209 39971.64529 0.0000151
25.31000 39946.16600 39892.30220 0.0000151
25.32000 39978.26266 39833.61415 0.0000151
25.33000 39733.63120 39800.23376 0.0000151
25.34000 39782.11994 39793.61985 0.0000151
25.35000 39699.17370 39812.53192 0.0000151
25.36000 39820.76371 39853.72922 0.0000151
25.37000 39808.97799 39912.15396 0.0000151
25.38000 39846.55472 39984.60177 0.0000151
25.39000 40167.07528 40067.52051 0.0000150
25.40000 40131.29305 40157.76003 0.0000150
25.41000 40313.27734 40250.80712 0.0000150
25.42000 40394.90487 40339.15828 0.0000149
25.43000 40411.59477 40413.85883 0.0000149
25.44000 40662.97204 40468.52428 0.0000149
25.45000 40573.41059 40502.41628 0.0000149
25.46000 40475.98832 40520.94692 0.0000149
25.47000 40468.04959 40533.08408 0.0000149
25.48000 40431.70614 40550.16984 0.0000149
25.49000 40491.32545 40583.73235 0.0000149
25.50000 40456.06432 40643.38361 0.0000149
25.51000 40562.75956 40732.89692 0.0000149
25.52000 40788.96537 40850.18199 0.0000148
25.53000 40899.58778 40987.59197 0.0000148
25.54000 41041.61302 41133.20772 0.0000148
25.55000 41365.72719 41271.45056 0.0000147
25.56000 41452.04237 41384.90876 0.0000147
25.57000 41651.88416 41459.02753 0.0000146
25.58000 41802.84914 41488.26781 0.0000146
25.59000 41765.30684 41476.90056 0.0000146
25.60000 41839.94796 41434.78957 0.0000146
25.61000 41758.71840 41370.96017 0.0000146
25.62000 41755.63717 41290.70620 0.0000146
25.63000 41667.84683 41198.18580 0.0000146
25.64000 41520.12648 41097.30237 0.0000146
25.65000 41326.39275 40993.04197 0.0000147
25.66000 41001.58513 40892.71809 0.0000147
25.67000 40901.54175 40806.34700 0.0000148
25.68000 40881.79379 40745.24852 0.0000148
25.69000 41056.17883 40718.30828 0.0000147
25.70000 41062.52596 40729.57128 0.0000147
25.71000 41207.68192 40773.93447 0.0000147
25.72000 41395.78896 40837.65012 0.0000147
25.73000 41475.12129 40899.71848 0.0000146
25.74000 41675.12787 40937.09496 0.0000146
25.75000 41678.36391 40933.38039 0.0000146
25.76000 41542.78595 40884.37398 0.0000146
25.77000 41494.82414 40797.94585 0.0000146
25.78000 41321.18694 40687.06871 0.0000147
25.79000 41141.43506 40562.95751 0.0000147
25.80000 40952.18583 40433.02442 0.0000147
25.81000 40721.78194 40303.19103 0.0000148
25.82000 40354.51053 40180.69738 0.0000149
25.83000 40279.00325 40074.54831 0.0000149
25.84000 40134.70694 39993.95638 0.0000149
25.85000 39987.32026 39946.71330 0.0000149
25.86000 39963.23875 39938.18787 0.0000149
25.87000 39972.04716 39970.60402 0.0000149
25.88000 40040.04049 40042.20573 0.0000149
25.89000 40049.47646 40148.52696 0.0000149
25.90000 40175.98314 40279.27903 0.0000149
25.91000 40398.73576 40420.71483 0.0000148
25.92000 40560.28827 40556.93752 0.0000148
25.93000 40765.48169 40673.81747 0.0000148
25.94000 40736.56791 40763.42623 0.0000148
25.95000 40905.87058 40825.88621 0.0000147
25.96000 40932.35074 40866.04079 0.0000147
25.97000 40873.92661 40888.67122 0.0000147
25.98000 40868.89998 40895.72691 0.0000147
25.99000 40862.90997 40887.26168 0.0000147
26.00000 40858.24641 40864.86726 0.0000147
26.01000 40829.20712 40831.69474 0.0000147
26.02000 40899.97475 40792.35468 0.0000147
26.03000 40811.97005 40752.57409 0.0000147
26.04000 40880.54055 40719.17745 0.0000147
26.05000 40824.46848 40699.12965 0.0000147
26.06000 40829.69227 40697.18001 0.0000147
26.07000 40972.22666 40714.52474 0.0000147
26.08000 41120.12538 40747.47961 0.0000147
26.09000 41263.14454 40788.73228 0.0000146
26.10000 41403.73375 40828.25707 0.0000146
26.11000 41205.02749 40855.31285 0.0000147
26.12000 41227.83449 40862.31010 0.0000147
26.13000 41185.19124 40848.58473 0.0000147
26.14000 40926.99919 40820.93294 0.0000147
26.15000 40934.73636 40789.93492 0.0000147
26.16000 40863.53327 40764.36920 0.0000147
26.17000 40756.98741 40747.30110 0.0000148
26.18000 40606.08084 40735.09784 0.0000148
26.19000 40700.20882 40720.11982 0.0000148
26.20000 40543.62788 40694.43411 0.0000148
26.21000 40459.43553 40655.59987 0.0000148
26.22000 40470.46419 40608.82905 0.0000148
26.23000 40355.61139 40564.19108 0.0000149
26.24000 40263.71762 40532.20489 0.0000149
26.25000 40316.81283 40518.38789 0.0000149
26.26000 40432.41463 40522.67643 0.0000148
26.27000 40371.87836 40539.62634 0.0000148
26.28000 40401.98523 40559.71142 0.0000148
26.29000 40473.67644 40571.69625 0.0000148
26.30000 40386.58043 40566.38066 0.0000148
26.31000 40385.99102 40540.02436 0.0000148
26.32000 40309.97351 40495.86789 0.0000149
26.33000 40409.43734 40440.34059 0.0000148
26.34000 40059.95129 40380.05893 0.0000149
26.35000 39912.33634 40319.75611 0.0000149
26.36000 39871.22770 40262.24750 0.0000150
26.37000 39749.48752 40210.09805 0.0000150
26.38000 39733.29986 40165.18221 0.0000150
26.39000 39644.23415 40129.32937 0.0000150
26.40000 39579.20815 40105.41204 0.0000150
26.41000 39497.00253 40096.97971 0.0000150
26.42000 39506.19965 40106.83928 0.0000150
26.43000 39589.30961 40135.27752 0.0000150
26.44000 39582.04753 40179.13894 0.0000150
26.45000 39810.12711 40231.75310 0.0000150
26.46000 39689.43635 40284.00807 0.0000150
26.47000 39840.34703 40326.58372 0.0000150
26.48000 39800.23950 40352.72781 0.0000150
26.49000 39756.93502 40363.18743 0.0000150
26.50000 39934.16695 40362.72434 0.0000150
26.51000 39877.51309 40358.18477 0.0000150
26.52000 39954.83935 40354.01341 0.0000149
26.53000 40098.33074 40349.40751 0.0000149
26.54000 40040.91747 40338.13788 0.0000149
26.55000 40080.13160 40310.89152 0.0000149
26.56000 39958.95635 40259.82080 0.0000150
26.57000 39870.55482 40183.56662 0.0000150
26.58000 39732.68678 40089.39538 0.0000150
26.59000 39686.70207 39990.60209 0.0000150
26.60000 39440.76568 39901.11338 0.0000151
26.61000 39373.92491 39831.37538 0.0000151
26.62000 39376.57663 39786.64083 0.0000151
26.63000 39206.63121 39765.75694 0.0000151
26.64000 39347.12390 39763.36503 0.0000151
26.65000 39380.67495 39771.81175 0.0000151
26.66000 39331.45013 39783.89740 0.0000151
26.67000 39525.12237 39794.53805 0.0000151
26.68000 39288.18118 39802.04757 0.0000151
26.69000 39304.90163 39804.38392 0.0000151
26.70000 39242.59600 39799.13625 0.0000151
26.71000 39279.27287 39783.46953 0.0000151
26.72000 39287.30867 39755.16344 0.0000151
26.73000 39151.59093 39714.67380 0.0000152
26.74000 39071.35212 39663.58921 0.0000152
26.75000 38995.61798 39605.74652 0.0000152
26.76000 39033.75889 39546.38665 0.0000152
26.77000 38953.83532 39490.64427 0.0000152
26.78000 38899.10016 39441.73851 0.0000152
26.79000 38952.88859 39400.08560 0.0000152
26.80000 38947.36675 39363.91204 0.0000152
26.81000 38986.92259 39330.23607 0.0000152
26.82000 38917.46085 39296.11795 0.0000152
26.83000 38957.98897 39259.68950 0.0000152
26.84000 38905.62830 39220.87290 0.0000152
26.85000 38854.47844 39182.02832 0.0000153
26.86000 38940.08919 39146.13930 0.0000152
26.87000 38825.96470 39114.81945 0.0000153
26.88000 38985.32839 39087.83405 0.0000152
26.89000 38991.33740 39063.24890 0.0000152
26.90000 38910.31418 39038.53520 0.0000153
26.91000 38816.65148 39011.83156 0.0000153
26.92000 38879.62697 38984.00747 0.0000153
26.93000 38912.14614 38958.78921 0.0000153
26.94000 38865.26683 38942.75687 0.0000153
26.95000 38811.66885 38943.07488 0.0000153
26.96000 38954.35617 38964.89483 0.0000153
26.97000 38781.00106 39009.83535 0.0000153
26.98000 38995.60512 39075.67775 0.0000152
26.99000 39143.20536 39155.94046 0.0000152
27.00000 39202.43059 39242.61216 0.0000152
27.01000 39371.24209 39328.56577 0.0000152
27.02000 39479.92544 39409.43941 0.0000151
27.03000 39575.59079 39483.16667 0.0000151
27.04000 39572.58037 39547.75698 0.0000151
27.05000 39781.48663 39598.85937 0.0000151
27.06000 39863.47425 39629.72563 0.0000151
27.07000 39976.49513 39632.48835 0.0000150
27.08000 39951.72348 39600.73288 0.0000150
27.09000 39846.55521 39530.13180 0.0000151
27.10000 39583.19161 39421.66847 0.0000151
27.11000 39485.45913 39282.46111 0.0000152
27.12000 39236.79763 39125.31119 0.0000152
27.13000 39210.64672 38965.17335 0.0000152
27.14000 38989.67313 38815.07818 0.0000153
27.15000 38989.11686 38683.36829 0.0000153
27.16000 38903.76542 38573.01802 0.0000153
27.17000 38965.98988 38482.05145 0.0000153
27.18000 38833.82346 38405.44253 0.0000153
27.19000 38819.68338 38337.09621 0.0000153
27.20000 38822.14176 38273.83674 0.0000153
27.21000 38730.09707 38213.62229 0.0000154
27.22000 38688.59318 38156.37472 0.0000154
27.23000 38653.15644 38102.01203 0.0000154
27.24000 38610.48162 38049.61426 0.0000154
27.25000 38480.69072 37997.62856 0.0000154
27.26000 38378.62543 37944.76024 0.0000155
27.27000 38371.00482 37891.13680 0.0000155
27.28000 38183.32750 37839.15547 0.0000155
27.29000 38237.09143 37793.22353 0.0000155
27.30000 38218.07536 37758.36750 0.0000155
27.31000 38234.14594 37738.48217 0.0000155
27.32000 38169.03795 37735.23330 0.0000155
27.33000 38164.71597 37747.67430 0.0000155
27.34000 38138.00622 37772.46987 0.0000155
27.35000 38140.04645 37805.16615 0.0000155
27.36000 38244.63117 37841.84053 0.0000155
27.37000 38295.55197 37880.62787 0.0000155
27.38000 38330.59948 37921.88292 0.0000155
27.39000 38253.87518 37967.62675 0.0000155
27.40000 38541.46343 38018.76122 0.0000155
27.41000 38405.27833 38074.42179 0.0000155
27.42000 38500.18793 38131.38085 0.0000155
27.43000 38480.30380 38186.02918 0.0000155
27.44000 38495.11074 38234.54639 0.0000155
27.45000 38471.28761 38275.91569 0.0000155
27.46000 38573.60389 38312.40029 0.0000155
27.47000 38637.95848 38348.22107 0.0000154
27.48000 38542.75371 38386.99911 0.0000155
27.49000 38529.70642 38429.72663 0.0000155
27.50000 38587.94348 38474.07723 0.0000155
27.51000 38704.75368 38515.94433 0.0000154
27.52000 38549.80283 38549.96197 0.0000155
27.53000 38717.65979 38572.32009 0.0000154
27.54000 38654.59281 38582.25725 0.0000155
27.55000 38660.10139 38582.14999 0.0000155
27.56000 38621.23515 38576.44662 0.0000155
27.57000 38697.13630 38567.53573 0.0000155
27.58000 38632.98705 38555.84673 0.0000155
27.59000 38730.56177 38540.10583 0.0000155
27.60000 38545.28273 38518.74809 0.0000155
27.61000 38413.29563 38491.25497 0.0000155
27.62000 38379.60274 38458.97421 0.0000155
27.63000 38362.67092 38425.77762 0.0000156
27.64000 38300.01779 38396.14057 0.0000156
27.65000 38169.75728 38373.74726 0.0000156
27.66000 38156.87109 38359.95356 0.0000156
27.67000 38291.84287 38353.98203 0.0000156
27.68000 38040.97421 38353.59675 0.0000156
27.69000 38165.98957 38356.44650 0.0000156
27.70000 38208.71470 38360.97039 0.0000156
27.71000 38099.25874 38367.08827 0.0000156
27.72000 38132.17935 38376.25804 0.0000156
27.73000 38123.41946 38390.61933 0.0000156
27.74000 38195.69752 38411.75256 0.0000156
27.75000 38003.66981 38440.01852 0.0000157
27.76000 38063.93149 38474.84660 0.0000157
27.77000 38027.73800 38515.03420 0.0000157
27.78000 37997.64836 38561.24952 0.0000157
27.79000 37918.65011 38613.60948 0.0000157
