#------------------------------------------------------------------------------
#$Date: 2021-01-01 01:25:10 +0200 (Fri, 01 Jan 2021) $
#$Revision: 260302 $
#$URL: file:///home/coder/svn-repositories/cod/cif/4/00/38/4003852.cif $
#------------------------------------------------------------------------------
#
# This file is available in the Crystallography Open Database (COD),
# http://www.crystallography.net/
#
# All data on this site have been placed in the public domain by the
# contributors.
#
data_4003852
loop_
_publ_author_name
'Goodenough, Isabella'
'Devulapalli, Venkata Swaroopa Datta'
'Xu, Wenqian'
'Boyanich, Mikaela C.'
'Luo, Tian-Yi'
'De Souza, Mattheus'
'Richard, M\'elissandre'
'Rosi, Nathaniel L.'
'Borguet, Eric'
_publ_section_title
;
 Interplay between Intrinsic Thermal Stability and Expansion Properties of
 Functionalized UiO-67 Metal--Organic Frameworks
;
_journal_name_full               'Chemistry of Materials'
_journal_paper_doi               10.1021/acs.chemmater.0c03889
_journal_year                    2020
_chemical_compound_source        synthetic
_chemical_formula_sum            'C81.48 H46.56 O30.22 Zr6'
_chemical_formula_weight         2056.44
_chemical_name_common            UiO-67
_chemical_name_systematic
'Zr(IV) biphenyl dicarboxylate metal-organic framework'
_space_group_crystal_system      cubic
_space_group_IT_number           225
_space_group_name_Hall           '-F 4 2 3'
_space_group_name_H-M_alt        'F m -3 m'
_cell_angle_alpha                90
_cell_angle_beta                 90
_cell_angle_gamma                90
_cell_formula_units_Z            4
_cell_length_a                   26.5695(3)
_cell_length_b                   26.5695(3)
_cell_length_c                   26.5695(3)
_cell_measurement_temperature    580
_cell_volume                     18756.4(4)
_diffrn_ambient_pressure         101
_diffrn_ambient_temperature      580
_diffrn_measurement_device_type
'Debye-scherrer geometry diffractometer with area detector at Beamline 17-BM'
_diffrn_radiation_probe          x-ray
_diffrn_radiation_wavelength     0.35364
_diffrn_source                   synchrotron
_diffrn_source_type              'APS Beamline 17-BM'
_exptl_crystal_description       powder
_exptl_crystal_preparation
'powder loaded in a quartz capillary, measured under vacuum'
_exptl_crystal_thermal_history
'no activation, heated from room temperaure to 580 K directly'
_pd_proc_ls_prof_R_factor        0.0236
_pd_proc_ls_prof_wR_factor       0.0336
_refine_ls_goodness_of_fit_all   1.481
_refine_ls_hydrogen_treatment    constr
_refine_ls_R_I_factor            0.0417
_reflns_d_resolution_high        0.736
_reflns_d_resolution_low         15.340
_reflns_limit_h_max              36
_reflns_limit_h_min              0
_reflns_limit_k_max              36
_reflns_limit_k_min              0
_reflns_limit_l_max              36
_reflns_limit_l_min              0
_reflns_number_total             1348
_cod_data_source_file            cm0c03889_si_002.cif
_cod_data_source_block           UiO67-4-00029-sub0_0360qtz
_cod_original_cell_volume        18756.3(7)
_cod_database_code               4003852
loop_
_symmetry_equiv_pos_as_xyz
'x, y, z '
'-x, -y, z '
'-x, -z, -y '
'-x, -z, y '
'-x, z, -y '
'-x, z, y '
'-x, y, -z '
'-x, y, z '
'-y, -x, -z '
'-y, -x, z '
'-y, -z, -x '
'-y, -z, x '
'-y, z, -x '
'-y, z, x '
'-y, x, -z '
'-y, x, z '
'-z, -x, -y '
'-z, -x, y '
'-z, -y, -x '
'-z, -y, x '
'-z, y, -x '
'-z, y, x '
'-z, x, -y '
'-z, x, y '
'z, -x, -y '
'z, -x, y '
'z, -y, -x '
'z, -y, x '
'z, y, -x '
'z, y, x '
'z, x, -y '
'z, x, y '
'y, -x, -z '
'y, -x, z '
'y, -z, -x '
'y, -z, x '
'y, z, -x '
'y, z, x '
'y, x, -z '
'y, x, z '
'x, -y, -z '
'x, -y, z '
'x, -z, -y '
'x, -z, y '
'x, z, -y '
'x, z, y '
'x, y, -z '
'-x, -y, -z '
'x+1/2, y+1/2, z '
'-x+1/2, -y+1/2, z '
'-x+1/2, -z+1/2, -y '
'-x+1/2, -z+1/2, y '
'-x+1/2, z+1/2, -y '
'-x+1/2, z+1/2, y '
'-x+1/2, y+1/2, -z '
'-x+1/2, y+1/2, z '
'-y+1/2, -x+1/2, -z '
'-y+1/2, -x+1/2, z '
'-y+1/2, -z+1/2, -x '
'-y+1/2, -z+1/2, x '
'-y+1/2, z+1/2, -x '
'-y+1/2, z+1/2, x '
'-y+1/2, x+1/2, -z '
'-y+1/2, x+1/2, z '
'-z+1/2, -x+1/2, -y '
'-z+1/2, -x+1/2, y '
'-z+1/2, -y+1/2, -x '
'-z+1/2, -y+1/2, x '
'-z+1/2, y+1/2, -x '
'-z+1/2, y+1/2, x '
'-z+1/2, x+1/2, -y '
'-z+1/2, x+1/2, y '
'z+1/2, -x+1/2, -y '
'z+1/2, -x+1/2, y '
'z+1/2, -y+1/2, -x '
'z+1/2, -y+1/2, x '
'z+1/2, y+1/2, -x '
'z+1/2, y+1/2, x '
'z+1/2, x+1/2, -y '
'z+1/2, x+1/2, y '
'y+1/2, -x+1/2, -z '
'y+1/2, -x+1/2, z '
'y+1/2, -z+1/2, -x '
'y+1/2, -z+1/2, x '
'y+1/2, z+1/2, -x '
'y+1/2, z+1/2, x '
'y+1/2, x+1/2, -z '
'y+1/2, x+1/2, z '
'x+1/2, -y+1/2, -z '
'x+1/2, -y+1/2, z '
'x+1/2, -z+1/2, -y '
'x+1/2, -z+1/2, y '
'x+1/2, z+1/2, -y '
'x+1/2, z+1/2, y '
'x+1/2, y+1/2, -z '
'-x+1/2, -y+1/2, -z '
'x+1/2, y, z+1/2 '
'-x+1/2, -y, z+1/2 '
'-x+1/2, -z, -y+1/2 '
'-x+1/2, -z, y+1/2 '
'-x+1/2, z, -y+1/2 '
'-x+1/2, z, y+1/2 '
'-x+1/2, y, -z+1/2 '
'-x+1/2, y, z+1/2 '
'-y+1/2, -x, -z+1/2 '
'-y+1/2, -x, z+1/2 '
'-y+1/2, -z, -x+1/2 '
'-y+1/2, -z, x+1/2 '
'-y+1/2, z, -x+1/2 '
'-y+1/2, z, x+1/2 '
'-y+1/2, x, -z+1/2 '
'-y+1/2, x, z+1/2 '
'-z+1/2, -x, -y+1/2 '
'-z+1/2, -x, y+1/2 '
'-z+1/2, -y, -x+1/2 '
'-z+1/2, -y, x+1/2 '
'-z+1/2, y, -x+1/2 '
'-z+1/2, y, x+1/2 '
'-z+1/2, x, -y+1/2 '
'-z+1/2, x, y+1/2 '
'z+1/2, -x, -y+1/2 '
'z+1/2, -x, y+1/2 '
'z+1/2, -y, -x+1/2 '
'z+1/2, -y, x+1/2 '
'z+1/2, y, -x+1/2 '
'z+1/2, y, x+1/2 '
'z+1/2, x, -y+1/2 '
'z+1/2, x, y+1/2 '
'y+1/2, -x, -z+1/2 '
'y+1/2, -x, z+1/2 '
'y+1/2, -z, -x+1/2 '
'y+1/2, -z, x+1/2 '
'y+1/2, z, -x+1/2 '
'y+1/2, z, x+1/2 '
'y+1/2, x, -z+1/2 '
'y+1/2, x, z+1/2 '
'x+1/2, -y, -z+1/2 '
'x+1/2, -y, z+1/2 '
'x+1/2, -z, -y+1/2 '
'x+1/2, -z, y+1/2 '
'x+1/2, z, -y+1/2 '
'x+1/2, z, y+1/2 '
'x+1/2, y, -z+1/2 '
'-x+1/2, -y, -z+1/2 '
'x, y+1/2, z+1/2 '
'-x, -y+1/2, z+1/2 '
'-x, -z+1/2, -y+1/2 '
'-x, -z+1/2, y+1/2 '
'-x, z+1/2, -y+1/2 '
'-x, z+1/2, y+1/2 '
'-x, y+1/2, -z+1/2 '
'-x, y+1/2, z+1/2 '
'-y, -x+1/2, -z+1/2 '
'-y, -x+1/2, z+1/2 '
'-y, -z+1/2, -x+1/2 '
'-y, -z+1/2, x+1/2 '
'-y, z+1/2, -x+1/2 '
'-y, z+1/2, x+1/2 '
'-y, x+1/2, -z+1/2 '
'-y, x+1/2, z+1/2 '
'-z, -x+1/2, -y+1/2 '
'-z, -x+1/2, y+1/2 '
'-z, -y+1/2, -x+1/2 '
'-z, -y+1/2, x+1/2 '
'-z, y+1/2, -x+1/2 '
'-z, y+1/2, x+1/2 '
'-z, x+1/2, -y+1/2 '
'-z, x+1/2, y+1/2 '
'z, -x+1/2, -y+1/2 '
'z, -x+1/2, y+1/2 '
'z, -y+1/2, -x+1/2 '
'z, -y+1/2, x+1/2 '
'z, y+1/2, -x+1/2 '
'z, y+1/2, x+1/2 '
'z, x+1/2, -y+1/2 '
'z, x+1/2, y+1/2 '
'y, -x+1/2, -z+1/2 '
'y, -x+1/2, z+1/2 '
'y, -z+1/2, -x+1/2 '
'y, -z+1/2, x+1/2 '
'y, z+1/2, -x+1/2 '
'y, z+1/2, x+1/2 '
'y, x+1/2, -z+1/2 '
'y, x+1/2, z+1/2 '
'x, -y+1/2, -z+1/2 '
'x, -y+1/2, z+1/2 '
'x, -z+1/2, -y+1/2 '
'x, -z+1/2, y+1/2 '
'x, z+1/2, -y+1/2 '
'x, z+1/2, y+1/2 '
'x, y+1/2, -z+1/2 '
'-x, -y+1/2, -z+1/2 '
loop_
_atom_site_label
_atom_site_type_symbol
_atom_site_symmetry_multiplicity
_atom_site_fract_x
_atom_site_fract_y
_atom_site_fract_z
_atom_site_occupancy
_atom_site_B_iso_or_equiv
Zr1 Zr 24 0 0 0.09340(13) 1 3.07(9)
O1 O 32 0.0434(3) 0.0434(3) 0.0434(3) 0.778(18) 5.9(8)
O2 O 96 0.1327(10) 0 0.0735(8) 1 4.5(3)
C4 C 48 0.1141(6) 0 0.1141(6) 0.97 5.1(4)
C5 C 48 0.1554(3) 0 0.1554(3) 0.97 5.1(4)
C6 C 48 0.23041(15) 0 0.23041(15) 0.97 5.1(4)
C2 C 192 0.23933(17) 0.0241(2) 0.1840(2) 0.485 5.1(4)
C3 C 192 0.20180(19) 0.0241(2) 0.1464(3) 0.485 5.1(4)
H2 H 192 0.2752 0.0427 0.1771 0.485 7.7
H3 H 192 0.2087 0.0427 0.1105 0.485 7.7
loop_
_geom_angle_atom_site_label_1
_geom_angle_atom_site_label_2
_geom_angle_atom_site_label_3
_geom_angle
_geom_angle_site_symmetry_1
_geom_angle_site_symmetry_2
_geom_angle_site_symmetry_3
O1 Zr1 O1 101.8(8) 26_555 1_555 6_555
O1 Zr1 O1 66.5(4) 1_555 1_555 26_555
O1 Zr1 O1 66.5(4) 1_555 1_555 6_555
O1 Zr1 O1 101.8(8) 2_555 1_555 1_555
O1 Zr1 O1 66.5(4) 2_555 1_555 26_555
O1 Zr1 O1 66.5(4) 2_555 1_555 6_555
O2 Zr1 O1 79.3(3) 20_555 1_555 2_555
O2 Zr1 O1 141.37(4) 20_555 1_555 1_555
O2 Zr1 O1 141.37(4) 20_555 1_555 26_555
O2 Zr1 O1 79.3(3) 20_555 1_555 6_555
O2 Zr1 O2 77.17(6) 12_555 1_555 20_555
O2 Zr1 O1 79.3(3) 12_555 1_555 2_555
O2 Zr1 O1 141.37(4) 12_555 1_555 1_555
O2 Zr1 O1 79.3(3) 12_555 1_555 26_555
O2 Zr1 O1 141.37(4) 12_555 1_555 6_555
O2 Zr1 O2 123.77(15) 14_555 1_555 12_555
O2 Zr1 O2 77.17(6) 14_555 1_555 20_555
O2 Zr1 O1 141.37(4) 14_555 1_555 2_555
O2 Zr1 O1 79.3(3) 14_555 1_555 1_555
O2 Zr1 O1 141.37(4) 14_555 1_555 26_555
O2 Zr1 O1 79.3(3) 14_555 1_555 6_555
O2 Zr1 O2 77.17(6) 28_555 1_555 14_555
O2 Zr1 O2 77.17(6) 28_555 1_555 12_555
O2 Zr1 O2 123.77(15) 28_555 1_555 20_555
O2 Zr1 O1 141.37(4) 28_555 1_555 2_555
O2 Zr1 O1 79.3(3) 28_555 1_555 1_555
O2 Zr1 O1 79.3(3) 28_555 1_555 26_555
O2 Zr1 O1 141.37(4) 28_555 1_555 6_555
Zr1 O1 Zr1 113.0(4) 5_555 1_555 1_555
Zr1 O1 Zr1 113.0(4) 25_555 1_555 5_555
Zr1 O1 Zr1 113.0(4) 25_555 1_555 1_555
Zr1 O2 C4 127.27(8) 25_555 1_555 1_555
O2 C4 O2 139.229 1_555 1_555 28_555
C5 C4 O2 110.385 1_555 1_555 1_555
C5 C4 O2 110.385 1_555 1_555 28_555
C3 C5 C3 120.000 42_555 1_555 30_555
C3 C5 C3 120.000 1_555 1_555 28_555
C4 C5 C3 120.000 1_555 1_555 1_555
C4 C5 C3 120.000 1_555 1_555 42_555
C4 C5 C3 120.000 1_555 1_555 30_555
C4 C5 C3 120.000 1_555 1_555 28_555
C2 C6 C2 120.000 30_555 1_555 42_555
C2 C6 C2 120.000 28_555 1_555 1_555
C6 C6 C2 120.000 103_555 1_555 28_555
C6 C6 C2 120.000 103_555 1_555 30_555
C6 C6 C2 120.000 103_555 1_555 42_555
C6 C6 C2 120.000 103_555 1_555 1_555
C6 C2 H2 120.000 1_555 1_555 1_555
C3 C2 C6 120.000 1_555 1_555 1_555
C3 C2 H2 120.000 1_555 1_555 1_555
C5 C3 H3 120.000 1_555 1_555 1_555
C2 C3 C5 120.000 1_555 1_555 1_555
C2 C3 H3 120.000 1_555 1_555 1_555
loop_
_geom_bond_atom_site_label_1
_geom_bond_atom_site_label_2
_geom_bond_distance
_geom_bond_site_symmetry_1
_geom_bond_site_symmetry_2
Zr1 O1 2.104(5) 1_555 6_555
Zr1 O1 2.104(5) 1_555 26_555
Zr1 O1 2.104(5) 1_555 1_555
Zr1 O1 2.104(5) 1_555 2_555
Zr1 O2 2.2155(16) 1_555 20_555
Zr1 O2 2.2155(16) 1_555 12_555
Zr1 O2 2.2155(16) 1_555 14_555
Zr1 O2 2.2155(16) 1_555 28_555
O2 C4 1.18547 1_555 1_555
C4 C5 1.55011 1_555 1_555
C5 C3 1.41000 1_555 28_555
C5 C3 1.41000 1_555 30_555
C5 C3 1.41000 1_555 42_555
C5 C3 1.41000 1_555 1_555
C6 C2 1.41000 1_555 1_555
C6 C2 1.41000 1_555 42_555
C6 C2 1.41000 1_555 30_555
C6 C2 1.41000 1_555 28_555
C6 C6 1.47197 1_555 103_555
C2 H2 1.09000 1_555 1_555
C2 C3 1.41000 1_555 1_555
C3 H3 1.09000 1_555 1_555
loop_
_pd_meas_2theta_scan
_pd_proc_intensity_total
_pd_calc_intensity_total
_pd_proc_ls_weight
1.00000 3636.31418 3409.78669 0.0001714
1.01000 3639.49166 3396.17503 0.0001705
1.02000 3564.79183 3388.69331 0.0001728
1.03000 3633.14133 3387.95328 0.0001702
1.04000 3586.24901 3394.68202 0.0001711
1.05000 3601.25095 3409.74751 0.0001707
1.06000 3604.67146 3434.19123 0.0001698
1.07000 3657.36749 3469.26974 0.0001683
1.08000 3612.79960 3516.50853 0.0001691
1.09000 3671.87460 3577.77217 0.0001673
1.10000 3656.22281 3655.35666 0.0001670
1.11000 3628.67001 3752.11250 0.0001682
1.12000 3802.94075 3871.61045 0.0001624
1.13000 3779.26923 4018.36765 0.0001633
1.14000 3940.32836 4198.16049 0.0001585
1.15000 4046.39867 4418.46383 0.0001560
1.16000 4272.48077 4689.07790 0.0001501
1.17000 4504.11822 5023.04109 0.0001452
1.18000 4871.87367 5438.00720 0.0001374
1.19000 5412.86455 5958.53181 0.0001277
1.20000 6230.77804 6620.90414 0.0001156
1.21000 7301.80723 7487.36266 0.0001026
1.22000 9239.87349 8695.07160 0.0000856
1.23000 12290.19056 10613.47537 0.0000678
1.24000 17187.70214 14257.08140 0.0000509
1.25000 26229.30081 22083.76486 0.0000348
1.26000 42017.31805 38908.87957 0.0000225
1.27000 71670.91760 71731.04209 0.0000135
1.28000 125448.54993 126637.62341 0.0000078
1.29000 206382.15114 202467.99392 0.0000048
1.30000 284449.08651 284505.81007 0.0000035
1.31000 348601.34317 343381.24866 0.0000028
1.32000 352856.59980 347932.52778 0.0000028
1.33000 299682.93081 295397.40993 0.0000033
1.34000 212161.43431 214716.48749 0.0000047
1.35000 134876.47823 136764.62547 0.0000073
1.36000 76529.61877 78519.74110 0.0000126
1.37000 42819.48260 42800.73794 0.0000220
1.38000 25899.14851 24151.18776 0.0000351
1.39000 16758.38411 15444.21076 0.0000516
1.40000 11671.65952 11497.86716 0.0000699
1.41000 8887.97572 9569.98955 0.0000870
1.42000 7502.12796 8513.94143 0.0000986
1.43000 6791.02842 7954.80419 0.0001062
1.44000 7029.79427 7891.41189 0.0001032
1.45000 8038.17425 8662.89448 0.0000936
1.46000 10942.46912 11122.23399 0.0000735
1.47000 15741.39629 16754.99466 0.0000543
1.48000 25758.90527 27294.35903 0.0000351
1.49000 41723.55376 43482.72543 0.0000225
1.50000 61813.88705 63360.72499 0.0000155
1.51000 80801.74632 81212.72673 0.0000120
1.52000 87034.17218 88714.20110 0.0000111
1.53000 80442.14036 81145.03037 0.0000120
1.54000 62489.66864 63073.64555 0.0000153
1.55000 41097.19999 42818.74816 0.0000228
1.56000 24855.87552 26153.91276 0.0000362
1.57000 14733.34445 15090.51526 0.0000572
1.58000 8890.85798 8906.26638 0.0000859
1.59000 6054.04458 5853.57377 0.0001132
1.60000 4330.26562 4410.11022 0.0001409
1.61000 3414.86743 3672.07998 0.0001613
1.62000 2820.76064 3223.75591 0.0001782
1.63000 2492.36343 2904.77650 0.0001891
1.64000 2195.97575 2656.30042 0.0002000
1.65000 2097.80892 2454.81104 0.0002037
1.66000 1936.19990 2287.85935 0.0002100
1.67000 1880.46664 2147.43645 0.0002127
1.68000 1810.45454 2027.86974 0.0002146
1.69000 1690.29749 1924.98050 0.0002212
1.70000 1677.27059 1835.62283 0.0002199
1.71000 1561.18666 1757.38859 0.0002273
1.72000 1613.68270 1688.40697 0.0002223
1.73000 1581.79909 1627.20505 0.0002249
1.74000 1527.47710 1572.60908 0.0002260
1.75000 1530.89071 1523.67326 0.0002266
1.76000 1510.46709 1479.62781 0.0002261
1.77000 1453.99036 1439.84042 0.0002289
1.78000 1462.26880 1403.78744 0.0002283
1.79000 1457.31460 1371.03192 0.0002279
1.80000 1448.65209 1341.20688 0.0002278
1.81000 1412.01736 1314.00233 0.0002293
1.82000 1372.51767 1289.15514 0.0002314
1.83000 1393.13058 1266.44114 0.0002284
1.84000 1401.08310 1245.66888 0.0002295
1.85000 1380.94869 1226.67468 0.0002282
1.86000 1329.13729 1209.31879 0.0002320
1.87000 1398.65570 1193.48235 0.0002267
1.88000 1343.41737 1179.06509 0.0002300
1.89000 1352.79411 1165.98364 0.0002281
1.90000 1365.01746 1154.17042 0.0002280
1.91000 1341.01719 1143.57303 0.0002280
1.92000 1321.38445 1134.15427 0.0002288
1.93000 1317.43440 1125.89266 0.0002287
1.94000 1261.73571 1118.78380 0.0002309
1.95000 1309.80636 1112.84262 0.0002280
1.96000 1273.74164 1108.11632 0.0002291
1.97000 1263.84976 1104.65112 0.0002297
1.98000 1270.88413 1102.55695 0.0002277
1.99000 1277.23661 1101.97990 0.0002285
2.00000 1274.50956 1103.12730 0.0002264
2.01000 1270.17640 1106.29070 0.0002275
2.02000 1273.33935 1111.88148 0.0002259
2.03000 1292.01322 1120.49225 0.0002254
2.04000 1293.75301 1133.03448 0.0002238
2.05000 1297.28886 1151.15551 0.0002238
2.06000 1379.29073 1178.63465 0.0002190
2.07000 1439.72871 1225.58836 0.0002158
2.08000 1543.64318 1318.54124 0.0002105
2.09000 1721.27700 1517.41153 0.0002025
2.10000 2125.02175 1929.32060 0.0001870
2.11000 2822.62183 2690.42678 0.0001648
2.12000 3897.97048 3885.05689 0.0001399
2.13000 5545.30103 5415.97665 0.0001133
2.14000 6897.84719 6899.12454 0.0000985
2.15000 7756.40532 7695.30234 0.0000905
2.16000 7419.66482 7327.00146 0.0000935
2.17000 6146.59329 6029.66689 0.0001058
2.18000 4534.81381 4455.99115 0.0001277
2.19000 3182.81218 3106.85975 0.0001538
2.20000 2300.96851 2181.55300 0.0001780
2.21000 1840.89593 1650.75670 0.0001931
2.22000 1584.45107 1385.27922 0.0002031
2.23000 1388.94208 1261.72519 0.0002111
2.24000 1338.64759 1202.61040 0.0002128
2.25000 1312.80919 1170.70618 0.0002137
2.26000 1256.15618 1151.14853 0.0002155
2.27000 1232.00918 1138.47264 0.0002168
2.28000 1229.13733 1130.51341 0.0002157
2.29000 1228.84332 1126.21585 0.0002164
2.30000 1220.97182 1124.96784 0.0002149
2.31000 1242.85037 1126.39758 0.0002149
2.32000 1210.94377 1130.29803 0.0002148
2.33000 1237.23463 1136.59133 0.0002139
2.34000 1219.09136 1145.31175 0.0002137
2.35000 1255.26929 1156.60145 0.0002122
2.36000 1248.34636 1170.71742 0.0002116
2.37000 1236.80191 1188.05019 0.0002121
2.38000 1289.06169 1209.15726 0.0002091
2.39000 1293.21046 1234.81754 0.0002086
2.40000 1284.65037 1266.12517 0.0002088
2.41000 1307.03522 1304.66975 0.0002069
2.42000 1382.24031 1353.02528 0.0002042
2.43000 1422.61836 1416.36516 0.0002011
2.44000 1537.69271 1507.48505 0.0001973
2.45000 1662.71436 1659.77646 0.0001916
2.46000 1992.30717 1951.85982 0.0001804
2.47000 2546.98051 2534.60216 0.0001631
2.48000 3528.13760 3622.36417 0.0001408
2.49000 5318.99375 5393.58718 0.0001121
2.50000 7634.48770 7795.53167 0.0000890
2.51000 10257.21666 10347.43853 0.0000721
2.52000 12184.73710 12092.81127 0.0000633
2.53000 12119.57277 12073.24612 0.0000635
2.54000 10515.74534 10387.93699 0.0000707
2.55000 8216.95126 8098.95472 0.0000844
2.56000 6311.52072 6208.63035 0.0001003
2.57000 5433.56780 5361.86547 0.0001102
2.58000 6071.15357 6022.50729 0.0001025
2.59000 8276.45515 8684.47671 0.0000837
2.60000 13251.57194 13798.22572 0.0000590
2.61000 20498.49089 21262.18651 0.0000413
2.62000 29287.43048 29741.52689 0.0000303
2.63000 36030.50256 36315.01438 0.0000252
2.64000 37147.99550 37476.73276 0.0000245
2.65000 32787.48078 32458.88141 0.0000274
2.66000 24205.48001 24192.69322 0.0000358
2.67000 15581.79125 16024.27409 0.0000518
2.68000 9661.30145 9802.74066 0.0000747
2.69000 5735.15816 5892.03865 0.0001056
2.70000 3813.36117 3779.70723 0.0001325
2.71000 2760.88746 2743.91256 0.0001534
2.72000 2134.71545 2238.99602 0.0001704
2.73000 1829.06800 1966.19485 0.0001788
2.74000 1595.59023 1792.36799 0.0001870
2.75000 1446.22539 1667.39631 0.0001915
2.76000 1378.36108 1571.65708 0.0001945
2.77000 1306.56805 1496.15811 0.0001963
2.78000 1234.12994 1435.71282 0.0001996
2.79000 1243.97099 1387.53184 0.0001984
2.80000 1184.09904 1347.82491 0.0002008
2.81000 1175.99351 1315.47579 0.0002009
2.82000 1188.71940 1289.18051 0.0002000
2.83000 1168.75326 1267.98455 0.0002005
2.84000 1156.61116 1251.19853 0.0002008
2.85000 1149.76402 1238.34292 0.0002011
2.86000 1148.15731 1229.11357 0.0002001
2.87000 1140.23279 1223.36352 0.0002012
2.88000 1141.26023 1221.09914 0.0002001
2.89000 1139.77053 1222.49064 0.0002005
2.90000 1132.20366 1227.89970 0.0002000
2.91000 1143.08277 1237.93038 0.0001998
2.92000 1166.10844 1253.51826 0.0001980
2.93000 1206.97943 1276.10569 0.0001968
2.94000 1234.37129 1308.09374 0.0001949
2.95000 1283.27258 1354.28848 0.0001933
2.96000 1401.19075 1426.51806 0.0001884
2.97000 1534.48028 1556.06851 0.0001835
2.98000 1856.57534 1818.82775 0.0001732
2.99000 2345.48449 2366.58477 0.0001593
3.00000 3349.79628 3427.90306 0.0001372
3.01000 5099.56221 5217.38022 0.0001104
3.02000 7596.81135 7732.62451 0.0000866
3.03000 10526.66606 10522.69665 0.0000689
3.04000 12485.68299 12572.78486 0.0000608
3.05000 12725.40131 12707.83327 0.0000599
3.06000 11032.80606 10835.57381 0.0000666
3.07000 8224.23604 8067.73894 0.0000818
3.08000 5503.27564 5477.40060 0.0001054
3.09000 3635.95180 3562.71010 0.0001308
3.10000 2462.04493 2413.40181 0.0001546
3.11000 1864.95225 1807.96444 0.0001699
3.12000 1510.17728 1512.50737 0.0001805
3.13000 1328.65933 1364.50705 0.0001864
3.14000 1198.90863 1280.07408 0.0001906
3.15000 1155.81232 1223.84960 0.0001919
3.16000 1124.55557 1182.35703 0.0001924
3.17000 1068.99272 1150.17118 0.0001948
3.18000 1056.75548 1124.61135 0.0001942
3.19000 1043.15788 1104.04861 0.0001951
3.20000 1031.85926 1087.38016 0.0001945
3.21000 1046.05186 1073.83026 0.0001940
3.22000 1006.53289 1062.96481 0.0001948
3.23000 995.55975 1054.17028 0.0001951
3.24000 999.03043 1047.30514 0.0001942
3.25000 1005.60643 1042.22013 0.0001940
3.26000 1012.95141 1038.86431 0.0001930
3.27000 995.29185 1037.29739 0.0001932
3.28000 1033.64620 1037.65477 0.0001915
3.29000 1029.82679 1034.85244 0.0001911
3.30000 1029.67154 1040.36110 0.0001908
3.31000 1035.03284 1049.93371 0.0001898
3.32000 1049.11105 1066.62433 0.0001895
3.33000 1132.19243 1098.48825 0.0001855
3.34000 1161.22571 1164.96088 0.0001847
3.35000 1285.35576 1304.74844 0.0001797
3.36000 1500.42013 1576.01503 0.0001728
3.37000 1904.20598 2033.58120 0.0001610
3.38000 2476.54947 2677.94205 0.0001474
3.39000 3189.90022 3396.27196 0.0001329
3.40000 3671.76521 3930.07989 0.0001248
3.41000 3721.74654 3974.11551 0.0001238
3.42000 3341.33817 3497.77516 0.0001297
3.43000 2672.13151 2784.96241 0.0001417
3.44000 2028.22345 2113.29909 0.0001555
3.45000 1549.77437 1618.13941 0.0001677
3.46000 1296.00277 1313.82177 0.0001744
3.47000 1132.59983 1150.80406 0.0001796
3.48000 1091.26968 1069.51045 0.0001799
3.49000 1003.59490 1027.74338 0.0001830
3.50000 979.19805 1003.30780 0.0001824
3.51000 948.24528 986.65282 0.0001834
3.52000 967.13028 974.08218 0.0001818
3.53000 932.96477 964.09116 0.0001827
3.54000 934.13357 955.93600 0.0001817
3.55000 957.45786 949.16538 0.0001807
3.56000 933.90045 943.47277 0.0001806
3.57000 937.22470 938.64057 0.0001801
3.58000 906.73918 934.51186 0.0001804
3.59000 922.17933 930.97332 0.0001791
3.60000 915.71808 927.94434 0.0001793
3.61000 935.22832 925.37032 0.0001773
3.62000 878.23248 923.21965 0.0001791
3.63000 931.14909 921.48664 0.0001762
3.64000 917.90037 920.21021 0.0001765
3.65000 912.29999 919.53601 0.0001755
3.66000 900.65148 920.51103 0.0001757
3.67000 946.55057 922.79678 0.0001732
3.68000 930.08127 928.72351 0.0001733
3.69000 938.96995 940.49872 0.0001722
3.70000 1006.34194 959.60014 0.0001698
3.71000 1035.95706 984.82755 0.0001683
3.72000 1091.11736 1009.69987 0.0001660
3.73000 1091.44633 1023.21664 0.0001653
3.74000 1107.82215 1017.02383 0.0001641
3.75000 1060.73203 996.18067 0.0001648
3.76000 1010.01323 972.38917 0.0001653
3.77000 965.34399 953.62895 0.0001662
3.78000 964.51776 942.66846 0.0001651
3.79000 965.18718 938.82188 0.0001648
3.80000 943.69195 940.15001 0.0001642
3.81000 928.92841 945.03294 0.0001646
3.82000 943.23427 952.70794 0.0001628
3.83000 956.61816 963.16845 0.0001621
3.84000 981.31302 976.95766 0.0001604
3.85000 963.42616 995.15074 0.0001605
3.86000 1007.43227 1019.76887 0.0001583
3.87000 1062.89814 1055.32792 0.0001564
3.88000 1110.32598 1113.28678 0.0001544
3.89000 1238.31305 1221.89781 0.0001508
3.90000 1449.87541 1440.81875 0.0001455
3.91000 1838.75198 1868.35442 0.0001369
3.92000 2519.95935 2614.77135 0.0001249
3.93000 3665.68418 3722.49077 0.0001087
3.94000 4916.67525 5052.95675 0.0000956
3.95000 6051.35677 6194.66390 0.0000859
3.96000 6416.11992 6543.91423 0.0000832
3.97000 5879.58958 5856.62863 0.0000867
3.98000 4638.65303 4582.25295 0.0000970
3.99000 3346.12364 3295.52751 0.0001103
4.00000 2317.46795 2307.41992 0.0001241
4.01000 1750.04991 1680.79624 0.0001328
4.02000 1403.88004 1337.52450 0.0001387
4.03000 1226.67696 1164.99285 0.0001413
4.04000 1116.52638 1077.58638 0.0001429
4.05000 1062.57794 1028.19310 0.0001433
4.06000 1057.34773 996.24156 0.0001425
4.07000 1002.71998 972.88424 0.0001431
4.08000 1007.49802 955.07793 0.0001420
4.09000 960.87250 941.19220 0.0001426
4.10000 973.69051 930.25479 0.0001412
4.11000 971.09693 921.61594 0.0001409
4.12000 983.77727 914.82269 0.0001395
4.13000 987.81673 909.55658 0.0001390
4.14000 982.09906 905.59671 0.0001381
4.15000 956.33166 902.79686 0.0001382
4.16000 981.76546 901.07201 0.0001367
4.17000 957.46552 900.39204 0.0001367
4.18000 987.62943 900.78197 0.0001352
4.19000 959.34358 902.33034 0.0001351
4.20000 979.34208 905.21404 0.0001340
4.21000 955.74107 909.77370 0.0001337
4.22000 946.85051 916.75722 0.0001332
4.23000 988.43434 928.03712 0.0001315
4.24000 1007.43347 948.30152 0.0001310
4.25000 1061.07658 987.83703 0.0001290
4.26000 1133.10789 1064.59542 0.0001274
4.27000 1282.83379 1200.71982 0.0001242
4.28000 1449.08265 1408.83009 0.0001213
4.29000 1771.73665 1669.59806 0.0001159
4.30000 2025.30516 1914.58217 0.0001124
4.31000 2165.03446 2022.15799 0.0001100
4.32000 2065.64493 1920.90130 0.0001108
4.33000 1844.39392 1687.07000 0.0001130
4.34000 1539.55803 1440.49960 0.0001166
4.35000 1335.14786 1250.07821 0.0001188
4.36000 1183.13239 1133.43466 0.0001204
4.37000 1107.43801 1077.96682 0.0001210
4.38000 1096.01739 1062.40375 0.0001204
4.39000 1066.29938 1070.27859 0.0001206
4.40000 1106.80189 1093.35674 0.0001191
4.41000 1088.82074 1130.13590 0.0001191
4.42000 1167.43475 1182.39783 0.0001172
4.43000 1248.01602 1270.11429 0.0001158
4.44000 1437.16795 1426.86101 0.0001126
4.45000 1701.37874 1728.96853 0.0001091
4.46000 2219.87240 2301.64935 0.0001027
4.47000 3072.51035 3285.20135 0.0000942
4.48000 4503.68168 4734.90554 0.0000827
4.49000 6224.18546 6480.37486 0.0000722
4.50000 7637.02511 8007.79324 0.0000654
4.51000 8328.93526 8589.23066 0.0000624
4.52000 7912.91903 8064.46629 0.0000639
4.53000 7110.96971 7198.24688 0.0000672
4.54000 6667.37767 6811.54711 0.0000692
4.55000 7060.72552 7195.39296 0.0000672
4.56000 7769.51007 8026.40678 0.0000641
4.57000 8295.39814 8473.86688 0.0000618
4.58000 7774.54910 7823.05705 0.0000638
4.59000 6344.53669 6288.78489 0.0000700
4.60000 4598.10445 4581.17168 0.0000797
4.61000 3180.60803 3179.74411 0.0000895
4.62000 2215.43813 2235.05877 0.0000979
4.63000 1699.81776 1685.95102 0.0001027
4.64000 1369.54058 1394.72274 0.0001062
4.65000 1230.28523 1241.08253 0.0001074
4.66000 1138.85489 1152.52258 0.0001083
4.67000 1037.03599 1093.94188 0.0001092
4.68000 1023.60561 1051.11259 0.0001091
4.69000 948.87219 1018.03658 0.0001099
4.70000 982.73432 991.81396 0.0001090
4.71000 948.66902 970.73863 0.0001096
4.72000 941.19582 953.68328 0.0001092
4.73000 971.08213 939.89654 0.0001089
4.74000 951.26823 928.96907 0.0001088
4.75000 953.38311 920.94589 0.0001088
4.76000 953.34958 916.57141 0.0001084
4.77000 931.49824 917.46366 0.0001088
4.78000 975.62858 925.71294 0.0001080
4.79000 977.70873 942.62953 0.0001081
4.80000 1039.87822 965.67296 0.0001071
4.81000 1048.76151 987.35244 0.0001071
4.82000 1075.05661 993.78441 0.0001066
4.83000 1028.97586 979.62815 0.0001071
4.84000 992.95170 952.57391 0.0001075
4.85000 983.61909 925.45209 0.0001076
4.86000 923.91838 904.83710 0.0001084
4.87000 915.80824 892.53100 0.0001083
4.88000 905.13121 887.19496 0.0001088
4.89000 926.26113 886.77819 0.0001082
4.90000 929.15907 889.93950 0.0001086
4.91000 963.45953 896.66268 0.0001080
4.92000 975.84355 908.93983 0.0001083
4.93000 982.64754 932.48723 0.0001079
4.94000 1015.26112 979.46910 0.0001079
4.95000 1123.54669 1069.68564 0.0001066
4.96000 1285.15415 1224.92128 0.0001050
4.97000 1523.90238 1452.80528 0.0001025
4.98000 1811.45466 1723.79011 0.0000998
4.99000 2034.87064 1949.82558 0.0000977
5.00000 2127.96926 2004.86817 0.0000970
5.01000 1974.44098 1855.36634 0.0000986
5.02000 1724.26751 1610.65252 0.0001011
5.03000 1456.12320 1385.11304 0.0001045
5.04000 1285.62547 1228.05506 0.0001064
5.05000 1157.72676 1134.28191 0.0001083
5.06000 1119.32906 1072.09441 0.0001087
5.07000 1061.37664 1019.42426 0.0001100
5.08000 1032.09067 974.15748 0.0001104
5.09000 988.04223 939.11818 0.0001115
5.10000 988.32434 915.11585 0.0001116
5.11000 939.39036 900.52147 0.0001127
5.12000 939.93169 893.35346 0.0001129
5.13000 931.99862 889.25025 0.0001134
5.14000 942.26661 887.36402 0.0001136
5.15000 944.89343 886.80582 0.0001140
5.16000 943.20753 887.17314 0.0001144
5.17000 964.13014 888.29195 0.0001144
5.18000 953.47361 890.13885 0.0001151
5.19000 981.07788 892.35634 0.0001149
5.20000 976.67454 895.56405 0.0001157
5.21000 971.90611 899.69950 0.0001159
5.22000 997.86021 905.19449 0.0001163
5.23000 991.97326 912.80928 0.0001165
5.24000 1011.11418 923.52151 0.0001170
5.25000 1104.75989 938.01845 0.0001160
5.26000 1098.89460 955.84127 0.0001167
5.27000 1183.84215 974.43979 0.0001158
5.28000 1216.33660 988.98517 0.0001160
5.29000 1185.35568 996.45942 0.0001168
5.30000 1182.65948 1000.44174 0.0001174
5.31000 1137.84682 1006.67552 0.0001185
5.32000 1102.36973 1018.87264 0.0001195
5.33000 1084.80798 1039.27782 0.0001203
5.34000 1116.72492 1068.61749 0.0001202
5.35000 1125.90772 1109.85862 0.0001209
5.36000 1203.72867 1170.13488 0.0001200
5.37000 1304.27261 1268.04965 0.0001194
5.38000 1475.80196 1446.50678 0.0001173
5.39000 1790.18547 1786.75655 0.0001137
5.40000 2378.48235 2404.10452 0.0001068
5.41000 3323.16230 3397.43020 0.0000975
5.42000 4645.23409 4746.93934 0.0000866
5.43000 5975.28436 6187.76872 0.0000779
5.44000 6847.76684 7131.55108 0.0000731
5.45000 6873.43687 7012.30882 0.0000733
5.46000 6046.33890 6032.19454 0.0000782
5.47000 4878.02520 4885.08405 0.0000863
5.48000 3940.97429 4006.89181 0.0000942
5.49000 3311.96892 3441.38341 0.0001006
5.50000 2889.31804 2994.52875 0.0001055
5.51000 2518.01787 2528.18733 0.0001101
5.52000 2067.20338 2079.22859 0.0001166
5.53000 1711.37776 1714.14011 0.0001219
5.54000 1439.29244 1457.77620 0.0001270
5.55000 1308.31508 1299.39094 0.0001295
5.56000 1196.61637 1210.85379 0.0001323
5.57000 1193.05016 1164.34597 0.0001329
5.58000 1134.52277 1141.21164 0.0001347
5.59000 1170.50642 1131.95867 0.0001345
5.60000 1126.23900 1132.98049 0.0001361
5.61000 1163.05668 1144.07235 0.0001359
5.62000 1188.81464 1168.35150 0.0001362
5.63000 1248.53508 1215.38164 0.0001356
5.64000 1304.13747 1308.51497 0.0001353
5.65000 1467.13380 1494.25939 0.0001329
5.66000 1773.91633 1842.46401 0.0001283
5.67000 2219.62986 2419.63149 0.0001219
5.68000 2944.01748 3227.46492 0.0001123
5.69000 3613.22348 4120.80421 0.0001050
5.70000 4150.45923 4738.16431 0.0000996
5.71000 4138.82216 4669.77583 0.0001002
5.72000 3643.18831 3972.08092 0.0001057
5.73000 2897.59362 3083.81556 0.0001154
5.74000 2198.17019 2324.77006 0.0001258
5.75000 1736.55794 1806.82289 0.0001344
5.76000 1487.02138 1510.31547 0.0001395
5.77000 1352.67138 1367.88554 0.0001430
5.78000 1325.56948 1320.34483 0.0001440
5.79000 1321.01853 1342.61082 0.0001449
5.80000 1457.50238 1447.34757 0.0001426
5.81000 1644.56678 1676.76087 0.0001395
5.82000 2056.99675 2077.60881 0.0001325
5.83000 2632.86299 2656.12534 0.0001235
5.84000 3244.56635 3317.76841 0.0001154
5.85000 3737.80507 3810.32627 0.0001095
5.86000 3787.09862 3811.96640 0.0001094
5.87000 3390.50500 3317.85732 0.0001146
5.88000 2747.36793 2646.71169 0.0001244
5.89000 2102.52230 2053.23168 0.0001356
5.90000 1687.93496 1633.76628 0.0001445
5.91000 1407.74474 1381.99714 0.0001510
5.92000 1279.48085 1247.67450 0.0001549
5.93000 1201.22837 1179.82860 0.0001574
5.94000 1159.58176 1145.15603 0.0001592
5.95000 1144.17637 1126.42665 0.0001602
5.96000 1138.78695 1116.75077 0.0001612
5.97000 1120.66278 1113.45616 0.0001623
5.98000 1130.33041 1115.67162 0.0001628
5.99000 1127.98261 1123.43033 0.0001634
6.00000 1156.31410 1137.61622 0.0001634
6.01000 1184.48577 1160.67845 0.0001634
6.02000 1236.44048 1198.89426 0.0001626
6.03000 1289.59432 1267.52631 0.0001620
6.04000 1473.21664 1398.94363 0.0001578
6.05000 1721.54653 1647.23916 0.0001526
6.06000 2194.58436 2077.10841 0.0001427
6.07000 2900.86423 2722.63744 0.0001302
6.08000 3765.12894 3522.21539 0.0001173
6.09000 4505.26990 4241.79569 0.0001083
6.10000 4815.82096 4488.71563 0.0001049
6.11000 4473.19458 4078.34997 0.0001092
6.12000 3708.20268 3305.66597 0.0001195
6.13000 2805.19663 2539.76137 0.0001343
6.14000 2126.10149 1959.66484 0.0001483
6.15000 1702.53982 1593.12962 0.0001589
6.16000 1463.32734 1391.94776 0.0001657
6.17000 1356.96951 1291.90526 0.0001693
6.18000 1266.98554 1245.22733 0.0001727
6.19000 1254.24275 1226.26029 0.0001735
6.20000 1238.92597 1225.15373 0.0001750
6.21000 1263.44569 1242.25073 0.0001746
6.22000 1289.88004 1287.94819 0.0001746
6.23000 1447.76507 1386.95190 0.0001704
6.24000 1617.13194 1580.45522 0.0001664
6.25000 2003.54098 1914.80209 0.0001567
6.26000 2515.46623 2408.14080 0.0001456
6.27000 3134.55908 2998.48526 0.0001338
6.28000 3607.81303 3484.57390 0.0001263
6.29000 3727.90457 3567.44161 0.0001246
6.30000 3411.75855 3183.13496 0.0001301
6.31000 2836.10590 2596.87422 0.0001410
6.32000 2223.96301 2059.00879 0.0001548
6.33000 1771.82412 1671.67821 0.0001669
6.34000 1500.45572 1436.68013 0.0001754
6.35000 1373.27433 1311.82666 0.0001801
6.36000 1304.13984 1250.72857 0.0001828
6.37000 1254.66686 1224.24526 0.0001854
6.38000 1258.96576 1216.21707 0.0001856
6.39000 1234.90528 1222.97633 0.0001873
6.40000 1277.04178 1249.12350 0.0001861
6.41000 1301.03547 1309.35080 0.0001863
6.42000 1430.86497 1430.41824 0.0001822
6.43000 1635.92838 1645.75509 0.0001763
6.44000 1959.89548 1975.52912 0.0001671
6.45000 2349.85354 2393.21716 0.0001574
6.46000 2694.75074 2784.39097 0.0001496
6.47000 2871.04781 2941.05830 0.0001462
6.48000 2709.67135 2747.41547 0.0001500
6.49000 2376.86677 2351.69911 0.0001583
6.50000 1995.68053 1955.29281 0.0001689
6.51000 1664.47539 1658.06590 0.0001795
6.52000 1504.93616 1479.29809 0.0001852
6.53000 1429.63636 1400.42356 0.0001883
6.54000 1402.18708 1400.21547 0.0001900
6.55000 1478.44053 1475.89346 0.0001876
6.56000 1653.37890 1645.27827 0.0001823
6.57000 1959.19839 1930.85540 0.0001730
6.58000 2352.83465 2331.19405 0.0001625
6.59000 2835.51902 2786.00961 0.0001509
6.60000 3206.20433 3149.70432 0.0001433
6.61000 3423.26329 3283.88842 0.0001392
6.62000 3473.23467 3252.94014 0.0001386
6.63000 3470.28250 3217.24076 0.0001388
6.64000 3406.95356 3185.57847 0.0001404
6.65000 3225.06777 3012.61832 0.0001443
6.66000 2901.32919 2640.96147 0.0001517
6.67000 2436.48358 2203.87765 0.0001635
6.68000 1958.12953 1830.21424 0.0001780
6.69000 1646.16791 1565.92946 0.0001888
6.70000 1446.00282 1403.54446 0.0001966
6.71000 1332.23766 1313.38097 0.0002019
6.72000 1290.94496 1265.52004 0.0002040
6.73000 1224.49744 1239.74130 0.0002074
6.74000 1228.80706 1225.45014 0.0002076
6.75000 1201.79017 1217.94900 0.0002095
6.76000 1200.22904 1215.32662 0.0002099
6.77000 1197.59884 1216.86338 0.0002107
6.78000 1220.26745 1222.40375 0.0002101
6.79000 1204.61758 1231.89381 0.0002114
6.80000 1242.12573 1245.73518 0.0002102
6.81000 1247.61552 1263.85776 0.0002106
6.82000 1232.56205 1286.17754 0.0002116
6.83000 1276.28804 1313.42586 0.0002102
6.84000 1291.12642 1348.36315 0.0002100
6.85000 1341.33900 1395.58669 0.0002082
6.86000 1403.60456 1463.03426 0.0002059
6.87000 1519.15127 1568.02159 0.0002015
6.88000 1667.17084 1749.03221 0.0001961
6.89000 2009.46328 2083.30023 0.0001841
6.90000 2551.37854 2692.05490 0.0001679
6.91000 3583.83755 3706.62148 0.0001432
6.92000 4990.34968 5175.42835 0.0001194
6.93000 6798.08969 6921.87310 0.0000983
6.94000 8164.46544 8376.25374 0.0000868
6.95000 8568.49692 8691.73711 0.0000839
6.96000 7750.73455 7672.06757 0.0000902
6.97000 6130.69898 6060.49225 0.0001057
6.98000 4502.23203 4556.34217 0.0001279
6.99000 3239.78013 3416.82632 0.0001526
7.00000 2441.63930 2636.06657 0.0001741
7.01000 1981.03656 2137.13711 0.0001897
7.02000 1692.68572 1833.34972 0.0002010
7.03000 1510.88258 1651.41556 0.0002089
7.04000 1418.03304 1543.60117 0.0002136
7.05000 1334.33010 1481.22818 0.0002179
7.06000 1334.47850 1448.89529 0.0002181
7.07000 1311.47223 1440.09992 0.0002199
7.08000 1364.61817 1457.45771 0.0002176
7.09000 1386.06755 1515.93829 0.0002171
7.10000 1535.97287 1647.40981 0.0002105
7.11000 1739.32106 1898.97095 0.0002025
7.12000 2148.92263 2313.71150 0.0001871
7.13000 2678.26271 2889.44162 0.0001706
7.14000 3261.62494 3518.80340 0.0001553
7.15000 3586.73925 3933.07911 0.0001481
7.16000 3562.43504 3841.94060 0.0001488
7.17000 3144.07697 3313.16301 0.0001589
7.18000 2577.50529 2670.76444 0.0001748
7.19000 2032.56494 2132.09643 0.0001936
7.20000 1679.18727 1764.15498 0.0002081
7.21000 1465.92505 1551.04096 0.0002182
7.22000 1385.81475 1448.97708 0.0002225
7.23000 1393.75894 1420.71101 0.0002226
7.24000 1413.41717 1444.53341 0.0002218
7.25000 1534.86578 1508.42100 0.0002164
7.26000 1606.41623 1591.16320 0.0002137
7.27000 1733.22643 1650.64893 0.0002081
7.28000 1718.55704 1636.17847 0.0002094
7.29000 1635.73893 1549.68734 0.0002132
7.30000 1493.84075 1441.01117 0.0002203
7.31000 1371.93613 1347.59030 0.0002266
7.32000 1279.07808 1281.65706 0.0002322
7.33000 1203.38160 1241.25376 0.0002363
7.34000 1182.77926 1218.80197 0.0002382
7.35000 1172.31626 1206.92615 0.0002391
7.36000 1182.17341 1200.79552 0.0002390
7.37000 1162.56256 1197.97564 0.0002405
7.38000 1145.31027 1197.61511 0.0002420
7.39000 1163.18221 1199.36075 0.0002412
7.40000 1149.46552 1203.93927 0.0002425
7.41000 1186.52417 1212.75895 0.0002407
7.42000 1212.73013 1228.83533 0.0002397
7.43000 1250.88360 1256.27906 0.0002379
7.44000 1332.94528 1298.60517 0.0002337
7.45000 1401.11776 1355.17977 0.0002305
7.46000 1510.27870 1416.03490 0.0002249
7.47000 1552.12927 1457.67800 0.0002235
7.48000 1561.72280 1458.78212 0.0002231
7.49000 1494.05652 1430.31296 0.0002271
7.50000 1431.36093 1402.36038 0.0002305
7.51000 1373.09869 1395.54035 0.0002340
7.52000 1385.09096 1424.86556 0.0002336
7.53000 1426.04597 1509.68302 0.0002319
7.54000 1610.37027 1681.12710 0.0002225
7.55000 1883.14045 1977.77956 0.0002103
7.56000 2359.18632 2423.88977 0.0001913
7.57000 2952.42722 2990.82272 0.0001720
7.58000 3458.35121 3543.25944 0.0001584
7.59000 3794.91056 3838.63043 0.0001506
7.60000 3779.11574 3771.34810 0.0001510
7.61000 3539.70922 3522.35432 0.0001569
7.62000 3170.10546 3244.26431 0.0001668
7.63000 2807.63402 2910.22057 0.0001775
7.64000 2413.61353 2503.80019 0.0001913
7.65000 2061.51057 2115.13972 0.0002053
7.66000 1728.80830 1813.79117 0.0002208
7.67000 1539.37333 1612.26981 0.0002306
7.68000 1404.82321 1493.42052 0.0002385
7.69000 1347.32263 1432.77631 0.0002420
7.70000 1306.89987 1410.93466 0.0002448
7.71000 1346.45874 1420.22088 0.0002427
7.72000 1358.22447 1466.94221 0.0002426
7.73000 1478.62007 1570.40545 0.0002359
7.74000 1675.97053 1755.73884 0.0002259
7.75000 1953.78265 2036.36680 0.0002127
7.76000 2327.09676 2385.58412 0.0001973
7.77000 2579.37897 2697.83111 0.0001882
7.78000 2709.35340 2793.12627 0.0001839
7.79000 2556.72229 2600.89828 0.0001894
7.80000 2261.29975 2268.14279 0.0002009
7.81000 1932.59747 1957.11112 0.0002154
7.82000 1692.07750 1740.25400 0.0002273
7.83000 1557.84046 1631.50556 0.0002351
7.84000 1545.10142 1623.30456 0.0002358
7.85000 1649.58437 1710.03116 0.0002307
7.86000 1875.51994 1894.66185 0.0002194
7.87000 2194.37698 2182.17335 0.0002055
7.88000 2609.50903 2557.26145 0.0001894
7.89000 3065.38873 2960.55368 0.0001747
7.90000 3591.25040 3345.73410 0.0001601
7.91000 4012.36884 3722.00643 0.0001502
7.92000 4307.10517 3992.38976 0.0001439
7.93000 4233.61040 3913.22859 0.0001456
7.94000 3770.49155 3437.27479 0.0001563
7.95000 3083.58546 2814.87798 0.0001753
7.96000 2415.06864 2266.17621 0.0001986
7.97000 1915.16019 1870.49445 0.0002210
7.98000 1623.07453 1621.67864 0.0002365
7.99000 1457.27449 1478.94938 0.0002466
8.00000 1351.41907 1399.83003 0.0002535
8.01000 1329.81143 1353.86016 0.0002553
8.02000 1279.10748 1325.00268 0.0002592
8.03000 1262.40860 1305.63569 0.0002604
8.04000 1259.83387 1292.37609 0.0002613
8.05000 1246.69203 1283.63307 0.0002624
8.06000 1240.10721 1278.59114 0.0002635
8.07000 1263.00693 1276.85316 0.0002622
8.08000 1243.51724 1278.44849 0.0002641
8.09000 1263.54530 1283.40004 0.0002628
8.10000 1236.12485 1292.56340 0.0002655
8.11000 1256.25583 1307.65079 0.0002643
8.12000 1287.22649 1332.05094 0.0002626
8.13000 1322.56150 1372.14158 0.0002606
8.14000 1397.90315 1438.33835 0.0002561
8.15000 1517.83667 1545.95172 0.0002487
8.16000 1652.12425 1714.75428 0.0002411
8.17000 1899.52930 1962.57415 0.0002278
8.18000 2203.45998 2290.78213 0.0002134
8.19000 2596.38789 2687.61423 0.0001971
8.20000 2999.31662 3120.38234 0.0001829
8.21000 3232.01838 3442.03617 0.0001757
8.22000 3250.84561 3412.31701 0.0001752
8.23000 2937.79544 3018.67764 0.0001857
8.24000 2496.46258 2506.31116 0.0002024
8.25000 2028.02457 2062.94878 0.0002241
8.26000 1691.25430 1749.86551 0.0002425
8.27000 1482.13472 1557.96470 0.0002561
8.28000 1419.17074 1451.37806 0.0002607
8.29000 1336.82734 1395.36422 0.0002669
8.30000 1324.96619 1366.26004 0.0002680
8.31000 1311.52474 1352.04244 0.0002697
8.32000 1338.28293 1347.21505 0.0002681
8.33000 1322.70505 1349.97305 0.0002698
8.34000 1349.89658 1359.43937 0.0002681
8.35000 1390.67652 1375.23933 0.0002659
8.36000 1390.02478 1397.44955 0.0002660
8.37000 1419.04790 1428.86391 0.0002647
8.38000 1436.71180 1477.45613 0.0002639
8.39000 1493.38221 1559.72497 0.0002604
8.40000 1593.33869 1708.32548 0.0002542
8.41000 1844.68920 1979.09181 0.0002394
8.42000 2216.95234 2444.16087 0.0002202
8.43000 2897.59377 3157.04077 0.0001917
8.44000 3697.34355 4086.86653 0.0001664
8.45000 4468.97155 5012.29183 0.0001476
8.46000 4827.79749 5450.02889 0.0001404
8.47000 4634.37176 5055.34388 0.0001444
8.48000 3910.94909 4143.12167 0.0001614
8.49000 3054.19250 3204.74114 0.0001875
8.50000 2341.27826 2476.12852 0.0002169
8.51000 1871.86957 1996.37178 0.0002417
8.52000 1610.28535 1714.50100 0.0002585
8.53000 1483.13733 1558.10446 0.0002679
8.54000 1398.38019 1469.93203 0.0002745
8.55000 1354.70395 1416.54385 0.0002782
8.56000 1324.44198 1381.96640 0.0002812
8.57000 1322.23071 1359.72837 0.0002817
8.58000 1324.32139 1347.93282 0.0002822
8.59000 1318.82590 1346.80384 0.0002831
8.60000 1342.35135 1356.91497 0.0002817
8.61000 1369.44506 1377.04725 0.0002800
8.62000 1386.73086 1401.08634 0.0002791
8.63000 1392.28675 1415.59264 0.0002793
8.64000 1395.49969 1410.32009 0.0002793
8.65000 1406.81292 1394.63874 0.0002791
8.66000 1407.56106 1386.52710 0.0002794
8.67000 1402.72213 1400.96619 0.0002803
8.68000 1463.57801 1453.07080 0.0002760
8.69000 1585.89213 1560.07931 0.0002675
8.70000 1812.44027 1735.50220 0.0002524
8.71000 2066.93897 1973.97255 0.0002377
8.72000 2351.85725 2224.97545 0.0002227
8.73000 2514.99858 2368.76192 0.0002152
8.74000 2471.43000 2298.83037 0.0002175
8.75000 2268.61326 2073.10614 0.0002279
8.76000 1981.25259 1824.54560 0.0002440
8.77000 1718.60141 1626.58313 0.0002611
8.78000 1521.13067 1495.15148 0.0002756
8.79000 1456.14358 1421.91670 0.0002811
8.80000 1389.00908 1388.30367 0.0002868
8.81000 1379.78668 1380.39310 0.0002880
8.82000 1348.22081 1392.25432 0.0002910
8.83000 1414.13247 1427.48218 0.0002858
8.84000 1472.19990 1500.57957 0.0002817
8.85000 1617.77424 1637.22093 0.0002707
8.86000 1845.73713 1867.60167 0.0002555
8.87000 2222.80389 2207.65227 0.0002332
8.88000 2620.03237 2624.87816 0.0002136
8.89000 2981.44012 2987.24065 0.0001984
8.90000 3068.81605 3072.23519 0.0001952
8.91000 2875.23180 2811.35848 0.0002029
8.92000 2486.12582 2396.90159 0.0002206
8.93000 2091.47655 2016.42504 0.0002417
8.94000 1756.07574 1742.58932 0.0002633
8.95000 1604.18967 1579.14630 0.0002745
8.96000 1518.50204 1501.55775 0.0002814
8.97000 1530.47430 1482.29542 0.0002806
8.98000 1576.32884 1496.99233 0.0002772
8.99000 1592.57855 1522.52178 0.0002761
9.00000 1625.25328 1533.95521 0.0002741
9.01000 1596.50663 1526.16049 0.0002761
9.02000 1545.35397 1508.63721 0.0002805
9.03000 1463.11751 1479.52588 0.0002871
9.04000 1447.76774 1437.70941 0.0002884
9.05000 1378.48018 1395.78341 0.0002948
9.06000 1374.52326 1364.96444 0.0002949
9.07000 1348.72705 1349.02874 0.0002975
9.08000 1378.68633 1348.46075 0.0002948
9.09000 1385.91297 1365.50624 0.0002946
9.10000 1435.20697 1407.08259 0.0002902
9.11000 1512.65188 1486.05198 0.0002841
9.12000 1663.60962 1617.32812 0.0002724
9.13000 1877.21490 1807.27064 0.0002576
9.14000 2132.11399 2034.30001 0.0002416
9.15000 2311.64784 2220.35582 0.0002318
9.16000 2346.27649 2247.28051 0.0002297
9.17000 2222.74388 2101.23936 0.0002367
9.18000 2027.89752 1897.83944 0.0002480
9.19000 1814.20766 1733.16906 0.0002620
9.20000 1701.02356 1647.46135 0.0002699
9.21000 1707.41896 1651.86792 0.0002696
9.22000 1804.35522 1744.72493 0.0002626
9.23000 1995.82450 1913.19821 0.0002501
9.24000 2166.62320 2118.83247 0.0002398
9.25000 2332.29317 2278.17654 0.0002307
9.26000 2369.12408 2319.23501 0.0002287
9.27000 2293.28231 2269.53249 0.0002327
9.28000 2137.02503 2167.28453 0.0002415
9.29000 1975.29702 2005.90045 0.0002511
9.30000 1798.30054 1814.13099 0.0002631
9.31000 1680.90917 1645.07539 0.0002713
9.32000 1535.33408 1522.47910 0.0002824
9.33000 1492.60375 1445.33603 0.0002858
9.34000 1451.02082 1404.55374 0.0002893
9.35000 1458.63759 1391.79075 0.0002883
9.36000 1467.12660 1403.10797 0.0002879
9.37000 1514.37855 1438.83173 0.0002837
9.38000 1567.04293 1499.18059 0.0002797
9.39000 1629.82427 1577.20968 0.0002747
9.40000 1715.32532 1648.73300 0.0002684
9.41000 1728.78754 1673.59411 0.0002672
9.42000 1725.03678 1639.70018 0.0002676
9.43000 1672.09910 1584.97893 0.0002712
9.44000 1648.73604 1552.99253 0.0002730
9.45000 1659.90236 1571.11755 0.0002722
9.46000 1758.17001 1657.91320 0.0002651
9.47000 1914.88868 1823.03425 0.0002545
9.48000 2142.10227 2054.42499 0.0002405
9.49000 2340.75686 2291.70852 0.0002296
9.50000 2448.30549 2403.27643 0.0002239
9.51000 2386.27709 2295.09195 0.0002273
9.52000 2192.85991 2054.22820 0.0002375
9.53000 1931.61907 1812.03241 0.0002533
9.54000 1767.86612 1627.25558 0.0002641
9.55000 1650.03583 1507.22494 0.0002728
9.56000 1572.47224 1437.90826 0.0002783
9.57000 1521.82796 1401.31956 0.0002826
9.58000 1542.54671 1383.30979 0.0002806
9.59000 1516.38946 1375.91902 0.0002828
9.60000 1525.59798 1375.52408 0.0002818
9.61000 1537.99061 1380.93529 0.0002811
9.62000 1543.31190 1391.84223 0.0002802
9.63000 1577.30554 1408.72367 0.0002778
9.64000 1604.11957 1430.97925 0.0002756
9.65000 1604.81505 1457.19073 0.0002755
9.66000 1638.28285 1487.14016 0.0002727
9.67000 1655.57497 1526.96975 0.0002716
9.68000 1739.41802 1590.04050 0.0002654
9.69000 1828.19269 1696.54103 0.0002594
9.70000 2031.34185 1875.04411 0.0002464
9.71000 2336.45879 2160.12438 0.0002293
9.72000 2795.44887 2580.79871 0.0002075
9.73000 3399.61505 3130.48777 0.0001843
9.74000 3974.67272 3719.50235 0.0001667
9.75000 4508.22101 4214.18030 0.0001530
9.76000 4797.06369 4560.54490 0.0001466
9.77000 4788.82868 4655.20794 0.0001467
9.78000 4433.31903 4322.49915 0.0001548
9.79000 3830.71972 3674.36327 0.0001707
9.80000 3148.64789 3010.49917 0.0001933
9.81000 2588.15416 2500.20086 0.0002167
9.82000 2221.58657 2178.62651 0.0002355
9.83000 2064.10202 2027.66803 0.0002445
9.84000 2063.80959 2023.92433 0.0002447
9.85000 2219.04783 2159.46763 0.0002355
9.86000 2516.31157 2436.47703 0.0002203
9.87000 2955.03090 2838.25524 0.0002007
9.88000 3391.63854 3275.94749 0.0001846
9.89000 3634.62070 3536.92128 0.0001767
9.90000 3583.09170 3433.82886 0.0001784
9.91000 3259.93374 3083.53594 0.0001892
9.92000 2877.11509 2744.54432 0.0002042
9.93000 2642.37979 2578.09229 0.0002143
9.94000 2675.24688 2653.81610 0.0002130
9.95000 3014.35361 2986.89845 0.0001987
9.96000 3540.07312 3528.50517 0.0001799
9.97000 4036.74959 4108.02916 0.0001652
9.98000 4321.05535 4381.74867 0.0001577
9.99000 4197.02243 4115.93321 0.0001610
10.00000 3727.65488 3525.53553 0.0001741
10.01000 3105.99743 2913.03523 0.0001953
10.02000 2561.37485 2408.06774 0.0002185
10.03000 2148.18519 2044.18686 0.0002403
10.04000 1895.92682 1808.28614 0.0002557
10.05000 1714.95762 1663.52409 0.0002683
10.06000 1633.84087 1575.46001 0.0002740
10.07000 1565.88563 1520.14015 0.0002795
10.08000 1545.69289 1484.39832 0.0002810
10.09000 1506.32315 1460.68256 0.0002843
10.10000 1508.41929 1445.33028 0.0002839
10.11000 1485.95350 1436.62810 0.0002862
10.12000 1478.38842 1434.29455 0.0002864
10.13000 1473.63460 1438.56090 0.0002872
10.14000 1496.18850 1452.42420 0.0002852
10.15000 1517.04861 1482.15865 0.0002839
10.16000 1579.55844 1538.83774 0.0002787
10.17000 1665.47317 1637.76364 0.0002726
10.18000 1819.71000 1793.55358 0.0002614
10.19000 2052.18436 2008.70265 0.0002466
10.20000 2269.81419 2250.63663 0.0002340
10.21000 2430.12141 2427.33193 0.0002256
10.22000 2499.41080 2452.78224 0.0002222
10.23000 2430.07293 2357.78915 0.0002256
10.24000 2247.26730 2199.70622 0.0002355
10.25000 2060.13104 1999.29303 0.0002463
10.26000 1837.77500 1800.65583 0.0002608
10.27000 1666.07333 1643.60386 0.0002729
10.28000 1532.98246 1535.67000 0.0002834
10.29000 1470.54947 1468.11138 0.0002885
10.30000 1428.66945 1429.39396 0.0002922
10.31000 1394.95820 1409.81128 0.0002949
10.32000 1374.61314 1402.90340 0.0002970
10.33000 1395.46093 1405.75468 0.0002951
10.34000 1393.18763 1413.71062 0.0002955
10.35000 1396.59546 1419.66577 0.0002951
10.36000 1381.59036 1416.30181 0.0002969
10.37000 1379.79677 1405.80540 0.0002967
10.38000 1375.85893 1397.70147 0.0002974
10.39000 1389.39493 1399.72353 0.0002961
10.40000 1397.92669 1416.46075 0.0002958
10.41000 1429.25366 1449.45967 0.0002928
10.42000 1477.10002 1494.75764 0.0002891
10.43000 1505.91393 1536.73729 0.0002864
10.44000 1506.84926 1548.13099 0.0002867
10.45000 1484.85503 1518.26699 0.0002884
10.46000 1461.87521 1469.21704 0.0002906
10.47000 1410.14693 1423.88980 0.0002950
10.48000 1382.23163 1390.90929 0.0002976
10.49000 1342.65703 1370.43538 0.0003014
10.50000 1339.48627 1359.77177 0.0003014
10.51000 1348.49292 1355.92377 0.0003009
10.52000 1331.79349 1357.31267 0.0003025
10.53000 1345.97284 1363.81075 0.0003013
10.54000 1362.92049 1376.17050 0.0002996
10.55000 1384.85808 1394.84227 0.0002980
10.56000 1410.93830 1418.11331 0.0002955
10.57000 1425.06885 1439.18302 0.0002946
10.58000 1450.84223 1446.80051 0.0002924
10.59000 1440.96674 1438.31192 0.0002933
10.60000 1434.55760 1424.13920 0.0002938
10.61000 1402.64165 1414.87589 0.0002971
10.62000 1405.77933 1415.61632 0.0002965
10.63000 1398.56356 1429.64668 0.0002975
10.64000 1437.83837 1460.35179 0.0002940
10.65000 1476.98450 1510.79251 0.0002909
10.66000 1537.39751 1580.94906 0.0002857
10.67000 1634.51987 1662.92593 0.0002782
10.68000 1674.70469 1733.10140 0.0002751
10.69000 1707.60208 1751.86655 0.0002730
10.70000 1675.26334 1710.06988 0.0002751
10.71000 1617.70240 1645.50711 0.0002800
10.72000 1569.51110 1593.66021 0.0002835
10.73000 1533.38240 1570.21696 0.0002867
10.74000 1542.99165 1581.79177 0.0002859
10.75000 1601.48299 1633.95410 0.0002813
10.76000 1691.75488 1732.58214 0.0002743
10.77000 1829.86469 1880.01760 0.0002643
10.78000 1973.30478 2060.50320 0.0002548
10.79000 2136.38702 2218.66897 0.0002446
10.80000 2168.89459 2271.97635 0.0002430
10.81000 2141.21275 2221.38871 0.0002446
10.82000 2105.66842 2169.19094 0.0002469
10.83000 2133.53434 2209.18209 0.0002451
10.84000 2320.81113 2395.45597 0.0002346
10.85000 2711.10143 2748.93061 0.0002148
10.86000 3197.31315 3236.62003 0.0001947
10.87000 3660.02245 3714.84075 0.0001785
10.88000 3945.36675 3940.02381 0.0001699
10.89000 3920.10493 3827.04770 0.0001707
10.90000 3621.18873 3510.23988 0.0001799
10.91000 3155.03698 3087.66972 0.0001963
10.92000 2697.77763 2643.81766 0.0002158
10.93000 2264.43289 2276.55720 0.0002381
10.94000 1982.02844 2023.82113 0.0002554
10.95000 1797.51399 1877.35353 0.0002678
10.96000 1718.16645 1819.13864 0.0002740
10.97000 1734.52253 1835.79837 0.0002726
10.98000 1815.92562 1918.47765 0.0002668
10.99000 1944.08189 2053.10711 0.0002581
11.00000 2044.06542 2199.64250 0.0002517
11.01000 2104.88381 2274.49682 0.0002478
11.02000 2086.45162 2220.48434 0.0002490
11.03000 1996.42595 2097.09132 0.0002548
11.04000 1892.09118 1998.38505 0.0002618
11.05000 1875.56050 1976.73957 0.0002630
11.06000 1958.89182 2051.14216 0.0002574
11.07000 2106.33176 2215.13719 0.0002481
11.08000 2289.81849 2422.60239 0.0002373
11.09000 2424.03768 2571.91063 0.0002301
11.10000 2473.85050 2585.38344 0.0002273
11.11000 2385.74928 2491.68428 0.0002322
11.12000 2206.68836 2324.27533 0.0002421
11.13000 2014.11968 2113.88327 0.0002542
11.14000 1830.09537 1920.29433 0.0002665
11.15000 1673.76165 1780.64573 0.0002785
11.16000 1588.12860 1700.90424 0.0002850
11.17000 1572.88701 1677.08012 0.0002866
11.18000 1601.79587 1706.22417 0.0002842
11.19000 1679.05304 1785.67842 0.0002782
11.20000 1808.64665 1906.91664 0.0002683
11.21000 1921.10982 2037.28424 0.0002607
11.22000 1969.04032 2104.40936 0.0002575
11.23000 1934.93085 2052.44960 0.0002599
11.24000 1830.89546 1926.45013 0.0002669
11.25000 1714.11584 1805.07540 0.0002760
11.26000 1636.30355 1728.47602 0.0002816
11.27000 1598.18583 1705.00959 0.0002850
11.28000 1623.67612 1724.62534 0.0002828
11.29000 1646.18086 1759.38643 0.0002813
11.30000 1671.40608 1764.84617 0.0002791
11.31000 1619.97943 1717.00992 0.0002835
11.32000 1552.98136 1641.36944 0.0002888
11.33000 1496.28544 1570.33382 0.0002936
11.34000 1429.71206 1516.95382 0.0002995
11.35000 1397.41263 1481.89706 0.0003026
11.36000 1367.94632 1461.59221 0.0003053
11.37000 1364.72010 1451.20399 0.0003055
11.38000 1335.31358 1447.60377 0.0003083
11.39000 1367.18294 1449.45798 0.0003052
11.40000 1376.72603 1455.97785 0.0003047
11.41000 1372.06882 1466.71045 0.0003049
11.42000 1396.68667 1480.45208 0.0003028
11.43000 1388.24647 1495.58388 0.0003037
11.44000 1415.80591 1514.45524 0.0003012
11.45000 1457.35597 1546.11504 0.0002974
11.46000 1501.32963 1602.71862 0.0002937
11.47000 1600.63279 1696.32463 0.0002853
11.48000 1726.18616 1834.73045 0.0002755
11.49000 1909.93870 2010.15810 0.0002622
11.50000 2084.47182 2179.90341 0.0002509
11.51000 2249.45354 2279.74554 0.0002407
11.52000 2305.34315 2290.30031 0.0002377
11.53000 2267.35045 2216.35466 0.0002398
11.54000 2105.92744 2062.63644 0.0002496
11.55000 1913.90203 1882.32004 0.0002621
11.56000 1724.31839 1728.96126 0.0002760
11.57000 1559.61532 1618.80317 0.0002888
11.58000 1488.87645 1547.01631 0.0002953
11.59000 1430.16352 1502.87904 0.0003001
11.60000 1393.95704 1476.26770 0.0003038
11.61000 1382.93266 1459.95114 0.0003044
11.62000 1368.02349 1449.63390 0.0003062
11.63000 1381.07306 1443.09265 0.0003047
11.64000 1373.04305 1439.29729 0.0003058
11.65000 1368.01929 1437.73625 0.0003060
11.66000 1369.18454 1438.94776 0.0003062
11.67000 1372.90013 1443.57255 0.0003056
11.68000 1406.03124 1452.18135 0.0003026
11.69000 1426.23569 1466.97417 0.0003007
11.70000 1457.55913 1488.03524 0.0002981
11.71000 1490.24393 1513.74749 0.0002951
11.72000 1542.91423 1538.92249 0.0002905
11.73000 1548.51979 1552.24653 0.0002901
11.74000 1545.99552 1544.74786 0.0002901
11.75000 1509.10164 1524.51097 0.0002934
11.76000 1478.47456 1504.98830 0.0002960
11.77000 1461.92143 1492.56392 0.0002976
11.78000 1455.80925 1488.10170 0.0002980
11.79000 1438.98152 1490.56992 0.0002995
11.80000 1447.47289 1499.52133 0.0002987
11.81000 1463.98266 1514.40758 0.0002974
11.82000 1486.74884 1536.34160 0.0002950
11.83000 1497.43735 1568.71168 0.0002942
11.84000 1555.05226 1618.37589 0.0002893
11.85000 1634.65069 1697.68944 0.0002829
11.86000 1763.34106 1824.56950 0.0002729
11.87000 1975.41052 2019.03258 0.0002580
11.88000 2266.54621 2292.75327 0.0002399
11.89000 2599.77664 2624.42639 0.0002222
11.90000 2879.22015 2922.28187 0.0002091
11.91000 3047.18493 3053.27525 0.0002020
11.92000 3005.49824 2996.11222 0.0002036
11.93000 2807.66408 2812.52576 0.0002124
11.94000 2525.89875 2554.09195 0.0002257
11.95000 2270.23758 2303.41060 0.0002397
11.96000 2063.34605 2128.85238 0.0002519
11.97000 1955.57470 2055.49529 0.0002592
11.98000 2007.33181 2090.36406 0.0002555
11.99000 2165.03306 2237.60408 0.0002457
12.00000 2440.68583 2493.42013 0.0002300
12.01000 2777.72580 2822.63228 0.0002136
12.02000 3063.07184 3111.50471 0.0002012
12.03000 3139.81334 3184.38640 0.0001982
12.04000 3014.95442 3014.13324 0.0002032
12.05000 2792.14064 2778.91587 0.0002129
12.06000 2632.79235 2640.20811 0.0002203
12.07000 2651.93586 2660.65199 0.0002193
12.08000 2813.72462 2827.23648 0.0002118
12.09000 3034.25683 3041.68719 0.0002023
12.10000 3109.87796 3111.05482 0.0001993
12.11000 2957.91005 2916.62938 0.0002054
12.12000 2631.62019 2575.56187 0.0002202
12.13000 2273.37278 2247.70018 0.0002389
12.14000 1989.68953 1997.82527 0.0002564
12.15000 1796.68315 1830.14447 0.0002695
12.16000 1702.22716 1727.76311 0.0002766
12.17000 1647.66493 1670.39975 0.0002807
12.18000 1623.50166 1642.64224 0.0002826
12.19000 1627.86399 1635.28037 0.0002819
12.20000 1633.02437 1642.96512 0.0002818
12.21000 1653.06581 1660.32051 0.0002801
12.22000 1675.55516 1679.70735 0.0002783
12.23000 1707.36127 1700.04633 0.0002758
12.24000 1751.49327 1737.10858 0.0002726
12.25000 1859.27691 1812.73968 0.0002646
12.26000 2027.58612 1943.22774 0.0002534
12.27000 2243.34937 2131.48972 0.0002401
12.28000 2493.26078 2347.82876 0.0002264
12.29000 2680.21839 2507.88687 0.0002171
12.30000 2683.40193 2529.61436 0.0002170
12.31000 2579.13126 2428.38719 0.0002219
12.32000 2359.25202 2255.75323 0.0002334
12.33000 2119.92607 2058.45416 0.0002470
12.34000 1906.74576 1887.73209 0.0002609
12.35000 1762.46559 1768.66954 0.0002706
12.36000 1686.54011 1702.22917 0.0002766
12.37000 1675.62270 1681.71337 0.0002771
12.38000 1703.05359 1699.48718 0.0002751
12.39000 1775.62497 1745.91606 0.0002695
12.40000 1813.06431 1800.91628 0.0002669
12.41000 1847.10226 1826.37683 0.0002643
12.42000 1829.62072 1796.75426 0.0002656
12.43000 1769.36621 1737.75744 0.0002697
12.44000 1714.41666 1688.11198 0.0002738
12.45000 1691.47049 1666.94361 0.0002754
12.46000 1712.01323 1678.28979 0.0002738
12.47000 1751.36314 1716.58097 0.0002707
12.48000 1830.30663 1764.98412 0.0002650
12.49000 1880.38404 1803.00899 0.0002615
12.50000 1907.96611 1814.36070 0.0002594
12.51000 1867.26795 1783.52147 0.0002622
12.52000 1800.76689 1720.06450 0.0002666
12.53000 1703.34976 1655.09695 0.0002738
12.54000 1625.96061 1608.02154 0.0002794
12.55000 1569.91394 1583.91008 0.0002839
12.56000 1565.12668 1582.02386 0.0002842
12.57000 1576.27385 1599.71332 0.0002832
12.58000 1602.92974 1632.50040 0.0002810
12.59000 1621.49916 1671.19143 0.0002795
12.60000 1649.96128 1702.94706 0.0002771
12.61000 1681.21661 1728.80534 0.0002748
12.62000 1738.25379 1772.48062 0.0002704
12.63000 1852.64261 1860.58299 0.0002622
12.64000 2023.00779 2009.52833 0.0002507
12.65000 2257.78420 2215.99900 0.0002369
12.66000 2498.68742 2434.57879 0.0002239
12.67000 2657.71694 2575.54867 0.0002162
12.68000 2670.59473 2587.34840 0.0002155
12.69000 2571.96298 2482.87730 0.0002201
12.70000 2338.80649 2288.04215 0.0002319
12.71000 2076.02169 2067.96669 0.0002469
12.72000 1880.79139 1884.91520 0.0002593
12.73000 1724.63177 1758.46690 0.0002701
12.74000 1642.74280 1684.05236 0.0002760
12.75000 1608.98875 1650.24858 0.0002788
12.76000 1606.94606 1645.62739 0.0002784
12.77000 1602.75785 1658.43873 0.0002790
12.78000 1630.17274 1673.96395 0.0002765
12.79000 1629.09235 1681.97002 0.0002767
12.80000 1672.53381 1692.19083 0.0002731
12.81000 1709.77132 1725.20096 0.0002704
12.82000 1799.46151 1794.07933 0.0002637
12.83000 1931.30147 1898.63822 0.0002548
12.84000 2051.70880 2012.22290 0.0002470
12.85000 2098.59945 2071.31787 0.0002443
12.86000 2075.55449 2026.33457 0.0002454
12.87000 1974.19385 1913.19609 0.0002516
12.88000 1843.07355 1797.48971 0.0002600
12.89000 1735.73487 1711.99722 0.0002675
12.90000 1661.85885 1664.44240 0.0002727
12.91000 1665.97022 1654.15662 0.0002723
12.92000 1699.97927 1680.07677 0.0002697
12.93000 1791.08156 1742.41611 0.0002631
12.94000 1926.82465 1839.71880 0.0002540
12.95000 2077.43099 1958.99090 0.0002445
12.96000 2177.94093 2059.76424 0.0002385
12.97000 2214.69762 2091.41851 0.0002363
12.98000 2192.07658 2067.42793 0.0002375
12.99000 2133.79609 2058.34768 0.0002407
13.00000 2146.39717 2115.07166 0.0002399
13.01000 2266.31172 2250.11550 0.0002331
13.02000 2408.51305 2432.20614 0.0002255
13.03000 2540.56555 2570.48566 0.0002188
13.04000 2545.31035 2572.16316 0.0002186
13.05000 2460.68995 2449.73148 0.0002226
13.06000 2269.63548 2270.88611 0.0002324
13.07000 2088.95366 2092.57156 0.0002424
13.08000 1950.90635 1960.11863 0.0002508
13.09000 1872.90347 1895.11815 0.0002555
13.10000 1883.09993 1902.44246 0.0002549
13.11000 1975.89882 1981.40228 0.0002488
13.12000 2134.60145 2125.16701 0.0002393
13.13000 2301.98586 2306.10975 0.0002299
13.14000 2421.98649 2451.22973 0.0002238
13.15000 2465.93123 2473.96722 0.0002214
13.16000 2411.22291 2395.09052 0.0002241
13.17000 2341.55080 2324.90236 0.0002275
13.18000 2367.21375 2339.99356 0.0002262
13.19000 2465.05797 2457.16136 0.0002211
13.20000 2635.97106 2632.20985 0.0002130
13.21000 2748.28697 2749.13159 0.0002079
13.22000 2716.33347 2704.54858 0.0002093
13.23000 2574.72007 2526.37318 0.0002156
13.24000 2328.79880 2292.92106 0.0002275
13.25000 2098.56175 2064.15429 0.0002398
13.26000 1911.89064 1880.35180 0.0002512
13.27000 1788.42702 1751.95986 0.0002589
13.28000 1699.85625 1670.43977 0.0002651
13.29000 1674.18447 1623.01731 0.0002665
13.30000 1661.05389 1599.11452 0.0002676
13.31000 1666.05195 1591.71392 0.0002670
13.32000 1671.54764 1597.07807 0.0002666
13.33000 1685.16909 1615.66957 0.0002653
13.34000 1709.77803 1654.06038 0.0002637
13.35000 1782.90338 1724.52309 0.0002584
13.36000 1903.98067 1842.60028 0.0002505
13.37000 2094.25832 2022.26105 0.0002390
13.38000 2364.93566 2264.04085 0.0002245
13.39000 2633.92167 2538.83763 0.0002115
13.40000 2853.01248 2772.42924 0.0002021
13.41000 2915.78013 2837.52174 0.0001994
13.42000 2752.01785 2667.18410 0.0002062
13.43000 2454.13832 2371.45091 0.0002195
13.44000 2143.73911 2086.96264 0.0002355
13.45000 1884.58042 1868.81501 0.0002507
13.46000 1727.04636 1720.30552 0.0002609
13.47000 1638.14846 1626.86757 0.0002670
13.48000 1584.88479 1571.24553 0.0002706
13.49000 1560.53646 1539.35846 0.0002724
13.50000 1541.20135 1522.26609 0.0002736
13.51000 1545.77256 1516.93851 0.0002732
13.52000 1542.18542 1524.33879 0.0002732
13.53000 1575.98419 1546.21904 0.0002707
13.54000 1619.07438 1581.54695 0.0002674
13.55000 1660.44044 1621.00191 0.0002644
13.56000 1667.33312 1641.68868 0.0002637
13.57000 1654.95882 1623.78837 0.0002644
13.58000 1613.53785 1578.77529 0.0002672
13.59000 1564.49503 1531.41732 0.0002707
13.60000 1537.22926 1494.57400 0.0002725
13.61000 1504.74021 1470.72334 0.0002748
13.62000 1492.43142 1458.43047 0.0002755
13.63000 1491.16368 1455.53543 0.0002757
13.64000 1498.52253 1460.46058 0.0002748
13.65000 1505.21424 1472.78918 0.0002743
13.66000 1516.04462 1493.24851 0.0002733
13.67000 1543.76115 1524.08730 0.0002713
13.68000 1618.12000 1571.36698 0.0002656
13.69000 1695.96680 1646.14357 0.0002602
13.70000 1863.08862 1759.66887 0.0002491
13.71000 2065.50287 1915.06910 0.0002372
13.72000 2262.93138 2091.37957 0.0002264
13.73000 2410.40701 2221.97935 0.0002191
13.74000 2420.89598 2227.89504 0.0002185
13.75000 2307.47635 2117.71048 0.0002240
13.76000 2112.26515 1965.69953 0.0002341
13.77000 1906.65334 1827.70746 0.0002460
13.78000 1780.88239 1732.01732 0.0002536
13.79000 1710.22379 1688.04245 0.0002582
13.80000 1717.25173 1695.63738 0.0002576
13.81000 1795.13550 1751.08325 0.0002526
13.82000 1895.37388 1844.71602 0.0002461
13.83000 1999.40840 1947.55693 0.0002400
13.84000 2038.63318 2000.55104 0.0002376
13.85000 2009.05348 1965.94338 0.0002393
13.86000 1939.89297 1887.02057 0.0002431
13.87000 1843.15967 1825.46085 0.0002490
13.88000 1820.09928 1806.90279 0.0002503
13.89000 1802.62387 1823.59288 0.0002514
13.90000 1819.26758 1839.68800 0.0002503
13.91000 1787.24236 1812.43845 0.0002522
13.92000 1734.57134 1742.15236 0.0002555
13.93000 1663.25378 1661.99454 0.0002601
13.94000 1595.53722 1595.58725 0.0002646
13.95000 1559.28351 1552.72173 0.0002673
13.96000 1534.94674 1535.65904 0.0002687
13.97000 1564.28899 1543.66275 0.0002668
13.98000 1635.43272 1574.89714 0.0002616
13.99000 1680.44641 1624.70173 0.0002586
14.00000 1750.45960 1679.48957 0.0002537
14.01000 1773.72109 1715.46700 0.0002525
14.02000 1799.29067 1724.58840 0.0002506
14.03000 1799.08909 1734.30171 0.0002507
14.04000 1841.52371 1775.19229 0.0002478
14.05000 1912.03872 1857.53515 0.0002437
14.06000 2006.79612 1962.95102 0.0002380
14.07000 2050.78258 2036.80690 0.0002356
14.08000 2032.54145 2026.87859 0.0002365
14.09000 1965.13209 1943.51650 0.0002403
14.10000 1828.71117 1829.13843 0.0002484
14.11000 1696.84216 1719.85980 0.0002568
14.12000 1624.96313 1640.30574 0.0002615
14.13000 1592.21729 1599.39339 0.0002639
14.14000 1593.57489 1596.40352 0.0002636
14.15000 1620.23946 1626.35244 0.0002618
14.16000 1682.05588 1677.97239 0.0002575
14.17000 1713.89779 1725.45054 0.0002556
14.18000 1730.37108 1735.38367 0.0002543
14.19000 1720.72074 1708.50749 0.0002549
14.20000 1697.96124 1680.79045 0.0002563
14.21000 1718.89203 1678.53048 0.0002550
14.22000 1729.56133 1703.84605 0.0002542
14.23000 1762.62054 1734.24352 0.0002521
14.24000 1771.28917 1729.98065 0.0002514
14.25000 1706.18571 1676.26544 0.0002556
14.26000 1650.72873 1601.41065 0.0002593
14.27000 1563.96898 1534.99676 0.0002652
14.28000 1504.35291 1488.24388 0.0002695
14.29000 1477.82180 1462.15426 0.0002713
14.30000 1459.38493 1454.41543 0.0002728
14.31000 1475.38740 1462.69482 0.0002715
14.32000 1487.59233 1483.65009 0.0002706
14.33000 1513.10646 1511.52295 0.0002687
14.34000 1518.77809 1535.57401 0.0002683
14.35000 1540.52664 1550.82261 0.0002667
14.36000 1542.21344 1570.55945 0.0002666
14.37000 1590.50585 1614.17255 0.0002632
14.38000 1650.38484 1693.97899 0.0002591
14.39000 1771.53231 1810.85340 0.0002511
14.40000 1885.15397 1947.30870 0.0002442
14.41000 1994.25565 2065.13018 0.0002378
14.42000 2036.06098 2109.68748 0.0002355
14.43000 1982.82935 2042.01791 0.0002384
14.44000 1864.92845 1899.87310 0.0002454
14.45000 1746.66503 1754.44968 0.0002526
14.46000 1617.05374 1642.98035 0.0002613
14.47000 1553.17523 1572.14896 0.0002657
14.48000 1517.61349 1537.03624 0.0002683
14.49000 1519.02666 1529.95856 0.0002681
14.50000 1529.71503 1543.65507 0.0002674
14.51000 1563.50775 1575.30013 0.0002649
14.52000 1624.65763 1632.01251 0.0002608
14.53000 1727.45548 1725.86002 0.0002539
14.54000 1854.08977 1860.64394 0.0002462
14.55000 2003.88977 2015.68793 0.0002373
14.56000 2105.96136 2125.67760 0.0002317
14.57000 2110.78305 2113.16793 0.0002314
14.58000 2020.54481 1986.51663 0.0002364
14.59000 1854.42949 1822.22508 0.0002460
14.60000 1703.82855 1674.51853 0.0002556
14.61000 1594.13946 1562.39309 0.0002629
14.62000 1493.23385 1485.65493 0.0002702
14.63000 1451.85570 1436.86738 0.0002731
14.64000 1424.56016 1407.68160 0.0002753
14.65000 1424.27001 1392.19749 0.0002752
14.66000 1417.18331 1387.45495 0.0002759
14.67000 1409.59648 1393.20281 0.0002763
14.68000 1449.37151 1411.02192 0.0002735
14.69000 1476.96933 1443.50346 0.0002713
14.70000 1538.02214 1491.29785 0.0002671
14.71000 1583.38929 1548.20709 0.0002638
14.72000 1628.63475 1593.67680 0.0002609
14.73000 1633.93841 1600.41797 0.0002604
14.74000 1590.44228 1567.49491 0.0002635
14.75000 1536.57879 1518.22381 0.0002672
14.76000 1478.45932 1473.28256 0.0002716
14.77000 1428.57823 1445.06112 0.0002752
14.78000 1447.51272 1438.92602 0.0002740
14.79000 1455.52619 1455.79349 0.0002732
14.80000 1504.49871 1493.00295 0.0002698
14.81000 1536.83176 1540.21354 0.0002673
14.82000 1575.69443 1572.35649 0.0002647
14.83000 1582.49905 1561.27439 0.0002642
14.84000 1524.27971 1510.98772 0.0002684
14.85000 1458.79050 1450.55686 0.0002732
14.86000 1405.14695 1399.13965 0.0002773
14.87000 1371.88666 1361.52040 0.0002798
14.88000 1332.31195 1336.01768 0.0002830
14.89000 1318.72190 1319.55687 0.0002842
14.90000 1316.15369 1309.12707 0.0002844
14.91000 1310.68560 1302.91940 0.0002848
14.92000 1311.83912 1299.95261 0.0002849
14.93000 1316.51425 1299.88167 0.0002844
14.94000 1299.07472 1302.81200 0.0002860
14.95000 1324.52917 1309.04150 0.0002838
14.96000 1330.69660 1318.79812 0.0002835
14.97000 1350.94038 1331.53882 0.0002817
14.98000 1348.14857 1345.46080 0.0002822
14.99000 1362.54620 1360.04656 0.0002809
15.00000 1379.43573 1379.62052 0.0002797
15.01000 1421.07130 1410.48323 0.0002764
15.02000 1451.44742 1454.59963 0.0002742
15.03000 1502.21675 1504.66190 0.0002703
15.04000 1528.98863 1540.44265 0.0002685
15.05000 1546.07042 1543.52205 0.0002672
15.06000 1533.64001 1516.53614 0.0002683
15.07000 1489.45678 1473.48017 0.0002714
15.08000 1439.50562 1431.42143 0.0002753
15.09000 1401.81514 1402.40726 0.0002781
15.10000 1383.52211 1390.78361 0.0002796
15.11000 1386.44291 1395.93803 0.0002793
15.12000 1400.68770 1414.12818 0.0002783
15.13000 1409.52269 1436.49044 0.0002775
15.14000 1426.26955 1449.94072 0.0002764
15.15000 1443.81989 1451.02550 0.0002750
15.16000 1436.16406 1452.73234 0.0002757
15.17000 1480.84660 1468.69342 0.0002721
15.18000 1524.47380 1502.24993 0.0002692
15.19000 1571.77254 1543.43228 0.0002657
15.20000 1616.69496 1572.42634 0.0002627
15.21000 1607.94853 1573.28323 0.0002631
15.22000 1584.18031 1542.12042 0.0002650
15.23000 1522.61551 1490.10623 0.0002692
15.24000 1457.82799 1438.64289 0.0002742
15.25000 1406.57112 1401.40902 0.0002779
15.26000 1370.60244 1381.53537 0.0002809
15.27000 1373.66672 1377.29436 0.0002805
15.28000 1382.64104 1382.88995 0.0002800
15.29000 1376.40378 1388.71535 0.0002803
15.30000 1380.59995 1386.52083 0.0002802
15.31000 1381.72780 1379.74281 0.0002799
15.32000 1365.48052 1378.60953 0.0002813
15.33000 1363.44464 1390.00344 0.0002813
15.34000 1395.38076 1415.12363 0.0002790
15.35000 1415.40174 1449.01855 0.0002773
15.36000 1443.43789 1479.07992 0.0002753
15.37000 1439.09961 1486.51180 0.0002755
15.38000 1435.93159 1462.75563 0.0002759
15.39000 1392.86659 1423.54649 0.0002791
15.40000 1359.43932 1388.68116 0.0002818
15.41000 1350.54421 1367.01527 0.0002824
15.42000 1353.61686 1359.67505 0.0002822
15.43000 1364.46868 1363.85528 0.0002812
15.44000 1364.83144 1372.71534 0.0002813
15.45000 1379.69375 1378.16695 0.0002799
15.46000 1373.09193 1380.09790 0.0002806
15.47000 1394.23380 1386.30938 0.0002789
15.48000 1407.69347 1402.44363 0.0002778
15.49000 1449.87732 1424.41700 0.0002745
15.50000 1445.08571 1437.53666 0.0002750
15.51000 1451.35675 1426.97254 0.0002744
15.52000 1413.31407 1397.24916 0.0002774
15.53000 1373.75994 1364.99635 0.0002803
15.54000 1326.53735 1340.75846 0.0002842
15.55000 1319.74862 1327.69977 0.0002846
15.56000 1305.52208 1325.91564 0.0002859
15.57000 1313.86389 1334.44555 0.0002850
15.58000 1314.55853 1351.03579 0.0002851
15.59000 1330.66682 1370.64339 0.0002837
15.60000 1332.42675 1386.13341 0.0002835
15.61000 1343.31337 1397.02003 0.0002825
15.62000 1351.91649 1412.23452 0.0002819
15.63000 1374.63780 1439.10891 0.0002800
15.64000 1388.43633 1474.05181 0.0002790
15.65000 1408.04807 1498.68863 0.0002773
15.66000 1393.55334 1491.09825 0.0002785
15.67000 1376.55259 1454.13316 0.0002797
15.68000 1352.47478 1410.63167 0.0002817
15.69000 1309.91387 1377.00934 0.0002849
15.70000 1287.02549 1359.08003 0.0002869
15.71000 1302.27600 1357.69903 0.0002855
15.72000 1316.12410 1371.39213 0.0002844
15.73000 1314.03818 1395.57383 0.0002844
15.74000 1329.23794 1418.81985 0.0002833
15.75000 1346.29932 1424.00852 0.0002818
15.76000 1328.88721 1405.54073 0.0002832
15.77000 1320.98540 1377.09982 0.0002837
15.78000 1303.89775 1353.35301 0.0002852
15.79000 1305.00190 1339.97498 0.0002849
15.80000 1307.66745 1336.23148 0.0002847
15.81000 1312.03877 1337.13498 0.0002842
15.82000 1318.50142 1335.70601 0.0002838
15.83000 1300.04013 1326.31566 0.0002851
15.84000 1291.78811 1311.28842 0.0002858
15.85000 1262.72327 1296.93290 0.0002880
15.86000 1262.93246 1286.98110 0.0002881
15.87000 1256.95152 1282.30929 0.0002883
15.88000 1266.22606 1282.43951 0.0002876
15.89000 1267.83139 1286.10097 0.0002873
15.90000 1268.10037 1291.89987 0.0002873
15.91000 1271.84057 1300.30891 0.0002868
15.92000 1295.88981 1313.72583 0.0002850
15.93000 1319.72519 1333.86589 0.0002828
15.94000 1342.61649 1358.32353 0.0002810
15.95000 1356.43560 1378.91094 0.0002797
15.96000 1364.71194 1386.09066 0.0002793
15.97000 1376.36976 1377.54443 0.0002781
15.98000 1356.41704 1358.08193 0.0002798
15.99000 1329.13485 1336.52631 0.0002818
16.00000 1299.91337 1320.51992 0.0002842
16.01000 1286.05858 1313.07654 0.0002852
16.02000 1297.43947 1314.50451 0.0002843
16.03000 1295.65713 1323.84341 0.0002843
16.04000 1319.15448 1339.04734 0.0002823
16.05000 1323.79670 1358.68352 0.0002819
16.06000 1355.17690 1385.49731 0.0002794
16.07000 1400.60085 1424.34246 0.0002758
16.08000 1431.17571 1474.44921 0.0002736
16.09000 1476.10840 1521.46816 0.0002701
16.10000 1504.04160 1537.14223 0.0002682
16.11000 1462.08933 1506.84927 0.0002711
16.12000 1416.49371 1450.56807 0.0002746
16.13000 1356.24801 1394.66756 0.0002791
16.14000 1305.35382 1350.73964 0.0002831
16.15000 1278.45085 1320.22364 0.0002853
16.16000 1265.46203 1300.97308 0.0002863
16.17000 1254.56908 1290.58510 0.0002872
16.18000 1271.90211 1287.10790 0.0002857
16.19000 1265.14946 1289.85677 0.0002862
16.20000 1257.22058 1299.06438 0.0002869
16.21000 1287.90689 1315.44348 0.0002843
16.22000 1310.66309 1339.02445 0.0002824
16.23000 1332.59466 1366.62151 0.0002807
16.24000 1359.06572 1388.21869 0.0002786
16.25000 1350.53846 1390.84608 0.0002793
16.26000 1333.54696 1373.94529 0.0002805
16.27000 1308.72776 1349.33485 0.0002826
16.28000 1293.50607 1327.27947 0.0002836
16.29000 1273.40729 1312.74215 0.0002854
16.30000 1289.03232 1306.91881 0.0002840
16.31000 1277.15914 1309.05606 0.0002851
16.32000 1283.30470 1316.68835 0.0002844
16.33000 1291.50275 1324.62250 0.0002839
16.34000 1305.53804 1326.68722 0.0002826
16.35000 1299.63951 1322.90998 0.0002832
16.36000 1304.45010 1319.09151 0.0002827
16.37000 1322.53158 1319.04355 0.0002815
16.38000 1307.97687 1321.48571 0.0002824
16.39000 1319.13189 1321.16457 0.0002817
16.40000 1325.37877 1314.79812 0.0002812
16.41000 1319.82449 1305.29493 0.0002816
16.42000 1306.66249 1297.26708 0.0002827
16.43000 1281.55835 1293.23930 0.0002847
16.44000 1279.00938 1294.09613 0.0002851
16.45000 1280.21614 1300.03581 0.0002850
16.46000 1270.79107 1310.87964 0.0002858
16.47000 1301.20887 1325.64528 0.0002833
16.48000 1297.45757 1342.75359 0.0002838
16.49000 1325.19592 1363.07666 0.0002815
16.50000 1348.76431 1391.77708 0.0002798
16.51000 1404.15345 1433.67630 0.0002756
16.52000 1452.80687 1488.04224 0.0002720
16.53000 1509.42643 1544.07087 0.0002679
16.54000 1530.16239 1582.71571 0.0002665
16.55000 1528.15287 1584.55935 0.0002667
16.56000 1479.74920 1544.80139 0.0002703
16.57000 1430.29289 1483.78069 0.0002741
16.58000 1362.38014 1425.89075 0.0002793
16.59000 1328.02920 1381.96808 0.0002822
16.60000 1326.25950 1353.15697 0.0002823
16.61000 1307.46638 1337.26993 0.0002840
16.62000 1301.16175 1331.56904 0.0002845
16.63000 1306.70596 1334.21878 0.0002843
16.64000 1330.47192 1344.70914 0.0002824
16.65000 1333.89662 1362.53631 0.0002824
16.66000 1367.37975 1384.15969 0.0002797
16.67000 1371.90459 1399.82496 0.0002797
16.68000 1376.98836 1397.93646 0.0002793
16.69000 1366.11009 1379.09685 0.0002804
16.70000 1344.49704 1355.39284 0.0002822
16.71000 1321.07733 1335.50191 0.0002843
16.72000 1305.58182 1322.27102 0.0002855
16.73000 1298.35835 1315.80833 0.0002865
16.74000 1306.63763 1315.66727 0.0002859
16.75000 1302.35266 1321.78746 0.0002866
16.76000 1317.66104 1334.95970 0.0002854
16.77000 1324.82735 1356.81625 0.0002852
16.78000 1370.19887 1389.42993 0.0002816
16.79000 1415.61667 1433.88519 0.0002785
16.80000 1463.24196 1486.70603 0.0002749
16.81000 1503.38448 1534.30698 0.0002722
16.82000 1521.38136 1556.80587 0.0002710
16.83000 1506.54135 1548.80824 0.0002724
16.84000 1474.50615 1524.47493 0.0002750
16.85000 1464.82467 1502.80010 0.0002761
16.86000 1455.77487 1498.40906 0.0002770
16.87000 1485.95146 1518.23485 0.0002750
16.88000 1526.88140 1561.08256 0.0002721
16.89000 1575.09897 1614.38127 0.0002689
16.90000 1600.44414 1649.53427 0.0002673
16.91000 1589.70022 1639.83032 0.0002683
16.92000 1556.23784 1593.83114 0.0002710
16.93000 1514.07803 1542.26430 0.0002745
16.94000 1475.36886 1503.56508 0.0002778
16.95000 1451.17471 1478.05716 0.0002799
16.96000 1430.68578 1456.76027 0.0002819
16.97000 1436.96964 1432.77475 0.0002818
16.98000 1407.63072 1405.47752 0.0002845
16.99000 1397.55735 1378.55748 0.0002856
17.00000 1349.82386 1356.26998 0.0002900
17.01000 1343.66794 1340.43867 0.0002908
17.02000 1325.65781 1330.99839 0.0002928
17.03000 1332.14098 1327.40131 0.0002925
17.04000 1338.07684 1329.46480 0.0002926
17.05000 1340.32230 1337.57305 0.0002928
17.06000 1359.91349 1352.58919 0.0002915
17.07000 1397.33993 1375.17612 0.0002888
17.08000 1423.10808 1404.34712 0.0002871
17.09000 1464.99205 1435.04385 0.0002841
17.10000 1485.40058 1458.07937 0.0002828
17.11000 1499.69600 1464.75680 0.0002822
17.12000 1476.09650 1453.81298 0.0002846
17.13000 1461.88503 1435.63260 0.0002861
17.14000 1444.15985 1423.25009 0.0002880
17.15000 1431.67654 1423.23383 0.0002895
17.16000 1461.73553 1435.27193 0.0002876
17.17000 1482.29208 1452.01016 0.0002863
17.18000 1477.08421 1459.37018 0.0002871
17.19000 1479.67878 1448.68511 0.0002874
17.20000 1460.50205 1427.84828 0.0002895
17.21000 1429.69995 1408.76934 0.0002925
17.22000 1412.66242 1395.26112 0.0002947
17.23000 1408.33273 1383.56632 0.0002954
17.24000 1402.92807 1369.20249 0.0002965
17.25000 1368.22743 1353.10904 0.0003001
17.26000 1369.38406 1338.94955 0.0003006
17.27000 1354.67932 1328.63646 0.0003024
17.28000 1361.30008 1322.34281 0.0003025
17.29000 1349.76437 1319.68211 0.0003040
17.30000 1345.47958 1320.29481 0.0003051
17.31000 1344.82824 1324.13368 0.0003055
17.32000 1359.33565 1331.47453 0.0003049
17.33000 1375.27388 1343.16771 0.0003039
17.34000 1385.04721 1360.36743 0.0003038
17.35000 1411.89892 1383.48745 0.0003017
17.36000 1435.30871 1410.38894 0.0003004
17.37000 1472.84941 1435.00613 0.0002975
17.38000 1481.96378 1448.36860 0.0002973
17.39000 1479.71934 1444.02973 0.0002980
17.40000 1461.68984 1425.71930 0.0003003
17.41000 1456.17242 1404.84860 0.0003013
17.42000 1418.68237 1389.68340 0.0003054
17.43000 1410.56022 1383.39389 0.0003067
17.44000 1411.81423 1387.08711 0.0003072
17.45000 1426.43767 1401.75623 0.0003065
17.46000 1446.93246 1428.90212 0.0003051
17.47000 1482.67058 1470.20117 0.0003024
17.48000 1541.20687 1525.30614 0.0002978
17.49000 1577.42206 1586.66624 0.0002952
17.50000 1607.94387 1634.07438 0.0002932
17.51000 1613.59793 1644.88673 0.0002931
17.52000 1577.23905 1617.70324 0.0002970
17.53000 1537.44462 1571.44039 0.0003010
17.54000 1498.39893 1526.87471 0.0003053
17.55000 1481.52079 1496.70731 0.0003075
17.56000 1487.12403 1484.67360 0.0003075
17.57000 1497.94125 1488.70340 0.0003071
17.58000 1504.88188 1501.98729 0.0003071
17.59000 1515.58744 1515.37965 0.0003067
17.60000 1552.89132 1526.41961 0.0003037
17.61000 1568.85830 1541.77412 0.0003028
17.62000 1567.75483 1565.34978 0.0003036
17.63000 1612.64836 1588.26900 0.0003002
17.64000 1598.98032 1592.05293 0.0003019
17.65000 1590.85957 1569.26854 0.0003032
17.66000 1543.51392 1533.62156 0.0003082
17.67000 1524.33715 1502.44652 0.0003107
17.68000 1499.75312 1485.00915 0.0003136
17.69000 1509.54553 1484.07446 0.0003134
17.70000 1508.91256 1498.81190 0.0003140
17.71000 1525.46637 1524.43112 0.0003130
17.72000 1549.33692 1551.73610 0.0003112
17.73000 1579.12799 1574.78443 0.0003090
17.74000 1619.28599 1599.43541 0.0003056
17.75000 1642.86423 1633.43412 0.0003042
17.76000 1677.86172 1670.04818 0.0003012
17.77000 1684.81932 1684.52611 0.0003014
17.78000 1668.85152 1657.18189 0.0003033
17.79000 1628.65178 1600.33744 0.0003076
17.80000 1555.64356 1540.62835 0.0003153
17.81000 1520.30689 1493.38081 0.0003195
17.82000 1486.62145 1462.30732 0.0003236
17.83000 1482.82239 1446.04676 0.0003245
17.84000 1479.43652 1441.11925 0.0003255
17.85000 1478.74934 1442.54275 0.0003261
17.86000 1491.87884 1446.15783 0.0003253
17.87000 1505.23395 1452.66017 0.0003244
17.88000 1523.57029 1466.57306 0.0003232
17.89000 1543.93269 1490.61818 0.0003216
17.90000 1577.15029 1522.22841 0.0003186
17.91000 1602.42171 1551.19626 0.0003167
17.92000 1593.75375 1560.96147 0.0003180
17.93000 1587.14748 1542.63969 0.0003192
17.94000 1547.50713 1507.52555 0.0003239
17.95000 1505.95872 1472.80166 0.0003289
17.96000 1472.06131 1447.21599 0.0003331
17.97000 1461.66705 1431.93244 0.0003348
17.98000 1456.38992 1424.37847 0.0003358
17.99000 1440.12595 1420.99418 0.0003383
18.00000 1463.28074 1420.74129 0.0003363
18.01000 1461.13723 1425.62926 0.0003368
18.02000 1465.05618 1437.40509 0.0003372
18.03000 1490.48643 1455.09474 0.0003347
18.04000 1509.78638 1473.52988 0.0003332
18.05000 1509.35691 1483.42980 0.0003335
18.06000 1496.68889 1478.47219 0.0003356
18.07000 1486.26851 1463.60499 0.0003371
18.08000 1462.89394 1449.26794 0.0003404
18.09000 1469.46009 1442.42783 0.0003400
18.10000 1474.32606 1446.12432 0.0003402
18.11000 1480.66678 1461.96623 0.0003397
18.12000 1523.97276 1491.39566 0.0003354
18.13000 1562.68297 1536.28792 0.0003314
18.14000 1622.71454 1597.17517 0.0003256
18.15000 1686.72821 1667.15934 0.0003192
18.16000 1731.57571 1723.58662 0.0003151
18.17000 1755.06774 1735.39731 0.0003131
18.18000 1714.09045 1695.79230 0.0003177
18.19000 1638.16582 1629.35071 0.0003259
18.20000 1554.92626 1562.52990 0.0003354
18.21000 1506.58624 1508.81929 0.0003413
18.22000 1478.51834 1471.38406 0.0003451
18.23000 1460.79558 1448.40769 0.0003476
18.24000 1470.64697 1436.11438 0.0003470
18.25000 1453.25952 1430.53321 0.0003493
18.26000 1465.27047 1429.54763 0.0003483
18.27000 1478.57406 1433.11835 0.0003470
18.28000 1496.43124 1440.16308 0.0003453
18.29000 1494.98600 1445.87770 0.0003459
18.30000 1490.25825 1443.81473 0.0003469
18.31000 1479.85487 1433.40924 0.0003485
18.32000 1461.83215 1420.71773 0.0003509
18.33000 1447.66318 1411.42541 0.0003532
18.34000 1442.74264 1407.82100 0.0003541
18.35000 1452.94716 1410.13954 0.0003533
18.36000 1461.14396 1417.11442 0.0003525
18.37000 1451.41169 1425.52488 0.0003543
18.38000 1476.12395 1431.37227 0.0003513
18.39000 1475.68623 1434.32026 0.0003519
18.40000 1479.14069 1438.31097 0.0003516
18.41000 1484.16509 1446.39810 0.0003515
18.42000 1492.68305 1457.61275 0.0003506
18.43000 1484.37127 1467.69093 0.0003521
18.44000 1494.59764 1472.46483 0.0003510
18.45000 1493.09188 1471.93465 0.0003516
18.46000 1492.43276 1471.68103 0.0003519
18.47000 1493.05766 1478.19649 0.0003524
18.48000 1506.94160 1494.19637 0.0003507
18.49000 1535.19281 1517.02892 0.0003478
18.50000 1544.82426 1537.33651 0.0003467
18.51000 1545.91644 1544.42213 0.0003470
18.52000 1558.19171 1539.28865 0.0003457
18.53000 1550.66046 1533.26867 0.0003469
18.54000 1567.27912 1533.45239 0.0003451
18.55000 1565.07955 1537.13956 0.0003458
18.56000 1569.36276 1535.89914 0.0003455
18.57000 1542.94439 1523.04906 0.0003487
18.58000 1539.21521 1499.34314 0.0003496
18.59000 1491.46075 1472.50008 0.0003557
18.60000 1478.49793 1449.87391 0.0003575
18.61000 1440.58321 1434.61100 0.0003627
18.62000 1452.23908 1427.22324 0.0003615
18.63000 1438.61618 1427.51270 0.0003634
18.64000 1465.15451 1435.48810 0.0003603
18.65000 1463.26856 1451.41082 0.0003606
18.66000 1501.65456 1475.18000 0.0003561
18.67000 1522.43261 1504.64600 0.0003536
18.68000 1549.61386 1533.68365 0.0003505
18.69000 1566.81572 1553.05309 0.0003485
18.70000 1547.68284 1556.26201 0.0003511
18.71000 1547.83262 1547.40175 0.0003510
18.72000 1535.99776 1538.93684 0.0003528
18.73000 1524.32483 1540.43992 0.0003544
18.74000 1550.05705 1554.00759 0.0003515
18.75000 1562.12734 1574.15250 0.0003500
18.76000 1558.22268 1590.51312 0.0003509
18.77000 1581.72365 1598.37475 0.0003480
18.78000 1588.28882 1604.37391 0.0003475
18.79000 1586.27867 1614.24070 0.0003478
18.80000 1584.28422 1621.14535 0.0003482
18.81000 1571.70941 1611.26606 0.0003499
18.82000 1545.09232 1582.42807 0.0003535
18.83000 1531.05651 1547.85671 0.0003553
18.84000 1483.99093 1520.33198 0.0003613
18.85000 1491.45607 1505.24967 0.0003607
18.86000 1502.78741 1503.30171 0.0003593
18.87000 1491.69538 1512.51646 0.0003608
18.88000 1519.95961 1528.38845 0.0003573
18.89000 1531.84299 1546.26941 0.0003560
18.90000 1549.95626 1566.57821 0.0003536
18.91000 1582.82316 1592.42124 0.0003499
18.92000 1605.61115 1619.63171 0.0003471
18.93000 1607.67614 1633.11069 0.0003471
18.94000 1600.66815 1620.16292 0.0003480
18.95000 1554.23311 1587.35797 0.0003539
18.96000 1520.41056 1551.88417 0.0003582
18.97000 1513.81761 1525.67306 0.0003592
18.98000 1487.98075 1512.75113 0.0003625
18.99000 1488.31620 1511.79779 0.0003628
19.00000 1497.00792 1516.80949 0.0003616
19.01000 1502.10952 1518.22049 0.0003613
19.02000 1502.64199 1510.48583 0.0003610
19.03000 1496.01955 1497.81987 0.0003622
19.04000 1476.17422 1486.59939 0.0003647
19.05000 1468.63306 1477.50801 0.0003659
19.06000 1467.16110 1466.92274 0.0003662
19.07000 1452.98897 1452.99208 0.0003682
19.08000 1429.64252 1437.93571 0.0003715
19.09000 1419.36747 1424.89140 0.0003730
19.10000 1415.44612 1415.83662 0.0003737
19.11000 1407.85020 1411.42740 0.0003747
19.12000 1421.81179 1411.98508 0.0003729
19.13000 1414.24979 1417.90741 0.0003740
19.14000 1439.15394 1429.86156 0.0003707
19.15000 1449.01854 1448.50288 0.0003692
19.16000 1483.01563 1473.61558 0.0003649
19.17000 1515.58012 1502.21591 0.0003605
19.18000 1537.18943 1526.83565 0.0003579
19.19000 1539.52803 1538.46616 0.0003575
19.20000 1523.32629 1533.00535 0.0003598
19.21000 1508.18308 1515.80268 0.0003615
19.22000 1486.71252 1497.62380 0.0003647
19.23000 1483.53574 1485.97443 0.0003649
19.24000 1477.25803 1482.06687 0.0003661
19.25000 1466.03047 1481.83828 0.0003673
19.26000 1472.43190 1478.74601 0.0003668
19.27000 1467.17209 1470.32198 0.0003674
19.28000 1450.77964 1460.11742 0.0003698
19.29000 1454.21074 1451.59043 0.0003692
19.30000 1432.22580 1444.21943 0.0003723
19.31000 1432.34144 1435.78686 0.0003723
19.32000 1427.87840 1426.51759 0.0003730
19.33000 1411.78221 1418.86005 0.0003753
19.34000 1415.35526 1414.76915 0.0003748
19.35000 1408.46730 1415.15158 0.0003758
19.36000 1412.75083 1420.53871 0.0003752
19.37000 1423.25128 1431.49299 0.0003738
19.38000 1448.20152 1448.72617 0.0003702
19.39000 1473.01572 1473.31022 0.0003671
19.40000 1515.50456 1506.27741 0.0003614
19.41000 1547.53807 1546.16895 0.0003573
19.42000 1593.76423 1585.37108 0.0003513
19.43000 1617.92231 1610.62633 0.0003486
19.44000 1599.81051 1611.67475 0.0003507
19.45000 1574.65771 1589.98789 0.0003540
19.46000 1547.01775 1558.41082 0.0003572
19.47000 1509.87445 1530.70252 0.0003623
19.48000 1516.26062 1513.34934 0.0003612
19.49000 1513.14967 1505.73634 0.0003617
19.50000 1509.48507 1502.68860 0.0003622
19.51000 1512.26864 1499.50887 0.0003620
19.52000 1509.78252 1496.57858 0.0003622
19.53000 1501.80856 1496.05647 0.0003634
19.54000 1493.54089 1495.65475 0.0003645
19.55000 1487.98521 1489.25381 0.0003652
19.56000 1470.45555 1474.50357 0.0003677
19.57000 1455.33253 1456.20484 0.0003696
19.58000 1425.51252 1440.36148 0.0003738
19.59000 1428.05365 1430.03405 0.0003733
19.60000 1426.66727 1425.85546 0.0003737
19.61000 1435.42093 1427.11995 0.0003723
19.62000 1435.42832 1432.21730 0.0003725
19.63000 1448.21894 1439.70361 0.0003706
19.64000 1475.64168 1449.56614 0.0003670
19.65000 1468.28246 1461.57142 0.0003678
19.66000 1480.69215 1471.77362 0.0003664
19.67000 1494.58527 1472.95483 0.0003643
19.68000 1460.97947 1462.02317 0.0003691
19.69000 1446.94953 1444.30224 0.0003707
19.70000 1424.79385 1426.98290 0.0003739
19.71000 1421.17630 1413.86014 0.0003744
19.72000 1406.01214 1405.58984 0.0003766
19.73000 1402.73695 1401.12247 0.0003769
19.74000 1409.78868 1398.34371 0.0003761
19.75000 1397.50700 1395.22058 0.0003778
19.76000 1400.46504 1391.47793 0.0003773
19.77000 1388.27139 1388.16312 0.0003792
19.78000 1385.34106 1385.82697 0.0003795
19.79000 1373.99606 1384.11596 0.0003811
19.80000 1367.32868 1382.81037 0.0003820
19.81000 1373.01224 1382.50177 0.0003814
19.82000 1390.33096 1384.05963 0.0003786
19.83000 1396.67937 1388.07239 0.0003779
19.84000 1395.82655 1394.98940 0.0003778
19.85000 1398.07468 1404.70045 0.0003777
19.86000 1425.48550 1416.61243 0.0003736
19.87000 1425.86465 1430.20576 0.0003739
19.88000 1459.75555 1446.12742 0.0003688
19.89000 1467.39314 1464.75661 0.0003680
19.90000 1482.84456 1483.01803 0.0003659
19.91000 1486.33676 1494.22269 0.0003654
19.92000 1499.76806 1493.63605 0.0003635
19.93000 1482.49148 1483.56637 0.0003657
19.94000 1459.70987 1470.92218 0.0003690
19.95000 1450.66536 1462.20577 0.0003702
19.96000 1436.70834 1460.72953 0.0003722
19.97000 1450.00032 1466.61600 0.0003702
19.98000 1458.57324 1477.96522 0.0003693
19.99000 1466.16324 1492.96899 0.0003679
20.00000 1505.72529 1512.33107 0.0003629
20.01000 1513.65004 1536.54371 0.0003616
20.02000 1532.45005 1560.61097 0.0003593
20.03000 1548.06746 1573.97715 0.0003572
20.04000 1533.22077 1568.74620 0.0003592
20.05000 1504.86223 1547.02761 0.0003627
20.06000 1490.58051 1518.84140 0.0003648
20.07000 1457.90825 1494.23125 0.0003691
20.08000 1438.04854 1478.26337 0.0003719
20.09000 1422.52418 1471.19782 0.0003740
20.10000 1441.86793 1470.73980 0.0003713
20.11000 1444.34484 1474.89228 0.0003711
20.12000 1443.78609 1483.81893 0.0003710
20.13000 1453.06876 1497.54795 0.0003698
20.14000 1481.36577 1511.86625 0.0003658
20.15000 1465.96230 1519.09040 0.0003681
20.16000 1475.50176 1513.95463 0.0003665
20.17000 1454.82063 1498.40441 0.0003698
20.18000 1439.95918 1480.04040 0.0003714
20.19000 1423.90147 1466.02839 0.0003739
20.20000 1436.62730 1459.34106 0.0003718
20.21000 1431.88723 1459.06082 0.0003729
20.22000 1434.08204 1462.25140 0.0003723
20.23000 1441.39039 1467.05491 0.0003714
20.24000 1457.75646 1473.83298 0.0003690
20.25000 1458.73781 1481.14995 0.0003691
20.26000 1469.99480 1482.75691 0.0003674
20.27000 1460.42637 1472.49799 0.0003687
20.28000 1433.02994 1452.11601 0.0003725
20.29000 1416.39762 1429.11314 0.0003748
20.30000 1392.23259 1409.02167 0.0003782
20.31000 1390.24352 1393.81426 0.0003784
20.32000 1377.55128 1383.56359 0.0003806
20.33000 1376.91398 1377.78597 0.0003803
20.34000 1380.18812 1375.97627 0.0003802
20.35000 1383.38670 1377.70994 0.0003794
20.36000 1383.69528 1382.49013 0.0003796
20.37000 1406.96645 1389.20762 0.0003761
20.38000 1415.68410 1395.53908 0.0003752
20.39000 1417.72126 1398.21001 0.0003745
20.40000 1404.50004 1395.01540 0.0003767
20.41000 1397.65338 1387.14388 0.0003775
20.42000 1376.61959 1378.04715 0.0003807
20.43000 1385.90140 1370.44609 0.0003792
20.44000 1365.60905 1365.35095 0.0003822
20.45000 1363.31390 1362.85251 0.0003828
20.46000 1372.37092 1362.78130 0.0003811
20.47000 1371.30105 1365.03570 0.0003816
20.48000 1384.91756 1369.37796 0.0003793
20.49000 1381.65818 1374.98468 0.0003803
20.50000 1387.37320 1380.05767 0.0003789
20.51000 1383.31743 1382.36820 0.0003799
20.52000 1373.27570 1381.13288 0.0003811
20.53000 1380.30658 1378.14100 0.0003804
20.54000 1377.51623 1375.87955 0.0003806
20.55000 1380.03274 1375.78653 0.0003806
20.56000 1377.90433 1377.61120 0.0003806
20.57000 1387.45527 1380.42781 0.0003794
20.58000 1393.91790 1383.89972 0.0003784
20.59000 1370.04392 1388.84327 0.0003820
20.60000 1385.84939 1395.90524 0.0003798
20.61000 1382.53038 1404.40747 0.0003801
20.62000 1400.52138 1412.90482 0.0003777
20.63000 1417.27495 1420.96308 0.0003751
20.64000 1425.31408 1430.46276 0.0003744
20.65000 1443.81982 1444.50955 0.0003715
20.66000 1453.05135 1464.60544 0.0003707
20.67000 1482.52541 1488.18320 0.0003663
20.68000 1494.20647 1507.87799 0.0003650
20.69000 1510.81212 1516.58434 0.0003626
20.70000 1509.43162 1515.43741 0.0003631
20.71000 1509.00483 1510.47480 0.0003630
20.72000 1496.18574 1502.55459 0.0003648
20.73000 1466.35485 1486.98835 0.0003688
20.74000 1438.45318 1462.62433 0.0003727
20.75000 1417.08438 1435.08728 0.0003757
20.76000 1395.35310 1410.42280 0.0003788
20.77000 1366.09332 1391.28466 0.0003832
20.78000 1360.33857 1377.94234 0.0003839
20.79000 1351.72937 1369.79787 0.0003855
20.80000 1353.86034 1366.14274 0.0003849
20.81000 1358.95009 1366.33531 0.0003846
20.82000 1368.64430 1369.61241 0.0003829
20.83000 1358.71115 1374.57859 0.0003847
20.84000 1371.78853 1378.80649 0.0003825
20.85000 1394.75947 1379.65370 0.0003795
20.86000 1372.13056 1376.08978 0.0003826
20.87000 1356.60926 1369.66552 0.0003852
20.88000 1354.51023 1363.18908 0.0003853
20.89000 1352.89541 1358.69022 0.0003858
20.90000 1348.08270 1356.87095 0.0003863
20.91000 1345.55745 1357.55329 0.0003869
20.92000 1351.99015 1360.46733 0.0003861
20.93000 1355.39099 1365.41746 0.0003855
20.94000 1366.70183 1371.76208 0.0003841
20.95000 1380.80575 1377.32337 0.0003817
20.96000 1370.24311 1378.97780 0.0003836
20.97000 1373.32548 1375.20922 0.0003830
20.98000 1352.62598 1367.46115 0.0003866
20.99000 1352.09018 1358.78494 0.0003862
21.00000 1354.42252 1351.67048 0.0003862
21.01000 1348.91389 1347.35666 0.0003869
21.02000 1347.46764 1346.22980 0.0003873
21.03000 1345.15479 1348.32525 0.0003877
21.04000 1349.33647 1353.40554 0.0003871
21.05000 1348.96241 1360.61302 0.0003873
21.06000 1364.31850 1367.85768 0.0003849
21.07000 1377.02212 1371.95730 0.0003833
21.08000 1375.95947 1370.65232 0.0003834
21.09000 1361.51807 1364.54515 0.0003858
21.10000 1366.32043 1356.41187 0.0003848
21.11000 1346.65552 1349.04734 0.0003882
21.12000 1349.18630 1343.96485 0.0003875
21.13000 1325.12395 1341.65122 0.0003917
21.14000 1341.49286 1341.98396 0.0003890
21.15000 1349.67136 1344.66195 0.0003879
21.16000 1361.97616 1349.04885 0.0003861
21.17000 1370.74638 1353.60916 0.0003850
21.18000 1367.24496 1355.86735 0.0003856
21.19000 1348.62963 1354.32025 0.0003883
21.20000 1355.07885 1350.32494 0.0003876
21.21000 1348.01354 1346.45502 0.0003887
21.22000 1344.99178 1344.51310 0.0003894
21.23000 1342.05270 1345.24017 0.0003896
21.24000 1350.78939 1348.69173 0.0003887
21.25000 1359.47369 1354.69681 0.0003872
21.26000 1365.57767 1363.07531 0.0003867
21.27000 1371.25370 1373.85962 0.0003856
21.28000 1391.85753 1386.26943 0.0003829
21.29000 1393.64267 1397.74761 0.0003826
21.30000 1398.45946 1405.15386 0.0003822
21.31000 1396.46829 1407.76941 0.0003825
21.32000 1396.55653 1408.39528 0.0003825
21.33000 1404.11843 1411.18729 0.0003815
21.34000 1402.81165 1418.56108 0.0003819
21.35000 1404.36786 1429.36467 0.0003819
21.36000 1418.30863 1439.23254 0.0003797
21.37000 1431.16599 1444.27008 0.0003783
21.38000 1432.97048 1445.32170 0.0003777
21.39000 1439.81718 1444.89219 0.0003772
21.40000 1436.42710 1441.82225 0.0003774
21.41000 1411.04904 1432.35391 0.0003815
21.42000 1403.49849 1416.07175 0.0003825
21.43000 1386.41936 1397.08002 0.0003852
21.44000 1371.79223 1379.93536 0.0003875
21.45000 1371.08853 1367.06833 0.0003878
21.46000 1358.84989 1358.84629 0.0003896
21.47000 1366.82588 1354.55309 0.0003886
21.48000 1363.67861 1353.16061 0.0003893
21.49000 1358.49280 1354.00813 0.0003899
21.50000 1354.46134 1356.26044 0.0003909
21.51000 1367.65248 1357.83426 0.0003887
21.52000 1362.17936 1356.08995 0.0003900
21.53000 1363.87071 1350.21718 0.0003896
21.54000 1356.06249 1341.97047 0.0003913
21.55000 1348.06754 1333.72429 0.0003923
21.56000 1336.45621 1326.92735 0.0003945
21.57000 1332.42913 1321.90410 0.0003950
21.58000 1339.93082 1318.26192 0.0003941
21.59000 1325.55940 1315.43710 0.0003963
21.60000 1332.16461 1313.20454 0.0003955
21.61000 1329.30488 1311.68726 0.0003962
21.62000 1333.26945 1311.00902 0.0003954
21.63000 1320.47251 1311.20642 0.0003979
21.64000 1340.37857 1312.41748 0.0003946
21.65000 1338.66565 1314.99138 0.0003954
21.66000 1347.93585 1319.34535 0.0003937
21.67000 1340.76677 1325.97769 0.0003953
21.68000 1356.84558 1335.24603 0.0003928
21.69000 1356.02448 1347.30701 0.0003931
21.70000 1376.02864 1362.17276 0.0003901
21.71000 1395.88248 1379.65555 0.0003873
21.72000 1398.86649 1398.09289 0.0003870
21.73000 1418.89212 1412.63217 0.0003840
21.74000 1413.73682 1417.05798 0.0003851
21.75000 1411.06480 1409.53072 0.0003854
21.76000 1391.43598 1394.51343 0.0003888
21.77000 1375.03682 1378.32875 0.0003910
21.78000 1354.30387 1365.12468 0.0003947
21.79000 1364.74340 1356.10937 0.0003929
21.80000 1348.78051 1350.46344 0.0003959
21.81000 1352.71760 1346.82555 0.0003953
21.82000 1348.70156 1344.61463 0.0003961
21.83000 1350.26873 1343.69340 0.0003959
21.84000 1347.19129 1343.11438 0.0003966
21.85000 1345.13450 1341.34833 0.0003970
21.86000 1329.69079 1337.97108 0.0003996
21.87000 1333.68005 1334.21365 0.0003993
21.88000 1354.44982 1331.76293 0.0003960
21.89000 1339.84350 1331.64373 0.0003987
21.90000 1334.90317 1333.88852 0.0003993
21.91000 1344.61088 1337.69708 0.0003981
21.92000 1352.30457 1342.31557 0.0003968
21.93000 1357.67614 1347.63123 0.0003964
21.94000 1374.06330 1353.51089 0.0003939
21.95000 1368.74211 1358.27796 0.0003948
21.96000 1364.82807 1359.54295 0.0003956
21.97000 1365.41858 1356.72182 0.0003957
21.98000 1343.90266 1351.84257 0.0003994
21.99000 1345.05822 1347.72342 0.0003992
22.00000 1341.68894 1345.87534 0.0004001
22.01000 1343.77377 1345.68795 0.0003996
22.02000 1354.16885 1344.86659 0.0003985
22.03000 1349.42422 1341.58163 0.0003990
22.04000 1337.30771 1336.30205 0.0004014
22.05000 1329.93864 1330.50010 0.0004025
22.06000 1327.68896 1324.69836 0.0004032
22.07000 1335.99272 1318.68605 0.0004020
22.08000 1317.23053 1312.84890 0.0004052
22.09000 1312.68472 1308.10600 0.0004062
22.10000 1314.74812 1305.17491 0.0004060
22.11000 1307.46061 1304.41592 0.0004074
22.12000 1310.15296 1306.04238 0.0004069
22.13000 1311.51762 1310.25398 0.0004073
22.14000 1320.61677 1317.21994 0.0004055
22.15000 1334.34198 1326.80618 0.0004038
22.16000 1349.87178 1338.02246 0.0004013
22.17000 1358.97543 1348.32767 0.0004000
22.18000 1357.78261 1353.84128 0.0004003
22.19000 1361.75033 1351.99060 0.0003999
22.20000 1352.35753 1344.21472 0.0004015
22.21000 1335.79328 1334.64860 0.0004044
22.22000 1322.88578 1326.54985 0.0004067
22.23000 1323.65252 1321.12503 0.0004066
22.24000 1309.73980 1318.32442 0.0004094
22.25000 1328.57558 1317.74227 0.0004060
22.26000 1333.13254 1318.74343 0.0004059
22.27000 1343.15597 1319.96976 0.0004041
22.28000 1322.54486 1319.56958 0.0004079
22.29000 1328.27667 1316.74401 0.0004069
22.30000 1322.84419 1312.51910 0.0004083
22.31000 1310.65893 1308.60361 0.0004103
22.32000 1326.88762 1306.05655 0.0004079
22.33000 1316.19090 1304.89372 0.0004098
22.34000 1315.40014 1304.26323 0.0004100
22.35000 1306.95778 1303.22476 0.0004119
22.36000 1324.67071 1301.69348 0.0004088
22.37000 1310.54012 1300.22700 0.0004117
22.38000 1306.61234 1299.05972 0.0004121
22.39000 1314.15106 1297.96970 0.0004114
22.40000 1305.48873 1296.94713 0.0004128
22.41000 1316.62747 1296.46547 0.0004112
22.42000 1325.44996 1297.10957 0.0004098
22.43000 1317.01150 1299.04881 0.0004115
22.44000 1313.75058 1301.71734 0.0004123
22.45000 1314.57373 1304.02798 0.0004122
22.46000 1319.59602 1305.25024 0.0004118
22.47000 1319.58353 1305.67356 0.0004116
22.48000 1321.51291 1305.73634 0.0004118
22.49000 1318.26034 1305.17162 0.0004122
22.50000 1320.24001 1303.76548 0.0004124
22.51000 1317.76788 1302.30892 0.0004128
22.52000 1307.28353 1302.04833 0.0004149
22.53000 1301.46463 1303.75469 0.0004160
22.54000 1315.23345 1307.36884 0.0004137
22.55000 1317.05878 1312.05488 0.0004137
22.56000 1330.67744 1316.72485 0.0004114
22.57000 1324.82503 1321.03758 0.0004129
22.58000 1330.42758 1325.36516 0.0004118
22.59000 1326.00236 1329.19573 0.0004130
22.60000 1326.42155 1330.83904 0.0004129
22.61000 1315.09010 1328.89345 0.0004152
22.62000 1324.57305 1323.98894 0.0004136
22.63000 1308.49272 1318.49881 0.0004167
22.64000 1300.90962 1314.82251 0.0004180
22.65000 1318.52419 1314.32552 0.0004152
22.66000 1316.25637 1317.45624 0.0004158
22.67000 1328.48111 1324.03485 0.0004137
22.68000 1337.90318 1333.10486 0.0004126
22.69000 1356.27790 1342.19540 0.0004093
22.70000 1343.20952 1347.24232 0.0004122
22.71000 1350.28117 1345.19788 0.0004108
22.72000 1330.21924 1336.91798 0.0004145
22.73000 1326.54711 1326.20431 0.0004152
22.74000 1311.99729 1316.56053 0.0004180
22.75000 1298.57813 1309.89919 0.0004206
22.76000 1298.29482 1306.90902 0.0004207
22.77000 1300.28011 1307.67048 0.0004206
22.78000 1315.64809 1311.87910 0.0004179
22.79000 1320.37556 1318.68396 0.0004175
22.80000 1312.81670 1326.26845 0.0004188
22.81000 1336.07068 1332.09399 0.0004151
22.82000 1336.48794 1334.41027 0.0004150
22.83000 1325.13981 1333.73427 0.0004173
22.84000 1329.61187 1332.49819 0.0004166
22.85000 1337.89090 1332.73368 0.0004153
22.86000 1322.50072 1334.47240 0.0004181
22.87000 1328.50962 1335.86210 0.0004172
22.88000 1325.67170 1335.15933 0.0004181
22.89000 1332.76253 1332.48485 0.0004168
22.90000 1328.77460 1328.64490 0.0004179
22.91000 1312.11184 1323.30106 0.0004207
22.92000 1306.05549 1315.89095 0.0004221
22.93000 1306.65424 1307.38358 0.0004221
22.94000 1291.93608 1299.68126 0.0004249
22.95000 1290.80052 1294.12485 0.0004252
22.96000 1290.06358 1291.16008 0.0004256
22.97000 1279.33075 1290.64770 0.0004277
22.98000 1298.49825 1292.25874 0.0004243
22.99000 1291.29490 1295.65275 0.0004260
23.00000 1303.85474 1300.27114 0.0004236
23.01000 1293.03608 1304.77647 0.0004260
23.02000 1297.77223 1307.22158 0.0004249
23.03000 1305.96335 1306.39897 0.0004238
23.04000 1303.92226 1302.98309 0.0004242
23.05000 1294.31464 1298.95943 0.0004263
23.06000 1284.94440 1296.03808 0.0004281
23.07000 1291.98466 1294.75094 0.0004269
23.08000 1267.82929 1294.69352 0.0004316
23.09000 1294.65114 1295.44012 0.0004268
23.10000 1292.59337 1297.01728 0.0004275
23.11000 1306.18358 1299.21463 0.0004249
23.12000 1296.39746 1300.78552 0.0004270
23.13000 1299.58303 1299.98001 0.0004264
23.14000 1290.61075 1296.09723 0.0004285
23.15000 1289.71756 1290.31470 0.0004287
23.16000 1303.74189 1284.58443 0.0004262
23.17000 1279.05481 1280.18946 0.0004309
23.18000 1283.56352 1277.44692 0.0004300
23.19000 1277.51059 1276.17818 0.0004317
23.20000 1282.02557 1276.09293 0.0004307
23.21000 1286.20415 1276.67374 0.0004303
23.22000 1277.32650 1276.97660 0.0004319
23.23000 1284.90504 1276.14798 0.0004308
23.24000 1272.61651 1274.22526 0.0004330
23.25000 1275.47756 1272.15612 0.0004326
23.26000 1273.90292 1271.05171 0.0004330
23.27000 1266.80037 1271.62462 0.0004346
23.28000 1265.35703 1274.08778 0.0004352
23.29000 1290.03295 1278.36855 0.0004305
23.30000 1277.49896 1283.95385 0.0004332
23.31000 1299.79695 1289.56854 0.0004289
23.32000 1289.80614 1292.83096 0.0004310
23.33000 1286.55365 1291.44396 0.0004316
23.34000 1283.49256 1285.55844 0.0004324
23.35000 1279.68534 1277.54841 0.0004333
23.36000 1270.05443 1269.79180 0.0004351
23.37000 1267.98745 1263.48853 0.0004357
23.38000 1258.74537 1258.93758 0.0004376
23.39000 1263.22343 1256.02967 0.0004370
23.40000 1252.24291 1254.53658 0.0004389
23.41000 1262.85463 1254.18496 0.0004373
23.42000 1243.88045 1254.61295 0.0004409
23.43000 1259.31498 1255.42277 0.0004382
23.44000 1239.69573 1256.44548 0.0004419
23.45000 1255.87056 1257.90963 0.0004390
23.46000 1264.96386 1260.22696 0.0004374
23.47000 1267.82852 1263.59210 0.0004368
23.48000 1279.39127 1267.65907 0.0004350
23.49000 1278.54335 1271.60797 0.0004349
23.50000 1281.78472 1274.81405 0.0004346
23.51000 1279.11037 1277.21895 0.0004351
23.52000 1277.35061 1278.60530 0.0004357
23.53000 1269.23330 1278.18604 0.0004372
23.54000 1273.78271 1275.70993 0.0004364
23.55000 1263.47870 1272.33630 0.0004385
23.56000 1275.69059 1269.68253 0.0004362
23.57000 1268.21089 1268.66929 0.0004381
23.58000 1268.74711 1269.25458 0.0004375
23.59000 1267.89677 1270.76940 0.0004381
23.60000 1276.98003 1272.58575 0.0004363
23.61000 1273.77131 1274.71391 0.0004370
23.62000 1278.38994 1277.25338 0.0004362
23.63000 1288.41710 1279.45571 0.0004342
23.64000 1280.79113 1279.76969 0.0004361
23.65000 1270.77727 1277.18052 0.0004379
23.66000 1273.60519 1272.37687 0.0004375
23.67000 1256.32291 1267.04463 0.0004407
23.68000 1266.03638 1262.32497 0.0004391
23.69000 1255.37990 1258.30776 0.0004413
23.70000 1261.84960 1254.62649 0.0004401
23.71000 1259.27981 1251.20033 0.0004405
23.72000 1243.77768 1248.28126 0.0004435
23.73000 1241.05797 1246.03779 0.0004444
23.74000 1254.69731 1244.53001 0.0004416
23.75000 1251.88981 1243.94384 0.0004423
23.76000 1254.01451 1244.60620 0.0004418
23.77000 1251.46976 1246.85575 0.0004426
23.78000 1256.55777 1250.98489 0.0004415
23.79000 1253.28999 1257.20989 0.0004423
23.80000 1267.94475 1265.53687 0.0004395
23.81000 1287.88533 1275.39757 0.0004356
23.82000 1282.59423 1285.13135 0.0004368
23.83000 1298.43207 1292.06479 0.0004337
23.84000 1281.43390 1294.30193 0.0004371
23.85000 1273.73060 1292.67523 0.0004384
23.86000 1279.79040 1290.01702 0.0004375
23.87000 1270.31422 1288.75614 0.0004392
23.88000 1272.24916 1289.57330 0.0004390
23.89000 1280.79016 1291.48606 0.0004374
23.90000 1299.96998 1293.02459 0.0004337
23.91000 1280.30206 1293.65547 0.0004375
23.92000 1280.00068 1293.48342 0.0004374
23.93000 1278.81031 1291.82043 0.0004379
23.94000 1273.10642 1287.49210 0.0004389
23.95000 1269.55509 1280.51979 0.0004398
23.96000 1270.31822 1272.53073 0.0004395
23.97000 1245.92413 1265.55300 0.0004444
23.98000 1255.38309 1260.86126 0.0004424
23.99000 1253.60927 1258.81720 0.0004428
24.00000 1255.08836 1259.20744 0.0004426
24.01000 1267.18698 1261.42507 0.0004402
24.02000 1265.12153 1264.26357 0.0004407
24.03000 1260.39412 1265.84069 0.0004414
24.04000 1259.70802 1264.69261 0.0004417
24.05000 1253.33655 1261.02481 0.0004429
24.06000 1238.56949 1256.43625 0.0004459
24.07000 1252.92177 1252.36792 0.0004430
24.08000 1240.45126 1249.11899 0.0004453
24.09000 1247.60590 1245.93827 0.0004442
24.10000 1249.40762 1241.82131 0.0004438
24.11000 1237.90080 1236.65096 0.0004459
24.12000 1237.07985 1231.19659 0.0004463
24.13000 1227.65673 1226.24185 0.0004481
24.14000 1215.49547 1222.16440 0.0004505
24.15000 1218.41667 1219.07961 0.0004498
24.16000 1218.10548 1217.01358 0.0004499
24.17000 1221.99598 1215.96932 0.0004490
24.18000 1215.19591 1215.94770 0.0004507
24.19000 1216.84632 1216.96196 0.0004499
24.20000 1230.66378 1219.01486 0.0004473
24.21000 1229.71192 1222.05379 0.0004475
24.22000 1221.64247 1225.78164 0.0004491
24.23000 1242.68594 1229.49156 0.0004449
24.24000 1232.81122 1232.17019 0.0004465
24.25000 1233.05465 1233.18597 0.0004466
24.26000 1224.21040 1232.97982 0.0004482
24.27000 1242.04016 1232.67278 0.0004447
24.28000 1238.49716 1233.07226 0.0004456
24.29000 1228.65509 1234.28310 0.0004475
24.30000 1237.20360 1236.04549 0.0004457
24.31000 1229.24833 1238.05390 0.0004470
24.32000 1237.64766 1239.67423 0.0004454
24.33000 1233.42462 1239.73531 0.0004462
24.34000 1236.81316 1237.34129 0.0004456
24.35000 1240.45042 1232.84496 0.0004447
24.36000 1220.60728 1227.59743 0.0004487
24.37000 1207.46394 1222.95234 0.0004513
24.38000 1204.63324 1219.70693 0.0004517
24.39000 1210.45950 1218.12709 0.0004505
24.40000 1205.13201 1218.10358 0.0004516
24.41000 1210.09179 1219.18344 0.0004506
24.42000 1226.81396 1220.52861 0.0004470
24.43000 1218.92155 1221.22280 0.0004487
24.44000 1224.19256 1220.97010 0.0004475
24.45000 1218.18962 1220.40213 0.0004486
24.46000 1217.64740 1220.28540 0.0004486
24.47000 1226.44171 1220.85201 0.0004468
24.48000 1234.02824 1221.52292 0.0004451
24.49000 1232.48756 1221.30242 0.0004454
24.50000 1204.24759 1219.65353 0.0004510
24.51000 1224.52437 1216.95463 0.0004468
24.52000 1212.10456 1213.88199 0.0004493
24.53000 1219.01311 1210.85487 0.0004479
24.54000 1205.96987 1208.17410 0.0004503
24.55000 1200.97784 1206.23301 0.0004512
24.56000 1204.67793 1205.37932 0.0004504
24.57000 1201.23006 1205.79606 0.0004511
24.58000 1212.42250 1207.47609 0.0004486
24.59000 1214.22439 1210.31387 0.0004483
24.60000 1219.30718 1214.11718 0.0004472
24.61000 1213.37704 1218.44654 0.0004483
24.62000 1232.40923 1222.34341 0.0004443
24.63000 1237.17777 1224.49910 0.0004433
24.64000 1219.44718 1224.12911 0.0004469
24.65000 1219.18494 1221.74888 0.0004466
24.66000 1216.73974 1218.73423 0.0004471
24.67000 1210.50883 1216.21164 0.0004481
24.68000 1198.11063 1214.52560 0.0004508
24.69000 1211.18331 1213.56227 0.0004478
24.70000 1215.56538 1213.15305 0.0004470
24.71000 1207.96055 1213.10629 0.0004483
24.72000 1202.48719 1212.93315 0.0004493
24.73000 1208.41685 1212.11074 0.0004482
24.74000 1203.44834 1210.65938 0.0004489
24.75000 1206.64375 1209.25588 0.0004483
24.76000 1209.03768 1208.75664 0.0004477
24.77000 1191.63478 1209.75883 0.0004510
24.78000 1204.18630 1212.42742 0.0004484
24.79000 1217.03648 1216.54685 0.0004456
24.80000 1211.49439 1221.37816 0.0004469
24.81000 1230.36543 1225.45018 0.0004426
24.82000 1231.32369 1226.92827 0.0004426
24.83000 1225.46975 1224.92452 0.0004435
24.84000 1221.45829 1220.29638 0.0004443
24.85000 1210.67501 1214.85037 0.0004463
24.86000 1199.50936 1210.06281 0.0004485
24.87000 1191.70866 1206.56842 0.0004500
24.88000 1194.38551 1204.37292 0.0004491
24.89000 1202.75282 1203.22182 0.0004475
24.90000 1206.21963 1202.72149 0.0004467
24.91000 1193.81712 1202.27887 0.0004492
24.92000 1194.09096 1201.37599 0.0004490
24.93000 1206.84209 1200.08155 0.0004462
24.94000 1193.43408 1199.01586 0.0004486
24.95000 1191.00553 1198.66490 0.0004491
24.96000 1207.88044 1199.01107 0.0004457
24.97000 1200.92306 1199.55087 0.0004467
24.98000 1199.88195 1199.72778 0.0004469
24.99000 1191.09500 1199.42912 0.0004486
25.00000 1202.07503 1198.88178 0.0004463
25.01000 1195.21422 1198.15966 0.0004475
25.02000 1202.58335 1197.18333 0.0004460
25.03000 1194.47233 1196.09864 0.0004475
25.04000 1196.55186 1195.34172 0.0004468
25.05000 1191.12145 1195.31781 0.0004478
25.06000 1197.94728 1196.05033 0.0004463
25.07000 1191.68420 1197.21544 0.0004476
25.08000 1186.41561 1198.47182 0.0004485
25.09000 1199.04347 1199.61988 0.0004457
25.10000 1209.72981 1200.30578 0.0004437
25.11000 1203.32372 1199.91626 0.0004447
25.12000 1192.05104 1198.13020 0.0004469
25.13000 1190.85927 1195.37549 0.0004470
25.14000 1179.23096 1192.59563 0.0004492
25.15000 1185.28353 1190.66031 0.0004479
25.16000 1189.71846 1190.07386 0.0004467
25.17000 1188.07766 1190.98474 0.0004472
25.18000 1199.35493 1193.24088 0.0004445
25.19000 1195.73645 1196.30356 0.0004453
25.20000 1198.06747 1199.15971 0.0004446
25.21000 1199.82538 1200.57836 0.0004443
25.22000 1188.05169 1199.88155 0.0004465
25.23000 1185.20801 1197.54022 0.0004468
25.24000 1190.01103 1194.76730 0.0004458
25.25000 1193.93931 1192.58192 0.0004449
25.26000 1191.13471 1191.43091 0.0004455
25.27000 1197.60309 1191.29798 0.0004439
25.28000 1200.29424 1191.85108 0.0004433
25.29000 1195.36803 1192.44195 0.0004444
25.30000 1194.86291 1192.40086 0.0004443
25.31000 1190.69759 1191.63690 0.0004449
25.32000 1192.70891 1190.78873 0.0004443
25.33000 1187.23758 1190.66328 0.0004454
25.34000 1189.81903 1191.71786 0.0004447
25.35000 1203.83597 1193.98094 0.0004419
25.36000 1202.36888 1197.16043 0.0004423
25.37000 1198.51226 1200.75021 0.0004428
25.38000 1209.84030 1203.86273 0.0004405
25.39000 1205.56965 1205.19106 0.0004411
25.40000 1202.75035 1203.80415 0.0004417
25.41000 1196.91924 1200.06391 0.0004427
25.42000 1185.96778 1195.32062 0.0004447
25.43000 1184.41845 1190.86451 0.0004449
25.44000 1183.37764 1187.33884 0.0004452
25.45000 1173.05191 1184.81834 0.0004470
25.46000 1177.80125 1183.13229 0.0004459
25.47000 1195.90360 1182.06097 0.0004425
25.48000 1182.90330 1181.28309 0.0004447
25.49000 1192.87198 1180.38034 0.0004427
25.50000 1180.92055 1179.10151 0.0004449
25.51000 1180.40520 1177.56028 0.0004450
25.52000 1180.06750 1176.13236 0.0004452
25.53000 1180.21851 1175.07455 0.0004449
25.54000 1174.01833 1174.41345 0.0004460
25.55000 1179.20998 1174.04259 0.0004449
25.56000 1177.60048 1173.89752 0.0004451
25.57000 1175.68719 1173.96384 0.0004456
25.58000 1186.26775 1174.17408 0.0004433
25.59000 1181.78573 1174.45520 0.0004442
25.60000 1183.24449 1174.86884 0.0004436
25.61000 1183.25976 1175.58206 0.0004438
25.62000 1188.29740 1176.65938 0.0004424
25.63000 1190.71459 1177.92360 0.0004421
25.64000 1194.70770 1179.00017 0.0004414
25.65000 1190.91902 1179.64988 0.0004418
25.66000 1183.72263 1179.86027 0.0004433
25.67000 1181.70098 1179.66360 0.0004435
25.68000 1185.98439 1179.07317 0.0004427
25.69000 1184.68967 1178.30442 0.0004427
25.70000 1190.97443 1177.82379 0.0004415
25.71000 1194.74859 1178.02830 0.0004408
25.72000 1197.55635 1179.09474 0.0004401
25.73000 1191.85690 1180.98646 0.0004413
25.74000 1190.04975 1183.59542 0.0004414
25.75000 1188.92763 1186.74481 0.0004417
25.76000 1199.79867 1190.07261 0.0004395
25.77000 1199.70056 1192.93188 0.0004395
25.78000 1191.44404 1194.70743 0.0004412
25.79000 1200.42582 1195.35401 0.0004393
25.80000 1193.74052 1195.43410 0.0004405
25.81000 1211.07245 1195.47705 0.0004370
25.82000 1194.44915 1195.45462 0.0004403
25.83000 1192.78788 1194.96953 0.0004404
25.84000 1202.63988 1193.83541 0.0004386
25.85000 1192.91787 1192.18473 0.0004404
25.86000 1183.80386 1190.13359 0.0004421
25.87000 1183.82302 1187.76522 0.0004423
25.88000 1185.65510 1185.39863 0.0004417
25.89000 1172.58062 1183.56450 0.0004444
25.90000 1181.79510 1182.72034 0.0004425
25.91000 1195.56158 1183.10092 0.0004397
25.92000 1191.33392 1184.70320 0.0004405
25.93000 1204.70422 1187.25825 0.0004378
25.94000 1202.47632 1190.11058 0.0004383
25.95000 1208.21356 1192.26706 0.0004370
25.96000 1195.04416 1192.88963 0.0004397
25.97000 1196.65153 1191.95465 0.0004393
25.98000 1190.09181 1190.20030 0.0004405
25.99000 1199.81092 1188.39562 0.0004387
26.00000 1192.51798 1186.77228 0.0004401
26.01000 1178.73045 1185.08292 0.0004428
26.02000 1193.26606 1183.04527 0.0004399
26.03000 1170.22298 1180.72623 0.0004443
26.04000 1185.64568 1178.44870 0.0004414
26.05000 1172.57237 1176.50261 0.0004437
26.06000 1170.80149 1175.05911 0.0004444
26.07000 1173.80049 1174.22998 0.0004435
26.08000 1174.05310 1174.08197 0.0004435
26.09000 1178.16792 1174.63669 0.0004426
26.10000 1183.40781 1175.85497 0.0004417
26.11000 1178.54411 1177.63798 0.0004426
26.12000 1173.43410 1179.79191 0.0004436
26.13000 1180.76754 1181.96373 0.0004422
26.14000 1179.36515 1183.69613 0.0004424
26.15000 1176.79225 1184.71341 0.0004429
26.16000 1194.98382 1185.17165 0.0004395
26.17000 1184.07743 1185.50765 0.0004415
26.18000 1188.53754 1186.04831 0.0004407
26.19000 1194.88490 1186.78047 0.0004394
26.20000 1182.57024 1187.51143 0.0004420
26.21000 1192.74165 1188.08425 0.0004398
26.22000 1186.97177 1188.45004 0.0004408
26.23000 1193.95246 1188.50423 0.0004399
26.24000 1188.70691 1188.16408 0.0004408
26.25000 1192.26638 1187.60395 0.0004400
26.26000 1195.72968 1187.21767 0.0004393
26.27000 1191.09639 1187.33628 0.0004403
26.28000 1197.95707 1188.03453 0.0004388
26.29000 1187.62828 1189.17459 0.0004409
26.30000 1190.27629 1190.56667 0.0004405
26.31000 1194.55668 1191.98925 0.0004397
26.32000 1189.93302 1193.06227 0.0004406
26.33000 1187.22076 1193.32387 0.0004411
26.34000 1198.18159 1192.61617 0.0004390
26.35000 1197.08002 1191.31180 0.0004392
26.36000 1188.54776 1190.05326 0.0004409
26.37000 1183.83266 1189.33073 0.0004419
26.38000 1197.67621 1189.30635 0.0004392
26.39000 1182.08975 1189.87083 0.0004425
26.40000 1191.77333 1190.66670 0.0004404
26.41000 1202.45441 1191.16011 0.0004383
26.42000 1205.13004 1190.93057 0.0004379
26.43000 1190.48060 1190.07688 0.0004408
26.44000 1181.87709 1189.11982 0.0004425
26.45000 1180.98654 1188.58585 0.0004426
26.46000 1195.46986 1188.72474 0.0004400
26.47000 1188.95226 1189.52510 0.0004412
26.48000 1198.58890 1190.84156 0.0004393
26.49000 1190.12900 1192.43067 0.0004412
26.50000 1177.45887 1193.87019 0.0004436
26.51000 1188.71410 1194.57979 0.0004414
26.52000 1187.53704 1194.18946 0.0004415
26.53000 1179.39668 1192.86396 0.0004433
26.54000 1184.14769 1191.15196 0.0004425
26.55000 1183.72337 1189.55014 0.0004425
26.56000 1192.47729 1188.24153 0.0004410
26.57000 1173.49928 1187.22935 0.0004445
26.58000 1181.02485 1186.49571 0.0004432
26.59000 1178.08104 1185.99139 0.0004438
26.60000 1188.01483 1185.57352 0.0004419
26.61000 1180.41712 1185.10858 0.0004435
26.62000 1173.18808 1184.62437 0.0004448
26.63000 1177.55496 1184.31760 0.0004440
26.64000 1192.95500 1184.38266 0.0004411
26.65000 1186.42195 1184.88568 0.0004426
26.66000 1174.47551 1185.76812 0.0004449
26.67000 1183.25548 1186.86272 0.0004432
26.68000 1189.29618 1187.87514 0.0004422
26.69000 1190.09515 1188.45765 0.0004418
26.70000 1179.74932 1188.45767 0.0004441
26.71000 1186.29464 1188.07864 0.0004428
26.72000 1183.92972 1187.72648 0.0004433
26.73000 1180.36730 1187.72193 0.0004442
26.74000 1192.26721 1188.15389 0.0004417
26.75000 1184.30637 1188.90012 0.0004435
26.76000 1181.85431 1189.65581 0.0004440
26.77000 1177.38155 1189.98147 0.0004450
26.78000 1182.33036 1189.43336 0.0004439
26.79000 1177.59301 1187.96619 0.0004449
26.80000 1176.30893 1186.01240 0.0004453
26.81000 1181.73517 1184.13983 0.0004442
26.82000 1175.85615 1182.74348 0.0004455
26.83000 1163.79568 1181.98721 0.0004480
26.84000 1177.52307 1181.88283 0.0004453
26.85000 1173.28543 1182.28392 0.0004463
26.86000 1176.63848 1182.91932 0.0004456
26.87000 1178.27321 1183.45741 0.0004455
26.88000 1178.40203 1183.70331 0.0004453
26.89000 1174.02890 1183.69301 0.0004463
26.90000 1184.15036 1183.59677 0.0004444
26.91000 1180.99968 1183.49757 0.0004450
26.92000 1180.60276 1183.29786 0.0004453
26.93000 1182.85934 1182.85789 0.0004448
26.94000 1181.05494 1182.16691 0.0004454
26.95000 1187.88123 1181.30877 0.0004440
26.96000 1166.81945 1180.35921 0.0004482
26.97000 1180.12084 1179.40616 0.0004457
26.98000 1168.29340 1178.58485 0.0004481
26.99000 1180.24095 1178.03737 0.0004458
27.00000 1170.95389 1177.78959 0.0004478
27.01000 1171.38066 1177.76236 0.0004476
27.02000 1178.61002 1177.84551 0.0004465
27.03000 1180.16901 1177.95526 0.0004460
27.04000 1173.70425 1177.99444 0.0004475
27.05000 1186.66111 1177.84558 0.0004450
27.06000 1170.17564 1177.44503 0.0004483
27.07000 1176.05620 1176.89956 0.0004472
27.08000 1175.23057 1176.42674 0.0004474
27.09000 1177.58667 1176.20612 0.0004471
27.10000 1172.79614 1176.29202 0.0004481
27.11000 1168.43178 1176.60968 0.0004491
27.12000 1195.46097 1176.96615 0.0004438
27.13000 1165.39473 1177.07385 0.0004497
27.14000 1168.39451 1176.70022 0.0004493
27.15000 1169.33119 1175.88372 0.0004492
27.16000 1175.40242 1174.93005 0.0004480
27.17000 1183.18780 1174.18751 0.0004465
27.18000 1175.12036 1173.88397 0.0004481
27.19000 1178.37470 1174.10362 0.0004478
27.20000 1175.47608 1174.80009 0.0004482
27.21000 1189.46906 1175.79189 0.0004458
27.22000 1183.28092 1176.81185 0.0004470
27.23000 1170.94907 1177.63872 0.0004496
27.24000 1172.85589 1178.29015 0.0004492
27.25000 1179.83227 1178.98156 0.0004477
27.26000 1178.50511 1179.88499 0.0004482
27.27000 1177.47801 1180.94361 0.0004485
27.28000 1176.11535 1181.91839 0.0004488
27.29000 1185.00506 1182.56976 0.0004472
27.30000 1174.61601 1182.74406 0.0004491
27.31000 1184.85278 1182.26083 0.0004474
27.32000 1193.70295 1180.95731 0.0004455
27.33000 1182.80279 1178.90672 0.0004481
27.34000 1182.26655 1176.50066 0.0004480
27.35000 1176.53995 1174.23708 0.0004493
27.36000 1190.38595 1172.48074 0.0004467
27.37000 1180.05368 1171.39076 0.0004487
27.38000 1176.65507 1170.94650 0.0004496
27.39000 1161.70714 1170.96720 0.0004524
27.40000 1177.58509 1171.12485 0.0004496
27.41000 1178.30687 1171.04215 0.0004494
27.42000 1171.20154 1170.50595 0.0004509
27.43000 1173.23089 1169.62111 0.0004507
27.44000 1170.76476 1168.65847 0.0004511
27.45000 1169.84063 1167.83328 0.0004514
27.46000 1172.29831 1167.20941 0.0004510
27.47000 1171.35666 1166.73333 0.0004514
27.48000 1171.38598 1166.27391 0.0004515
27.49000 1173.73391 1165.67714 0.0004509
27.50000 1173.36647 1164.90852 0.0004511
27.51000 1171.53633 1164.09635 0.0004516
27.52000 1179.91122 1163.45153 0.0004499
27.53000 1170.38171 1163.13165 0.0004520
27.54000 1170.66141 1163.20129 0.0004521
27.55000 1166.96331 1163.63425 0.0004528
27.56000 1179.90079 1164.32447 0.0004504
27.57000 1175.84400 1165.08411 0.0004511
27.58000 1173.91815 1165.69902 0.0004518
27.59000 1173.75672 1166.06060 0.0004518
27.60000 1165.70968 1166.25277 0.0004535
27.61000 1169.27019 1166.47173 0.0004529
27.62000 1172.50173 1166.87167 0.0004522
27.63000 1168.87646 1167.48314 0.0004533
27.64000 1167.45610 1168.24881 0.0004534
27.65000 1171.04230 1169.04422 0.0004529
27.66000 1168.63400 1169.71404 0.0004535
27.67000 1178.40106 1170.12396 0.0004516
27.68000 1161.84601 1170.31613 0.0004551
27.69000 1166.48454 1170.50482 0.0004542
27.70000 1164.41995 1170.90873 0.0004547
27.71000 1159.41539 1171.61931 0.0004558
27.72000 1160.58778 1172.59097 0.0004556
27.73000 1172.97177 1173.72535 0.0004532
27.74000 1161.73937 1174.90268 0.0004556
27.75000 1159.37362 1175.97452 0.0004562
27.76000 1174.88164 1176.82464 0.0004529
27.77000 1173.66837 1177.48720 0.0004533
27.78000 1181.82056 1178.13384 0.0004518
27.79000 1162.71394 1178.90412 0.0004558
