#------------------------------------------------------------------------------
#$Date: 2021-01-01 01:25:10 +0200 (Fri, 01 Jan 2021) $
#$Revision: 260302 $
#$URL: file:///home/coder/svn-repositories/cod/cif/4/00/38/4003851.cif $
#------------------------------------------------------------------------------
#
# This file is available in the Crystallography Open Database (COD),
# http://www.crystallography.net/
#
# All data on this site have been placed in the public domain by the
# contributors.
#
data_4003851
loop_
_publ_author_name
'Goodenough, Isabella'
'Devulapalli, Venkata Swaroopa Datta'
'Xu, Wenqian'
'Boyanich, Mikaela C.'
'Luo, Tian-Yi'
'De Souza, Mattheus'
'Richard, M\'elissandre'
'Rosi, Nathaniel L.'
'Borguet, Eric'
_publ_section_title
;
 Interplay between Intrinsic Thermal Stability and Expansion Properties of
 Functionalized UiO-67 Metal--Organic Frameworks
;
_journal_name_full               'Chemistry of Materials'
_journal_paper_doi               10.1021/acs.chemmater.0c03889
_journal_year                    2020
_chemical_compound_source        synthetic
_chemical_formula_sum            'C81.48 H46.56 O61.92 Zr6'
_chemical_formula_weight         2563.64
_chemical_name_common            UiO-67
_chemical_name_systematic
'Zr(IV) biphenyl dicarboxylate metal-organic framework'
_space_group_crystal_system      cubic
_space_group_IT_number           225
_space_group_name_Hall           '-F 4 2 3'
_space_group_name_H-M_alt        'F m -3 m'
_cell_angle_alpha                90
_cell_angle_beta                 90
_cell_angle_gamma                90
_cell_formula_units_Z            4
_cell_length_a                   26.7734(2)
_cell_length_b                   26.7734(2)
_cell_length_c                   26.7734(2)
_cell_measurement_temperature    298
_cell_volume                     19191.6(2)
_diffrn_ambient_pressure         101
_diffrn_ambient_temperature      298
_diffrn_measurement_device_type
'Debye-scherrer geometry diffractometer with area detector at Beamline 17-BM'
_diffrn_radiation_probe          x-ray
_diffrn_radiation_wavelength     0.35364
_diffrn_source                   synchrotron
_diffrn_source_type              'APS Beamline 17-BM'
_exptl_crystal_description       powder
_exptl_crystal_preparation
'powder loaded in a quartz capillary, measured under vacuum'
_exptl_crystal_thermal_history   'no activation'
_pd_proc_ls_prof_R_factor        0.0229
_pd_proc_ls_prof_wR_factor       0.0335
_refine_ls_goodness_of_fit_all   1.525
_refine_ls_hydrogen_treatment    constr
_refine_ls_R_I_factor            0.0406
_reflns_d_resolution_high        0.736
_reflns_d_resolution_low         15.458
_reflns_limit_h_max              36
_reflns_limit_h_min              0
_reflns_limit_k_max              36
_reflns_limit_k_min              0
_reflns_limit_l_max              36
_reflns_limit_l_min              0
_reflns_number_total             1381
_cod_data_source_file            cm0c03889_si_002.cif
_cod_data_source_block           UiO67-4-00000-sub0_0360qtz
_cod_original_cell_volume        19191.5(5)
_cod_database_code               4003851
loop_
_symmetry_equiv_pos_as_xyz
'x, y, z '
'-x, -y, z '
'-x, -z, -y '
'-x, -z, y '
'-x, z, -y '
'-x, z, y '
'-x, y, -z '
'-x, y, z '
'-y, -x, -z '
'-y, -x, z '
'-y, -z, -x '
'-y, -z, x '
'-y, z, -x '
'-y, z, x '
'-y, x, -z '
'-y, x, z '
'-z, -x, -y '
'-z, -x, y '
'-z, -y, -x '
'-z, -y, x '
'-z, y, -x '
'-z, y, x '
'-z, x, -y '
'-z, x, y '
'z, -x, -y '
'z, -x, y '
'z, -y, -x '
'z, -y, x '
'z, y, -x '
'z, y, x '
'z, x, -y '
'z, x, y '
'y, -x, -z '
'y, -x, z '
'y, -z, -x '
'y, -z, x '
'y, z, -x '
'y, z, x '
'y, x, -z '
'y, x, z '
'x, -y, -z '
'x, -y, z '
'x, -z, -y '
'x, -z, y '
'x, z, -y '
'x, z, y '
'x, y, -z '
'-x, -y, -z '
'x+1/2, y+1/2, z '
'-x+1/2, -y+1/2, z '
'-x+1/2, -z+1/2, -y '
'-x+1/2, -z+1/2, y '
'-x+1/2, z+1/2, -y '
'-x+1/2, z+1/2, y '
'-x+1/2, y+1/2, -z '
'-x+1/2, y+1/2, z '
'-y+1/2, -x+1/2, -z '
'-y+1/2, -x+1/2, z '
'-y+1/2, -z+1/2, -x '
'-y+1/2, -z+1/2, x '
'-y+1/2, z+1/2, -x '
'-y+1/2, z+1/2, x '
'-y+1/2, x+1/2, -z '
'-y+1/2, x+1/2, z '
'-z+1/2, -x+1/2, -y '
'-z+1/2, -x+1/2, y '
'-z+1/2, -y+1/2, -x '
'-z+1/2, -y+1/2, x '
'-z+1/2, y+1/2, -x '
'-z+1/2, y+1/2, x '
'-z+1/2, x+1/2, -y '
'-z+1/2, x+1/2, y '
'z+1/2, -x+1/2, -y '
'z+1/2, -x+1/2, y '
'z+1/2, -y+1/2, -x '
'z+1/2, -y+1/2, x '
'z+1/2, y+1/2, -x '
'z+1/2, y+1/2, x '
'z+1/2, x+1/2, -y '
'z+1/2, x+1/2, y '
'y+1/2, -x+1/2, -z '
'y+1/2, -x+1/2, z '
'y+1/2, -z+1/2, -x '
'y+1/2, -z+1/2, x '
'y+1/2, z+1/2, -x '
'y+1/2, z+1/2, x '
'y+1/2, x+1/2, -z '
'y+1/2, x+1/2, z '
'x+1/2, -y+1/2, -z '
'x+1/2, -y+1/2, z '
'x+1/2, -z+1/2, -y '
'x+1/2, -z+1/2, y '
'x+1/2, z+1/2, -y '
'x+1/2, z+1/2, y '
'x+1/2, y+1/2, -z '
'-x+1/2, -y+1/2, -z '
'x+1/2, y, z+1/2 '
'-x+1/2, -y, z+1/2 '
'-x+1/2, -z, -y+1/2 '
'-x+1/2, -z, y+1/2 '
'-x+1/2, z, -y+1/2 '
'-x+1/2, z, y+1/2 '
'-x+1/2, y, -z+1/2 '
'-x+1/2, y, z+1/2 '
'-y+1/2, -x, -z+1/2 '
'-y+1/2, -x, z+1/2 '
'-y+1/2, -z, -x+1/2 '
'-y+1/2, -z, x+1/2 '
'-y+1/2, z, -x+1/2 '
'-y+1/2, z, x+1/2 '
'-y+1/2, x, -z+1/2 '
'-y+1/2, x, z+1/2 '
'-z+1/2, -x, -y+1/2 '
'-z+1/2, -x, y+1/2 '
'-z+1/2, -y, -x+1/2 '
'-z+1/2, -y, x+1/2 '
'-z+1/2, y, -x+1/2 '
'-z+1/2, y, x+1/2 '
'-z+1/2, x, -y+1/2 '
'-z+1/2, x, y+1/2 '
'z+1/2, -x, -y+1/2 '
'z+1/2, -x, y+1/2 '
'z+1/2, -y, -x+1/2 '
'z+1/2, -y, x+1/2 '
'z+1/2, y, -x+1/2 '
'z+1/2, y, x+1/2 '
'z+1/2, x, -y+1/2 '
'z+1/2, x, y+1/2 '
'y+1/2, -x, -z+1/2 '
'y+1/2, -x, z+1/2 '
'y+1/2, -z, -x+1/2 '
'y+1/2, -z, x+1/2 '
'y+1/2, z, -x+1/2 '
'y+1/2, z, x+1/2 '
'y+1/2, x, -z+1/2 '
'y+1/2, x, z+1/2 '
'x+1/2, -y, -z+1/2 '
'x+1/2, -y, z+1/2 '
'x+1/2, -z, -y+1/2 '
'x+1/2, -z, y+1/2 '
'x+1/2, z, -y+1/2 '
'x+1/2, z, y+1/2 '
'x+1/2, y, -z+1/2 '
'-x+1/2, -y, -z+1/2 '
'x, y+1/2, z+1/2 '
'-x, -y+1/2, z+1/2 '
'-x, -z+1/2, -y+1/2 '
'-x, -z+1/2, y+1/2 '
'-x, z+1/2, -y+1/2 '
'-x, z+1/2, y+1/2 '
'-x, y+1/2, -z+1/2 '
'-x, y+1/2, z+1/2 '
'-y, -x+1/2, -z+1/2 '
'-y, -x+1/2, z+1/2 '
'-y, -z+1/2, -x+1/2 '
'-y, -z+1/2, x+1/2 '
'-y, z+1/2, -x+1/2 '
'-y, z+1/2, x+1/2 '
'-y, x+1/2, -z+1/2 '
'-y, x+1/2, z+1/2 '
'-z, -x+1/2, -y+1/2 '
'-z, -x+1/2, y+1/2 '
'-z, -y+1/2, -x+1/2 '
'-z, -y+1/2, x+1/2 '
'-z, y+1/2, -x+1/2 '
'-z, y+1/2, x+1/2 '
'-z, x+1/2, -y+1/2 '
'-z, x+1/2, y+1/2 '
'z, -x+1/2, -y+1/2 '
'z, -x+1/2, y+1/2 '
'z, -y+1/2, -x+1/2 '
'z, -y+1/2, x+1/2 '
'z, y+1/2, -x+1/2 '
'z, y+1/2, x+1/2 '
'z, x+1/2, -y+1/2 '
'z, x+1/2, y+1/2 '
'y, -x+1/2, -z+1/2 '
'y, -x+1/2, z+1/2 '
'y, -z+1/2, -x+1/2 '
'y, -z+1/2, x+1/2 '
'y, z+1/2, -x+1/2 '
'y, z+1/2, x+1/2 '
'y, x+1/2, -z+1/2 '
'y, x+1/2, z+1/2 '
'x, -y+1/2, -z+1/2 '
'x, -y+1/2, z+1/2 '
'x, -z+1/2, -y+1/2 '
'x, -z+1/2, y+1/2 '
'x, z+1/2, -y+1/2 '
'x, z+1/2, y+1/2 '
'x, y+1/2, -z+1/2 '
'-x, -y+1/2, -z+1/2 '
loop_
_atom_site_label
_atom_site_type_symbol
_atom_site_symmetry_multiplicity
_atom_site_fract_x
_atom_site_fract_y
_atom_site_fract_z
_atom_site_occupancy
_atom_site_B_iso_or_equiv
Zr1 Zr 24 0 0 0.09165(7) 1 0.61(5)
O1 O 32 0.0470(2) 0.0470(2) 0.0470(2) 1.000(13) 2.4(3)
O2 O 96 0.1326(7) 0 0.0722(5) 1 0.95(14)
C4 C 48 0.1151(5) 0 0.1151(5) 0.97 1.70(18)
C5 C 48 0.1558(3) 0 0.1558(3) 0.97 1.70(18)
C6 C 48 0.23025(17) 0 0.23025(17) 0.97 1.70(18)
C2 C 192 0.24196(18) 0.0155(2) 0.1813(2) 0.485 1.70(18)
C3 C 192 0.20473(19) 0.0155(2) 0.1441(3) 0.485 1.70(18)
H2 H 192 0.2798 0.0274 0.1723 0.485 2.6(3)
H3 H 192 0.2138 0.0274 0.1062 0.485 2.6(3)
Ow1 O 32 0.3002(18) 0.3002(18) 0.3002(18) 0.69(6) 160(20)
Ow2 O 32 0.1189(4) 0.3811(4) 0.3811(4) 0.80(2) 10.1(11)
Ow3 O 96 0.3480(6) 0.3007(9) 0.1520(6) 0.75(2) 39(2)
loop_
_geom_angle_atom_site_label_1
_geom_angle_atom_site_label_2
_geom_angle_atom_site_label_3
_geom_angle
_geom_angle_site_symmetry_1
_geom_angle_site_symmetry_2
_geom_angle_site_symmetry_3
O1 Zr1 O1 112.3(5) 26_555 1_555 6_555
O1 Zr1 O1 71.9(3) 1_555 1_555 26_555
O1 Zr1 O1 71.9(3) 1_555 1_555 6_555
O1 Zr1 O1 112.3(5) 2_555 1_555 1_555
O1 Zr1 O1 71.9(3) 2_555 1_555 26_555
O1 Zr1 O1 71.9(3) 2_555 1_555 6_555
O2 Zr1 O1 76.4(2) 12_555 1_555 2_555
O2 Zr1 O1 141.78(3) 12_555 1_555 1_555
O2 Zr1 O1 76.4(2) 12_555 1_555 26_555
O2 Zr1 O1 141.78(3) 12_555 1_555 6_555
O2 Zr1 O2 75.92(4) 20_555 1_555 12_555
O2 Zr1 O1 76.4(2) 20_555 1_555 2_555
O2 Zr1 O1 141.78(3) 20_555 1_555 1_555
O2 Zr1 O1 141.78(3) 20_555 1_555 26_555
O2 Zr1 O1 76.4(2) 20_555 1_555 6_555
O2 Zr1 O2 120.89(8) 28_555 1_555 20_555
O2 Zr1 O2 75.92(4) 28_555 1_555 12_555
O2 Zr1 O1 141.78(3) 28_555 1_555 2_555
O2 Zr1 O1 76.4(2) 28_555 1_555 1_555
O2 Zr1 O1 76.4(2) 28_555 1_555 26_555
O2 Zr1 O1 141.78(3) 28_555 1_555 6_555
O2 Zr1 O2 75.92(4) 14_555 1_555 28_555
O2 Zr1 O2 75.92(4) 14_555 1_555 20_555
O2 Zr1 O2 120.89(8) 14_555 1_555 12_555
O2 Zr1 O1 141.78(3) 14_555 1_555 2_555
O2 Zr1 O1 76.4(2) 14_555 1_555 1_555
O2 Zr1 O1 141.78(3) 14_555 1_555 26_555
O2 Zr1 O1 76.4(2) 14_555 1_555 6_555
Zr1 O1 Zr1 108.0(3) 5_555 1_555 25_555
Zr1 O1 Zr1 108.0(3) 1_555 1_555 5_555
Zr1 O1 Zr1 108.0(3) 1_555 1_555 25_555
Zr1 O2 C4 128.23(4) 25_555 1_555 1_555
O2 C4 O2 134.423 1_555 1_555 28_555
C5 C4 O2 112.788 1_555 1_555 1_555
C5 C4 O2 112.788 1_555 1_555 28_555
C3 C5 C3 120.000 42_555 1_555 30_555
C3 C5 C3 120.000 1_555 1_555 28_555
C4 C5 C3 120.000 1_555 1_555 1_555
C4 C5 C3 120.000 1_555 1_555 42_555
C4 C5 C3 120.000 1_555 1_555 30_555
C4 C5 C3 120.000 1_555 1_555 28_555
C2 C6 C2 120.000 30_555 1_555 42_555
C2 C6 C2 120.000 28_555 1_555 1_555
C6 C6 C2 120.000 103_555 1_555 28_555
C6 C6 C2 120.000 103_555 1_555 30_555
C6 C6 C2 120.000 103_555 1_555 42_555
C6 C6 C2 120.000 103_555 1_555 1_555
C6 C2 H2 120.000 1_555 1_555 1_555
C3 C2 C6 120.000 1_555 1_555 1_555
C3 C2 H2 120.000 1_555 1_555 1_555
C5 C3 H3 120.000 1_555 1_555 1_555
C2 C3 C5 120.000 1_555 1_555 1_555
C2 C3 H3 120.000 1_555 1_555 1_555
loop_
_geom_bond_atom_site_label_1
_geom_bond_atom_site_label_2
_geom_bond_distance
_geom_bond_site_symmetry_1
_geom_bond_site_symmetry_2
Zr1 O1 2.144(4) 1_555 6_555
Zr1 O1 2.144(4) 1_555 26_555
Zr1 O1 2.144(4) 1_555 1_555
Zr1 O1 2.144(4) 1_555 2_555
Zr1 O2 2.2228(9) 1_555 12_555
Zr1 O2 2.2228(9) 1_555 20_555
Zr1 O2 2.2228(9) 1_555 28_555
Zr1 O2 2.2228(9) 1_555 14_555
O2 C4 1.23981 1_555 1_555
C4 C5 1.54104 1_555 1_555
C5 C3 1.40959 1_555 28_555
C5 C3 1.40959 1_555 30_555
C5 C3 1.40959 1_555 42_555
C5 C3 1.40959 1_555 1_555
C6 C2 1.40959 1_555 1_555
C6 C2 1.40959 1_555 42_555
C6 C2 1.40959 1_555 30_555
C6 C2 1.40959 1_555 28_555
C6 C6 1.49558 1_555 103_555
C2 H2 1.09000 1_555 1_555
C2 C3 1.40959 1_555 1_555
C3 H3 1.09000 1_555 1_555
loop_
_pd_meas_2theta_scan
_pd_proc_intensity_total
_pd_calc_intensity_total
_pd_proc_ls_weight
1.00000 3927.64020 3367.75143 0.0001633
1.01000 3997.89656 3384.95634 0.0001607
1.02000 3896.82220 3408.95753 0.0001634
1.03000 3895.10830 3440.57876 0.0001629
1.04000 3871.13715 3480.80155 0.0001632
1.05000 3897.16522 3530.80173 0.0001625
1.06000 3823.38158 3591.99656 0.0001638
1.07000 3827.61292 3666.10455 0.0001637
1.08000 3839.53544 3755.22449 0.0001628
1.09000 3848.92123 3861.93970 0.0001625
1.10000 3883.57127 3989.45613 0.0001608
1.11000 3940.57230 4141.78879 0.0001599
1.12000 4023.03982 4324.01615 0.0001568
1.13000 4076.09178 4542.63195 0.0001557
1.14000 4243.69330 4806.03925 0.0001513
1.15000 4404.19119 5125.25571 0.0001477
1.16000 4704.10623 5514.94100 0.0001409
1.17000 5055.58960 5994.95456 0.0001344
1.18000 5746.67932 6592.98952 0.0001227
1.19000 6492.32523 7350.37116 0.0001122
1.20000 7937.77385 8339.75094 0.0000966
1.21000 9821.54386 9726.54673 0.0000815
1.22000 13438.08705 11964.30259 0.0000630
1.23000 19392.11014 16298.13825 0.0000458
1.24000 29473.22465 25716.08006 0.0000313
1.25000 49390.25542 45993.78199 0.0000193
1.26000 84269.96846 85383.05705 0.0000115
1.27000 146100.93630 150831.37194 0.0000067
1.28000 237467.49173 240520.55428 0.0000042
1.29000 341531.54026 336710.08954 0.0000029
1.30000 405668.92428 405042.34023 0.0000024
1.31000 411349.96455 409889.12448 0.0000024
1.32000 348735.28729 348363.42419 0.0000028
1.33000 255235.75673 253698.68755 0.0000039
1.34000 154875.04079 161764.07931 0.0000064
1.35000 91216.57148 92695.72603 0.0000107
1.36000 51211.92834 50116.59365 0.0000186
1.37000 29928.47382 27786.79254 0.0000308
1.38000 19193.37560 17333.85078 0.0000459
1.39000 13186.36443 12586.69362 0.0000633
1.40000 9720.12703 10240.42216 0.0000810
1.41000 7831.66123 8893.18485 0.0000958
1.42000 6830.45316 8063.48900 0.0001055
1.43000 6428.73013 7677.93448 0.0001105
1.44000 6991.77685 7940.42483 0.0001037
1.45000 8326.12009 9379.41419 0.0000911
1.46000 11909.23293 12843.28510 0.0000686
1.47000 17689.54989 19180.30665 0.0000491
1.48000 27831.19861 28491.84371 0.0000328
1.49000 40054.61399 39277.35152 0.0000234
1.50000 49135.02025 48112.53984 0.0000193
1.51000 53082.71678 50742.70932 0.0000179
1.52000 47021.84498 45495.63027 0.0000201
1.53000 35998.12297 35218.19249 0.0000258
1.54000 23918.02187 24181.21782 0.0000375
1.55000 14797.85817 15252.50632 0.0000570
1.56000 9236.78479 9365.12433 0.0000836
1.57000 6260.18423 6072.09644 0.0001108
1.58000 4526.11911 4433.00849 0.0001375
1.59000 3678.68294 3644.33390 0.0001549
1.60000 3112.99575 3230.16318 0.0001701
1.61000 2750.18092 2970.61757 0.0001807
1.62000 2584.23236 2780.35796 0.0001860
1.63000 2444.58526 2628.17645 0.0001908
1.64000 2272.40217 2501.66205 0.0001970
1.65000 2272.85771 2394.33547 0.0001967
1.66000 2198.41343 2302.02288 0.0001991
1.67000 2157.28044 2221.73863 0.0002009
1.68000 2125.93316 2151.25472 0.0002010
1.69000 2060.63439 2088.87077 0.0002045
1.70000 2042.73816 2033.26721 0.0002035
1.71000 2020.25844 1983.40786 0.0002058
1.72000 2003.70563 1938.46716 0.0002046
1.73000 1937.92555 1897.76685 0.0002082
1.74000 1905.97514 1860.76248 0.0002082
1.75000 1884.19834 1827.00599 0.0002098
1.76000 1874.58354 1796.12578 0.0002089
1.77000 1837.10342 1767.81170 0.0002105
1.78000 1850.86024 1741.80358 0.0002097
1.79000 1790.37677 1717.88236 0.0002118
1.80000 1836.18351 1695.86337 0.0002093
1.81000 1794.99593 1675.59100 0.0002108
1.82000 1789.59275 1656.93466 0.0002110
1.83000 1790.40208 1639.78573 0.0002094
1.84000 1722.95026 1624.05521 0.0002137
1.85000 1734.33289 1609.67216 0.0002112
1.86000 1753.13781 1596.58271 0.0002112
1.87000 1718.86734 1584.74966 0.0002114
1.88000 1720.71073 1574.15270 0.0002117
1.89000 1710.49864 1564.78930 0.0002109
1.90000 1673.25560 1556.67634 0.0002130
1.91000 1690.40543 1549.85269 0.0002112
1.92000 1693.31861 1544.38299 0.0002108
1.93000 1709.89868 1540.36302 0.0002099
1.94000 1676.22952 1537.92717 0.0002108
1.95000 1666.33533 1537.27057 0.0002109
1.96000 1674.85324 1538.61775 0.0002099
1.97000 1679.94986 1542.31246 0.0002097
1.98000 1655.03299 1548.80198 0.0002094
1.99000 1666.13962 1558.69256 0.0002099
2.00000 1669.99726 1572.81612 0.0002078
2.01000 1706.97886 1592.34236 0.0002069
2.02000 1693.90003 1619.02112 0.0002063
2.03000 1782.46801 1655.91056 0.0002029
2.04000 1841.01833 1709.89868 0.0001994
2.05000 1963.54461 1799.75956 0.0001948
2.06000 2224.31414 1977.06713 0.0001848
2.07000 2590.30849 2366.04571 0.0001729
2.08000 3428.37707 3207.87193 0.0001507
2.09000 4857.67696 4848.59933 0.0001239
2.10000 7579.82817 7581.15753 0.0000926
2.11000 11473.09674 11331.03192 0.0000679
2.12000 15407.05854 15352.37664 0.0000536
2.13000 18649.53911 18192.09657 0.0000456
2.14000 18788.68039 18343.57597 0.0000454
2.15000 16151.57475 15713.47726 0.0000514
2.16000 11903.35173 11732.30907 0.0000659
2.17000 7932.16087 7903.28260 0.0000890
2.18000 5117.23460 5048.67753 0.0001188
2.19000 3463.65259 3300.14984 0.0001474
2.20000 2559.99335 2386.60875 0.0001702
2.21000 2102.22432 1957.67490 0.0001838
2.22000 1857.16808 1759.40231 0.0001925
2.23000 1700.61435 1657.36697 0.0001981
2.24000 1584.81765 1594.62781 0.0002022
2.25000 1543.89169 1550.25955 0.0002037
2.26000 1491.33870 1516.66454 0.0002051
2.27000 1513.76766 1490.57656 0.0002043
2.28000 1414.72903 1470.19111 0.0002074
2.29000 1434.75274 1454.33658 0.0002071
2.30000 1399.23713 1442.20750 0.0002070
2.31000 1408.17467 1433.24800 0.0002075
2.32000 1398.68801 1427.08619 0.0002065
2.33000 1415.14188 1423.49433 0.0002060
2.34000 1425.98674 1422.36589 0.0002047
2.35000 1375.14049 1423.70543 0.0002069
2.36000 1374.18665 1427.62985 0.0002061
2.37000 1438.31240 1434.38213 0.0002034
2.38000 1402.91518 1444.36330 0.0002042
2.39000 1387.26763 1458.20955 0.0002046
2.40000 1443.89985 1477.02627 0.0002020
2.41000 1480.68938 1503.19300 0.0001997
2.42000 1532.45690 1542.91960 0.0001981
2.43000 1589.98195 1612.84902 0.0001945
2.44000 1753.31350 1752.55006 0.0001893
2.45000 2044.75651 2038.15951 0.0001786
2.46000 2547.48907 2577.87682 0.0001640
2.47000 3397.11452 3461.55979 0.0001432
2.48000 4643.86839 4662.52966 0.0001217
2.49000 5958.80725 5944.89658 0.0001046
2.50000 6918.52734 6856.13168 0.0000951
2.51000 7077.18823 6940.95463 0.0000936
2.52000 6386.74225 6208.31660 0.0001000
2.53000 5368.26930 5149.33559 0.0001112
2.54000 4486.57290 4312.29874 0.0001232
2.55000 4408.77093 4159.31466 0.0001244
2.56000 5390.03965 5159.85967 0.0001105
2.57000 7694.28885 7878.72842 0.0000882
2.58000 12443.93347 12807.23674 0.0000620
2.59000 19036.66366 19835.54404 0.0000440
2.60000 27635.87513 27647.49563 0.0000319
2.61000 33478.71395 33550.77308 0.0000269
2.62000 34741.92700 34529.20429 0.0000260
2.63000 30201.63603 29979.64099 0.0000295
2.64000 22548.35285 22422.99461 0.0000381
2.65000 14753.07400 14857.36123 0.0000541
2.66000 8975.13027 9051.61879 0.0000788
2.67000 5513.16390 5404.09418 0.0001083
2.68000 3726.53396 3455.90934 0.0001341
2.69000 2716.12425 2526.85709 0.0001551
2.70000 2134.41839 2095.94971 0.0001705
2.71000 1862.89966 1876.38394 0.0001779
2.72000 1628.67032 1743.34461 0.0001865
2.73000 1509.90409 1648.89824 0.0001896
2.74000 1483.04879 1576.44692 0.0001910
2.75000 1397.17774 1518.79448 0.0001934
2.76000 1353.76354 1472.02841 0.0001954
2.77000 1338.33213 1433.59286 0.0001951
2.78000 1274.86900 1402.39090 0.0001980
2.79000 1271.16231 1375.69151 0.0001974
2.80000 1285.88232 1353.22260 0.0001968
2.81000 1265.25763 1334.25837 0.0001973
2.82000 1255.56299 1318.25862 0.0001973
2.83000 1264.99710 1304.82615 0.0001967
2.84000 1238.26075 1293.67859 0.0001975
2.85000 1204.78431 1284.63091 0.0001989
2.86000 1242.43098 1277.58675 0.0001964
2.87000 1203.62210 1272.53776 0.0001987
2.88000 1214.68406 1269.57186 0.0001972
2.89000 1235.25053 1268.89343 0.0001967
2.90000 1242.01054 1270.86631 0.0001957
2.91000 1236.50780 1276.12514 0.0001962
2.92000 1284.83239 1285.94074 0.0001935
2.93000 1301.27242 1303.47716 0.0001933
2.94000 1297.94168 1337.58447 0.0001925
2.95000 1412.92718 1411.82642 0.0001885
2.96000 1616.15124 1579.57403 0.0001811
2.97000 1917.19053 1936.07103 0.0001714
2.98000 2496.90605 2601.91148 0.0001559
2.99000 3460.77339 3650.88259 0.0001353
3.00000 4778.43996 4995.57205 0.0001147
3.01000 6125.86928 6300.85869 0.0000991
3.02000 6785.34003 7023.29587 0.0000932
3.03000 6579.61098 6748.87967 0.0000947
3.04000 5533.25962 5642.92459 0.0001053
3.05000 4125.92277 4252.29497 0.0001233
3.06000 2907.12986 3029.91574 0.0001453
3.07000 2116.46983 2175.86962 0.0001636
3.08000 1677.71110 1654.85210 0.0001765
3.09000 1426.80636 1404.25596 0.0001840
3.10000 1291.27820 1287.38121 0.0001887
3.11000 1228.93396 1231.35226 0.0001904
3.12000 1187.44284 1200.44032 0.0001917
3.13000 1113.59542 1180.30302 0.0001942
3.14000 1123.71574 1165.79648 0.0001933
3.15000 1101.57632 1155.03183 0.0001939
3.16000 1104.65733 1147.19964 0.0001931
3.17000 1085.29638 1141.91972 0.0001942
3.18000 1073.87619 1139.08423 0.0001935
3.19000 1078.53036 1138.90688 0.0001938
3.20000 1122.83902 1142.33745 0.0001911
3.21000 1136.48868 1152.15461 0.0001907
3.22000 1180.31793 1176.39894 0.0001884
3.23000 1228.27313 1234.03148 0.0001866
3.24000 1330.51167 1360.78745 0.0001824
3.25000 1590.84860 1605.67308 0.0001742
3.26000 2020.75924 2005.99166 0.0001616
3.27000 2622.24418 2541.81806 0.0001470
3.28000 3252.74733 3095.87193 0.0001344
3.29000 3679.88337 3455.87551 0.0001269
3.30000 3656.19767 3424.18194 0.0001271
3.31000 3257.90733 3036.79598 0.0001335
3.32000 2645.02991 2523.10299 0.0001455
3.33000 2133.46754 2110.52597 0.0001564
3.34000 1865.03469 1928.48436 0.0001634
3.35000 1914.36456 1995.39846 0.0001614
3.36000 2101.50991 2232.70673 0.0001566
3.37000 2364.66854 2490.66636 0.0001499
3.38000 2421.96713 2591.62668 0.0001486
3.39000 2299.82246 2440.54607 0.0001507
3.40000 1997.65404 2113.01272 0.0001578
3.41000 1650.88682 1751.55940 0.0001664
3.42000 1351.52498 1455.34434 0.0001748
3.43000 1176.39494 1258.40692 0.0001798
3.44000 1066.63734 1147.39871 0.0001828
3.45000 1019.62393 1091.42082 0.0001841
3.46000 1020.65080 1063.75340 0.0001832
3.47000 1006.95793 1048.57941 0.0001837
3.48000 981.09632 1038.65676 0.0001835
3.49000 975.90046 1031.10437 0.0001839
3.50000 963.91986 1024.91836 0.0001829
3.51000 943.00743 1019.66977 0.0001835
3.52000 967.45402 1015.13056 0.0001818
3.53000 914.21167 1011.15371 0.0001833
3.54000 953.35873 1007.63635 0.0001811
3.55000 931.52301 1004.50494 0.0001816
3.56000 926.17025 1001.70742 0.0001808
3.57000 933.87184 999.20877 0.0001802
3.58000 932.11672 996.98868 0.0001796
3.59000 942.55851 995.04224 0.0001785
3.60000 943.36771 993.38837 0.0001784
3.61000 938.92267 992.10353 0.0001772
3.62000 933.90832 991.42765 0.0001773
3.63000 899.02034 992.02394 0.0001772
3.64000 928.87757 995.83539 0.0001762
3.65000 950.01309 1004.86628 0.0001743
3.66000 956.34789 1023.20151 0.0001740
3.67000 997.62465 1053.33116 0.0001717
3.68000 1035.21721 1093.08355 0.0001702
3.69000 1146.68381 1132.78923 0.0001662
3.70000 1149.42445 1156.11791 0.0001657
3.71000 1123.21184 1149.25484 0.0001659
3.72000 1119.65964 1116.18710 0.0001652
3.73000 1037.23379 1073.59673 0.0001668
3.74000 1005.64209 1035.83041 0.0001669
3.75000 972.95804 1009.48333 0.0001672
3.76000 968.78398 994.52674 0.0001664
3.77000 911.33637 987.70892 0.0001677
3.78000 948.98290 985.64048 0.0001655
3.79000 940.42165 986.15654 0.0001655
3.80000 937.72001 988.30173 0.0001643
3.81000 937.73843 991.88170 0.0001644
3.82000 962.92309 997.16819 0.0001623
3.83000 975.57393 1005.00773 0.0001616
3.84000 1029.04432 1017.72752 0.0001592
3.85000 1032.81275 1041.78616 0.0001587
3.86000 1102.10127 1093.30322 0.0001560
3.87000 1258.81928 1205.38765 0.0001517
3.88000 1430.99057 1429.76305 0.0001471
3.89000 1820.78536 1818.82528 0.0001386
3.90000 2501.70194 2381.20960 0.0001262
3.91000 3226.67675 3028.46814 0.0001151
3.92000 3810.52360 3555.93994 0.0001076
3.93000 4065.92009 3704.41828 0.0001042
3.94000 3721.60044 3382.42159 0.0001079
3.95000 3054.94521 2775.62603 0.0001157
3.96000 2251.61807 2140.82310 0.0001273
3.97000 1730.93875 1639.74591 0.0001354
3.98000 1371.62960 1317.65374 0.0001420
3.99000 1198.20401 1142.37687 0.0001446
4.00000 1101.99341 1057.74377 0.0001462
4.01000 1033.01459 1018.42197 0.0001467
4.02000 1016.90731 998.63144 0.0001465
4.03000 982.23406 986.84879 0.0001464
4.04000 993.60507 978.69443 0.0001454
4.05000 986.44868 972.92674 0.0001449
4.06000 978.21510 968.19543 0.0001441
4.07000 968.24265 964.49646 0.0001438
4.08000 990.52951 961.60718 0.0001424
4.09000 951.44507 959.37351 0.0001428
4.10000 981.30426 957.68631 0.0001410
4.11000 974.01749 956.46831 0.0001409
4.12000 972.71434 955.66591 0.0001398
4.13000 970.39672 955.24397 0.0001394
4.14000 964.61429 955.18263 0.0001385
4.15000 958.28987 955.47584 0.0001381
4.16000 948.82830 956.13191 0.0001373
4.17000 970.06057 957.17890 0.0001364
4.18000 986.34545 958.68604 0.0001352
4.19000 989.11187 960.83539 0.0001346
4.20000 998.91640 964.11669 0.0001336
4.21000 1000.58160 969.72279 0.0001329
4.22000 1003.78074 980.04883 0.0001322
4.23000 1048.01106 998.73342 0.0001305
4.24000 1034.02593 1029.27455 0.0001305
4.25000 1100.56930 1071.85470 0.0001283
4.26000 1127.54921 1119.81112 0.0001275
4.27000 1134.18308 1158.40855 0.0001265
4.28000 1159.65216 1170.09897 0.0001258
4.29000 1158.62188 1152.04670 0.0001248
4.30000 1101.29964 1117.56435 0.0001254
4.31000 1089.04470 1084.33339 0.0001247
4.32000 1077.20044 1062.61558 0.0001245
4.33000 1066.29916 1054.99939 0.0001239
4.34000 1071.73288 1059.41525 0.0001233
4.35000 1080.68688 1072.78601 0.0001225
4.36000 1087.61563 1093.28601 0.0001218
4.37000 1131.76613 1121.14885 0.0001206
4.38000 1141.75228 1159.61328 0.0001197
4.39000 1225.23724 1216.60667 0.0001183
4.40000 1371.82972 1322.90723 0.0001155
4.41000 1581.62776 1538.03885 0.0001125
4.42000 2010.24568 1975.48287 0.0001067
4.43000 2749.55453 2786.94219 0.0000987
4.44000 4058.03081 4082.31194 0.0000869
4.45000 5772.83330 5793.16332 0.0000755
4.46000 7702.80071 7564.04243 0.0000657
4.47000 8995.69771 8794.30323 0.0000605
4.48000 9336.56978 9049.46059 0.0000591
4.49000 8815.08323 8680.19502 0.0000609
4.50000 8505.26708 8570.11777 0.0000619
4.51000 8981.63963 9314.34767 0.0000600
4.52000 10355.16479 10786.13343 0.0000553
4.53000 11709.28262 12112.49001 0.0000514
4.54000 11836.18567 12144.26013 0.0000510
4.55000 10336.01021 10518.11971 0.0000550
4.56000 7953.65655 7981.94790 0.0000634
4.57000 5428.89190 5484.93676 0.0000751
4.58000 3531.27437 3583.22943 0.0000876
4.59000 2487.24786 2392.07848 0.0000959
4.60000 1831.64976 1754.29022 0.0001023
4.61000 1565.06991 1446.31415 0.0001047
4.62000 1349.75586 1299.49727 0.0001070
4.63000 1280.50612 1221.96404 0.0001073
4.64000 1165.33175 1173.82360 0.0001085
4.65000 1149.45693 1140.07991 0.0001084
4.66000 1119.41867 1115.33187 0.0001085
4.67000 1113.68411 1097.03529 0.0001083
4.68000 1113.98463 1084.27648 0.0001081
4.69000 1092.83343 1077.04434 0.0001082
4.70000 1127.91828 1077.25414 0.0001073
4.71000 1123.78324 1091.36258 0.0001075
4.72000 1185.91713 1135.02095 0.0001064
4.73000 1251.95565 1237.19825 0.0001057
4.74000 1436.67299 1435.91051 0.0001033
4.75000 1664.86065 1756.48850 0.0001010
4.76000 2096.21350 2175.27756 0.0000965
4.77000 2432.81017 2589.81726 0.0000935
4.78000 2645.74952 2826.52764 0.0000915
4.79000 2627.37006 2745.97868 0.0000917
4.80000 2335.97195 2397.29779 0.0000940
4.81000 1930.44373 1957.00403 0.0000978
4.82000 1565.64732 1570.73094 0.0001013
4.83000 1363.66018 1301.80616 0.0001034
4.84000 1223.69957 1146.33538 0.0001049
4.85000 1150.83495 1068.61140 0.0001057
4.86000 1113.58270 1033.44660 0.0001062
4.87000 1135.61862 1018.42665 0.0001058
4.88000 1075.96117 1013.66430 0.0001068
4.89000 1115.74027 1017.89154 0.0001061
4.90000 1113.72571 1036.29776 0.0001064
4.91000 1172.01588 1079.45380 0.0001056
4.92000 1215.00835 1159.46310 0.0001056
4.93000 1350.68929 1280.57979 0.0001038
4.94000 1470.38476 1427.40419 0.0001028
4.95000 1596.37225 1558.93471 0.0001015
4.96000 1648.58700 1620.68889 0.0001012
4.97000 1637.37399 1592.70373 0.0001013
4.98000 1586.87816 1520.46911 0.0001021
4.99000 1526.09367 1463.11705 0.0001028
5.00000 1512.17924 1443.88423 0.0001031
5.01000 1494.51331 1441.55590 0.0001036
5.02000 1486.88093 1411.91975 0.0001036
5.03000 1432.41433 1335.62172 0.0001047
5.04000 1324.58695 1234.64828 0.0001059
5.05000 1194.85098 1139.80330 0.0001079
5.06000 1173.95172 1068.96664 0.0001081
5.07000 1085.30613 1025.42273 0.0001097
5.08000 1097.05974 1002.67830 0.0001096
5.09000 1073.15091 992.34358 0.0001104
5.10000 1093.62899 988.22163 0.0001103
5.11000 1066.17976 986.98543 0.0001111
5.12000 1089.41631 987.22492 0.0001110
5.13000 1084.49379 989.11029 0.0001115
5.14000 1107.79689 991.27372 0.0001115
5.15000 1105.80244 994.49296 0.0001119
5.16000 1105.03071 999.77079 0.0001123
5.17000 1068.14392 1009.21428 0.0001131
5.18000 1087.20017 1027.72658 0.0001134
5.19000 1142.18414 1063.47991 0.0001128
5.20000 1168.79916 1126.16608 0.0001132
5.21000 1268.15708 1220.06259 0.0001120
5.22000 1358.88484 1334.67625 0.0001116
5.23000 1438.55835 1438.74707 0.0001108
5.24000 1513.17096 1486.33059 0.0001105
5.25000 1480.84408 1451.86052 0.0001111
5.26000 1387.90864 1361.87474 0.0001129
5.27000 1345.15109 1262.86398 0.0001137
5.28000 1255.24522 1186.55451 0.0001155
5.29000 1232.69787 1144.19039 0.0001162
5.30000 1192.23525 1133.02548 0.0001173
5.31000 1245.94306 1147.12699 0.0001170
5.32000 1279.12619 1188.21965 0.0001170
5.33000 1377.13405 1277.41019 0.0001162
5.34000 1586.97321 1470.50513 0.0001137
5.35000 1930.49206 1867.48927 0.0001102
5.36000 2602.62514 2593.30825 0.0001027
5.37000 3616.14166 3719.02342 0.0000936
5.38000 5083.86478 5144.93095 0.0000824
5.39000 6397.03496 6517.08157 0.0000746
5.40000 7253.97266 7280.20143 0.0000702
5.41000 7074.05313 7067.31752 0.0000714
5.42000 6175.69170 6143.56369 0.0000764
5.43000 5024.93114 5082.86568 0.0000842
5.44000 4122.04154 4250.58193 0.0000913
5.45000 3540.86912 3673.62926 0.0000969
5.46000 3125.89872 3177.09524 0.0001013
5.47000 2619.15309 2656.40487 0.0001072
5.48000 2146.12759 2154.97729 0.0001134
5.49000 1757.47371 1744.66243 0.0001192
5.50000 1447.80956 1459.96796 0.0001244
5.51000 1347.71080 1290.80142 0.0001264
5.52000 1217.17651 1202.38660 0.0001294
5.53000 1227.08897 1159.79756 0.0001296
5.54000 1187.12607 1139.99641 0.0001312
5.55000 1153.19975 1131.58304 0.0001321
5.56000 1176.52354 1130.33568 0.0001326
5.57000 1213.14914 1136.13047 0.0001325
5.58000 1210.12132 1153.15030 0.0001333
5.59000 1257.46912 1194.06818 0.0001330
5.60000 1343.73476 1287.61866 0.0001322
5.61000 1499.78350 1483.68774 0.0001300
5.62000 1854.05839 1841.97944 0.0001249
5.63000 2351.65521 2391.86794 0.0001180
5.64000 3043.80974 3074.21137 0.0001095
5.65000 3618.09020 3701.47759 0.0001034
5.66000 3955.15450 3988.79950 0.0001003
5.67000 3751.56711 3761.99636 0.0001027
5.68000 3222.53213 3167.43792 0.0001089
5.69000 2541.71289 2491.70075 0.0001184
5.70000 1992.85340 1936.46122 0.0001269
5.71000 1653.96381 1574.93783 0.0001335
5.72000 1480.30059 1387.48472 0.0001371
5.73000 1427.82477 1324.27537 0.0001390
5.74000 1482.45528 1356.95063 0.0001383
5.75000 1594.90038 1506.41114 0.0001370
5.76000 1896.46404 1847.46228 0.0001319
5.77000 2479.66383 2480.29166 0.0001231
5.78000 3375.52153 3452.75980 0.0001112
5.79000 4568.14614 4656.53397 0.0000985
5.80000 5669.69637 5756.50979 0.0000891
5.81000 6264.27333 6248.05291 0.0000848
5.82000 5889.06281 5827.21123 0.0000879
5.83000 4881.57069 4757.27950 0.0000967
5.84000 3638.55360 3543.72899 0.0001104
5.85000 2631.60307 2540.22984 0.0001246
5.86000 1945.92510 1872.18085 0.0001369
5.87000 1598.34652 1499.24378 0.0001442
5.88000 1383.34191 1317.58444 0.0001498
5.89000 1308.12486 1235.49846 0.0001520
5.90000 1235.34328 1198.05355 0.0001546
5.91000 1206.81957 1179.88130 0.0001558
5.92000 1193.42948 1171.32267 0.0001570
5.93000 1194.65330 1169.20034 0.0001576
5.94000 1203.57036 1172.76409 0.0001581
5.95000 1208.84865 1182.68119 0.0001585
5.96000 1221.38450 1201.41106 0.0001591
5.97000 1259.27207 1237.16883 0.0001587
5.98000 1395.41615 1312.01847 0.0001560
5.99000 1570.11792 1476.29668 0.0001524
6.00000 1889.09420 1820.29216 0.0001459
6.01000 2486.74608 2458.91367 0.0001347
6.02000 3505.23086 3463.28831 0.0001188
6.03000 4787.64980 4751.19894 0.0001034
6.04000 6180.19344 6000.08268 0.0000905
6.05000 6913.26489 6677.40892 0.0000852
6.06000 6711.27965 6383.05239 0.0000868
6.07000 5641.10351 5302.95117 0.0000959
6.08000 4231.56377 3979.03815 0.0001112
6.09000 2976.61737 2836.49522 0.0001298
6.10000 2167.90145 2050.91286 0.0001453
6.11000 1695.21180 1600.60850 0.0001568
6.12000 1455.10334 1378.02121 0.0001635
6.13000 1338.66875 1279.10167 0.0001673
6.14000 1254.36545 1239.23154 0.0001703
6.15000 1245.33516 1229.52778 0.0001713
6.16000 1279.45494 1242.81596 0.0001709
6.17000 1331.82984 1285.38706 0.0001700
6.18000 1404.22587 1376.76784 0.0001687
6.19000 1580.77694 1550.75656 0.0001642
6.20000 1827.83675 1846.63038 0.0001586
6.21000 2285.65331 2279.92010 0.0001481
6.22000 2749.01292 2794.60193 0.0001391
6.23000 3189.84200 3231.37425 0.0001314
6.24000 3338.23000 3369.00621 0.0001293
6.25000 3129.96696 3112.92611 0.0001332
6.26000 2641.06799 2612.42706 0.0001430
6.27000 2121.95937 2086.31356 0.0001548
6.28000 1687.14199 1671.51536 0.0001667
6.29000 1452.23865 1406.20063 0.0001739
6.30000 1305.54981 1263.01040 0.0001792
6.31000 1225.69818 1196.84153 0.0001825
6.32000 1185.08814 1169.86303 0.0001844
6.33000 1173.06892 1161.98185 0.0001854
6.34000 1175.29327 1166.95165 0.0001861
6.35000 1188.64465 1189.52291 0.0001863
6.36000 1246.17713 1246.56241 0.0001848
6.37000 1350.93970 1368.50707 0.0001821
6.38000 1586.13444 1591.16685 0.0001750
6.39000 1849.61604 1930.50089 0.0001679
6.40000 2251.07480 2346.60039 0.0001575
6.41000 2595.97267 2721.32111 0.0001501
6.42000 2780.69067 2879.68337 0.0001462
6.43000 2651.58033 2724.39232 0.0001495
6.44000 2352.60906 2357.12066 0.0001568
6.45000 1925.23753 1953.47169 0.0001687
6.46000 1649.05711 1631.45934 0.0001773
6.47000 1457.46518 1432.88060 0.0001843
6.48000 1347.38426 1350.87120 0.0001885
6.49000 1386.71160 1371.67230 0.0001877
6.50000 1480.70692 1505.17067 0.0001850
6.51000 1725.58914 1787.15499 0.0001775
6.52000 2128.30311 2250.00546 0.0001660
6.53000 2733.83598 2875.79178 0.0001512
6.54000 3320.38806 3560.81775 0.0001392
6.55000 3878.73201 4124.47333 0.0001294
6.56000 4215.55266 4430.76261 0.0001243
6.57000 4438.97452 4548.49226 0.0001210
6.58000 4508.69684 4610.58640 0.0001203
6.59000 4552.55033 4579.96283 0.0001198
6.60000 4319.19010 4276.99273 0.0001236
6.61000 3773.22602 3658.88752 0.0001327
6.62000 3001.34647 2913.64100 0.0001483
6.63000 2297.29313 2246.74185 0.0001658
6.64000 1769.29097 1762.41932 0.0001823
6.65000 1487.22984 1467.47725 0.0001927
6.66000 1318.48863 1312.13310 0.0001997
6.67000 1220.11867 1237.83010 0.0002041
6.68000 1212.17974 1203.13329 0.0002052
6.69000 1142.48115 1186.57926 0.0002086
6.70000 1157.52823 1179.89164 0.0002084
6.71000 1116.41320 1181.70659 0.0002111
6.72000 1141.42407 1194.02905 0.0002104
6.73000 1137.58219 1219.86547 0.0002112
6.74000 1220.95201 1259.71873 0.0002080
6.75000 1240.65559 1308.21739 0.0002079
6.76000 1279.31342 1352.37350 0.0002065
6.77000 1319.03410 1375.83165 0.0002055
6.78000 1324.23764 1373.98052 0.0002056
6.79000 1290.95468 1361.59890 0.0002076
6.80000 1312.49628 1359.82876 0.0002071
6.81000 1370.37590 1390.52926 0.0002052
6.82000 1476.63238 1487.94653 0.0002012
6.83000 1726.79151 1723.82538 0.0001920
6.84000 2182.98880 2233.10374 0.0001768
6.85000 3043.88038 3202.45259 0.0001537
6.86000 4507.63037 4775.22453 0.0001256
6.87000 6559.96673 6877.79911 0.0001000
6.88000 8678.05078 9060.18048 0.0000826
6.89000 10167.35335 10490.08756 0.0000736
6.90000 10193.08735 10398.58480 0.0000735
6.91000 8834.15301 8910.10851 0.0000817
6.92000 6784.89896 6872.94574 0.0000984
6.93000 4800.86321 4999.80666 0.0001223
6.94000 3405.38546 3585.57048 0.0001478
6.95000 2538.52249 2635.70367 0.0001697
6.96000 1990.33909 2045.05336 0.0001876
6.97000 1631.43870 1693.09424 0.0002014
6.98000 1420.92357 1489.01393 0.0002110
6.99000 1286.92397 1375.14380 0.0002174
7.00000 1227.82413 1315.41479 0.0002207
7.01000 1247.33851 1289.05893 0.0002203
7.02000 1229.21831 1289.47872 0.0002217
7.03000 1286.71075 1327.13596 0.0002192
7.04000 1379.84512 1435.34414 0.0002154
7.05000 1609.23571 1672.09854 0.0002056
7.06000 2020.98142 2101.82284 0.0001897
7.07000 2628.32391 2744.35291 0.0001705
7.08000 3458.32616 3511.20343 0.0001495
7.09000 4065.16627 4166.70915 0.0001373
7.10000 4383.19835 4387.47864 0.0001316
7.11000 4055.63673 4029.62406 0.0001378
7.12000 3353.18283 3308.44048 0.0001527
7.13000 2546.26340 2543.41478 0.0001745
7.14000 1950.50241 1935.69631 0.0001950
7.15000 1547.52214 1543.37784 0.0002122
7.16000 1346.27584 1330.46193 0.0002220
7.17000 1228.92600 1231.11295 0.0002284
7.18000 1189.61044 1193.52038 0.0002308
7.19000 1185.82529 1186.75813 0.0002316
7.20000 1182.97579 1194.10453 0.0002321
7.21000 1219.06405 1202.82952 0.0002306
7.22000 1212.17679 1201.04434 0.0002314
7.23000 1196.31817 1183.01543 0.0002328
7.24000 1146.94405 1154.80298 0.0002358
7.25000 1137.68157 1126.12529 0.0002368
7.26000 1088.19226 1103.16839 0.0002403
7.27000 1077.09769 1087.68880 0.0002410
7.28000 1037.46715 1078.47808 0.0002442
7.29000 1048.53176 1073.37385 0.0002437
7.30000 1028.84245 1070.61283 0.0002454
7.31000 1053.82194 1069.19930 0.0002442
7.32000 1046.51897 1068.88878 0.0002455
7.33000 1030.76152 1069.40071 0.0002464
7.34000 1053.24275 1071.34766 0.0002458
7.35000 1050.31833 1075.97624 0.0002462
7.36000 1053.23655 1085.75801 0.0002466
7.37000 1077.59052 1104.30229 0.0002455
7.38000 1118.17979 1134.79305 0.0002436
7.39000 1166.41321 1176.78114 0.0002411
7.40000 1236.48391 1222.90125 0.0002375
7.41000 1264.79903 1258.11216 0.0002362
7.42000 1289.32669 1266.11742 0.0002354
7.43000 1267.87057 1247.34612 0.0002369
7.44000 1235.60920 1220.25187 0.0002391
7.45000 1182.48660 1204.86150 0.0002428
7.46000 1204.50965 1220.84339 0.0002415
7.47000 1258.38377 1294.89307 0.0002392
7.48000 1426.04710 1468.82861 0.0002301
7.49000 1731.22776 1794.14597 0.0002155
7.50000 2239.48236 2301.75858 0.0001943
7.51000 2887.66713 2956.16908 0.0001728
7.52000 3556.77539 3621.42289 0.0001550
7.53000 3982.17512 4077.39201 0.0001456
7.54000 4104.10834 4181.75979 0.0001431
7.55000 3920.48363 4024.14143 0.0001472
7.56000 3569.81273 3740.18003 0.0001554
7.57000 3155.04018 3346.75725 0.0001662
7.58000 2669.95599 2841.27360 0.0001809
7.59000 2215.51791 2313.01228 0.0001976
7.60000 1784.70984 1863.00247 0.0002161
7.61000 1476.19836 1539.64475 0.0002320
7.62000 1266.82126 1341.23722 0.0002444
7.63000 1191.57018 1237.22148 0.0002490
7.64000 1144.88907 1193.37158 0.0002527
7.65000 1150.47504 1189.28524 0.0002526
7.66000 1165.44753 1224.57522 0.0002521
7.67000 1267.47480 1315.72747 0.0002460
7.68000 1424.76704 1485.62255 0.0002374
7.69000 1695.85809 1740.71975 0.0002232
7.70000 2026.12782 2044.82093 0.0002082
7.71000 2295.94707 2304.07639 0.0001973
7.72000 2386.77366 2391.51522 0.0001941
7.73000 2278.14579 2254.20019 0.0001985
7.74000 1983.64985 1980.61269 0.0002112
7.75000 1687.46068 1698.77970 0.0002254
7.76000 1482.50750 1493.03137 0.0002367
7.77000 1383.08309 1399.48474 0.0002429
7.78000 1420.88182 1428.89637 0.0002410
7.79000 1604.30203 1590.19007 0.0002311
7.80000 1929.63239 1897.20509 0.0002152
7.81000 2382.50573 2358.39109 0.0001963
7.82000 3021.36942 2957.78905 0.0001746
7.83000 3636.79258 3639.96987 0.0001579
7.84000 4348.32500 4336.47324 0.0001420
7.85000 4913.12681 4972.31825 0.0001316
7.86000 5262.33364 5347.35461 0.0001259
7.87000 5110.25112 5178.44679 0.0001285
7.88000 4459.01983 4448.18155 0.0001403
7.89000 3488.42263 3474.30591 0.0001627
7.90000 2572.39429 2577.10048 0.0001913
7.91000 1899.98905 1918.94405 0.0002199
7.92000 1511.41309 1515.94774 0.0002407
7.93000 1306.07729 1301.82719 0.0002538
7.94000 1178.05213 1197.61940 0.0002627
7.95000 1092.36798 1146.58047 0.0002693
7.96000 1069.19859 1118.64110 0.0002711
7.97000 1069.81863 1100.90074 0.0002718
7.98000 1018.92702 1088.48861 0.0002759
7.99000 1031.99746 1079.54399 0.0002755
8.00000 1030.65901 1073.09907 0.0002760
8.01000 1039.04802 1069.06390 0.0002757
8.02000 1027.27998 1067.13082 0.0002773
8.03000 1016.66702 1067.43073 0.0002782
8.04000 1020.23799 1070.85276 0.0002788
8.05000 1048.06214 1078.63359 0.0002769
8.06000 1056.02329 1094.81816 0.0002769
8.07000 1109.87338 1126.61781 0.0002732
8.08000 1166.19120 1186.06283 0.0002696
8.09000 1292.34195 1291.34852 0.0002609
8.10000 1467.87474 1466.85174 0.0002501
8.11000 1710.38293 1736.38276 0.0002360
8.12000 2127.36884 2105.80010 0.0002152
8.13000 2579.57466 2544.53887 0.0001963
8.14000 3054.46466 2958.65985 0.0001798
8.15000 3297.89663 3176.84175 0.0001724
8.16000 3208.04922 3052.22043 0.0001754
8.17000 2806.59514 2641.48820 0.0001888
8.18000 2233.47018 2141.10596 0.0002121
8.19000 1777.91531 1707.90990 0.0002351
8.20000 1453.34424 1407.65274 0.0002549
8.21000 1247.68062 1233.71981 0.0002696
8.22000 1143.86903 1146.75648 0.0002777
8.23000 1092.57628 1107.70331 0.0002825
8.24000 1085.05423 1091.55302 0.0002833
8.25000 1056.96264 1086.30366 0.0002864
8.26000 1071.48934 1087.34251 0.0002854
8.27000 1048.06767 1093.03491 0.0002882
8.28000 1078.92585 1102.54667 0.0002861
8.29000 1088.64019 1115.33399 0.0002859
8.30000 1120.20405 1132.33588 0.0002836
8.31000 1146.00569 1159.18351 0.0002823
8.32000 1224.33612 1211.51297 0.0002766
8.33000 1332.24778 1325.09930 0.0002691
8.34000 1570.57810 1569.76503 0.0002531
8.35000 1999.22517 2047.35817 0.0002288
8.36000 2729.88798 2849.02537 0.0001961
8.37000 3825.01320 3965.84932 0.0001617
8.38000 4983.06927 5189.83655 0.0001363
8.39000 5937.19671 6080.21313 0.0001207
8.40000 6069.40128 6146.32192 0.0001189
8.41000 5372.23523 5345.53813 0.0001298
8.42000 4202.36631 4137.04479 0.0001532
8.43000 3023.24910 2986.71014 0.0001872
8.44000 2162.77979 2135.26067 0.0002235
8.45000 1648.95166 1614.68861 0.0002528
8.46000 1379.40408 1341.23949 0.0002720
8.47000 1241.17546 1210.87680 0.0002832
8.48000 1171.95894 1149.49713 0.0002894
8.49000 1121.96770 1118.81151 0.0002940
8.50000 1104.07114 1104.16571 0.0002965
8.51000 1119.87544 1103.18390 0.0002953
8.52000 1118.11108 1119.08368 0.0002962
8.53000 1163.48695 1155.67414 0.0002929
8.54000 1209.53798 1211.49872 0.0002895
8.55000 1279.06984 1274.44630 0.0002842
8.56000 1331.95719 1320.03681 0.0002807
8.57000 1332.85648 1322.45746 0.0002809
8.58000 1313.76289 1282.94166 0.0002830
8.59000 1269.87007 1231.79560 0.0002871
8.60000 1245.13656 1204.12580 0.0002897
8.61000 1248.01497 1232.51932 0.0002899
8.62000 1368.36039 1347.80145 0.0002806
8.63000 1570.41268 1571.02203 0.0002661
8.64000 1913.49434 1891.64641 0.0002440
8.65000 2228.96486 2242.25030 0.0002270
8.66000 2525.12365 2490.07418 0.0002129
8.67000 2517.17071 2493.34907 0.0002136
8.68000 2321.25221 2251.15997 0.0002232
8.69000 1965.52883 1901.68826 0.0002429
8.70000 1628.22211 1576.85792 0.0002647
8.71000 1360.02783 1342.08225 0.0002857
8.72000 1239.97193 1203.93169 0.0002961
8.73000 1173.40564 1137.89220 0.0003026
8.74000 1141.75572 1116.30285 0.0003059
8.75000 1158.81140 1124.06312 0.0003050
8.76000 1203.50349 1164.83443 0.0003011
8.77000 1307.35135 1264.96370 0.0002925
8.78000 1498.26954 1474.06906 0.0002774
8.79000 1871.55160 1849.50593 0.0002517
8.80000 2425.05334 2413.66897 0.0002211
8.81000 3122.25227 3096.49443 0.0001918
8.82000 3727.31430 3697.72064 0.0001720
8.83000 4015.41752 3927.15665 0.0001639
8.84000 3750.81237 3638.57216 0.0001716
8.85000 3172.09883 3015.71358 0.0001905
8.86000 2452.02267 2349.40937 0.0002212
8.87000 1901.14714 1828.66721 0.0002521
8.88000 1569.37526 1518.40475 0.0002754
8.89000 1445.39453 1397.61537 0.0002853
8.90000 1436.68216 1409.86371 0.0002865
8.91000 1514.32401 1492.82484 0.0002804
8.92000 1560.56720 1583.89691 0.0002772
8.93000 1642.67649 1626.42707 0.0002712
8.94000 1585.57772 1601.54194 0.0002757
8.95000 1551.08689 1531.49780 0.0002786
8.96000 1428.38666 1437.86114 0.0002887
8.97000 1348.97024 1335.00424 0.0002956
8.98000 1269.92789 1241.65849 0.0003030
8.99000 1194.22971 1172.05713 0.0003102
9.00000 1163.47918 1131.37451 0.0003138
9.01000 1157.66077 1121.76100 0.0003142
9.02000 1189.48967 1149.69288 0.0003116
9.03000 1275.69018 1235.81488 0.0003035
9.04000 1456.73563 1414.73027 0.0002876
9.05000 1734.88422 1720.26000 0.0002668
9.06000 2161.89761 2149.81247 0.0002393
9.07000 2612.88048 2626.13603 0.0002162
9.08000 2983.20568 2981.96092 0.0002002
9.09000 3050.92836 3026.85229 0.0001976
9.10000 2823.08991 2740.18882 0.0002069
9.11000 2395.44258 2304.14326 0.0002272
9.12000 2002.75494 1917.85398 0.0002494
9.13000 1759.21593 1706.53548 0.0002657
9.14000 1783.31255 1720.74747 0.0002639
9.15000 1962.57804 1949.22472 0.0002522
9.16000 2328.63581 2323.16356 0.0002307
9.17000 2665.29762 2709.84701 0.0002142
9.18000 2884.23029 2926.12460 0.0002046
9.19000 2866.68992 2854.70826 0.0002054
9.20000 2598.55002 2564.84877 0.0002173
9.21000 2220.62433 2195.07829 0.0002368
9.22000 1890.66682 1838.09232 0.0002568
9.23000 1601.95493 1546.75082 0.0002775
9.24000 1396.97476 1340.94166 0.0002941
9.25000 1271.07746 1211.98158 0.0003054
9.26000 1198.37405 1140.78042 0.0003123
9.27000 1145.48410 1111.08184 0.0003176
9.28000 1137.02733 1114.72127 0.0003184
9.29000 1161.38074 1152.20157 0.0003156
9.30000 1212.56940 1227.21161 0.0003110
9.31000 1288.50956 1336.80049 0.0003036
9.32000 1391.85484 1459.52405 0.0002943
9.33000 1474.23123 1552.16047 0.0002873
9.34000 1486.68364 1567.80021 0.0002863
9.35000 1452.47168 1507.48220 0.0002888
9.36000 1396.68879 1428.14292 0.0002938
9.37000 1407.75457 1399.79504 0.0002926
9.38000 1493.23314 1483.83545 0.0002856
9.39000 1730.22501 1721.91547 0.0002673
9.40000 2110.61429 2112.69814 0.0002426
9.41000 2556.12019 2581.84272 0.0002188
9.42000 2919.07937 2965.75501 0.0002028
9.43000 3047.38996 3060.62403 0.0001975
9.44000 2857.85053 2802.35217 0.0002053
9.45000 2411.00183 2344.96408 0.0002260
9.46000 1947.13088 1881.97143 0.0002525
9.47000 1591.77739 1525.30354 0.0002773
9.48000 1387.99992 1300.82850 0.0002938
9.49000 1259.80457 1181.70785 0.0003054
9.50000 1201.93159 1127.57376 0.0003106
9.51000 1151.84247 1107.72879 0.0003159
9.52000 1148.54329 1106.96969 0.0003159
9.53000 1153.17172 1121.47736 0.0003156
9.54000 1162.56337 1152.69743 0.0003144
9.55000 1181.86779 1201.31592 0.0003127
9.56000 1228.57048 1261.95172 0.0003078
9.57000 1254.63270 1320.51016 0.0003057
9.58000 1300.65587 1358.28165 0.0003010
9.59000 1315.73413 1371.67353 0.0002999
9.60000 1372.91803 1389.38494 0.0002945
9.61000 1492.43091 1463.19354 0.0002848
9.62000 1724.52781 1659.98706 0.0002667
9.63000 2161.11623 2055.09034 0.0002390
9.64000 2866.90853 2710.65155 0.0002045
9.65000 3817.02303 3638.42064 0.0001712
9.66000 4957.25015 4745.70975 0.0001431
9.67000 6090.89201 5813.33852 0.0001232
9.68000 6910.06664 6610.73309 0.0001119
9.69000 7262.16173 6971.39682 0.0001077
9.70000 6932.25088 6687.34239 0.0001116
9.71000 5993.64986 5732.73190 0.0001247
9.72000 4723.35826 4466.01285 0.0001482
9.73000 3466.13906 3295.65154 0.0001821
9.74000 2561.48141 2442.79665 0.0002181
9.75000 2058.07064 1958.32737 0.0002448
9.76000 1909.39596 1808.52331 0.0002542
9.77000 2032.96381 1955.68623 0.0002463
9.78000 2437.03654 2381.46413 0.0002241
9.79000 3133.81194 3041.66917 0.0001937
9.80000 3919.56148 3795.52795 0.0001682
9.81000 4549.93204 4368.63666 0.0001521
9.82000 4675.22967 4452.31842 0.0001493
9.83000 4321.20572 4015.80352 0.0001575
9.84000 3611.56757 3370.69448 0.0001775
9.85000 3048.24919 2872.79291 0.0001970
9.86000 2842.78210 2761.08279 0.0002055
9.87000 3191.44767 3125.32910 0.0001916
9.88000 3910.77033 3889.08738 0.0001685
9.89000 4820.11400 4797.28477 0.0001461
9.90000 5437.82180 5435.51714 0.0001340
9.91000 5515.93292 5426.21579 0.0001326
9.92000 4947.94452 4795.03691 0.0001435
9.93000 4055.98082 3882.70961 0.0001645
9.94000 3109.71036 2984.28790 0.0001950
9.95000 2391.98788 2264.05120 0.0002267
9.96000 1881.62270 1771.63853 0.0002563
9.97000 1560.48666 1472.98561 0.0002794
9.98000 1383.58953 1306.10044 0.0002939
9.99000 1255.70988 1217.18730 0.0003057
10.00000 1199.41832 1170.40956 0.0003109
10.01000 1162.54930 1145.46623 0.0003149
10.02000 1145.59507 1132.42315 0.0003164
10.03000 1147.72898 1126.63462 0.0003163
10.04000 1147.25519 1126.90940 0.0003163
10.05000 1144.78974 1134.77577 0.0003167
10.06000 1195.29795 1156.81287 0.0003114
10.07000 1245.91550 1210.12580 0.0003070
10.08000 1371.26474 1326.45358 0.0002954
10.09000 1580.15186 1549.24400 0.0002784
10.10000 1946.62509 1913.82674 0.0002525
10.11000 2429.25039 2411.09751 0.0002253
10.12000 3000.11112 2950.89311 0.0001995
10.13000 3414.71354 3352.14988 0.0001844
10.14000 3525.96619 3436.06268 0.0001806
10.15000 3326.55384 3204.17176 0.0001875
10.16000 2888.68064 2793.26187 0.0002042
10.17000 2422.52420 2323.57918 0.0002260
10.18000 1964.62200 1893.09090 0.0002518
10.19000 1630.93426 1562.69435 0.0002752
10.20000 1393.50639 1342.26836 0.0002944
10.21000 1254.70671 1211.84055 0.0003070
10.22000 1174.91525 1144.24332 0.0003149
10.23000 1137.03547 1116.05969 0.0003186
10.24000 1126.62997 1112.26916 0.0003199
10.25000 1105.47265 1122.98373 0.0003221
10.26000 1119.64159 1139.23115 0.0003209
10.27000 1126.66149 1150.15363 0.0003200
10.28000 1137.31399 1146.17814 0.0003192
10.29000 1125.73831 1128.70067 0.0003203
10.30000 1112.99996 1109.44132 0.0003219
10.31000 1112.31876 1100.48218 0.0003217
10.32000 1113.40381 1109.47445 0.0003220
10.33000 1165.03691 1137.43975 0.0003166
10.34000 1200.49520 1176.87025 0.0003133
10.35000 1248.72368 1211.57893 0.0003085
10.36000 1250.47109 1221.26598 0.0003089
10.37000 1231.48369 1198.29606 0.0003104
10.38000 1183.91856 1156.26724 0.0003154
10.39000 1139.61341 1113.52677 0.0003197
10.40000 1087.40634 1081.20966 0.0003257
10.41000 1074.09862 1062.21349 0.0003268
10.42000 1054.76656 1055.48536 0.0003293
10.43000 1072.57331 1059.70440 0.0003270
10.44000 1079.45367 1077.04834 0.0003267
10.45000 1105.78534 1113.29410 0.0003238
10.46000 1167.13265 1174.85521 0.0003178
10.47000 1248.84348 1261.03287 0.0003097
10.48000 1345.55470 1356.88104 0.0003009
10.49000 1404.78965 1429.89367 0.0002958
10.50000 1413.41635 1442.80775 0.0002948
10.51000 1378.93126 1391.66063 0.0002982
10.52000 1307.20396 1313.00059 0.0003048
10.53000 1224.33686 1247.23661 0.0003128
10.54000 1207.28552 1221.14531 0.0003143
10.55000 1209.53709 1248.54833 0.0003144
10.56000 1283.01584 1334.15128 0.0003071
10.57000 1400.93697 1472.68994 0.0002968
10.58000 1533.41728 1642.64743 0.0002855
10.59000 1687.97807 1805.07400 0.0002735
10.60000 1781.29911 1903.98647 0.0002666
10.61000 1766.67911 1881.79446 0.0002681
10.62000 1664.51394 1745.12392 0.0002754
10.63000 1521.52400 1566.21461 0.0002870
10.64000 1372.69293 1413.34284 0.0002997
10.65000 1284.35643 1325.72965 0.0003082
10.66000 1284.95447 1321.57153 0.0003079
10.67000 1355.68358 1409.74893 0.0003016
10.68000 1539.80745 1591.22039 0.0002857
10.69000 1791.99943 1845.49037 0.0002668
10.70000 2040.59636 2113.04277 0.0002500
10.71000 2243.18350 2294.07428 0.0002383
10.72000 2279.94681 2309.04235 0.0002360
10.73000 2194.16095 2207.32831 0.0002410
10.74000 2142.42374 2146.79866 0.0002441
10.75000 2275.48003 2288.30076 0.0002364
10.76000 2709.82838 2735.66532 0.0002144
10.77000 3474.28867 3490.05989 0.0001842
10.78000 4353.34641 4407.83890 0.0001586
10.79000 5147.97540 5189.15392 0.0001408
10.80000 5487.48305 5511.78761 0.0001345
10.81000 5283.33900 5308.07925 0.0001383
10.82000 4669.49947 4710.07599 0.0001512
10.83000 3805.51250 3875.03997 0.0001739
10.84000 2987.45485 3019.94159 0.0002029
10.85000 2281.19044 2325.08927 0.0002367
10.86000 1819.80734 1857.68617 0.0002660
10.87000 1559.69093 1609.65935 0.0002855
10.88000 1496.57062 1545.09241 0.0002911
10.89000 1560.93654 1626.66166 0.0002857
10.90000 1736.93047 1814.31410 0.0002721
10.91000 1978.03784 2047.15353 0.0002553
10.92000 2158.75584 2229.86463 0.0002442
10.93000 2188.27427 2262.25916 0.0002425
10.94000 2095.66171 2140.01911 0.0002482
10.95000 1924.43409 1976.10478 0.0002590
10.96000 1809.24551 1900.34715 0.0002674
10.97000 1864.21111 1997.87619 0.0002633
10.98000 2103.96292 2284.24549 0.0002477
10.99000 2441.29819 2692.43879 0.0002287
11.00000 2786.31982 3071.20371 0.0002121
11.01000 2957.72801 3241.90812 0.0002046
11.02000 2894.55010 3148.27696 0.0002073
11.03000 2650.41332 2857.47796 0.0002184
11.04000 2281.18091 2453.21984 0.0002376
11.05000 1901.09234 2039.35108 0.0002613
11.06000 1633.70672 1704.05931 0.0002810
11.07000 1407.73565 1483.38042 0.0003002
11.08000 1337.42070 1378.97084 0.0003065
11.09000 1322.37430 1381.04336 0.0003081
11.10000 1398.48054 1477.25222 0.0003009
11.11000 1551.97894 1645.38436 0.0002879
11.12000 1767.17052 1838.43776 0.0002710
11.13000 1879.34157 1976.94802 0.0002632
11.14000 1887.88909 1978.90629 0.0002625
11.15000 1794.24201 1847.40460 0.0002694
11.16000 1614.26964 1670.86983 0.0002829
11.17000 1470.09680 1534.96076 0.0002953
11.18000 1425.81502 1482.88972 0.0002992
11.19000 1453.90110 1511.51982 0.0002968
11.20000 1514.87209 1578.91863 0.0002913
11.21000 1544.43169 1620.24830 0.0002891
11.22000 1522.27700 1585.65748 0.0002910
11.23000 1449.68518 1483.96690 0.0002974
11.24000 1305.91923 1361.88871 0.0003104
11.25000 1198.36995 1256.75325 0.0003218
11.26000 1111.78096 1184.67355 0.0003304
11.27000 1099.06406 1145.14962 0.0003322
11.28000 1063.52338 1130.97525 0.0003361
11.29000 1079.29345 1136.33591 0.0003346
11.30000 1078.34475 1159.44066 0.0003345
11.31000 1098.27380 1199.01365 0.0003327
11.32000 1128.05129 1250.37856 0.0003292
11.33000 1166.91086 1301.22361 0.0003250
11.34000 1191.74220 1334.51037 0.0003225
11.35000 1222.85174 1346.01764 0.0003194
11.36000 1250.45601 1362.88816 0.0003167
11.37000 1322.70046 1430.17743 0.0003095
11.38000 1468.80071 1588.57452 0.0002962
11.39000 1753.44798 1855.79225 0.0002730
11.40000 2083.81190 2206.35319 0.0002507
11.41000 2460.47296 2555.53345 0.0002289
11.42000 2743.38174 2780.20861 0.0002151
11.43000 2892.73574 2811.09215 0.0002085
11.44000 2805.37903 2655.25071 0.0002123
11.45000 2522.82242 2351.02480 0.0002258
11.46000 2146.31836 1988.30865 0.0002469
11.47000 1774.18553 1663.99148 0.0002718
11.48000 1455.74605 1425.22036 0.0002977
11.49000 1278.77635 1274.72658 0.0003141
11.50000 1173.30477 1192.52066 0.0003253
11.51000 1124.28223 1153.22904 0.0003301
11.52000 1080.95967 1136.78481 0.0003354
11.53000 1081.31305 1130.30095 0.0003351
11.54000 1072.27248 1126.01929 0.0003363
11.55000 1060.05331 1120.07450 0.0003377
11.56000 1064.20103 1112.73655 0.0003375
11.57000 1061.40163 1106.46117 0.0003373
11.58000 1055.66700 1103.62567 0.0003386
11.59000 1079.82170 1105.95307 0.0003354
11.60000 1086.63040 1114.10064 0.0003351
11.61000 1115.66825 1128.11555 0.0003313
11.62000 1147.41433 1145.23457 0.0003284
11.63000 1186.40481 1160.73099 0.0003240
11.64000 1191.88896 1168.20019 0.0003237
11.65000 1182.75572 1163.67394 0.0003244
11.66000 1159.27264 1150.78867 0.0003272
11.67000 1120.29567 1136.89152 0.0003311
11.68000 1102.19258 1127.05021 0.0003332
11.69000 1083.37364 1122.86756 0.0003353
11.70000 1097.31509 1124.73432 0.0003339
11.71000 1077.08771 1131.46215 0.0003361
11.72000 1104.30980 1142.84951 0.0003330
11.73000 1104.01543 1160.91367 0.0003330
11.74000 1156.16617 1192.06043 0.0003270
11.75000 1205.56190 1251.43571 0.0003221
11.76000 1333.70749 1367.24236 0.0003093
11.77000 1559.54119 1579.30868 0.0002892
11.78000 1917.03340 1923.94662 0.0002620
11.79000 2377.55944 2404.01899 0.0002338
11.80000 2963.23329 2953.93101 0.0002056
11.81000 3429.31907 3421.13936 0.0001877
11.82000 3663.47290 3634.58125 0.0001796
11.83000 3559.51330 3546.89890 0.0001831
11.84000 3214.29733 3215.29872 0.0001955
11.85000 2734.32341 2744.21384 0.0002158
11.86000 2264.30130 2284.71202 0.0002401
11.87000 1942.75849 1959.92654 0.0002602
11.88000 1819.48657 1838.01590 0.0002688
11.89000 1920.91219 1954.44745 0.0002616
11.90000 2293.67760 2316.85282 0.0002383
11.91000 2881.78734 2878.71401 0.0002090
11.92000 3501.26700 3501.87124 0.0001850
11.93000 3967.73441 3945.19075 0.0001704
11.94000 4046.26975 3976.59573 0.0001680
11.95000 3743.36246 3640.07409 0.0001772
11.96000 3308.73008 3237.93453 0.0001917
11.97000 3048.06452 3046.18482 0.0002020
11.98000 3163.78069 3176.17054 0.0001972
11.99000 3528.29252 3544.15547 0.0001841
12.00000 3871.77035 3894.32282 0.0001730
12.01000 3917.03755 3916.55508 0.0001718
12.02000 3564.02454 3516.45686 0.0001828
12.03000 2908.47636 2891.50453 0.0002077
12.04000 2277.59363 2280.17484 0.0002390
12.05000 1788.65978 1815.81006 0.0002707
12.06000 1487.09010 1526.92867 0.0002946
12.07000 1338.11873 1380.87882 0.0003081
12.08000 1273.86926 1331.29026 0.0003143
12.09000 1276.52397 1343.49082 0.0003139
12.10000 1299.52449 1395.47475 0.0003118
12.11000 1373.62433 1467.14342 0.0003045
12.12000 1440.02749 1533.02492 0.0002985
12.13000 1510.48811 1571.52349 0.0002922
12.14000 1533.48789 1597.99111 0.0002904
12.15000 1651.81036 1671.75755 0.0002805
12.16000 1863.55262 1857.97737 0.0002648
12.17000 2273.88782 2188.25419 0.0002387
12.18000 2766.87894 2629.11544 0.0002136
12.19000 3272.43346 3061.27022 0.0001926
12.20000 3518.37477 3308.24046 0.0001840
12.21000 3479.82649 3271.04894 0.0001853
12.22000 3115.20349 2992.70402 0.0001987
12.23000 2636.18517 2571.26887 0.0002195
12.24000 2156.35471 2130.64849 0.0002455
12.25000 1777.17467 1773.93612 0.0002705
12.26000 1533.35039 1544.75654 0.0002897
12.27000 1425.82036 1443.93114 0.0002987
12.28000 1428.19061 1451.82597 0.0002984
12.29000 1533.68969 1537.25016 0.0002890
12.30000 1649.86281 1655.60497 0.0002798
12.31000 1737.52299 1745.53629 0.0002729
12.32000 1742.96173 1748.46674 0.0002726
12.33000 1670.37194 1666.41844 0.0002779
12.34000 1554.56271 1562.07205 0.0002873
12.35000 1485.04621 1497.19995 0.0002926
12.36000 1499.12704 1504.12509 0.0002917
12.37000 1602.25521 1581.07318 0.0002828
12.38000 1731.03332 1693.70759 0.0002730
12.39000 1834.23228 1788.17727 0.0002653
12.40000 1873.29773 1822.16528 0.0002627
12.41000 1841.18441 1774.88129 0.0002647
12.42000 1689.97792 1653.14238 0.0002758
12.43000 1530.22316 1502.41675 0.0002883
12.44000 1365.59043 1370.14316 0.0003027
12.45000 1267.44994 1280.89857 0.0003118
12.46000 1227.91797 1239.28850 0.0003156
12.47000 1214.15738 1237.98074 0.0003168
12.48000 1260.73277 1263.97841 0.0003121
12.49000 1302.39961 1302.61602 0.0003080
12.50000 1359.23236 1340.92432 0.0003025
12.51000 1393.94906 1381.24014 0.0002993
12.52000 1491.41264 1454.91204 0.0002906
12.53000 1657.78816 1609.40611 0.0002773
12.54000 1983.63973 1880.82959 0.0002540
12.55000 2427.68044 2265.45869 0.0002283
12.56000 2898.54407 2693.27957 0.0002061
12.57000 3248.42813 3023.70057 0.0001922
12.58000 3357.15081 3128.59041 0.0001882
12.59000 3174.59787 2989.32627 0.0001949
12.60000 2795.13261 2656.61028 0.0002104
12.61000 2319.49131 2235.75524 0.0002338
12.62000 1894.48150 1848.77041 0.0002594
12.63000 1571.82154 1564.24095 0.0002830
12.64000 1407.33065 1393.67544 0.0002965
12.65000 1297.46618 1317.74051 0.0003066
12.66000 1308.42597 1305.77535 0.0003053
12.67000 1319.48040 1326.82453 0.0003043
12.68000 1346.60800 1353.63095 0.0003015
12.69000 1375.67085 1370.16469 0.0002988
12.70000 1382.74529 1387.76859 0.0002979
12.71000 1446.91480 1439.19603 0.0002923
12.72000 1563.45840 1549.88930 0.0002825
12.73000 1762.96955 1716.22590 0.0002673
12.74000 1951.17678 1892.73262 0.0002543
12.75000 2051.08571 1996.27106 0.0002482
12.76000 2041.50165 1957.81256 0.0002484
12.77000 1877.52785 1799.54069 0.0002591
12.78000 1649.28054 1604.70232 0.0002751
12.79000 1438.01115 1441.66855 0.0002922
12.80000 1348.86341 1345.68713 0.0002996
12.81000 1338.51050 1330.01760 0.0003005
12.82000 1418.38823 1399.82012 0.0002932
12.83000 1596.48771 1557.11222 0.0002786
12.84000 1868.26124 1788.88373 0.0002587
12.85000 2158.29393 2050.08317 0.0002407
12.86000 2380.48684 2256.97380 0.0002283
12.87000 2463.95193 2328.22700 0.0002240
12.88000 2429.82566 2292.74287 0.0002256
12.89000 2377.55969 2289.21516 0.0002283
12.90000 2453.63086 2441.19724 0.0002243
12.91000 2760.18422 2779.34007 0.0002098
12.92000 3133.25624 3211.78109 0.0001945
12.93000 3476.15517 3534.84024 0.0001823
12.94000 3508.65791 3555.75304 0.0001812
12.95000 3259.54101 3270.03684 0.0001897
12.96000 2806.39661 2810.79726 0.0002074
12.97000 2327.77109 2331.21953 0.0002302
12.98000 1953.80161 1959.24098 0.0002518
12.99000 1756.57953 1763.22256 0.0002647
13.00000 1757.08176 1763.07504 0.0002646
13.01000 1940.11803 1947.63235 0.0002523
13.02000 2289.11657 2270.31740 0.0002317
13.03000 2684.63754 2633.55520 0.0002122
13.04000 2929.33004 2889.23574 0.0002017
13.05000 2980.17962 2919.62677 0.0001995
13.06000 2854.18540 2786.75956 0.0002046
13.07000 2732.27897 2688.01688 0.0002097
13.08000 2787.54854 2777.54838 0.0002073
13.09000 3075.65538 3078.86214 0.0001954
13.10000 3438.57967 3464.00255 0.0001825
13.11000 3667.96195 3691.18772 0.0001751
13.12000 3602.32875 3583.27911 0.0001771
13.13000 3201.99822 3188.94235 0.0001905
13.14000 2657.75039 2662.72222 0.0002126
13.15000 2145.26338 2153.09612 0.0002383
13.16000 1743.32344 1756.87624 0.0002636
13.17000 1491.28443 1498.47071 0.0002820
13.18000 1346.25278 1356.02302 0.0002941
13.19000 1299.80960 1293.53370 0.0002978
13.20000 1300.46306 1278.25796 0.0002977
13.21000 1326.79439 1286.11587 0.0002951
13.22000 1344.95644 1302.54707 0.0002935
13.23000 1365.10019 1329.76675 0.0002916
13.24000 1428.26588 1393.94391 0.0002861
13.25000 1572.91324 1539.97792 0.0002744
13.26000 1859.41930 1816.96449 0.0002546
13.27000 2289.47976 2253.80046 0.0002291
13.28000 2895.12989 2819.09112 0.0002013
13.29000 3499.40541 3392.50246 0.0001793
13.30000 3876.19578 3776.87230 0.0001680
13.31000 3902.45865 3767.48696 0.0001672
13.32000 3483.61566 3346.70453 0.0001798
13.33000 2839.56428 2730.01496 0.0002031
13.34000 2191.36557 2142.70704 0.0002340
13.35000 1717.90639 1702.05891 0.0002628
13.36000 1417.54969 1427.15260 0.0002853
13.37000 1292.83421 1281.17175 0.0002956
13.38000 1218.19949 1214.55133 0.0003023
13.39000 1198.90813 1190.69948 0.0003036
13.40000 1173.25475 1193.23664 0.0003060
13.41000 1230.60120 1223.17876 0.0003004
13.42000 1300.81831 1288.92054 0.0002942
13.43000 1421.55594 1392.02870 0.0002838
13.44000 1559.71774 1515.31880 0.0002731
13.45000 1665.99491 1616.46086 0.0002652
13.46000 1697.49249 1640.32685 0.0002629
13.47000 1622.41336 1568.59599 0.0002681
13.48000 1481.22986 1442.69431 0.0002784
13.49000 1344.18088 1315.35348 0.0002894
13.50000 1220.77445 1217.49178 0.0002999
13.51000 1148.83188 1157.61276 0.0003064
13.52000 1121.43556 1130.38503 0.0003087
13.53000 1134.97425 1126.37116 0.0003074
13.54000 1135.18419 1138.27394 0.0003071
13.55000 1149.83503 1163.54483 0.0003056
13.56000 1210.26247 1206.41941 0.0002998
13.57000 1274.41833 1282.89390 0.0002940
13.58000 1440.79612 1425.31718 0.0002802
13.59000 1702.18567 1672.68415 0.0002609
13.60000 2116.10005 2042.13247 0.0002354
13.61000 2574.48873 2494.79839 0.0002124
13.62000 3023.93077 2911.60410 0.0001938
13.63000 3220.35616 3115.82726 0.0001867
13.64000 3135.20995 3012.49593 0.0001896
13.65000 2774.20648 2680.08160 0.0002035
13.66000 2327.16401 2263.73368 0.0002237
13.67000 1934.52390 1896.68300 0.0002453
13.68000 1690.09437 1665.20069 0.0002606
13.69000 1629.64755 1601.34580 0.0002648
13.70000 1754.87437 1698.53613 0.0002560
13.71000 1969.04916 1916.90027 0.0002428
13.72000 2263.50815 2177.50411 0.0002264
13.73000 2438.39053 2361.72901 0.0002178
13.74000 2446.18088 2365.60869 0.0002173
13.75000 2288.06028 2213.91572 0.0002250
13.76000 2075.26517 2033.85395 0.0002361
13.77000 1928.05678 1926.61238 0.0002447
13.78000 1883.85190 1914.82860 0.0002472
13.79000 1882.65353 1944.60557 0.0002472
13.80000 1862.95373 1924.25156 0.0002483
13.81000 1746.70721 1809.63027 0.0002557
13.82000 1585.73800 1638.26234 0.0002664
13.83000 1431.03692 1469.58660 0.0002779
13.84000 1314.51179 1348.28553 0.0002869
13.85000 1270.45350 1297.96368 0.0002907
13.86000 1335.75230 1325.35167 0.0002850
13.87000 1413.38540 1424.45978 0.0002789
13.88000 1590.23156 1574.12905 0.0002656
13.89000 1755.08699 1733.06801 0.0002544
13.90000 1856.40737 1845.27337 0.0002480
13.91000 1918.60441 1885.39251 0.0002441
13.92000 1944.98616 1909.70564 0.0002425
13.93000 2060.95999 2007.31960 0.0002357
13.94000 2273.79798 2221.15986 0.0002243
13.95000 2577.15544 2511.10582 0.0002101
13.96000 2839.25427 2750.80916 0.0001990
13.97000 2887.34154 2796.29417 0.0001972
13.98000 2701.84268 2617.53322 0.0002045
13.99000 2343.90780 2295.75325 0.0002208
14.00000 1980.13028 1942.86627 0.0002397
14.01000 1678.89164 1657.78553 0.0002587
14.02000 1514.76477 1491.60417 0.0002698
14.03000 1469.17080 1450.88807 0.0002733
14.04000 1552.92157 1512.61077 0.0002669
14.05000 1667.10387 1631.51450 0.0002591
14.06000 1783.73141 1744.03970 0.0002513
14.07000 1831.75951 1788.11121 0.0002484
14.08000 1800.41848 1759.97406 0.0002502
14.09000 1782.99994 1723.89947 0.0002514
14.10000 1806.59179 1740.50665 0.0002497
14.11000 1879.95919 1818.42455 0.0002453
14.12000 1983.60343 1905.65523 0.0002391
14.13000 1990.12098 1914.51972 0.0002388
14.14000 1870.10436 1801.15627 0.0002457
14.15000 1667.55698 1613.33997 0.0002586
14.16000 1457.24567 1424.73881 0.0002733
14.17000 1296.19045 1282.57239 0.0002861
14.18000 1206.63313 1203.82403 0.0002933
14.19000 1179.79473 1185.19497 0.0002957
14.20000 1200.88343 1213.60564 0.0002938
14.21000 1249.87381 1271.30715 0.0002896
14.22000 1279.57300 1335.68843 0.0002871
14.23000 1346.85424 1382.22882 0.0002816
14.24000 1368.89798 1405.35126 0.0002797
14.25000 1403.96180 1440.22386 0.0002770
14.26000 1483.95296 1541.53030 0.0002710
14.27000 1672.68697 1750.83814 0.0002578
14.28000 1953.64933 2070.57908 0.0002404
14.29000 2304.27046 2442.14166 0.0002216
14.30000 2559.30027 2749.52340 0.0002098
14.31000 2658.89073 2854.60176 0.0002055
14.32000 2533.97648 2681.84666 0.0002109
14.33000 2207.08710 2317.82281 0.0002265
14.34000 1850.04443 1924.00964 0.0002464
14.35000 1544.63711 1611.43490 0.0002664
14.36000 1393.34124 1419.73388 0.0002776
14.37000 1356.15346 1338.13937 0.0002805
14.38000 1351.43380 1335.07938 0.0002809
14.39000 1404.81622 1385.10632 0.0002766
14.40000 1503.57061 1489.07763 0.0002693
14.41000 1691.49083 1681.33036 0.0002563
14.42000 1978.81166 1996.97066 0.0002387
14.43000 2402.78089 2422.25994 0.0002167
14.44000 2794.83830 2858.98168 0.0001998
14.45000 3048.29441 3125.03933 0.0001901
14.46000 3019.73252 3066.36815 0.0001912
14.47000 2709.81077 2721.58309 0.0002032
14.48000 2264.98867 2257.20585 0.0002235
14.49000 1804.70292 1820.55265 0.0002490
14.50000 1497.12729 1490.74804 0.0002697
14.51000 1273.87137 1280.02502 0.0002869
14.52000 1168.46095 1162.49173 0.0002960
14.53000 1115.45491 1104.67230 0.0003006
14.54000 1095.89850 1082.67157 0.0003027
14.55000 1108.94835 1086.85207 0.0003013
14.56000 1126.59335 1119.70905 0.0002998
14.57000 1201.09157 1190.82507 0.0002931
14.58000 1303.44440 1306.74598 0.0002846
14.59000 1462.36687 1459.42643 0.0002722
14.60000 1594.31115 1615.11004 0.0002630
14.61000 1682.70970 1714.00549 0.0002569
14.62000 1665.60048 1707.31565 0.0002581
14.63000 1597.00739 1607.63250 0.0002627
14.64000 1455.26248 1468.20356 0.0002730
14.65000 1342.10888 1345.31855 0.0002815
14.66000 1269.03069 1281.48366 0.0002877
14.67000 1276.24635 1297.75759 0.0002869
14.68000 1373.87117 1392.62278 0.0002793
14.69000 1499.32778 1539.61723 0.0002697
14.70000 1623.20407 1682.82800 0.0002612
14.71000 1665.30388 1744.58606 0.0002582
14.72000 1600.67304 1679.05143 0.0002628
14.73000 1475.08353 1525.44887 0.0002717
14.74000 1335.25547 1355.55361 0.0002825
14.75000 1213.55498 1216.23724 0.0002925
14.76000 1131.79096 1122.78170 0.0002998
14.77000 1083.29010 1067.73282 0.0003041
14.78000 1050.50762 1036.60390 0.0003074
14.79000 1048.37170 1018.78790 0.0003074
14.80000 1030.43434 1009.68578 0.0003094
14.81000 1010.30092 1008.65820 0.0003111
14.82000 1023.22097 1017.12486 0.0003101
14.83000 1047.55825 1036.80566 0.0003076
14.84000 1077.96345 1067.73780 0.0003050
14.85000 1117.41054 1107.13510 0.0003013
14.86000 1166.04859 1149.34136 0.0002970
14.87000 1198.73144 1191.55887 0.0002941
14.88000 1247.90804 1244.68230 0.0002900
14.89000 1352.41292 1332.42523 0.0002815
14.90000 1461.57026 1468.79514 0.0002731
14.91000 1618.67326 1638.58406 0.0002618
14.92000 1766.06759 1788.51146 0.0002523
14.93000 1835.73627 1847.76876 0.0002478
14.94000 1779.10773 1790.69434 0.0002515
14.95000 1648.26947 1650.18431 0.0002599
14.96000 1502.59505 1484.73742 0.0002703
14.97000 1348.30606 1352.81959 0.0002819
14.98000 1297.94217 1289.16994 0.0002862
14.99000 1294.07323 1300.49449 0.0002864
15.00000 1358.69743 1370.43521 0.0002813
15.01000 1442.63314 1464.21342 0.0002748
15.02000 1507.41217 1536.96003 0.0002701
15.03000 1538.58993 1564.35896 0.0002677
15.04000 1561.67381 1577.49709 0.0002662
15.05000 1643.60614 1632.31811 0.0002604
15.06000 1761.23404 1756.38038 0.0002529
15.07000 1931.96626 1924.80269 0.0002423
15.08000 2065.08354 2062.26014 0.0002348
15.09000 2104.90453 2091.82771 0.0002326
15.10000 1980.35087 1990.34556 0.0002396
15.11000 1788.24942 1790.06553 0.0002511
15.12000 1557.07993 1564.93439 0.0002667
15.13000 1371.24520 1381.85724 0.0002805
15.14000 1265.84899 1271.53105 0.0002892
15.15000 1240.85258 1231.20371 0.0002913
15.16000 1245.55644 1237.02609 0.0002910
15.17000 1268.86011 1254.60629 0.0002887
15.18000 1262.26253 1253.82509 0.0002896
15.19000 1236.68588 1232.71093 0.0002917
15.20000 1218.44396 1216.87692 0.0002934
15.21000 1226.73430 1232.41513 0.0002925
15.22000 1270.51649 1289.63259 0.0002890
15.23000 1357.40901 1376.33683 0.0002818
15.24000 1446.44125 1458.57842 0.0002750
15.25000 1463.95710 1491.60705 0.0002736
15.26000 1425.55569 1448.96799 0.0002766
15.27000 1331.53796 1354.15484 0.0002839
15.28000 1239.76942 1255.30711 0.0002916
15.29000 1176.65329 1187.13183 0.0002969
15.30000 1154.44628 1161.52088 0.0002991
15.31000 1189.42943 1170.98707 0.0002958
15.32000 1197.10649 1195.73402 0.0002953
15.33000 1229.35032 1215.05068 0.0002923
15.34000 1238.80586 1225.58324 0.0002918
15.35000 1258.87153 1243.60461 0.0002899
15.36000 1299.58611 1281.59442 0.0002866
15.37000 1349.43731 1331.51787 0.0002825
15.38000 1381.77664 1363.21993 0.0002800
15.39000 1372.05438 1343.86273 0.0002807
15.40000 1293.83528 1275.17114 0.0002871
15.41000 1207.00559 1189.48241 0.0002944
15.42000 1125.36203 1116.47450 0.0003016
15.43000 1064.55347 1071.82764 0.0003071
15.44000 1060.75947 1058.95138 0.0003077
15.45000 1062.57633 1072.93774 0.0003072
15.46000 1095.70179 1105.01776 0.0003043
15.47000 1144.30989 1144.32559 0.0002998
15.48000 1162.27942 1182.84093 0.0002982
15.49000 1202.40310 1225.26755 0.0002945
15.50000 1254.54867 1288.67498 0.0002902
15.51000 1333.70120 1380.69426 0.0002836
15.52000 1421.43284 1482.76465 0.0002767
15.53000 1471.90428 1548.02428 0.0002728
15.54000 1465.57798 1529.04185 0.0002734
15.55000 1373.00530 1431.90332 0.0002803
15.56000 1265.76142 1308.80587 0.0002892
15.57000 1155.79197 1208.16085 0.0002984
15.58000 1123.67877 1157.04171 0.0003015
15.59000 1137.64060 1162.83855 0.0003001
15.60000 1185.29772 1216.46777 0.0002959
15.61000 1249.01925 1294.26914 0.0002902
15.62000 1290.62348 1358.93327 0.0002868
15.63000 1304.16856 1370.63524 0.0002856
15.64000 1260.03372 1320.34186 0.0002894
15.65000 1200.37708 1239.37364 0.0002942
15.66000 1149.30036 1163.05689 0.0002989
15.67000 1105.96729 1109.69596 0.0003026
15.68000 1080.45116 1080.17758 0.0003050
15.69000 1085.33198 1064.88645 0.0003044
15.70000 1083.62352 1052.99189 0.0003047
15.71000 1065.69315 1038.99006 0.0003062
15.72000 1030.66694 1025.00724 0.0003096
15.73000 1029.86348 1016.67592 0.0003095
15.74000 1014.00776 1018.13551 0.0003111
15.75000 1032.22662 1030.09938 0.0003092
15.76000 1046.25016 1050.33932 0.0003079
15.77000 1076.14461 1074.56524 0.0003049
15.78000 1107.50344 1101.27338 0.0003022
15.79000 1124.91060 1137.39218 0.0003003
15.80000 1170.17017 1194.05360 0.0002963
15.81000 1243.74046 1272.13104 0.0002899
15.82000 1314.79219 1354.27411 0.0002841
15.83000 1358.27921 1406.04881 0.0002804
15.84000 1375.61616 1400.27296 0.0002791
15.85000 1329.56553 1341.88647 0.0002826
15.86000 1255.67427 1257.08090 0.0002887
15.87000 1161.72995 1176.61077 0.0002965
15.88000 1112.39158 1121.84057 0.0003009
15.89000 1108.26063 1099.69491 0.0003011
15.90000 1115.97022 1106.51959 0.0003005
15.91000 1145.25932 1133.87495 0.0002976
15.92000 1188.88184 1174.00141 0.0002940
15.93000 1246.79342 1227.92778 0.0002888
15.94000 1315.33775 1308.36581 0.0002832
15.95000 1423.39260 1422.24889 0.0002746
15.96000 1540.31994 1550.73199 0.0002662
15.97000 1614.43115 1643.07728 0.0002609
15.98000 1591.63792 1639.30263 0.0002625
15.99000 1507.14377 1533.99660 0.0002683
16.00000 1335.92976 1382.07391 0.0002813
16.01000 1213.52832 1237.99545 0.0002912
16.02000 1101.28948 1129.85179 0.0003010
16.03000 1034.35371 1062.58549 0.0003071
16.04000 1018.77790 1028.10983 0.0003085
16.05000 995.58774 1016.40146 0.0003106
16.06000 995.16730 1022.18166 0.0003107
16.07000 1031.06321 1046.62930 0.0003071
16.08000 1077.26371 1094.48143 0.0003029
16.09000 1145.08349 1168.14016 0.0002967
16.10000 1230.02343 1260.35169 0.0002894
16.11000 1311.75020 1348.33035 0.0002826
16.12000 1326.12358 1395.34385 0.0002816
16.13000 1294.34799 1376.81008 0.0002840
16.14000 1238.49967 1307.40709 0.0002885
16.15000 1154.23532 1221.28574 0.0002957
16.16000 1097.66975 1147.69434 0.0003007
16.17000 1065.74313 1102.52572 0.0003036
16.18000 1066.78909 1087.94310 0.0003034
16.19000 1079.38383 1096.54557 0.0003023
16.20000 1086.77363 1115.85995 0.0003016
16.21000 1118.72257 1132.46883 0.0002987
16.22000 1127.35837 1140.81560 0.0002978
16.23000 1148.20610 1148.81017 0.0002960
16.24000 1178.89881 1165.87748 0.0002933
16.25000 1224.43105 1190.87784 0.0002895
16.26000 1244.56360 1210.09976 0.0002877
16.27000 1246.94562 1206.55604 0.0002876
16.28000 1192.21627 1177.46882 0.0002920
16.29000 1150.99179 1134.54429 0.0002957
16.30000 1086.99512 1092.70896 0.0003013
16.31000 1051.77902 1062.10108 0.0003047
16.32000 1039.33081 1046.63144 0.0003056
16.33000 1052.39113 1045.82901 0.0003046
16.34000 1057.04928 1058.55066 0.0003039
16.35000 1086.58304 1086.43005 0.0003014
16.36000 1143.97832 1136.76505 0.0002961
16.37000 1230.26597 1222.68767 0.0002890
16.38000 1371.27825 1355.09624 0.0002775
16.39000 1541.18259 1529.00041 0.0002651
16.40000 1713.29318 1711.18432 0.0002535
16.41000 1844.96595 1842.84659 0.0002453
16.42000 1863.33636 1870.30413 0.0002443
16.43000 1753.09431 1776.78960 0.0002510
16.44000 1587.00242 1602.01196 0.0002621
16.45000 1389.51755 1414.23122 0.0002763
16.46000 1229.12922 1260.94670 0.0002892
16.47000 1148.00777 1158.87128 0.0002962
16.48000 1103.05821 1104.68453 0.0003003
16.49000 1089.14348 1088.16315 0.0003016
16.50000 1109.44325 1101.16572 0.0002999
16.51000 1146.00589 1139.78811 0.0002967
16.52000 1205.30333 1199.47151 0.0002916
16.53000 1290.11747 1267.68322 0.0002846
16.54000 1333.81950 1319.82508 0.0002812
16.55000 1324.81962 1327.15678 0.0002820
16.56000 1285.51994 1284.49159 0.0002852
16.57000 1188.34684 1216.48960 0.0002935
16.58000 1133.36649 1150.63600 0.0002984
16.59000 1088.38620 1102.52159 0.0003027
16.60000 1074.66726 1076.43178 0.0003039
16.61000 1060.95088 1069.95736 0.0003054
16.62000 1093.91553 1079.40938 0.0003024
16.63000 1112.50298 1103.86385 0.0003009
16.64000 1139.40126 1147.23774 0.0002985
16.65000 1245.17431 1217.56252 0.0002897
16.66000 1350.47703 1320.09708 0.0002810
16.67000 1486.88980 1446.18497 0.0002710
16.68000 1602.42765 1566.06666 0.0002628
16.69000 1663.65012 1636.46117 0.0002588
16.70000 1640.00119 1634.96707 0.0002605
16.71000 1577.46613 1580.40921 0.0002650
16.72000 1519.61320 1522.89805 0.0002691
16.73000 1508.79596 1519.44431 0.0002702
16.74000 1602.45877 1603.42895 0.0002636
16.75000 1748.41521 1767.59292 0.0002541
16.76000 1940.46482 1958.06120 0.0002423
16.77000 2053.45208 2081.64341 0.0002361
16.78000 2026.95014 2059.51130 0.0002377
16.79000 1890.53063 1912.84001 0.0002459
16.80000 1704.61686 1732.55918 0.0002578
16.81000 1582.02852 1588.74248 0.0002665
16.82000 1499.02076 1501.30589 0.0002727
16.83000 1463.64031 1450.09070 0.0002757
16.84000 1419.69873 1402.51923 0.0002792
16.85000 1348.96332 1338.64688 0.0002852
16.86000 1255.41986 1262.44560 0.0002932
16.87000 1189.10139 1190.64073 0.0002995
16.88000 1130.04512 1135.29451 0.0003051
16.89000 1092.85111 1100.39614 0.0003089
16.90000 1079.50886 1084.76289 0.0003106
16.91000 1088.34700 1086.98802 0.0003100
16.92000 1131.83005 1108.27562 0.0003062
16.93000 1177.24731 1152.77683 0.0003024
16.94000 1268.00699 1223.57653 0.0002948
16.95000 1384.71521 1316.61457 0.0002852
16.96000 1487.76106 1414.43660 0.0002775
16.97000 1550.85259 1487.67771 0.0002730
16.98000 1563.47157 1507.90945 0.0002724
16.99000 1521.02431 1471.32725 0.0002758
17.00000 1451.88936 1413.04139 0.0002817
17.01000 1418.84264 1376.61292 0.0002846
17.02000 1432.55544 1384.50952 0.0002839
17.03000 1501.10369 1431.42084 0.0002788
17.04000 1557.49567 1486.38012 0.0002749
17.05000 1561.98645 1507.17166 0.0002750
17.06000 1529.31024 1477.08712 0.0002778
17.07000 1450.30442 1420.71392 0.0002845
17.08000 1373.20198 1368.09504 0.0002912
17.09000 1318.78687 1328.38692 0.0002964
17.10000 1265.31545 1291.00279 0.0003016
17.11000 1229.26035 1244.36814 0.0003055
17.12000 1189.17532 1192.31422 0.0003099
17.13000 1136.55391 1145.19972 0.0003154
17.14000 1103.42635 1109.67525 0.0003193
17.15000 1084.99880 1087.56567 0.0003218
17.16000 1087.78797 1077.68578 0.0003222
17.17000 1087.54541 1078.52983 0.0003227
17.18000 1113.58355 1090.95706 0.0003205
17.19000 1123.92878 1119.18307 0.0003201
17.20000 1169.70195 1169.61933 0.0003161
17.21000 1232.23711 1246.64974 0.0003105
17.22000 1333.14586 1346.30812 0.0003018
17.23000 1430.96896 1449.79085 0.0002935
17.24000 1498.80582 1524.85981 0.0002883
17.25000 1495.10019 1540.48960 0.0002891
17.26000 1445.04776 1487.76319 0.0002939
17.27000 1370.87625 1393.04102 0.0003009
17.28000 1278.12906 1295.45909 0.0003103
17.29000 1217.78115 1221.40032 0.0003167
17.30000 1182.86190 1182.90098 0.0003210
17.31000 1196.71157 1185.18658 0.0003200
17.32000 1247.54782 1233.69956 0.0003156
17.33000 1364.97342 1335.21635 0.0003049
17.34000 1518.08156 1490.37555 0.0002920
17.35000 1711.54817 1681.08579 0.0002767
17.36000 1849.30606 1859.51981 0.0002671
17.37000 1918.52151 1954.24946 0.0002626
17.38000 1863.25111 1922.26036 0.0002671
17.39000 1717.51728 1791.73700 0.0002783
17.40000 1565.84198 1629.00640 0.0002912
17.41000 1435.51471 1495.43709 0.0003032
17.42000 1397.02487 1424.19959 0.0003074
17.43000 1418.58571 1418.11345 0.0003059
17.44000 1454.48895 1459.11727 0.0003032
17.45000 1527.62727 1520.12030 0.0002973
17.46000 1600.66341 1583.93634 0.0002915
17.47000 1669.21417 1659.32956 0.0002863
17.48000 1772.17338 1758.63263 0.0002786
17.49000 1861.35299 1863.74550 0.0002724
17.50000 1895.99884 1919.69012 0.0002704
17.51000 1857.07941 1876.43422 0.0002736
17.52000 1722.80788 1750.74583 0.0002847
17.53000 1565.07368 1607.02878 0.0002985
17.54000 1463.89055 1503.09621 0.0003086
17.55000 1429.32555 1470.24869 0.0003125
17.56000 1482.28770 1512.19510 0.0003080
17.57000 1583.15431 1611.39574 0.0002993
17.58000 1698.42303 1738.13029 0.0002899
17.59000 1829.74421 1867.89518 0.0002797
17.60000 1977.82585 2010.75089 0.0002690
17.61000 2151.48354 2191.45367 0.0002574
17.62000 2320.16877 2389.54291 0.0002471
17.63000 2426.20747 2516.04411 0.0002413
17.64000 2365.25247 2464.19404 0.0002452
17.65000 2151.00472 2233.75352 0.0002592
17.66000 1848.91345 1932.14347 0.0002817
17.67000 1598.86918 1659.98713 0.0003037
17.68000 1421.57173 1467.88706 0.0003215
17.69000 1342.61247 1362.73691 0.0003307
17.70000 1328.54195 1324.43919 0.0003328
17.71000 1335.60586 1324.47422 0.0003328
17.72000 1349.88814 1340.71863 0.0003318
17.73000 1400.38257 1370.09515 0.0003271
17.74000 1459.04331 1426.23171 0.0003213
17.75000 1585.09594 1518.59576 0.0003096
17.76000 1724.80502 1635.35193 0.0002970
17.77000 1817.13500 1739.10888 0.0002898
17.78000 1852.47510 1779.80747 0.0002873
17.79000 1796.40549 1727.53728 0.0002925
17.80000 1654.80325 1606.54213 0.0003057
17.81000 1510.98701 1471.60157 0.0003204
17.82000 1399.73588 1362.82953 0.0003329
17.83000 1343.47422 1294.77500 0.0003399
17.84000 1305.67484 1263.27422 0.0003450
17.85000 1305.01932 1256.53834 0.0003457
17.86000 1308.66992 1269.17239 0.0003459
17.87000 1344.20926 1306.51878 0.0003423
17.88000 1385.57375 1374.18709 0.0003383
17.89000 1475.49578 1465.94444 0.0003289
17.90000 1559.42533 1557.30088 0.0003204
17.91000 1582.79237 1608.36642 0.0003187
17.92000 1571.62740 1587.73322 0.0003203
17.93000 1485.35579 1507.74296 0.0003299
17.94000 1398.95306 1411.28641 0.0003403
17.95000 1356.93439 1335.60398 0.0003458
17.96000 1336.36347 1303.87159 0.0003488
17.97000 1391.35544 1331.48050 0.0003429
17.98000 1501.69239 1431.99735 0.0003308
17.99000 1716.36677 1615.60345 0.0003093
18.00000 1973.86949 1875.61815 0.0002870
18.01000 2270.90426 2168.61530 0.0002647
18.02000 2467.02930 2401.33194 0.0002520
18.03000 2494.53274 2460.55557 0.0002505
18.04000 2342.59953 2315.88956 0.0002608
18.05000 2046.04728 2049.64672 0.0002829
18.06000 1745.99399 1767.71308 0.0003097
18.07000 1516.43810 1540.93175 0.0003337
18.08000 1385.33743 1394.43548 0.0003496
18.09000 1300.56066 1320.05892 0.0003607
18.10000 1299.93297 1295.28321 0.0003616
18.11000 1311.64170 1298.33737 0.0003604
18.12000 1343.28900 1317.93380 0.0003571
18.13000 1403.25590 1351.08462 0.0003499
18.14000 1444.04543 1390.40125 0.0003457
18.15000 1479.91245 1416.82408 0.0003417
18.16000 1455.38151 1408.17187 0.0003452
18.17000 1407.15804 1364.57379 0.0003514
18.18000 1343.07287 1310.00192 0.0003602
18.19000 1301.10833 1267.93963 0.0003661
18.20000 1285.49019 1251.16516 0.0003687
18.21000 1295.52728 1260.85561 0.0003678
18.22000 1347.41257 1288.46334 0.0003615
18.23000 1379.16029 1319.12887 0.0003577
18.24000 1397.48703 1339.88931 0.0003560
18.25000 1408.72975 1354.17682 0.0003548
18.26000 1451.63407 1378.75257 0.0003499
18.27000 1476.25743 1423.67660 0.0003473
18.28000 1529.73877 1482.24624 0.0003413
18.29000 1569.67473 1533.11299 0.0003372
18.30000 1572.38870 1554.51232 0.0003372
18.31000 1552.17834 1547.37631 0.0003399
18.32000 1535.40699 1544.02307 0.0003421
18.33000 1563.28848 1578.66463 0.0003393
18.34000 1646.16314 1660.49665 0.0003303
18.35000 1726.28793 1766.15526 0.0003222
18.36000 1805.10284 1845.58824 0.0003144
18.37000 1825.27353 1858.89517 0.0003129
18.38000 1810.90194 1824.20187 0.0003143
18.39000 1802.33955 1791.01639 0.0003156
18.40000 1804.47040 1783.28861 0.0003155
18.41000 1830.55739 1783.74810 0.0003134
18.42000 1812.58862 1755.29129 0.0003153
18.43000 1740.27259 1676.21044 0.0003230
18.44000 1591.33868 1558.05101 0.0003395
18.45000 1450.40027 1434.69986 0.0003570
18.46000 1332.66010 1334.48599 0.0003729
18.47000 1265.87909 1270.60877 0.0003830
18.48000 1238.90122 1246.27287 0.0003871
18.49000 1264.40341 1262.11623 0.0003839
18.50000 1333.93874 1320.64813 0.0003741
18.51000 1436.70874 1424.10361 0.0003606
18.52000 1596.18491 1566.17178 0.0003412
18.53000 1734.67042 1722.18446 0.0003261
18.54000 1864.22702 1847.92462 0.0003130
18.55000 1882.37484 1898.65732 0.0003116
18.56000 1833.80985 1863.21774 0.0003165
18.57000 1743.07442 1786.00164 0.0003260
18.58000 1696.76570 1731.67314 0.0003313
18.59000 1715.91047 1737.34532 0.0003294
18.60000 1778.90415 1799.49949 0.0003229
18.61000 1848.04633 1880.09066 0.0003160
18.62000 1889.63805 1934.08610 0.0003122
18.63000 1916.55293 1958.26545 0.0003096
18.64000 1925.19377 1980.48232 0.0003091
18.65000 1942.16645 2003.12352 0.0003075
18.66000 1899.22458 1986.28758 0.0003119
18.67000 1815.66250 1891.86961 0.0003204
18.68000 1668.66378 1740.93152 0.0003364
18.69000 1533.65055 1589.09379 0.0003525
18.70000 1441.81199 1478.82892 0.0003647
18.71000 1386.00288 1428.73759 0.0003721
18.72000 1430.44271 1438.24381 0.0003665
18.73000 1502.07071 1495.83039 0.0003572
18.74000 1604.48704 1587.83358 0.0003449
18.75000 1710.81380 1709.45312 0.0003327
18.76000 1878.57830 1863.72012 0.0003154
18.77000 2044.28290 2033.27555 0.0002998
18.78000 2124.52486 2159.44614 0.0002929
18.79000 2128.57545 2166.97152 0.0002926
18.80000 1978.46567 2045.48541 0.0003062
18.81000 1794.20868 1867.71673 0.0003246
18.82000 1654.52555 1716.47778 0.0003403
18.83000 1599.62000 1640.68291 0.0003468
18.84000 1620.52675 1646.84750 0.0003443
18.85000 1693.79865 1703.52028 0.0003362
18.86000 1743.25225 1753.92148 0.0003307
18.87000 1731.38714 1748.22135 0.0003321
18.88000 1683.18170 1687.71402 0.0003377
18.89000 1618.60401 1609.78181 0.0003453
18.90000 1558.91814 1539.54115 0.0003525
18.91000 1509.11804 1476.29430 0.0003592
18.92000 1444.44758 1410.14585 0.0003677
18.93000 1367.01630 1342.14081 0.0003787
18.94000 1293.86862 1280.91039 0.0003895
18.95000 1234.53469 1234.30373 0.0003990
18.96000 1199.23237 1206.99843 0.0004047
18.97000 1195.86714 1201.85818 0.0004056
18.98000 1232.33406 1222.89394 0.0003995
18.99000 1290.54592 1276.67914 0.0003908
19.00000 1393.41584 1369.49865 0.0003757
19.01000 1537.14888 1500.16324 0.0003567
19.02000 1669.58799 1650.69794 0.0003404
19.03000 1798.95111 1781.13785 0.0003264
19.04000 1840.48299 1843.74631 0.0003219
19.05000 1799.71608 1817.00220 0.0003264
19.06000 1701.58170 1724.17993 0.0003372
19.07000 1586.57480 1619.10581 0.0003510
19.08000 1525.56183 1546.87215 0.0003588
19.09000 1510.40857 1521.76691 0.0003607
19.10000 1514.93975 1528.16918 0.0003603
19.11000 1541.88067 1532.98994 0.0003567
19.12000 1527.24241 1514.61777 0.0003588
19.13000 1498.29661 1481.38942 0.0003626
19.14000 1466.18848 1448.63109 0.0003671
19.15000 1426.38923 1417.10519 0.0003723
19.16000 1398.87575 1376.96550 0.0003765
19.17000 1345.26594 1327.03128 0.0003841
19.18000 1278.21720 1278.76923 0.0003945
19.19000 1233.99622 1243.46727 0.0004013
19.20000 1216.38095 1227.98519 0.0004045
19.21000 1252.01826 1236.81621 0.0003984
19.22000 1297.80024 1275.38755 0.0003916
19.23000 1376.96580 1352.81717 0.0003797
19.24000 1516.56485 1481.68749 0.0003609
19.25000 1721.23684 1670.83643 0.0003358
19.26000 1967.63209 1908.65393 0.0003104
19.27000 2205.52254 2146.67010 0.0002890
19.28000 2324.32155 2304.75419 0.0002795
19.29000 2313.27826 2316.52588 0.0002803
19.30000 2171.42018 2179.90845 0.0002919
19.31000 1941.12488 1965.98339 0.0003130
19.32000 1747.90240 1763.03821 0.0003332
19.33000 1642.40660 1622.79931 0.0003454
19.34000 1601.48140 1554.07248 0.0003504
19.35000 1596.86944 1536.63194 0.0003509
19.36000 1626.30981 1544.90417 0.0003473
19.37000 1636.75343 1568.82990 0.0003462
19.38000 1658.00000 1603.15891 0.0003435
19.39000 1646.39770 1627.55560 0.0003451
19.40000 1610.86717 1609.90590 0.0003493
19.41000 1535.39628 1540.22052 0.0003589
19.42000 1420.71597 1444.47398 0.0003740
19.43000 1337.66681 1355.68212 0.0003864
19.44000 1270.16317 1294.67141 0.0003965
19.45000 1261.76572 1269.18818 0.0003981
19.46000 1275.25828 1278.35348 0.0003956
19.47000 1329.34922 1317.57760 0.0003877
19.48000 1419.20771 1382.76448 0.0003744
19.49000 1523.75441 1470.13849 0.0003603
19.50000 1601.94756 1566.64317 0.0003505
19.51000 1666.23897 1639.97041 0.0003429
19.52000 1652.68149 1648.44561 0.0003444
19.53000 1579.59676 1582.47023 0.0003534
19.54000 1466.49015 1478.34558 0.0003681
19.55000 1377.10252 1379.58652 0.0003807
19.56000 1285.13348 1311.42291 0.0003946
19.57000 1274.77636 1279.00638 0.0003961
19.58000 1270.26832 1272.18560 0.0003969
19.59000 1293.61132 1272.81610 0.0003930
19.60000 1274.90493 1266.43778 0.0003962
19.61000 1271.05137 1252.12993 0.0003966
19.62000 1217.85888 1236.41093 0.0004054
19.63000 1220.50892 1222.24378 0.0004047
19.64000 1202.59591 1208.31537 0.0004079
19.65000 1186.73157 1195.19627 0.0004103
19.66000 1190.43942 1188.22918 0.0004099
19.67000 1199.17439 1193.43411 0.0004082
19.68000 1220.20526 1214.92357 0.0004051
19.69000 1259.97238 1254.00825 0.0003983
19.70000 1309.84320 1309.31853 0.0003907
19.71000 1392.57093 1377.49008 0.0003784
19.72000 1482.86359 1458.11922 0.0003660
19.73000 1597.89943 1555.70758 0.0003511
19.74000 1688.08396 1664.17518 0.0003405
19.75000 1768.14230 1752.86296 0.0003314
19.76000 1789.54436 1778.84568 0.0003290
19.77000 1695.86061 1729.57115 0.0003396
19.78000 1593.75822 1636.77357 0.0003517
19.79000 1498.76835 1548.32087 0.0003638
19.80000 1463.25435 1500.09705 0.0003685
19.81000 1476.58552 1504.58812 0.0003669
19.82000 1532.90984 1553.73068 0.0003592
19.83000 1620.14705 1629.42921 0.0003484
19.84000 1719.87954 1723.74164 0.0003366
19.85000 1855.76677 1844.60174 0.0003221
19.86000 2004.57328 1985.57791 0.0003071
19.87000 2086.93673 2103.05444 0.0002998
19.88000 2098.37877 2135.45701 0.0002985
19.89000 2000.62464 2054.85973 0.0003077
19.90000 1817.21136 1891.93839 0.0003260
19.91000 1616.93292 1712.34052 0.0003488
19.92000 1515.66499 1570.88983 0.0003615
19.93000 1445.04139 1491.47221 0.0003708
19.94000 1445.24104 1471.79512 0.0003710
19.95000 1471.81307 1498.22407 0.0003673
19.96000 1546.13624 1562.81716 0.0003576
19.97000 1645.55388 1662.93157 0.0003452
19.98000 1735.41158 1781.00213 0.0003351
19.99000 1804.46785 1874.46393 0.0003272
20.00000 1793.95226 1895.74617 0.0003285
20.01000 1719.72347 1829.74561 0.0003365
20.02000 1625.53729 1709.10911 0.0003477
20.03000 1526.51108 1589.89171 0.0003599
20.04000 1456.51812 1512.58869 0.0003694
20.05000 1432.94172 1490.69711 0.0003724
20.06000 1484.89282 1516.62171 0.0003656
20.07000 1557.57244 1574.57756 0.0003560
20.08000 1653.99191 1654.70400 0.0003443
20.09000 1721.52240 1743.65395 0.0003364
20.10000 1763.73629 1805.23688 0.0003317
20.11000 1724.11974 1790.24017 0.0003362
20.12000 1630.57841 1687.07784 0.0003469
20.13000 1476.80634 1538.08816 0.0003666
20.14000 1328.95795 1392.48607 0.0003874
20.15000 1231.59689 1278.85023 0.0004029
20.16000 1185.88324 1206.15264 0.0004100
20.17000 1162.23728 1171.47339 0.0004146
20.18000 1168.21157 1168.07731 0.0004131
20.19000 1196.22538 1189.97844 0.0004087
20.20000 1258.51517 1231.32977 0.0003982
20.21000 1319.16615 1282.78332 0.0003892
20.22000 1375.02100 1328.24916 0.0003806
20.23000 1393.68402 1348.63616 0.0003781
20.24000 1359.81326 1333.63761 0.0003829
20.25000 1316.51116 1290.14005 0.0003895
20.26000 1248.29225 1237.14657 0.0003999
20.27000 1184.03420 1191.70223 0.0004105
20.28000 1152.51724 1161.97307 0.0004160
20.29000 1159.71076 1148.99075 0.0004146
20.30000 1156.76838 1150.36170 0.0004152
20.31000 1176.91567 1163.94615 0.0004116
20.32000 1216.83091 1187.93870 0.0004054
20.33000 1242.65985 1217.39432 0.0004007
20.34000 1270.13684 1243.23895 0.0003968
20.35000 1269.95041 1255.81250 0.0003964
20.36000 1262.17403 1252.68406 0.0003980
20.37000 1262.45232 1242.89948 0.0003977
20.38000 1257.48578 1239.37624 0.0003988
20.39000 1260.31752 1248.46929 0.0003979
20.40000 1276.21438 1267.08064 0.0003958
20.41000 1293.22813 1285.44394 0.0003930
20.42000 1316.62672 1298.13647 0.0003896
20.43000 1329.04349 1312.45594 0.0003876
20.44000 1355.98557 1337.69745 0.0003836
20.45000 1386.22417 1374.14466 0.0003795
20.46000 1418.01373 1414.20750 0.0003746
20.47000 1454.56865 1452.30637 0.0003698
20.48000 1504.26583 1498.90101 0.0003628
20.49000 1595.33237 1577.61929 0.0003517
20.50000 1735.79794 1701.69462 0.0003347
20.51000 1888.47608 1856.96842 0.0003188
20.52000 2019.45115 1998.79597 0.0003058
20.53000 2100.81698 2077.93289 0.0002986
20.54000 2121.84883 2093.49012 0.0002966
20.55000 2107.47787 2078.73017 0.0002981
20.56000 2057.83486 2037.88534 0.0003023
20.57000 1931.59418 1940.61557 0.0003145
20.58000 1753.22463 1778.76748 0.0003331
20.59000 1560.71701 1591.05524 0.0003561
20.60000 1370.51488 1421.24869 0.0003820
20.61000 1254.29839 1293.11444 0.0003996
20.62000 1192.19542 1212.50286 0.0004099
20.63000 1167.08902 1174.75249 0.0004140
20.64000 1181.21976 1172.01632 0.0004120
20.65000 1217.86380 1197.16253 0.0004055
20.66000 1279.98373 1242.96706 0.0003961
20.67000 1333.56552 1297.81406 0.0003874
20.68000 1369.22215 1343.26146 0.0003825
20.69000 1373.96978 1359.39457 0.0003816
20.70000 1336.60894 1338.20612 0.0003874
20.71000 1280.62342 1291.10556 0.0003958
20.72000 1226.59735 1240.50366 0.0004046
20.73000 1173.22332 1204.08315 0.0004135
20.74000 1183.92694 1190.20091 0.0004118
20.75000 1198.69636 1199.93745 0.0004093
20.76000 1253.68351 1230.60176 0.0004003
20.77000 1302.28030 1277.75193 0.0003928
20.78000 1367.67077 1331.19238 0.0003828
20.79000 1396.62516 1370.84960 0.0003789
20.80000 1404.75840 1375.01721 0.0003775
20.81000 1339.73630 1338.98838 0.0003875
20.82000 1278.79753 1278.24460 0.0003965
20.83000 1210.18532 1215.03709 0.0004080
20.84000 1166.41983 1166.45079 0.0004151
20.85000 1142.00365 1141.59954 0.0004198
20.86000 1148.72885 1143.79599 0.0004183
20.87000 1196.00953 1172.52399 0.0004106
20.88000 1244.67240 1223.09487 0.0004024
20.89000 1312.34112 1284.26984 0.0003919
20.90000 1336.51587 1336.06609 0.0003881
20.91000 1351.03891 1355.02375 0.0003861
20.92000 1328.13094 1332.24464 0.0003897
20.93000 1265.17910 1280.75713 0.0003994
20.94000 1218.70267 1222.84639 0.0004072
20.95000 1159.89461 1176.47439 0.0004169
20.96000 1142.92474 1150.52383 0.0004203
20.97000 1151.09095 1146.23650 0.0004186
20.98000 1160.87955 1160.32371 0.0004175
20.99000 1188.01865 1187.72004 0.0004123
21.00000 1236.29110 1220.99375 0.0004047
21.01000 1259.44785 1247.50284 0.0004008
21.02000 1249.87379 1252.16499 0.0004026
21.03000 1223.94834 1231.01574 0.0004068
21.04000 1188.91384 1196.72186 0.0004127
21.05000 1168.73709 1165.29411 0.0004164
21.06000 1147.32522 1147.79565 0.0004199
21.07000 1159.04451 1150.41757 0.0004182
21.08000 1200.61074 1176.62894 0.0004110
21.09000 1245.36748 1228.51521 0.0004039
21.10000 1332.30203 1306.77472 0.0003899
21.11000 1423.67516 1406.59630 0.0003770
21.12000 1502.86396 1510.91410 0.0003657
21.13000 1569.96163 1590.78500 0.0003574
21.14000 1590.95495 1623.90040 0.0003546
21.15000 1580.45093 1617.28992 0.0003560
21.16000 1581.08047 1606.03631 0.0003560
21.17000 1593.85121 1626.11265 0.0003546
21.18000 1662.83153 1688.91176 0.0003462
21.19000 1746.98010 1774.48857 0.0003363
21.20000 1807.78322 1843.79633 0.0003298
21.21000 1827.72044 1877.37531 0.0003276
21.22000 1844.02958 1889.73772 0.0003261
21.23000 1842.87397 1887.57495 0.0003260
21.24000 1785.35878 1847.83583 0.0003325
21.25000 1687.67749 1750.17552 0.0003435
21.26000 1546.40457 1612.57454 0.0003614
21.27000 1413.92429 1473.52452 0.0003794
21.28000 1308.93291 1363.65217 0.0003955
21.29000 1260.02164 1295.92617 0.0004032
21.30000 1243.67967 1267.32665 0.0004062
21.31000 1248.76693 1265.65428 0.0004054
21.32000 1279.70235 1279.36989 0.0004004
21.33000 1289.34532 1301.40335 0.0003990
21.34000 1315.10556 1321.47221 0.0003951
21.35000 1312.17978 1322.87935 0.0003958
21.36000 1282.82413 1295.29379 0.0004003
21.37000 1245.65544 1246.91738 0.0004069
21.38000 1187.11004 1194.73427 0.0004164
21.39000 1152.09882 1151.90176 0.0004231
21.40000 1127.33892 1124.02645 0.0004272
21.41000 1126.44067 1110.17707 0.0004280
21.42000 1124.70774 1105.83489 0.0004282
21.43000 1116.42147 1106.69806 0.0004299
21.44000 1106.20046 1110.28070 0.0004320
21.45000 1110.38732 1114.13460 0.0004314
21.46000 1109.57022 1114.75759 0.0004315
21.47000 1108.00612 1111.27818 0.0004321
21.48000 1106.96466 1107.98391 0.0004326
21.49000 1123.35993 1111.40229 0.0004293
21.50000 1154.95438 1127.91614 0.0004240
21.51000 1207.46048 1163.83700 0.0004145
21.52000 1260.40457 1225.18220 0.0004061
21.53000 1374.32169 1315.93900 0.0003880
21.54000 1509.53733 1435.40033 0.0003691
21.55000 1626.22827 1571.48477 0.0003537
21.56000 1727.51584 1691.23104 0.0003418
21.57000 1732.78342 1746.08915 0.0003410
21.58000 1664.34424 1708.67173 0.0003494
21.59000 1530.65417 1600.14443 0.0003665
21.60000 1406.10023 1468.20237 0.0003842
21.61000 1287.52129 1353.69054 0.0004028
21.62000 1237.18973 1275.99156 0.0004110
21.63000 1217.57259 1235.00900 0.0004149
21.64000 1224.85192 1219.93479 0.0004135
21.65000 1231.14414 1220.55696 0.0004130
21.66000 1259.88137 1230.15604 0.0004078
21.67000 1272.58267 1240.27133 0.0004062
21.68000 1269.67092 1240.43178 0.0004068
21.69000 1270.48864 1227.16613 0.0004068
21.70000 1241.17078 1208.06405 0.0004117
21.71000 1225.42153 1195.56090 0.0004147
21.72000 1230.21949 1199.39122 0.0004140
21.73000 1261.42417 1223.84595 0.0004088
21.74000 1308.75631 1267.72715 0.0004013
21.75000 1394.80631 1327.22225 0.0003878
21.76000 1464.93198 1399.98157 0.0003780
21.77000 1542.18232 1479.44352 0.0003670
21.78000 1588.58597 1544.69752 0.0003613
21.79000 1583.68432 1567.90169 0.0003617
21.80000 1539.85600 1541.05588 0.0003680
21.81000 1473.17125 1486.03315 0.0003773
21.82000 1409.62510 1435.63776 0.0003867
21.83000 1385.61503 1410.27722 0.0003904
21.84000 1383.66196 1407.98953 0.0003909
21.85000 1385.80038 1408.31791 0.0003907
21.86000 1384.69417 1390.89423 0.0003910
21.87000 1353.60324 1355.84827 0.0003962
21.88000 1326.71171 1314.14660 0.0004004
21.89000 1265.22342 1270.20958 0.0004110
21.90000 1234.79587 1223.41861 0.0004159
21.91000 1184.64171 1177.68297 0.0004252
21.92000 1146.80102 1139.89478 0.0004320
21.93000 1135.25182 1115.03057 0.0004347
21.94000 1114.23606 1106.25914 0.0004388
21.95000 1134.81495 1117.01047 0.0004349
21.96000 1175.12287 1151.43729 0.0004277
21.97000 1260.11496 1213.14369 0.0004129
21.98000 1347.69629 1300.91478 0.0003988
21.99000 1450.18925 1402.87172 0.0003831
22.00000 1506.62752 1492.68781 0.0003753
22.01000 1528.74053 1534.85037 0.0003721
22.02000 1467.41152 1508.36189 0.0003813
22.03000 1392.30053 1431.00205 0.0003923
22.04000 1294.17572 1341.30150 0.0004084
22.05000 1237.17178 1268.72586 0.0004181
22.06000 1203.33545 1225.76207 0.0004245
22.07000 1222.44715 1212.03661 0.0004212
22.08000 1224.22768 1221.17712 0.0004210
22.09000 1251.73960 1243.75009 0.0004165
22.10000 1260.99793 1265.62638 0.0004151
22.11000 1247.77325 1271.18169 0.0004176
22.12000 1226.15564 1254.99087 0.0004213
22.13000 1213.30134 1226.05242 0.0004243
22.14000 1190.12755 1198.34027 0.0004282
22.15000 1183.56874 1180.99362 0.0004300
22.16000 1187.03886 1174.44194 0.0004294
22.17000 1187.36546 1171.97753 0.0004295
22.18000 1194.31642 1166.62512 0.0004284
22.19000 1174.35755 1158.39858 0.0004323
22.20000 1166.31729 1151.08062 0.0004339
22.21000 1162.40369 1146.09073 0.0004348
22.22000 1159.91532 1142.56801 0.0004356
22.23000 1167.56944 1140.99751 0.0004342
22.24000 1176.33401 1144.77073 0.0004331
22.25000 1202.19414 1157.62852 0.0004280
22.26000 1223.32455 1179.71800 0.0004249
22.27000 1266.11183 1205.84472 0.0004171
22.28000 1290.38656 1227.42179 0.0004133
22.29000 1293.95484 1240.32723 0.0004127
22.30000 1283.96900 1246.94650 0.0004149
22.31000 1280.71741 1247.42957 0.0004154
22.32000 1272.86880 1237.87547 0.0004170
22.33000 1228.45151 1220.35032 0.0004251
22.34000 1224.70298 1206.34164 0.0004258
22.35000 1217.65487 1207.16084 0.0004277
22.36000 1243.94600 1227.78534 0.0004228
22.37000 1293.90939 1265.77318 0.0004145
22.38000 1332.67943 1312.10367 0.0004077
22.39000 1362.31275 1357.48615 0.0004034
22.40000 1393.11078 1400.23598 0.0003983
22.41000 1420.29579 1438.41285 0.0003944
22.42000 1405.44896 1458.45403 0.0003968
22.43000 1386.55341 1443.71595 0.0004000
22.44000 1337.57413 1394.64798 0.0004083
22.45000 1294.36105 1331.32376 0.0004156
22.46000 1247.76591 1279.51879 0.0004243
22.47000 1238.10149 1259.02752 0.0004259
22.48000 1285.72844 1281.03848 0.0004180
22.49000 1389.26803 1347.35460 0.0004005
22.50000 1492.62881 1449.67918 0.0003850
22.51000 1593.36072 1566.13102 0.0003706
22.52000 1656.66877 1657.07746 0.0003623
22.53000 1635.81204 1676.44143 0.0003652
22.54000 1541.83232 1611.41830 0.0003783
22.55000 1415.42740 1495.19735 0.0003975
22.56000 1311.96198 1372.79987 0.0004146
22.57000 1212.71001 1276.26339 0.0004329
22.58000 1186.28047 1221.19319 0.0004378
22.59000 1205.56700 1211.25434 0.0004346
22.60000 1261.41969 1242.75519 0.0004243
22.61000 1340.39755 1306.56435 0.0004109
22.62000 1415.50482 1386.71911 0.0003986
22.63000 1472.22421 1459.25572 0.0003901
22.64000 1487.62849 1499.31583 0.0003878
22.65000 1479.71741 1498.18201 0.0003891
22.66000 1449.59235 1473.46056 0.0003939
22.67000 1443.43874 1453.23410 0.0003949
22.68000 1444.92051 1452.47173 0.0003952
22.69000 1471.94256 1465.47920 0.0003908
22.70000 1470.30942 1474.61594 0.0003916
22.71000 1452.18650 1471.46008 0.0003943
22.72000 1418.53989 1458.92571 0.0003998
22.73000 1391.49302 1433.32097 0.0004043
22.74000 1329.11189 1385.44345 0.0004151
22.75000 1272.06015 1319.58000 0.0004253
22.76000 1203.60585 1253.38379 0.0004381
22.77000 1173.97008 1202.06838 0.0004442
22.78000 1150.78642 1173.50618 0.0004488
22.79000 1163.21488 1169.99894 0.0004469
22.80000 1206.44132 1190.08262 0.0004383
22.81000 1259.92688 1230.01436 0.0004287
22.82000 1324.80196 1283.16333 0.0004170
22.83000 1372.47258 1336.58375 0.0004092
22.84000 1393.07449 1371.37889 0.0004059
22.85000 1379.62426 1373.66081 0.0004082
22.86000 1344.50577 1346.97700 0.0004143
22.87000 1302.34210 1310.28509 0.0004218
22.88000 1258.06747 1282.18177 0.0004303
22.89000 1251.91600 1270.45588 0.0004314
22.90000 1262.54316 1272.14409 0.0004298
22.91000 1296.56297 1281.14912 0.0004235
22.92000 1310.78098 1296.26297 0.0004213
22.93000 1342.39462 1316.51999 0.0004159
22.94000 1345.72160 1333.38390 0.0004154
22.95000 1349.01777 1333.50590 0.0004149
22.96000 1306.82067 1310.59689 0.0004225
22.97000 1261.73284 1273.65206 0.0004309
22.98000 1233.37821 1239.51140 0.0004364
22.99000 1210.29393 1220.57491 0.0004412
23.00000 1219.94166 1221.04009 0.0004392
23.01000 1235.21846 1238.79917 0.0004368
23.02000 1271.77451 1269.10328 0.0004297
23.03000 1300.69499 1303.73826 0.0004248
23.04000 1312.01390 1328.00854 0.0004228
23.05000 1298.34582 1327.21930 0.0004255
23.06000 1265.48958 1300.48419 0.0004317
23.07000 1232.74627 1262.18706 0.0004380
23.08000 1197.03369 1230.79197 0.0004452
23.09000 1203.79983 1219.36967 0.0004440
23.10000 1248.35439 1232.91426 0.0004358
23.11000 1303.94223 1268.90853 0.0004253
23.12000 1362.54169 1319.65544 0.0004153
23.13000 1397.33352 1371.65916 0.0004093
23.14000 1425.00467 1402.49854 0.0004051
23.15000 1377.68510 1390.14320 0.0004132
23.16000 1326.83662 1336.40299 0.0004220
23.17000 1235.23201 1265.17387 0.0004392
23.18000 1171.02544 1198.67119 0.0004519
23.19000 1129.51400 1148.68119 0.0004611
23.20000 1095.13040 1117.93396 0.0004684
23.21000 1097.75355 1103.64846 0.0004683
23.22000 1102.90014 1101.05407 0.0004670
23.23000 1108.45081 1105.83291 0.0004663
23.24000 1118.98497 1114.29524 0.0004639
23.25000 1138.05109 1123.50150 0.0004599
23.26000 1148.49382 1132.82725 0.0004579
23.27000 1170.85805 1145.12021 0.0004535
23.28000 1195.14637 1165.11780 0.0004489
23.29000 1244.17567 1195.90644 0.0004392
23.30000 1299.99232 1236.20374 0.0004290
23.31000 1357.95979 1280.01434 0.0004185
23.32000 1378.90470 1321.29764 0.0004150
23.33000 1414.90944 1356.80674 0.0004090
23.34000 1424.18676 1378.61805 0.0004076
23.35000 1387.35128 1373.98966 0.0004140
23.36000 1342.57192 1342.41960 0.0004218
23.37000 1281.33115 1301.78509 0.0004332
23.38000 1262.86518 1271.59880 0.0004368
23.39000 1251.48504 1261.83033 0.0004393
23.40000 1266.38610 1272.21834 0.0004362
23.41000 1302.70145 1295.08170 0.0004298
23.42000 1345.48573 1323.61869 0.0004220
23.43000 1386.41995 1357.81955 0.0004151
23.44000 1429.37141 1395.61812 0.0004078
23.45000 1453.86868 1424.88026 0.0004039
23.46000 1438.66043 1428.90492 0.0004065
23.47000 1389.82015 1402.69356 0.0004147
23.48000 1339.61265 1361.00106 0.0004239
23.49000 1288.31384 1322.21045 0.0004331
23.50000 1260.27393 1293.14846 0.0004387
23.51000 1234.19100 1268.47625 0.0004437
23.52000 1230.01809 1240.55889 0.0004449
23.53000 1187.05938 1209.80029 0.0004535
23.54000 1169.06513 1180.44656 0.0004573
23.55000 1143.72738 1154.73527 0.0004627
23.56000 1131.42042 1133.91811 0.0004655
23.57000 1125.50686 1120.63359 0.0004673
23.58000 1124.66881 1118.37441 0.0004670
23.59000 1131.42247 1131.31791 0.0004659
23.60000 1189.91523 1164.16742 0.0004535
23.61000 1266.96695 1220.27899 0.0004383
23.62000 1351.26705 1298.01172 0.0004227
23.63000 1447.28047 1386.77058 0.0004062
23.64000 1505.29606 1464.68961 0.0003972
23.65000 1514.55978 1504.86439 0.0003957
23.66000 1502.29923 1498.64029 0.0003977
23.67000 1446.38078 1467.89560 0.0004067
23.68000 1433.95152 1444.03500 0.0004090
23.69000 1453.53324 1446.41776 0.0004058
23.70000 1482.92285 1475.77270 0.0004011
23.71000 1544.38398 1516.81631 0.0003914
23.72000 1597.15977 1553.83456 0.0003834
23.73000 1622.25038 1583.63161 0.0003800
23.74000 1622.28276 1601.07539 0.0003799
23.75000 1592.73172 1589.33770 0.0003844
23.76000 1514.23917 1537.34356 0.0003963
23.77000 1419.82174 1457.00506 0.0004119
23.78000 1335.54465 1375.39997 0.0004266
23.79000 1294.15998 1317.34581 0.0004344
23.80000 1280.02702 1297.03059 0.0004372
23.81000 1330.32612 1317.49764 0.0004277
23.82000 1390.30292 1372.11566 0.0004171
23.83000 1449.95039 1445.08071 0.0004070
23.84000 1474.64392 1509.94528 0.0004031
23.85000 1481.38388 1536.18918 0.0004018
23.86000 1459.28186 1512.54715 0.0004057
23.87000 1392.04133 1457.23550 0.0004169
23.88000 1344.16299 1398.38372 0.0004255
23.89000 1329.84045 1353.31247 0.0004282
23.90000 1312.54169 1321.82600 0.0004314
23.91000 1283.52740 1291.51508 0.0004369
23.92000 1247.09288 1252.99063 0.0004438
23.93000 1183.67412 1209.31863 0.0004570
23.94000 1146.00366 1167.97458 0.0004649
23.95000 1120.53721 1133.68088 0.0004706
23.96000 1093.37815 1108.45324 0.0004766
23.97000 1087.79839 1092.65025 0.0004780
23.98000 1086.55804 1085.73599 0.0004782
23.99000 1098.69370 1087.40878 0.0004754
24.00000 1107.67392 1098.43905 0.0004735
24.01000 1138.13403 1120.01796 0.0004667
24.02000 1188.04435 1152.58284 0.0004562
24.03000 1231.45527 1193.80610 0.0004472
24.04000 1260.68283 1236.89244 0.0004415
24.05000 1275.67093 1270.83775 0.0004386
24.06000 1282.58645 1286.41497 0.0004373
24.07000 1260.36463 1286.80930 0.0004416
24.08000 1266.43407 1285.84180 0.0004402
24.09000 1258.65488 1294.47618 0.0004420
24.10000 1286.55317 1314.00484 0.0004366
24.11000 1330.92415 1338.64675 0.0004282
24.12000 1358.57231 1363.80310 0.0004233
24.13000 1388.13250 1384.87255 0.0004180
24.14000 1375.37714 1389.89952 0.0004202
24.15000 1350.66592 1366.57582 0.0004246
24.16000 1277.31457 1317.36055 0.0004383
24.17000 1209.44020 1258.50028 0.0004516
24.18000 1172.82488 1207.77046 0.0004594
24.19000 1149.89991 1176.83632 0.0004639
24.20000 1164.80237 1170.01056 0.0004609
24.21000 1196.28383 1185.00951 0.0004543
24.22000 1227.80265 1213.89002 0.0004479
24.23000 1244.52688 1244.04094 0.0004445
24.24000 1254.00654 1261.60474 0.0004423
24.25000 1247.97913 1261.99465 0.0004437
24.26000 1259.42541 1255.58903 0.0004413
24.27000 1258.60055 1255.69856 0.0004415
24.28000 1298.78766 1267.26658 0.0004339
24.29000 1297.66489 1283.99091 0.0004341
24.30000 1294.98317 1291.28668 0.0004345
24.31000 1286.07071 1278.84451 0.0004360
24.32000 1240.74254 1250.99204 0.0004448
24.33000 1195.74118 1217.25399 0.0004538
24.34000 1160.06504 1183.35807 0.0004614
24.35000 1146.69368 1153.56666 0.0004641
24.36000 1123.12303 1132.76479 0.0004692
24.37000 1122.39625 1124.84619 0.0004693
24.38000 1148.61760 1132.47766 0.0004635
24.39000 1192.40037 1157.55982 0.0004542
24.40000 1243.60236 1200.47152 0.0004439
24.41000 1313.82616 1258.72454 0.0004305
24.42000 1375.38754 1324.20836 0.0004191
24.43000 1423.57274 1380.30144 0.0004109
24.44000 1425.33608 1406.37396 0.0004105
24.45000 1388.42677 1392.20379 0.0004167
24.46000 1348.24056 1349.16842 0.0004238
24.47000 1281.86156 1300.92626 0.0004360
24.48000 1243.97625 1265.63039 0.0004432
24.49000 1236.79693 1250.01202 0.0004445
24.50000 1247.12997 1252.06408 0.0004425
24.51000 1265.85323 1266.22922 0.0004387
24.52000 1262.53155 1283.68764 0.0004393
24.53000 1257.41996 1291.46520 0.0004403
24.54000 1246.76202 1279.69114 0.0004422
24.55000 1234.12808 1251.59216 0.0004446
24.56000 1197.10416 1221.23607 0.0004520
24.57000 1198.83707 1204.15599 0.0004516
24.58000 1244.96832 1211.26858 0.0004422
24.59000 1305.01453 1246.64734 0.0004307
24.60000 1386.59469 1306.28855 0.0004160
24.61000 1434.88352 1376.81369 0.0004078
24.62000 1480.81779 1434.28116 0.0004002
24.63000 1482.45652 1451.81476 0.0003998
24.64000 1416.51055 1421.25050 0.0004107
24.65000 1329.48267 1360.54384 0.0004256
24.66000 1256.92643 1296.18708 0.0004392
24.67000 1221.42421 1247.28378 0.0004459
24.68000 1216.06206 1220.92674 0.0004472
24.69000 1225.96588 1214.57514 0.0004449
24.70000 1246.15088 1221.56574 0.0004409
24.71000 1246.74877 1233.57599 0.0004407
24.72000 1256.00651 1240.68535 0.0004388
24.73000 1234.96928 1237.48851 0.0004429
24.74000 1223.50871 1230.11743 0.0004449
24.75000 1227.83618 1229.45679 0.0004441
24.76000 1247.51346 1241.24717 0.0004401
24.77000 1269.65605 1262.77986 0.0004356
24.78000 1284.09373 1284.10494 0.0004329
24.79000 1309.75025 1296.24398 0.0004279
24.80000 1306.43085 1299.54844 0.0004287
24.81000 1293.60182 1297.28085 0.0004306
24.82000 1279.33921 1288.53363 0.0004334
24.83000 1277.45722 1273.19949 0.0004336
24.84000 1249.52059 1257.67529 0.0004389
24.85000 1254.66355 1251.48792 0.0004377
24.86000 1250.63930 1260.26617 0.0004384
24.87000 1268.40676 1282.11019 0.0004350
24.88000 1300.40269 1309.56100 0.0004287
24.89000 1322.50383 1336.50824 0.0004247
24.90000 1341.86508 1358.48713 0.0004212
24.91000 1332.64936 1365.62415 0.0004228
24.92000 1303.18583 1346.99152 0.0004281
24.93000 1265.37439 1303.81222 0.0004348
24.94000 1204.97832 1250.74635 0.0004463
24.95000 1168.91390 1205.53380 0.0004536
24.96000 1169.24016 1181.27205 0.0004535
24.97000 1191.33389 1184.88443 0.0004486
24.98000 1237.24052 1216.82596 0.0004396
24.99000 1288.70158 1270.42357 0.0004298
25.00000 1345.37622 1330.82809 0.0004195
25.01000 1355.85763 1375.91983 0.0004175
25.02000 1341.94498 1384.73804 0.0004199
25.03000 1311.99145 1354.18676 0.0004251
25.04000 1254.76205 1303.41786 0.0004355
25.05000 1214.78875 1255.94377 0.0004431
25.06000 1202.86099 1226.07491 0.0004454
25.07000 1208.84297 1217.28254 0.0004442
25.08000 1223.18964 1225.07556 0.0004412
25.09000 1241.42064 1239.10596 0.0004375
25.10000 1236.46141 1245.51094 0.0004385
25.11000 1217.30601 1236.06277 0.0004420
25.12000 1196.49094 1217.24871 0.0004460
25.13000 1194.63005 1203.53271 0.0004462
25.14000 1219.41767 1207.14404 0.0004412
25.15000 1266.37459 1234.45923 0.0004322
25.16000 1340.49159 1284.65233 0.0004186
25.17000 1407.68180 1350.44806 0.0004072
25.18000 1481.09931 1418.13908 0.0003951
25.19000 1495.11718 1464.85292 0.0003929
25.20000 1454.59156 1466.11723 0.0003991
25.21000 1394.43094 1419.81362 0.0004090
25.22000 1314.36473 1349.44364 0.0004227
25.23000 1231.97436 1281.44299 0.0004377
25.24000 1190.98570 1231.62366 0.0004456
25.25000 1201.72002 1203.83964 0.0004434
25.26000 1183.82206 1193.88012 0.0004469
25.27000 1196.14926 1195.18910 0.0004442
25.28000 1195.69547 1200.44130 0.0004442
25.29000 1189.79632 1200.97324 0.0004455
25.30000 1189.95042 1191.23547 0.0004453
25.31000 1169.01244 1173.64154 0.0004492
25.32000 1146.43666 1155.42529 0.0004536
25.33000 1132.72598 1142.23979 0.0004565
25.34000 1122.84959 1135.17107 0.0004584
25.35000 1128.64649 1131.81968 0.0004571
25.36000 1138.29383 1130.13734 0.0004552
25.37000 1138.80167 1130.44855 0.0004548
25.38000 1145.80018 1133.28111 0.0004533
25.39000 1159.79870 1139.18329 0.0004502
25.40000 1174.11963 1150.39486 0.0004473
25.41000 1207.63173 1169.93102 0.0004406
25.42000 1236.04775 1198.21822 0.0004351
25.43000 1262.17984 1230.15420 0.0004300
25.44000 1281.02489 1255.45108 0.0004267
25.45000 1298.11357 1265.95812 0.0004233
25.46000 1289.64997 1262.73213 0.0004247
25.47000 1251.81020 1249.27673 0.0004318
25.48000 1224.49221 1226.62562 0.0004366
25.49000 1193.10797 1199.53724 0.0004427
25.50000 1179.00008 1177.45988 0.0004453
25.51000 1170.81232 1168.18735 0.0004469
25.52000 1171.68549 1175.15528 0.0004468
25.53000 1213.37740 1197.86511 0.0004384
25.54000 1249.08346 1233.59531 0.0004315
25.55000 1296.37468 1279.30725 0.0004229
25.56000 1356.50605 1329.21683 0.0004123
25.57000 1396.78112 1371.10932 0.0004056
25.58000 1390.96546 1390.69685 0.0004064
25.59000 1384.96786 1384.95460 0.0004074
25.60000 1365.56508 1367.24506 0.0004104
25.61000 1358.79298 1352.36403 0.0004117
25.62000 1349.43854 1343.64746 0.0004130
25.63000 1343.30025 1334.85729 0.0004142
25.64000 1326.55481 1321.45773 0.0004172
25.65000 1305.63364 1303.61557 0.0004205
25.66000 1260.02429 1279.15606 0.0004288
25.67000 1229.71575 1246.11805 0.0004343
25.68000 1188.27169 1210.69028 0.0004423
25.69000 1173.37944 1184.29994 0.0004450
25.70000 1184.18442 1177.31378 0.0004428
25.71000 1243.43033 1196.07824 0.0004315
25.72000 1304.92738 1241.18133 0.0004203
25.73000 1374.04907 1305.51315 0.0004085
25.74000 1429.13126 1372.67363 0.0003993
25.75000 1452.25955 1418.40506 0.0003957
25.76000 1442.53456 1423.60413 0.0003972
25.77000 1386.42435 1393.10686 0.0004062
25.78000 1334.48908 1349.30189 0.0004150
25.79000 1297.91984 1310.87793 0.0004212
25.80000 1271.82727 1282.99113 0.0004258
25.81000 1246.17633 1258.83328 0.0004304
25.82000 1223.74422 1230.14949 0.0004347
25.83000 1181.66767 1197.23508 0.0004426
25.84000 1141.44916 1164.88996 0.0004507
25.85000 1125.83129 1136.67961 0.0004538
25.86000 1107.27762 1115.69857 0.0004576
25.87000 1119.67289 1105.19948 0.0004552
25.88000 1129.56436 1107.77303 0.0004530
25.89000 1150.54096 1124.82296 0.0004488
25.90000 1189.13752 1156.21396 0.0004410
25.91000 1246.46853 1199.20516 0.0004300
25.92000 1270.90711 1247.36202 0.0004256
25.93000 1302.36473 1289.23456 0.0004199
25.94000 1319.87244 1311.55697 0.0004168
25.95000 1291.97340 1310.77917 0.0004216
25.96000 1280.37067 1297.36829 0.0004238
25.97000 1268.52999 1285.21620 0.0004259
25.98000 1284.71676 1280.92191 0.0004229
25.99000 1283.76185 1281.03063 0.0004231
26.00000 1293.38001 1277.92257 0.0004214
26.01000 1274.61768 1269.48684 0.0004248
26.02000 1265.92705 1258.04982 0.0004263
26.03000 1236.10274 1243.89360 0.0004317
26.04000 1225.47486 1227.28311 0.0004337
26.05000 1211.83834 1212.84418 0.0004361
26.06000 1211.95832 1207.81103 0.0004364
26.07000 1234.50728 1217.17949 0.0004318
26.08000 1280.16981 1241.11379 0.0004236
26.09000 1305.64011 1275.97059 0.0004190
26.10000 1354.91112 1317.44302 0.0004106
26.11000 1391.72979 1358.36710 0.0004044
26.12000 1392.68587 1384.82444 0.0004043
26.13000 1365.00673 1382.14904 0.0004089
26.14000 1325.53169 1349.48727 0.0004155
26.15000 1258.35797 1303.99334 0.0004275
26.16000 1245.31736 1266.51293 0.0004300
26.17000 1227.34584 1249.55248 0.0004332
26.18000 1251.08043 1255.12107 0.0004289
26.19000 1277.33142 1276.40860 0.0004240
26.20000 1286.10994 1299.15051 0.0004227
26.21000 1269.19195 1305.56323 0.0004255
26.22000 1248.00021 1287.55534 0.0004293
26.23000 1215.14381 1255.16566 0.0004358
26.24000 1183.50430 1224.87317 0.0004418
26.25000 1195.90220 1207.88256 0.0004393
26.26000 1192.11656 1207.67875 0.0004400
26.27000 1241.78443 1221.58437 0.0004307
26.28000 1276.69222 1244.43363 0.0004242
26.29000 1292.53889 1269.32956 0.0004214
26.30000 1303.39943 1285.87130 0.0004196
26.31000 1294.16024 1285.03431 0.0004212
26.32000 1253.85830 1267.71510 0.0004286
26.33000 1230.74970 1244.07413 0.0004328
26.34000 1204.84077 1223.87203 0.0004377
26.35000 1200.30903 1210.06406 0.0004385
26.36000 1193.31550 1200.01636 0.0004400
26.37000 1194.12824 1191.63985 0.0004399
26.38000 1175.01510 1185.04573 0.0004436
26.39000 1186.27211 1178.89340 0.0004417
26.40000 1168.82520 1170.54730 0.0004449
26.41000 1158.63213 1160.23197 0.0004469
26.42000 1149.19930 1152.46651 0.0004488
26.43000 1161.92114 1152.43246 0.0004464
26.44000 1170.66468 1162.45691 0.0004447
26.45000 1197.15637 1181.55170 0.0004394
26.46000 1223.58435 1206.77812 0.0004346
26.47000 1235.06619 1232.82028 0.0004324
26.48000 1239.12347 1250.67984 0.0004316
26.49000 1234.53618 1252.28970 0.0004327
26.50000 1212.84362 1239.02189 0.0004367
26.51000 1206.40870 1222.44745 0.0004379
26.52000 1222.67290 1215.56932 0.0004347
26.53000 1248.11736 1225.36651 0.0004302
26.54000 1282.61456 1250.97688 0.0004240
26.55000 1311.81453 1284.76002 0.0004188
26.56000 1323.20962 1312.57490 0.0004170
26.57000 1305.33205 1316.70984 0.0004199
26.58000 1273.46633 1289.64409 0.0004258
26.59000 1202.38717 1243.04843 0.0004391
26.60000 1163.64124 1195.55069 0.0004467
26.61000 1142.44101 1160.95144 0.0004511
26.62000 1141.40801 1146.19284 0.0004512
26.63000 1152.28777 1152.03734 0.0004491
26.64000 1188.34026 1174.01727 0.0004420
26.65000 1218.70954 1203.42993 0.0004363
26.66000 1232.43692 1229.06305 0.0004337
26.67000 1233.97574 1242.15556 0.0004334
26.68000 1227.43421 1242.79848 0.0004349
26.69000 1216.79156 1239.15776 0.0004367
26.70000 1212.44504 1238.29336 0.0004377
26.71000 1216.43063 1240.25180 0.0004370
26.72000 1217.63746 1240.56044 0.0004368
26.73000 1192.46615 1236.80638 0.0004418
26.74000 1189.31131 1228.41503 0.0004423
26.75000 1165.12695 1213.47932 0.0004473
26.76000 1153.37171 1192.90272 0.0004497
26.77000 1141.28190 1173.09054 0.0004522
26.78000 1137.18171 1161.01086 0.0004530
26.79000 1159.47649 1159.71723 0.0004485
26.80000 1173.05054 1167.64775 0.0004460
26.81000 1192.90699 1180.60395 0.0004420
26.82000 1189.54236 1194.47919 0.0004428
26.83000 1193.77126 1204.35332 0.0004421
26.84000 1188.91502 1204.24939 0.0004430
26.85000 1180.94267 1192.94246 0.0004447
26.86000 1161.75714 1176.67789 0.0004486
26.87000 1174.24248 1163.90390 0.0004463
26.88000 1164.65853 1159.57393 0.0004480
26.89000 1178.33226 1163.34473 0.0004455
26.90000 1183.53091 1171.51203 0.0004446
26.91000 1194.27613 1179.41599 0.0004424
26.92000 1193.29618 1180.95118 0.0004428
26.93000 1168.95021 1170.67971 0.0004476
26.94000 1144.57750 1150.62093 0.0004528
26.95000 1132.70361 1129.58815 0.0004552
26.96000 1124.20951 1116.28425 0.0004569
26.97000 1125.77721 1116.06604 0.0004568
26.98000 1147.99944 1130.51072 0.0004522
26.99000 1194.23800 1157.23318 0.0004430
27.00000 1237.37208 1189.95709 0.0004348
27.01000 1245.23466 1219.45836 0.0004333
27.02000 1246.92671 1238.47527 0.0004333
27.03000 1249.63532 1248.77266 0.0004326
27.04000 1262.02761 1259.67616 0.0004305
27.05000 1273.96342 1279.20888 0.0004283
27.06000 1307.94212 1307.63007 0.0004223
27.07000 1336.38359 1337.90939 0.0004173
27.08000 1354.78660 1363.11231 0.0004141
27.09000 1352.48236 1378.81093 0.0004147
27.10000 1333.60801 1376.61275 0.0004180
27.11000 1294.93686 1347.77603 0.0004249
27.12000 1236.37016 1295.30269 0.0004359
27.13000 1166.89778 1234.06437 0.0004494
27.14000 1138.68170 1179.96800 0.0004554
27.15000 1140.89725 1142.88000 0.0004550
27.16000 1136.91143 1125.94257 0.0004559
27.17000 1165.01418 1126.74669 0.0004501
27.18000 1173.81667 1138.75673 0.0004484
27.19000 1200.67648 1152.73655 0.0004434
27.20000 1193.22795 1159.90808 0.0004447
27.21000 1195.38653 1157.62773 0.0004446
27.22000 1172.95750 1151.11210 0.0004491
27.23000 1157.89957 1146.94129 0.0004522
27.24000 1157.73466 1147.62886 0.0004523
27.25000 1163.58592 1151.75342 0.0004510
27.26000 1174.82641 1156.12577 0.0004489
27.27000 1164.26189 1155.76212 0.0004511
27.28000 1148.30343 1145.19782 0.0004544
27.29000 1123.04100 1124.96840 0.0004599
27.30000 1103.74891 1102.12713 0.0004639
27.31000 1083.55484 1083.92607 0.0004686
27.32000 1072.62224 1074.65283 0.0004709
27.33000 1092.60909 1075.48038 0.0004669
27.34000 1109.22001 1084.85802 0.0004632
27.35000 1134.49526 1098.97328 0.0004580
27.36000 1140.84757 1112.15847 0.0004568
27.37000 1140.94072 1118.99300 0.0004567
27.38000 1123.89569 1118.28411 0.0004605
27.39000 1121.67423 1114.38931 0.0004608
27.40000 1138.47789 1113.40937 0.0004577
27.41000 1149.93470 1118.84626 0.0004552
27.42000 1168.66264 1130.50746 0.0004514
27.43000 1194.82929 1145.88939 0.0004463
27.44000 1206.14250 1160.71196 0.0004440
27.45000 1201.27331 1169.00801 0.0004451
27.46000 1184.41202 1167.73329 0.0004485
27.47000 1183.77804 1161.27583 0.0004488
27.48000 1165.43163 1157.69041 0.0004527
27.49000 1154.30200 1162.40181 0.0004549
27.50000 1184.40571 1175.68558 0.0004489
27.51000 1186.08821 1194.21020 0.0004486
27.52000 1207.52033 1214.37403 0.0004444
27.53000 1209.05948 1231.72155 0.0004443
27.54000 1202.52160 1240.53192 0.0004456
27.55000 1201.67050 1239.73569 0.0004458
27.56000 1199.48200 1235.88998 0.0004465
27.57000 1203.26462 1236.66973 0.0004456
27.58000 1221.19085 1243.71287 0.0004424
27.59000 1227.45697 1251.40730 0.0004411
27.60000 1225.44032 1253.14857 0.0004416
27.61000 1214.09542 1246.98062 0.0004439
27.62000 1170.24016 1231.96762 0.0004527
27.63000 1165.01981 1207.79483 0.0004541
27.64000 1150.68055 1180.04338 0.0004569
27.65000 1150.19140 1157.48365 0.0004573
27.66000 1149.93601 1145.64227 0.0004573
27.67000 1157.69855 1144.95163 0.0004559
27.68000 1170.86324 1151.97082 0.0004533
27.69000 1169.59370 1162.31856 0.0004535
27.70000 1166.65268 1171.42197 0.0004542
27.71000 1173.11191 1173.83673 0.0004529
27.72000 1160.78003 1166.92263 0.0004555
27.73000 1144.56744 1154.25694 0.0004591
27.74000 1146.74878 1142.33440 0.0004587
27.75000 1150.16314 1135.38214 0.0004582
27.76000 1153.02737 1133.49784 0.0004575
27.77000 1154.94617 1134.37536 0.0004572
27.78000 1146.16089 1135.80405 0.0004592
27.79000 1140.28606 1135.43029 0.0004605
