#------------------------------------------------------------------------------
#$Date: 2021-01-01 01:25:10 +0200 (Fri, 01 Jan 2021) $
#$Revision: 260302 $
#$URL: file:///home/coder/svn-repositories/cod/cif/4/00/38/4003848.cif $
#------------------------------------------------------------------------------
#
# This file is available in the Crystallography Open Database (COD),
# http://www.crystallography.net/
#
# All data on this site have been placed in the public domain by the
# contributors.
#
data_4003848
loop_
_publ_author_name
'Goodenough, Isabella'
'Devulapalli, Venkata Swaroopa Datta'
'Xu, Wenqian'
'Boyanich, Mikaela C.'
'Luo, Tian-Yi'
'De Souza, Mattheus'
'Richard, M\'elissandre'
'Rosi, Nathaniel L.'
'Borguet, Eric'
_publ_section_title
;
 Interplay between Intrinsic Thermal Stability and Expansion Properties of
 Functionalized UiO-67 Metal--Organic Frameworks
;
_journal_name_full               'Chemistry of Materials'
_journal_paper_doi               10.1021/acs.chemmater.0c03889
_journal_year                    2020
_chemical_compound_source        synthetic
_chemical_formula_sum            'C81.48 H50.56 O36.16 Zr6'
_chemical_formula_weight         2155.52
_chemical_name_common            UiO-67
_chemical_name_systematic
'Zr(IV) biphenyl dicarboxylate metal-organic framework'
_space_group_crystal_system      cubic
_space_group_IT_number           225
_space_group_name_Hall           '-F 4 2 3'
_space_group_name_H-M_alt        'F m -3 m'
_cell_angle_alpha                90
_cell_angle_beta                 90
_cell_angle_gamma                90
_cell_formula_units_Z            4
_cell_length_a                   26.8180(2)
_cell_length_b                   26.8180(2)
_cell_length_c                   26.8180(2)
_cell_measurement_temperature    480
_cell_volume                     19287.6(2)
_diffrn_ambient_pressure         101
_diffrn_ambient_temperature      480
_diffrn_measurement_device_type
'Debye-scherrer geometry diffractometer with area detector at Beamline 17-BM'
_diffrn_radiation_probe          x-ray
_diffrn_radiation_wavelength     0.35364
_diffrn_source                   synchrotron
_diffrn_source_type              'APS Beamline 17-BM'
_exptl_crystal_description       powder
_exptl_crystal_preparation
'powder loaded in a quartz capillary, measured under vacuum'
_exptl_crystal_thermal_history
'activated at 473 K for 10 min, and cooled to 90 K, then stepwisely heated to 480 K'
_pd_proc_ls_prof_R_factor        0.0189
_pd_proc_ls_prof_wR_factor       0.0278
_refine_ls_goodness_of_fit_all   6.232
_refine_ls_hydrogen_treatment    constr
_refine_ls_R_I_factor            0.0341
_reflns_d_resolution_high        0.736
_reflns_d_resolution_low         15.483
_reflns_limit_h_max              36
_reflns_limit_h_min              0
_reflns_limit_k_max              36
_reflns_limit_k_min              0
_reflns_limit_l_max              36
_reflns_limit_l_min              0
_reflns_number_total             1388
_cod_data_source_file            cm0c03889_si_002.cif
_cod_data_source_block           UiO67-2_90to480Ka_480K_d400-00000-sub0_9qtz
_cod_original_cell_volume        19287.7(5)
_cod_database_code               4003848
loop_
_symmetry_equiv_pos_as_xyz
'x, y, z '
'-x, -y, z '
'-x, -z, -y '
'-x, -z, y '
'-x, z, -y '
'-x, z, y '
'-x, y, -z '
'-x, y, z '
'-y, -x, -z '
'-y, -x, z '
'-y, -z, -x '
'-y, -z, x '
'-y, z, -x '
'-y, z, x '
'-y, x, -z '
'-y, x, z '
'-z, -x, -y '
'-z, -x, y '
'-z, -y, -x '
'-z, -y, x '
'-z, y, -x '
'-z, y, x '
'-z, x, -y '
'-z, x, y '
'z, -x, -y '
'z, -x, y '
'z, -y, -x '
'z, -y, x '
'z, y, -x '
'z, y, x '
'z, x, -y '
'z, x, y '
'y, -x, -z '
'y, -x, z '
'y, -z, -x '
'y, -z, x '
'y, z, -x '
'y, z, x '
'y, x, -z '
'y, x, z '
'x, -y, -z '
'x, -y, z '
'x, -z, -y '
'x, -z, y '
'x, z, -y '
'x, z, y '
'x, y, -z '
'-x, -y, -z '
'x+1/2, y+1/2, z '
'-x+1/2, -y+1/2, z '
'-x+1/2, -z+1/2, -y '
'-x+1/2, -z+1/2, y '
'-x+1/2, z+1/2, -y '
'-x+1/2, z+1/2, y '
'-x+1/2, y+1/2, -z '
'-x+1/2, y+1/2, z '
'-y+1/2, -x+1/2, -z '
'-y+1/2, -x+1/2, z '
'-y+1/2, -z+1/2, -x '
'-y+1/2, -z+1/2, x '
'-y+1/2, z+1/2, -x '
'-y+1/2, z+1/2, x '
'-y+1/2, x+1/2, -z '
'-y+1/2, x+1/2, z '
'-z+1/2, -x+1/2, -y '
'-z+1/2, -x+1/2, y '
'-z+1/2, -y+1/2, -x '
'-z+1/2, -y+1/2, x '
'-z+1/2, y+1/2, -x '
'-z+1/2, y+1/2, x '
'-z+1/2, x+1/2, -y '
'-z+1/2, x+1/2, y '
'z+1/2, -x+1/2, -y '
'z+1/2, -x+1/2, y '
'z+1/2, -y+1/2, -x '
'z+1/2, -y+1/2, x '
'z+1/2, y+1/2, -x '
'z+1/2, y+1/2, x '
'z+1/2, x+1/2, -y '
'z+1/2, x+1/2, y '
'y+1/2, -x+1/2, -z '
'y+1/2, -x+1/2, z '
'y+1/2, -z+1/2, -x '
'y+1/2, -z+1/2, x '
'y+1/2, z+1/2, -x '
'y+1/2, z+1/2, x '
'y+1/2, x+1/2, -z '
'y+1/2, x+1/2, z '
'x+1/2, -y+1/2, -z '
'x+1/2, -y+1/2, z '
'x+1/2, -z+1/2, -y '
'x+1/2, -z+1/2, y '
'x+1/2, z+1/2, -y '
'x+1/2, z+1/2, y '
'x+1/2, y+1/2, -z '
'-x+1/2, -y+1/2, -z '
'x+1/2, y, z+1/2 '
'-x+1/2, -y, z+1/2 '
'-x+1/2, -z, -y+1/2 '
'-x+1/2, -z, y+1/2 '
'-x+1/2, z, -y+1/2 '
'-x+1/2, z, y+1/2 '
'-x+1/2, y, -z+1/2 '
'-x+1/2, y, z+1/2 '
'-y+1/2, -x, -z+1/2 '
'-y+1/2, -x, z+1/2 '
'-y+1/2, -z, -x+1/2 '
'-y+1/2, -z, x+1/2 '
'-y+1/2, z, -x+1/2 '
'-y+1/2, z, x+1/2 '
'-y+1/2, x, -z+1/2 '
'-y+1/2, x, z+1/2 '
'-z+1/2, -x, -y+1/2 '
'-z+1/2, -x, y+1/2 '
'-z+1/2, -y, -x+1/2 '
'-z+1/2, -y, x+1/2 '
'-z+1/2, y, -x+1/2 '
'-z+1/2, y, x+1/2 '
'-z+1/2, x, -y+1/2 '
'-z+1/2, x, y+1/2 '
'z+1/2, -x, -y+1/2 '
'z+1/2, -x, y+1/2 '
'z+1/2, -y, -x+1/2 '
'z+1/2, -y, x+1/2 '
'z+1/2, y, -x+1/2 '
'z+1/2, y, x+1/2 '
'z+1/2, x, -y+1/2 '
'z+1/2, x, y+1/2 '
'y+1/2, -x, -z+1/2 '
'y+1/2, -x, z+1/2 '
'y+1/2, -z, -x+1/2 '
'y+1/2, -z, x+1/2 '
'y+1/2, z, -x+1/2 '
'y+1/2, z, x+1/2 '
'y+1/2, x, -z+1/2 '
'y+1/2, x, z+1/2 '
'x+1/2, -y, -z+1/2 '
'x+1/2, -y, z+1/2 '
'x+1/2, -z, -y+1/2 '
'x+1/2, -z, y+1/2 '
'x+1/2, z, -y+1/2 '
'x+1/2, z, y+1/2 '
'x+1/2, y, -z+1/2 '
'-x+1/2, -y, -z+1/2 '
'x, y+1/2, z+1/2 '
'-x, -y+1/2, z+1/2 '
'-x, -z+1/2, -y+1/2 '
'-x, -z+1/2, y+1/2 '
'-x, z+1/2, -y+1/2 '
'-x, z+1/2, y+1/2 '
'-x, y+1/2, -z+1/2 '
'-x, y+1/2, z+1/2 '
'-y, -x+1/2, -z+1/2 '
'-y, -x+1/2, z+1/2 '
'-y, -z+1/2, -x+1/2 '
'-y, -z+1/2, x+1/2 '
'-y, z+1/2, -x+1/2 '
'-y, z+1/2, x+1/2 '
'-y, x+1/2, -z+1/2 '
'-y, x+1/2, z+1/2 '
'-z, -x+1/2, -y+1/2 '
'-z, -x+1/2, y+1/2 '
'-z, -y+1/2, -x+1/2 '
'-z, -y+1/2, x+1/2 '
'-z, y+1/2, -x+1/2 '
'-z, y+1/2, x+1/2 '
'-z, x+1/2, -y+1/2 '
'-z, x+1/2, y+1/2 '
'z, -x+1/2, -y+1/2 '
'z, -x+1/2, y+1/2 '
'z, -y+1/2, -x+1/2 '
'z, -y+1/2, x+1/2 '
'z, y+1/2, -x+1/2 '
'z, y+1/2, x+1/2 '
'z, x+1/2, -y+1/2 '
'z, x+1/2, y+1/2 '
'y, -x+1/2, -z+1/2 '
'y, -x+1/2, z+1/2 '
'y, -z+1/2, -x+1/2 '
'y, -z+1/2, x+1/2 '
'y, z+1/2, -x+1/2 '
'y, z+1/2, x+1/2 '
'y, x+1/2, -z+1/2 '
'y, x+1/2, z+1/2 '
'x, -y+1/2, -z+1/2 '
'x, -y+1/2, z+1/2 '
'x, -z+1/2, -y+1/2 '
'x, -z+1/2, y+1/2 '
'x, z+1/2, -y+1/2 '
'x, z+1/2, y+1/2 '
'x, y+1/2, -z+1/2 '
'-x, -y+1/2, -z+1/2 '
loop_
_atom_site_label
_atom_site_type_symbol
_atom_site_symmetry_multiplicity
_atom_site_fract_x
_atom_site_fract_y
_atom_site_fract_z
_atom_site_occupancy
_atom_site_B_iso_or_equiv
Zr1 Zr 24 0 0 0.09266(6) 1 1.19(5)
O1a O 32 0.0535(3) 0.0535(3) 0.0535(3) 0.5 0.4(3)
H1a H 32 0.0742 0.0742 0.0742 0.5 0.6
O1b O 32 0.0373(3) 0.0373(3) 0.0373(3) 0.5 0.4(3)
O2 O 96 0.1324(6) 0 0.0728(5) 1 1.91(15)
C4 C 48 0.1152(4) 0 0.1152(4) 0.97 2.88(19)
C5 C 48 0.1561(2) 0 0.1561(2) 0.97 2.88(19)
C6 C 48 0.23011(13) 0 0.23011(13) 0.97 2.88(19)
C2 C 192 0.24095(14) 0.0182(2) 0.18227(18) 0.485 2.88(19)
C3 C 192 0.20395(15) 0.0182(2) 0.1453(2) 0.485 2.88(19)
H2 H 192 0.27811 0.0324 0.1739 0.485 4.3(3)
H3 H 192 0.21237 0.0324 0.1081 0.485 4.3(3)
Ow1 O 32 0.147(3) 0.147(3) 0.147(3) 0.52 420(30)
loop_
_geom_angle_atom_site_label_1
_geom_angle_atom_site_label_2
_geom_angle_atom_site_label_3
_geom_angle
_geom_angle_site_symmetry_1
_geom_angle_site_symmetry_2
_geom_angle_site_symmetry_3
O1b Zr1 O1b 58.4(5) 26_555 1_555 1_555
O1b Zr1 O1b 87.3(8) 6_555 1_555 26_555
O1b Zr1 O1b 58.4(5) 6_555 1_555 1_555
O1b Zr1 O1b 58.4(5) 2_555 1_555 6_555
O1b Zr1 O1b 58.4(5) 2_555 1_555 26_555
O1b Zr1 O1b 87.3(8) 2_555 1_555 1_555
O2 Zr1 O1b 85.3(3) 12_555 1_555 2_555
O2 Zr1 O1b 140.83(8) 12_555 1_555 6_555
O2 Zr1 O1b 85.3(3) 12_555 1_555 26_555
O2 Zr1 O1b 140.83(8) 12_555 1_555 1_555
O2 Zr1 O2 76.71(3) 20_555 1_555 12_555
O2 Zr1 O1b 85.3(3) 20_555 1_555 2_555
O2 Zr1 O1b 85.3(3) 20_555 1_555 6_555
O2 Zr1 O1b 140.83(8) 20_555 1_555 26_555
O2 Zr1 O1b 140.83(8) 20_555 1_555 1_555
O2 Zr1 O2 122.69(7) 28_555 1_555 20_555
O2 Zr1 O2 76.71(3) 28_555 1_555 12_555
O2 Zr1 O1b 140.83(8) 28_555 1_555 2_555
O2 Zr1 O1b 140.83(8) 28_555 1_555 6_555
O2 Zr1 O1b 85.3(3) 28_555 1_555 26_555
O2 Zr1 O1b 85.3(3) 28_555 1_555 1_555
O2 Zr1 O2 76.71(3) 14_555 1_555 28_555
O2 Zr1 O2 76.71(3) 14_555 1_555 20_555
O2 Zr1 O2 122.69(7) 14_555 1_555 12_555
O2 Zr1 O1b 140.83(8) 14_555 1_555 2_555
O2 Zr1 O1b 85.3(3) 14_555 1_555 6_555
O2 Zr1 O1b 140.83(8) 14_555 1_555 26_555
O2 Zr1 O1b 85.3(3) 14_555 1_555 1_555
O1a Zr1 O2 70.7(3) 6_555 1_555 14_555
O1a Zr1 O2 140.50(8) 6_555 1_555 28_555
O1a Zr1 O2 70.7(3) 6_555 1_555 20_555
O1a Zr1 O2 140.50(8) 6_555 1_555 12_555
O1a Zr1 O1b 70.5(3) 6_555 1_555 2_555
O1a Zr1 O1b 18.9(5) 6_555 1_555 6_555
O1a Zr1 O1b 106.2(5) 6_555 1_555 26_555
O1a Zr1 O1b 70.5(3) 6_555 1_555 1_555
O1a Zr1 O1a 125.2(7) 26_555 1_555 6_555
O1a Zr1 O2 140.50(8) 26_555 1_555 14_555
O1a Zr1 O2 70.7(3) 26_555 1_555 28_555
O1a Zr1 O2 140.50(8) 26_555 1_555 20_555
O1a Zr1 O2 70.7(3) 26_555 1_555 12_555
O1a Zr1 O1b 70.5(3) 26_555 1_555 2_555
O1a Zr1 O1b 106.2(5) 26_555 1_555 6_555
O1a Zr1 O1b 18.9(5) 26_555 1_555 26_555
O1a Zr1 O1b 70.5(3) 26_555 1_555 1_555
O1a Zr1 O1a 77.8(3) 1_555 1_555 26_555
O1a Zr1 O1a 77.8(3) 1_555 1_555 6_555
O1a Zr1 O2 70.7(3) 1_555 1_555 14_555
O1a Zr1 O2 70.7(3) 1_555 1_555 28_555
O1a Zr1 O2 140.50(8) 1_555 1_555 20_555
O1a Zr1 O2 140.50(8) 1_555 1_555 12_555
O1a Zr1 O1b 106.2(5) 1_555 1_555 2_555
O1a Zr1 O1b 70.5(3) 1_555 1_555 6_555
O1a Zr1 O1b 70.5(3) 1_555 1_555 26_555
O1a Zr1 O1b 18.9(5) 1_555 1_555 1_555
O1a Zr1 O1a 125.2(7) 2_555 1_555 1_555
O1a Zr1 O1a 77.8(3) 2_555 1_555 26_555
O1a Zr1 O1a 77.8(3) 2_555 1_555 6_555
O1a Zr1 O2 140.50(8) 2_555 1_555 14_555
O1a Zr1 O2 140.50(8) 2_555 1_555 28_555
O1a Zr1 O2 70.7(3) 2_555 1_555 20_555
O1a Zr1 O2 70.7(3) 2_555 1_555 12_555
O1a Zr1 O1b 18.9(5) 2_555 1_555 2_555
O1a Zr1 O1b 70.5(3) 2_555 1_555 6_555
O1a Zr1 O1b 70.5(3) 2_555 1_555 26_555
O1a Zr1 O1b 106.2(5) 2_555 1_555 1_555
Zr1 O1a H1a 117.3(4) 5_555 1_555 1_555
Zr1 O1a Zr1 100.6(5) 1_555 1_555 5_555
Zr1 O1a H1a 117.3(4) 1_555 1_555 1_555
Zr1 O1a Zr1 100.6(5) 25_555 1_555 1_555
Zr1 O1a Zr1 100.6(5) 25_555 1_555 5_555
Zr1 O1a H1a 117.3(4) 25_555 1_555 1_555
Zr1 O1b Zr1 117.9(2) 5_555 1_555 1_555
Zr1 O1b Zr1 117.9(2) 25_555 1_555 5_555
Zr1 O1b Zr1 117.9(2) 25_555 1_555 1_555
Zr1 O2 C4 129.24(4) 25_555 1_555 1_555
O2 C4 O2 134.204 1_555 1_555 28_555
C5 C4 O2 112.898 1_555 1_555 1_555
C5 C4 O2 112.898 1_555 1_555 28_555
C3 C5 C3 120.000 42_555 1_555 30_555
C3 C5 C3 120.000 1_555 1_555 28_555
C4 C5 C3 120.000 1_555 1_555 1_555
C4 C5 C3 120.000 1_555 1_555 42_555
C4 C5 C3 120.000 1_555 1_555 30_555
C4 C5 C3 120.000 1_555 1_555 28_555
C2 C6 C2 120.000 30_555 1_555 42_555
C2 C6 C2 120.000 28_555 1_555 1_555
C6 C6 C2 120.000 103_555 1_555 28_555
C6 C6 C2 120.000 103_555 1_555 30_555
C6 C6 C2 120.000 103_555 1_555 42_555
C6 C6 C2 120.000 103_555 1_555 1_555
C6 C2 H2 120.000 1_555 1_555 1_555
C3 C2 C6 120.000 1_555 1_555 1_555
C3 C2 H2 120.000 1_555 1_555 1_555
C5 C3 H3 120.000 1_555 1_555 1_555
C2 C3 C5 120.000 1_555 1_555 1_555
C2 C3 H3 120.000 1_555 1_555 1_555
loop_
_geom_bond_atom_site_label_1
_geom_bond_atom_site_label_2
_geom_bond_distance
_geom_bond_site_symmetry_1
_geom_bond_site_symmetry_2
Zr1 O1b 2.051(2) 1_555 1_555
Zr1 O1b 2.051(2) 1_555 26_555
Zr1 O1b 2.051(2) 1_555 6_555
Zr1 O1b 2.051(2) 1_555 2_555
Zr1 O2 2.2250(8) 1_555 12_555
Zr1 O2 2.2250(8) 1_555 20_555
Zr1 O2 2.2250(8) 1_555 28_555
Zr1 O2 2.2250(8) 1_555 14_555
Zr1 O1a 2.284(7) 1_555 6_555
Zr1 O1a 2.284(7) 1_555 26_555
Zr1 O1a 2.284(7) 1_555 1_555
Zr1 O1a 2.284(7) 1_555 2_555
O1a H1a 0.96152 1_555 1_555
O2 C4 1.22764 1_555 1_555
C4 C5 1.55073 1_555 1_555
C5 C3 1.40338 1_555 28_555
C5 C3 1.40338 1_555 30_555
C5 C3 1.40338 1_555 42_555
C5 C3 1.40338 1_555 1_555
C6 C2 1.40338 1_555 1_555
C6 C2 1.40338 1_555 42_555
C6 C2 1.40338 1_555 30_555
C6 C2 1.40338 1_555 28_555
C6 C6 1.50850 1_555 103_555
C2 H2 1.09000 1_555 1_555
C2 C3 1.40338 1_555 1_555
C3 H3 1.09000 1_555 1_555
loop_
_pd_meas_2theta_scan
_pd_proc_intensity_total
_pd_calc_intensity_total
_pd_proc_ls_weight
1.00000 84925.38182 72841.25818 0.0000071
1.01000 85749.49937 73327.95773 0.0000071
1.02000 84012.24339 73971.42754 0.0000072
1.03000 84401.25940 74791.12632 0.0000071
1.04000 83617.25170 75810.23541 0.0000071
1.05000 84261.00547 77056.52672 0.0000071
1.06000 84042.59112 78563.47598 0.0000071
1.07000 84249.17369 80371.70315 0.0000071
1.08000 84842.75542 82530.85457 0.0000070
1.09000 85163.40575 85102.08718 0.0000070
1.10000 86462.84879 88161.38412 0.0000069
1.11000 86388.08963 91804.03285 0.0000069
1.12000 89802.48446 96150.75123 0.0000067
1.13000 89813.34217 101356.18526 0.0000067
1.14000 95106.59813 107620.87676 0.0000065
1.15000 99392.30884 115208.42026 0.0000063
1.16000 106862.96130 124470.67977 0.0000060
1.17000 115882.35501 135887.20112 0.0000057
1.18000 130790.64159 150137.86429 0.0000052
1.19000 150355.68251 168285.50277 0.0000047
1.20000 185981.00986 192368.59838 0.0000041
1.21000 231439.30879 227378.61606 0.0000034
1.22000 322400.15968 286995.15209 0.0000026
1.23000 473671.95744 406720.18103 0.0000019
1.24000 731378.33684 664849.67475 0.0000013
1.25000 1230280.53711 1198335.62959 0.0000008
1.26000 2156967.43407 2178306.24987 0.0000005
1.27000 3594310.46659 3710056.07790 0.0000003
1.28000 5673127.87897 5676223.74690 0.0000002
1.29000 7702591.23648 7618015.37332 0.0000001
1.30000 8768985.66947 8780898.72836 0.0000001
1.31000 8531644.60576 8537992.26125 0.0000001
1.32000 7004049.98486 7032145.42378 0.0000001
1.33000 5046447.69215 5010192.82852 0.0000002
1.34000 3040101.06035 3153913.44667 0.0000003
1.35000 1791016.09573 1804953.60404 0.0000005
1.36000 1023226.23109 990672.31917 0.0000009
1.37000 610528.88995 568316.62260 0.0000015
1.38000 408709.78544 370904.69678 0.0000021
1.39000 289727.11276 280957.67946 0.0000028
1.40000 227124.87470 237086.27201 0.0000034
1.41000 193626.60775 213998.85029 0.0000039
1.42000 185921.09300 204608.83444 0.0000040
1.43000 197842.08577 212410.18575 0.0000038
1.44000 242758.90860 252331.38645 0.0000032
1.45000 332419.24597 353476.85480 0.0000025
1.46000 536060.70407 555796.08379 0.0000017
1.47000 847596.07667 889995.57818 0.0000011
1.48000 1332361.05734 1341972.57909 0.0000007
1.49000 1861670.13214 1821072.58735 0.0000005
1.50000 2174575.47729 2158926.63677 0.0000004
1.51000 2250347.10613 2183303.82975 0.0000004
1.52000 1907096.29711 1878332.88196 0.0000005
1.53000 1417838.82725 1401918.72126 0.0000007
1.54000 900957.06141 929401.53840 0.0000010
1.55000 549290.08469 564001.56459 0.0000016
1.56000 324492.49128 330054.76032 0.0000025
1.57000 210514.15799 201528.83867 0.0000036
1.58000 142056.43120 138073.00266 0.0000047
1.59000 109659.09995 107578.16859 0.0000056
1.60000 86372.01713 91600.94915 0.0000064
1.61000 74272.54037 81693.98154 0.0000070
1.62000 65340.67971 74550.22389 0.0000074
1.63000 60121.50532 68942.61709 0.0000077
1.64000 55253.20561 64363.32046 0.0000080
1.65000 53005.55624 60545.30572 0.0000081
1.66000 50592.10731 57316.34311 0.0000083
1.67000 48713.27754 54553.68542 0.0000084
1.68000 47639.47578 52166.18909 0.0000084
1.69000 45579.20220 50084.69940 0.0000086
1.70000 45417.24947 48255.89702 0.0000085
1.71000 44114.91010 46638.09371 0.0000087
1.72000 43728.53255 45198.28142 0.0000086
1.73000 42050.74646 43910.02389 0.0000088
1.74000 42742.34201 42751.92671 0.0000087
1.75000 41570.03905 41706.51153 0.0000088
1.76000 41240.52022 40759.37698 0.0000088
1.77000 40635.54065 39898.56586 0.0000088
1.78000 40206.93886 39114.08287 0.0000088
1.79000 39611.55344 38397.52338 0.0000089
1.80000 39611.21973 37741.78555 0.0000088
1.81000 39141.28913 37140.84527 0.0000089
1.82000 39213.20670 36589.57962 0.0000089
1.83000 38721.19549 36083.62792 0.0000088
1.84000 38067.82076 35619.28259 0.0000089
1.85000 38194.15471 35193.40435 0.0000088
1.86000 37448.82420 34803.35685 0.0000089
1.87000 37600.44646 34446.95854 0.0000089
1.88000 37114.86213 34122.45086 0.0000089
1.89000 37363.05576 33828.48027 0.0000088
1.90000 36665.43715 33564.12999 0.0000089
1.91000 36654.62759 33329.46005 0.0000089
1.92000 36338.01207 33123.13460 0.0000089
1.93000 36457.62124 32946.18344 0.0000089
1.94000 36191.34575 32799.61878 0.0000089
1.95000 36024.89793 32685.17505 0.0000089
1.96000 36263.91547 32605.49793 0.0000088
1.97000 35760.90729 32564.41879 0.0000089
1.98000 36587.82440 32567.35610 0.0000087
1.99000 35847.48697 32621.91420 0.0000088
2.00000 36356.36347 32738.83255 0.0000087
2.01000 36309.95517 32933.77194 0.0000087
2.02000 36965.45592 33231.89565 0.0000086
2.03000 37231.41420 33682.78938 0.0000086
2.04000 38919.07911 34409.59572 0.0000085
2.05000 40082.16546 35748.21255 0.0000084
2.06000 44097.15888 38554.72176 0.0000081
2.07000 49161.61613 44670.51391 0.0000078
2.08000 60920.37087 57200.02060 0.0000071
2.09000 80172.98418 79800.25370 0.0000062
2.10000 115253.01223 114297.84686 0.0000051
2.11000 158371.29995 157269.71296 0.0000042
2.12000 195436.32054 197728.95069 0.0000036
2.13000 218202.12571 218746.70940 0.0000033
2.14000 207864.32638 208439.13084 0.0000035
2.15000 175366.70209 172946.12441 0.0000039
2.16000 128065.15990 129180.19172 0.0000048
2.17000 92635.44546 90808.86548 0.0000057
2.18000 66361.26286 63862.68818 0.0000067
2.19000 52459.15110 48028.92235 0.0000074
2.20000 44369.10512 39957.00126 0.0000079
2.21000 40672.78071 36183.90233 0.0000081
2.22000 38133.58351 34413.20633 0.0000082
2.23000 37032.80200 33488.11655 0.0000083
2.24000 35909.69804 32930.32519 0.0000083
2.25000 35537.10938 32563.47071 0.0000084
2.26000 35196.96956 32321.30165 0.0000083
2.27000 34826.18003 32174.23440 0.0000084
2.28000 34789.73273 32106.13706 0.0000083
2.29000 34447.71700 32107.48722 0.0000084
2.30000 34829.78139 32173.09675 0.0000083
2.31000 34501.83954 32301.15675 0.0000083
2.32000 34612.26572 32492.81892 0.0000083
2.33000 34661.61422 32752.12240 0.0000083
2.34000 34832.00481 33086.22412 0.0000082
2.35000 34633.33076 33505.95952 0.0000083
2.36000 35665.16272 34026.83257 0.0000082
2.37000 35681.97757 34670.69380 0.0000082
2.38000 36655.77196 35468.97527 0.0000081
2.39000 37002.50643 36471.04970 0.0000080
2.40000 38833.01212 37771.26702 0.0000079
2.41000 41024.81433 39597.02543 0.0000077
2.42000 44216.81032 42554.58359 0.0000076
2.43000 51126.58481 48160.47462 0.0000071
2.44000 61442.55105 59614.98044 0.0000067
2.45000 82110.51406 82185.34141 0.0000058
2.46000 120380.70968 121833.07857 0.0000048
2.47000 178259.71780 181065.07251 0.0000037
2.48000 251569.13560 253305.17306 0.0000029
2.49000 318001.74519 319410.06070 0.0000025
2.50000 349833.21937 351234.12225 0.0000023
2.51000 331030.89811 331630.78534 0.0000024
2.52000 276708.15215 274700.93995 0.0000027
2.53000 214492.51579 210349.91898 0.0000033
2.54000 167488.65939 163689.73891 0.0000039
2.55000 158557.37822 151882.91792 0.0000040
2.56000 190809.48173 188378.57410 0.0000035
2.57000 280926.00675 285236.82419 0.0000027
2.58000 442926.97150 446394.22613 0.0000019
2.59000 645949.98148 652918.26952 0.0000014
2.60000 863534.10224 851024.29300 0.0000010
2.61000 963744.11415 957999.03899 0.0000009
2.62000 925208.48009 912957.17641 0.0000010
2.63000 745895.35947 742321.88935 0.0000012
2.64000 531946.13215 528205.19262 0.0000016
2.65000 335158.45797 338477.37677 0.0000023
2.66000 200713.90791 203887.91162 0.0000034
2.67000 126936.91483 123918.65853 0.0000045
2.68000 87654.21285 82579.68709 0.0000055
2.69000 64670.25966 62881.54415 0.0000063
2.70000 52513.91084 53349.11856 0.0000069
2.71000 45848.45778 48115.29837 0.0000072
2.72000 40227.83474 44719.10585 0.0000075
2.73000 38062.87145 42251.38137 0.0000076
2.74000 35891.81430 40332.04861 0.0000077
2.75000 34824.15901 38808.66016 0.0000077
2.76000 33368.11931 37583.98811 0.0000078
2.77000 33136.58295 36592.25753 0.0000078
2.78000 32227.55321 35786.46258 0.0000079
2.79000 32178.73430 35132.36400 0.0000079
2.80000 31527.33016 34604.91189 0.0000079
2.81000 31640.84787 34185.92474 0.0000079
2.82000 31087.95472 33862.56239 0.0000079
2.83000 31287.57436 33626.35445 0.0000079
2.84000 31099.97823 33472.64571 0.0000079
2.85000 30996.05004 33400.39366 0.0000079
2.86000 31201.35748 33412.30374 0.0000078
2.87000 30859.67334 33515.34652 0.0000079
2.88000 31230.89067 33721.79017 0.0000078
2.89000 31314.62047 34051.13868 0.0000078
2.90000 32243.56571 34534.42935 0.0000078
2.91000 32753.16287 35226.79549 0.0000077
2.92000 34512.38877 36249.47043 0.0000076
2.93000 36549.05561 37920.91775 0.0000075
2.94000 41080.85647 41093.79626 0.0000072
2.95000 47640.07724 47800.50923 0.0000069
2.96000 62420.88519 62003.78052 0.0000062
2.97000 85516.12522 89530.10074 0.0000055
2.98000 132960.03563 135738.29503 0.0000043
2.99000 196452.02695 200517.51619 0.0000034
3.00000 268997.97824 272872.62489 0.0000027
3.01000 326275.48825 329021.87471 0.0000024
3.02000 337414.47602 340943.92641 0.0000023
3.03000 301284.31453 301358.91394 0.0000025
3.04000 230541.08070 232502.30002 0.0000030
3.05000 160295.23645 162133.47947 0.0000038
3.06000 103316.49246 107041.07148 0.0000049
3.07000 70511.82001 71599.40700 0.0000059
3.08000 52267.76548 52149.25158 0.0000066
3.09000 43000.31548 42610.55004 0.0000070
3.10000 37132.88306 37561.62285 0.0000073
3.11000 34105.00516 35244.29291 0.0000074
3.12000 32084.62105 33848.06154 0.0000075
3.13000 30764.00915 32874.72485 0.0000076
3.14000 30020.13660 32138.76805 0.0000076
3.15000 29423.57285 31562.09554 0.0000076
3.16000 29402.16164 31104.80792 0.0000076
3.17000 28755.53761 30736.91646 0.0000077
3.18000 28681.85807 30441.71117 0.0000076
3.19000 28228.99531 30206.27550 0.0000077
3.20000 28494.00627 30021.86035 0.0000076
3.21000 28033.50115 29883.76998 0.0000076
3.22000 28461.88262 29790.77849 0.0000076
3.23000 27995.08482 29747.85165 0.0000076
3.24000 28306.90748 29765.28811 0.0000076
3.25000 28327.65479 29855.95540 0.0000076
3.26000 28774.59773 30028.30519 0.0000075
3.27000 28884.01440 30280.76853 0.0000075
3.28000 29561.07946 30611.00796 0.0000074
3.29000 30129.84218 31068.51053 0.0000074
3.30000 31090.93572 31894.06146 0.0000073
3.31000 32900.92529 33710.13082 0.0000072
3.32000 36458.49375 37626.86871 0.0000070
3.33000 43035.10768 44940.62986 0.0000067
3.34000 54688.60211 56898.90327 0.0000062
3.35000 70515.91287 72687.71483 0.0000056
3.36000 85365.26475 88853.72064 0.0000052
3.37000 96271.66472 99214.13066 0.0000049
3.38000 94866.56611 98037.22994 0.0000049
3.39000 84023.14891 86012.93284 0.0000052
3.40000 67148.76950 69418.42960 0.0000057
3.41000 52761.45851 54049.88371 0.0000062
3.42000 41304.31651 42800.49944 0.0000066
3.43000 35198.33688 35944.83434 0.0000069
3.44000 31812.08184 32333.29395 0.0000070
3.45000 30009.04238 30594.33811 0.0000071
3.46000 29072.74886 29754.51169 0.0000071
3.47000 28112.84858 29299.41780 0.0000072
3.48000 28161.50940 29008.58509 0.0000072
3.49000 27627.18454 28798.66052 0.0000072
3.50000 27658.95445 28637.87952 0.0000071
3.51000 27060.44077 28511.81244 0.0000072
3.52000 27609.50924 28412.19410 0.0000071
3.53000 27250.71264 28333.57229 0.0000071
3.54000 27157.77949 28272.17489 0.0000071
3.55000 27175.44967 28225.40123 0.0000071
3.56000 27252.91553 28191.54353 0.0000070
3.57000 27251.53843 28169.64214 0.0000070
3.58000 27500.77283 28159.47585 0.0000070
3.59000 27198.71194 28172.12715 0.0000070
3.60000 27227.17345 28190.11112 0.0000070
3.61000 27546.76098 28232.54822 0.0000069
3.62000 27690.30668 28324.09591 0.0000069
3.63000 27898.22812 28523.63751 0.0000068
3.64000 28232.05530 28945.31487 0.0000068
3.65000 28921.19645 29757.44688 0.0000067
3.66000 30113.73367 31104.86227 0.0000067
3.67000 32078.27435 32978.92869 0.0000065
3.68000 33834.36252 35055.85186 0.0000065
3.69000 35835.74012 36645.79618 0.0000063
3.70000 35723.71264 36952.81968 0.0000063
3.71000 34906.98583 35814.36077 0.0000063
3.72000 32979.45364 33901.11118 0.0000064
3.73000 31157.29818 31996.75793 0.0000064
3.74000 29860.67930 30556.55870 0.0000065
3.75000 28933.46380 29687.86991 0.0000065
3.76000 28588.32447 29282.08718 0.0000065
3.77000 28264.48217 29172.41494 0.0000065
3.78000 28555.55587 29230.98326 0.0000064
3.79000 28384.75540 29391.12735 0.0000064
3.80000 28966.20993 29632.05774 0.0000063
3.81000 28932.78864 29961.63478 0.0000063
3.82000 29765.79163 30415.36212 0.0000063
3.83000 30483.05534 31088.71379 0.0000062
3.84000 32546.64753 32240.83502 0.0000061
3.85000 35038.80456 34530.20071 0.0000060
3.86000 40064.96725 39328.22968 0.0000058
3.87000 48955.93139 48943.49730 0.0000055
3.88000 66228.94402 66039.05251 0.0000050
3.89000 92351.83929 91869.46304 0.0000044
3.90000 126953.55287 123792.19881 0.0000038
3.91000 157527.18848 153531.20650 0.0000034
3.92000 172472.73331 168334.66980 0.0000032
3.93000 164643.84906 159579.60811 0.0000033
3.94000 137518.63183 132635.49863 0.0000036
3.95000 103572.08475 100298.73449 0.0000041
3.96000 72311.33345 72360.56629 0.0000047
3.97000 54165.71260 52890.66677 0.0000051
3.98000 42415.42007 41461.99563 0.0000054
3.99000 36852.26634 35594.26628 0.0000056
4.00000 33530.81287 32784.29775 0.0000057
4.01000 32015.71553 31404.40176 0.0000057
4.02000 30462.88470 30633.85354 0.0000057
4.03000 30248.98637 30130.94330 0.0000057
4.04000 29719.80670 29766.64679 0.0000057
4.05000 29635.88288 29489.94272 0.0000056
4.06000 29148.40461 29276.21646 0.0000056
4.07000 29378.06513 29110.74007 0.0000056
4.08000 29423.40614 28983.60834 0.0000055
4.09000 28954.50550 28887.90337 0.0000055
4.10000 29091.26443 28818.80366 0.0000055
4.11000 29026.33637 28773.06629 0.0000055
4.12000 29298.71971 28748.72005 0.0000054
4.13000 29118.31015 28744.91133 0.0000054
4.14000 29632.52862 28761.88992 0.0000054
4.15000 29358.56820 28801.19307 0.0000054
4.16000 29699.08702 28866.34254 0.0000053
4.17000 29784.11081 28965.29002 0.0000053
4.18000 30188.50429 29118.44341 0.0000053
4.19000 30330.22040 29380.87692 0.0000052
4.20000 31090.34788 29889.58442 0.0000052
4.21000 32085.85399 30930.14898 0.0000051
4.22000 34725.67351 32964.17243 0.0000050
4.23000 38314.68854 36497.48926 0.0000049
4.24000 43503.93870 41716.56469 0.0000048
4.25000 51198.45793 47969.79029 0.0000046
4.26000 56910.80611 53508.31683 0.0000044
4.27000 59731.36100 55802.64004 0.0000044
4.28000 57215.12250 53506.96393 0.0000044
4.29000 51462.36289 48124.17308 0.0000045
4.30000 44729.37508 42166.12860 0.0000046
4.31000 39011.37067 37367.47399 0.0000047
4.32000 35186.72981 34290.92378 0.0000048
4.33000 33801.39353 32735.70294 0.0000048
4.34000 32920.89939 32207.40020 0.0000048
4.35000 32952.26079 32278.68490 0.0000048
4.36000 33208.32608 32715.52626 0.0000047
4.37000 33902.53559 33470.03683 0.0000047
4.38000 35555.19329 34693.36657 0.0000046
4.39000 37890.36954 36889.99495 0.0000046
4.40000 42812.88487 41267.95793 0.0000044
4.41000 51432.73833 50133.37353 0.0000043
4.42000 67370.50350 66709.66254 0.0000040
4.43000 94861.41063 93950.87010 0.0000036
4.44000 134495.11742 131365.65439 0.0000031
4.45000 175972.93193 172504.35464 0.0000028
4.46000 208615.43012 204299.07097 0.0000025
4.47000 218397.86746 213370.68271 0.0000025
4.48000 206847.54849 201572.81210 0.0000025
4.49000 188430.32294 186629.55021 0.0000026
4.50000 185327.11186 184280.18573 0.0000027
4.51000 196503.88040 197706.31555 0.0000026
4.52000 212588.79171 215958.17054 0.0000025
4.53000 216812.47974 219552.81364 0.0000024
4.54000 196152.49011 197100.57093 0.0000026
4.55000 156649.29288 156981.43108 0.0000028
4.56000 114342.75591 114719.46964 0.0000032
4.57000 81268.18142 80657.17789 0.0000036
4.58000 58142.11306 58062.35618 0.0000039
4.59000 47197.42616 45241.03423 0.0000041
4.60000 40375.29844 38713.14141 0.0000042
4.61000 36636.20935 35476.98778 0.0000042
4.62000 34683.39776 33740.98347 0.0000043
4.63000 33663.34878 32659.23477 0.0000043
4.64000 32797.07885 31891.68290 0.0000043
4.65000 32095.95482 31307.70040 0.0000043
4.66000 31488.60110 30851.17751 0.0000043
4.67000 31563.07495 30492.89975 0.0000043
4.68000 31628.19834 30217.35581 0.0000043
4.69000 31338.34631 30023.24269 0.0000043
4.70000 31214.60717 29935.09811 0.0000042
4.71000 31129.90042 30026.85317 0.0000042
4.72000 31864.85275 30446.02498 0.0000042
4.73000 32550.94687 31403.11328 0.0000042
4.74000 33862.79724 33055.58477 0.0000042
4.75000 35333.63846 35336.63064 0.0000041
4.76000 37518.08125 37757.58920 0.0000041
4.77000 38374.95645 39372.57784 0.0000041
4.78000 38840.97316 39230.48578 0.0000041
4.79000 37132.56607 37391.73525 0.0000041
4.80000 35538.50585 34840.09216 0.0000041
4.81000 33542.30534 32488.92538 0.0000042
4.82000 32152.23340 30761.06204 0.0000042
4.83000 31313.89940 29737.19606 0.0000042
4.84000 31084.38924 29222.06000 0.0000042
4.85000 30853.51128 29013.67080 0.0000042
4.86000 31032.99875 28981.52925 0.0000042
4.87000 31309.66409 29091.90312 0.0000042
4.88000 31309.52999 29420.20999 0.0000042
4.89000 32350.62558 30184.01819 0.0000042
4.90000 33663.03538 31761.29645 0.0000042
4.91000 37038.14570 34591.64130 0.0000041
4.92000 41617.60706 38878.13371 0.0000040
4.93000 47669.08266 44172.02185 0.0000039
4.94000 52831.77065 49078.50485 0.0000039
4.95000 55328.51772 51459.58769 0.0000038
4.96000 53858.84518 50011.71888 0.0000038
4.97000 49647.96099 45897.93817 0.0000039
4.98000 43560.11561 41321.96685 0.0000040
4.99000 39068.36475 37715.25437 0.0000041
5.00000 36047.87002 35379.49484 0.0000042
5.01000 34282.74292 33829.89690 0.0000042
5.02000 32916.69796 32514.48254 0.0000042
5.03000 31782.89940 31288.96174 0.0000043
5.04000 31331.63416 30244.13002 0.0000043
5.05000 30416.26978 29466.27542 0.0000043
5.06000 30449.97561 28963.64160 0.0000043
5.07000 29945.05231 28693.09585 0.0000043
5.08000 29952.09715 28545.71343 0.0000043
5.09000 29584.77034 28474.25947 0.0000044
5.10000 29784.60466 28442.48073 0.0000044
5.11000 29653.95941 28433.35463 0.0000044
5.12000 29799.19668 28441.07076 0.0000044
5.13000 29790.03900 28461.86039 0.0000044
5.14000 29630.82706 28497.45622 0.0000044
5.15000 29482.81243 28552.75806 0.0000044
5.16000 29800.29957 28641.11977 0.0000044
5.17000 30061.17375 28791.36612 0.0000045
5.18000 30303.15531 29047.15309 0.0000045
5.19000 31078.44100 29475.26709 0.0000045
5.20000 31606.74154 30100.18537 0.0000045
5.21000 32772.65447 30870.92388 0.0000045
5.22000 33534.50794 31616.63795 0.0000045
5.23000 34116.91096 32066.84688 0.0000045
5.24000 33931.17889 32044.20025 0.0000045
5.25000 33416.11597 31683.19197 0.0000045
5.26000 32354.72611 31271.71413 0.0000046
5.27000 31811.29547 31024.61587 0.0000046
5.28000 31463.79639 31046.34803 0.0000046
5.29000 31821.37820 31350.16232 0.0000046
5.30000 32506.89976 31977.52470 0.0000046
5.31000 33882.56158 33108.05545 0.0000046
5.32000 36437.48283 35286.41106 0.0000046
5.33000 40948.49592 39741.59808 0.0000045
5.34000 49120.17081 48602.20450 0.0000044
5.35000 64785.11581 64480.93652 0.0000041
5.36000 90072.01084 88927.13862 0.0000037
5.37000 122284.09063 120067.52057 0.0000033
5.38000 154576.13645 150710.17354 0.0000030
5.39000 172116.21311 168862.17725 0.0000029
5.40000 170255.85752 165415.69655 0.0000029
5.41000 149487.71954 144839.09339 0.0000031
5.42000 124501.00955 119691.41300 0.0000034
5.43000 101627.31206 98818.47093 0.0000037
5.44000 86713.32779 84027.86548 0.0000039
5.45000 75693.33032 72395.81007 0.0000041
5.46000 64999.38193 61537.53082 0.0000043
5.47000 54121.62218 51725.54341 0.0000045
5.48000 45152.02933 43869.36219 0.0000047
5.49000 38993.11715 38381.94629 0.0000049
5.50000 35138.48362 35037.15477 0.0000050
5.51000 33146.26742 33225.76620 0.0000051
5.52000 31879.66867 32324.45213 0.0000051
5.53000 31467.32044 31907.66569 0.0000052
5.54000 31059.12317 31757.99532 0.0000052
5.55000 31209.46426 31797.89550 0.0000052
5.56000 31362.01413 32044.24035 0.0000053
5.57000 32317.04353 32634.39279 0.0000052
5.58000 33526.24172 33949.42425 0.0000052
5.59000 36573.39629 36817.61865 0.0000052
5.60000 41608.27203 42630.61064 0.0000051
5.61000 51481.56189 53020.68962 0.0000048
5.62000 66465.64888 68786.05387 0.0000045
5.63000 85332.09980 88348.41310 0.0000042
5.64000 102595.85417 106575.37500 0.0000039
5.65000 110188.38143 115349.92198 0.0000038
5.66000 105756.67268 109326.43331 0.0000039
5.67000 90259.48300 92383.31995 0.0000042
5.68000 71077.39383 72735.98926 0.0000045
5.69000 54659.09300 56229.53318 0.0000049
5.70000 44309.17997 45081.55493 0.0000052
5.71000 38242.18064 38871.97706 0.0000054
5.72000 36240.04979 36178.43335 0.0000055
5.73000 35688.49446 35878.79487 0.0000056
5.74000 37776.06729 37839.54895 0.0000055
5.75000 42016.92733 42891.68173 0.0000054
5.76000 50960.01097 52323.33975 0.0000052
5.77000 65175.29997 66727.21704 0.0000048
5.78000 82385.95199 84513.69342 0.0000045
5.79000 98211.03966 100856.44642 0.0000042
5.80000 104926.57509 108301.31414 0.0000041
5.81000 100401.38161 102190.86105 0.0000042
5.82000 85525.45619 86337.56421 0.0000045
5.83000 66979.27891 68219.28467 0.0000049
5.84000 51786.98978 53035.22282 0.0000053
5.85000 42135.44938 42692.62399 0.0000056
5.86000 36285.20716 36727.69644 0.0000059
5.87000 33292.28711 33701.15012 0.0000060
5.88000 31726.69529 32272.02872 0.0000061
5.89000 30811.35356 31599.44891 0.0000062
5.90000 30253.92562 31269.32082 0.0000062
5.91000 30254.95311 31120.33065 0.0000062
5.92000 29903.54871 31097.17973 0.0000063
5.93000 30430.97551 31188.43889 0.0000063
5.94000 30448.60834 31409.11943 0.0000063
5.95000 31196.12988 31816.74780 0.0000063
5.96000 32129.25603 32577.04122 0.0000063
5.97000 33935.20019 34116.11384 0.0000063
5.98000 37061.26916 37359.11117 0.0000062
5.99000 43265.35344 43890.99465 0.0000060
6.00000 54329.08090 55638.29757 0.0000056
6.01000 72839.74146 73685.04584 0.0000051
6.02000 95673.66478 96494.06237 0.0000046
6.03000 116967.27254 118425.19734 0.0000042
6.04000 128196.75836 130064.65513 0.0000040
6.05000 123717.57433 124430.56040 0.0000041
6.06000 105460.36957 105125.60035 0.0000044
6.07000 80690.32814 81771.26750 0.0000050
6.08000 61347.76751 61627.61980 0.0000055
6.09000 47084.02271 47621.66745 0.0000060
6.10000 39362.15894 39420.60674 0.0000064
6.11000 35034.39698 35230.62836 0.0000066
6.12000 33041.12440 33273.00515 0.0000067
6.13000 32019.55067 32399.55236 0.0000068
6.14000 31504.59849 32069.04395 0.0000068
6.15000 31652.83945 32148.45772 0.0000068
6.16000 32723.93617 32810.93235 0.0000068
6.17000 34741.02704 34555.65310 0.0000067
6.18000 38805.94921 38196.60126 0.0000066
6.19000 46325.18432 44573.77610 0.0000063
6.20000 56959.55413 53860.85691 0.0000059
6.21000 69826.37287 64706.55175 0.0000055
6.22000 79522.84226 73705.05427 0.0000052
6.23000 82707.56972 76297.57697 0.0000052
6.24000 76980.98430 70783.81616 0.0000054
6.25000 65416.28340 60498.83306 0.0000057
6.26000 52821.00863 49873.15554 0.0000062
6.27000 42949.64802 41517.53091 0.0000066
6.28000 36760.93836 36144.40285 0.0000069
6.29000 33480.37622 33214.90269 0.0000071
6.30000 31722.40676 31829.98637 0.0000072
6.31000 30875.63771 31271.22461 0.0000073
6.32000 30421.71262 31156.90870 0.0000073
6.33000 30655.06861 31370.52162 0.0000073
6.34000 31457.91838 32111.21793 0.0000073
6.35000 32871.70111 33838.11760 0.0000073
6.36000 36192.68953 37331.95709 0.0000071
6.37000 41435.48674 43430.94397 0.0000069
6.38000 49888.10210 52389.20793 0.0000065
6.39000 59610.54000 63048.81216 0.0000062
6.40000 68077.25988 72283.28152 0.0000059
6.41000 70778.03907 75642.89486 0.0000058
6.42000 67339.27868 71021.10613 0.0000059
6.43000 58457.78149 61348.13618 0.0000063
6.44000 49092.30765 51032.72410 0.0000067
6.45000 41295.29579 42847.51789 0.0000071
6.46000 36872.68538 37697.96995 0.0000073
6.47000 35197.73615 35339.44616 0.0000074
6.48000 35326.30660 35300.96028 0.0000074
6.49000 37653.17826 37519.01458 0.0000073
6.50000 42977.37949 42385.10638 0.0000071
6.51000 52316.39642 50239.77847 0.0000067
6.52000 64140.58171 60630.53299 0.0000062
6.53000 76547.16537 71750.86780 0.0000058
6.54000 85824.11706 80552.02935 0.0000055
6.55000 91316.55922 84994.57972 0.0000053
6.56000 93311.54928 86573.04536 0.0000053
6.57000 93513.47819 87369.59140 0.0000053
6.58000 91081.47864 86441.82198 0.0000054
6.59000 85222.46771 80728.74405 0.0000056
6.60000 74004.60358 70067.46902 0.0000059
6.61000 61017.15238 57906.66181 0.0000065
6.62000 48903.33818 47368.66307 0.0000070
6.63000 40501.58420 39835.98670 0.0000075
6.64000 35205.72669 35248.45248 0.0000078
6.65000 32475.24602 32791.72760 0.0000080
6.66000 31079.71326 31573.75356 0.0000081
6.67000 30232.52002 30972.43583 0.0000082
6.68000 29552.81664 30659.89021 0.0000083
6.69000 29498.53834 30495.14305 0.0000083
6.70000 29528.97221 30425.77694 0.0000083
6.71000 29451.02194 30434.64129 0.0000083
6.72000 29566.88854 30517.68568 0.0000083
6.73000 29204.79475 30675.49351 0.0000084
6.74000 29643.32661 30907.83277 0.0000084
6.75000 29692.72164 31214.98334 0.0000084
6.76000 30146.49836 31600.28338 0.0000084
6.77000 30569.91325 32094.61664 0.0000084
6.78000 31357.71251 32763.15201 0.0000083
6.79000 32353.86340 33743.74721 0.0000083
6.80000 34415.36933 35364.12958 0.0000082
6.81000 37514.16980 38422.93123 0.0000080
6.82000 44123.80327 44629.48907 0.0000076
6.83000 54953.30546 56910.40220 0.0000070
6.84000 76485.49117 78834.83626 0.0000061
6.85000 110163.26542 112527.07198 0.0000051
6.86000 153282.73011 155406.95435 0.0000042
6.87000 194768.67326 197397.59350 0.0000036
6.88000 217036.97436 221266.77292 0.0000033
6.89000 212012.34490 213606.10883 0.0000034
6.90000 179817.16697 180419.19952 0.0000038
6.91000 136817.82713 139157.35840 0.0000045
6.92000 99081.28192 102614.53304 0.0000054
6.93000 72287.30131 75560.94650 0.0000064
6.94000 55405.24838 57736.57531 0.0000072
6.95000 45461.95631 46915.24655 0.0000077
6.96000 39065.43920 40627.20158 0.0000082
6.97000 35383.73568 37042.40727 0.0000084
6.98000 32986.79544 35045.66743 0.0000086
6.99000 32341.56176 34007.67432 0.0000087
7.00000 32012.88406 33604.62157 0.0000087
7.01000 32245.31500 33820.32804 0.0000087
7.02000 33458.31205 34995.91325 0.0000087
7.03000 36425.18243 37949.06331 0.0000085
7.04000 42060.92366 43931.42409 0.0000081
7.05000 52133.91607 54116.70049 0.0000075
7.06000 66745.30143 68515.12958 0.0000068
7.07000 82203.80058 84734.32836 0.0000061
7.08000 94642.52640 97302.46784 0.0000057
7.09000 96699.19042 99510.45380 0.0000056
7.10000 88381.89031 89854.78340 0.0000059
7.11000 72959.94048 73971.78865 0.0000065
7.12000 57038.08532 58246.46649 0.0000073
7.13000 44742.44804 46194.27072 0.0000080
7.14000 37875.90478 38591.61111 0.0000085
7.15000 34121.32135 34618.22406 0.0000088
7.16000 32500.56736 33064.64337 0.0000090
7.17000 32417.40293 33006.47007 0.0000090
7.18000 33756.07902 33853.38797 0.0000089
7.19000 35059.64176 35095.98224 0.0000088
7.20000 36420.95050 36069.11925 0.0000087
7.21000 36533.55886 36080.23200 0.0000087
7.22000 35205.14452 34947.34463 0.0000089
7.23000 33337.78908 33220.27845 0.0000090
7.24000 31255.33090 31534.05833 0.0000092
7.25000 29859.60413 30228.04615 0.0000093
7.26000 28745.04038 29382.84858 0.0000095
7.27000 28390.82113 28905.20052 0.0000095
7.28000 27997.46979 28660.49162 0.0000096
7.29000 27953.32476 28543.72740 0.0000096
7.30000 27741.13827 28496.58952 0.0000096
7.31000 27866.29715 28496.60857 0.0000096
7.32000 27773.23649 28546.38415 0.0000097
7.33000 28232.96752 28678.54264 0.0000096
7.34000 28398.29447 28959.22099 0.0000096
7.35000 29196.68275 29518.20919 0.0000096
7.36000 30463.63236 30516.59337 0.0000095
7.37000 32543.04785 32056.63598 0.0000093
7.38000 34953.53359 34042.79096 0.0000091
7.39000 37663.71021 36046.88319 0.0000089
7.40000 39246.73078 37306.51090 0.0000088
7.41000 39130.24401 37194.54234 0.0000088
7.42000 37478.17385 35970.77239 0.0000090
7.43000 35365.63403 34508.03273 0.0000092
7.44000 33784.73826 33603.69568 0.0000093
7.45000 33726.61022 33908.92243 0.0000093
7.46000 36022.22024 36158.60615 0.0000091
7.47000 40835.86669 41364.84229 0.0000088
7.48000 50558.66393 50541.16377 0.0000081
7.49000 64439.82697 63940.98973 0.0000073
7.50000 81007.58499 80044.08359 0.0000065
7.51000 95353.28217 94846.54919 0.0000060
7.52000 103143.12079 102902.26312 0.0000057
7.53000 101831.93589 102228.62396 0.0000057
7.54000 94229.09159 96176.46254 0.0000060
7.55000 83515.64509 87762.82381 0.0000064
7.56000 72141.93765 77162.38069 0.0000070
7.57000 61129.19908 64958.08411 0.0000075
7.58000 50505.55532 53419.64035 0.0000082
7.59000 42049.11757 44269.46250 0.0000088
7.60000 36310.81674 38006.12880 0.0000093
7.61000 33057.08007 34277.00797 0.0000096
7.62000 31133.45979 32355.72974 0.0000098
7.63000 30690.91845 31608.84840 0.0000099
7.64000 30617.15219 31726.46624 0.0000099
7.65000 32041.76390 32809.17863 0.0000098
7.66000 34630.19419 35256.04973 0.0000096
7.67000 39589.60785 39463.40512 0.0000091
7.68000 46045.55853 45337.97143 0.0000086
7.69000 53504.37813 51798.20439 0.0000081
7.70000 58142.35968 56534.21924 0.0000078
7.71000 58920.94483 56929.78460 0.0000078
7.72000 54689.94022 52814.63505 0.0000081
7.73000 48154.05140 46714.17326 0.0000085
7.74000 41630.05619 41132.28666 0.0000091
7.75000 37573.52341 37462.01187 0.0000094
7.76000 36183.66155 36223.81067 0.0000095
7.77000 37637.17766 37574.72326 0.0000094
7.78000 42479.54794 41707.82885 0.0000090
7.79000 50412.08394 48925.74474 0.0000084
7.80000 61139.81709 59410.15345 0.0000077
7.81000 74399.98287 72736.57275 0.0000070
7.82000 89560.01745 87616.04484 0.0000064
7.83000 104509.46356 102719.22116 0.0000058
7.84000 116644.39581 115767.47336 0.0000054
7.85000 120359.73059 121206.82055 0.0000053
7.86000 113267.45889 113779.29361 0.0000055
7.87000 95935.38680 95892.47954 0.0000061
7.88000 75128.40722 75173.22519 0.0000070
7.89000 56641.51172 57425.33747 0.0000081
7.90000 44224.25663 44950.91287 0.0000090
7.91000 37034.24109 37460.44474 0.0000097
7.92000 33075.51584 33466.94200 0.0000101
7.93000 30923.44181 31456.32193 0.0000103
7.94000 29786.55294 30411.44161 0.0000105
7.95000 29056.74023 29806.57024 0.0000106
7.96000 28721.90301 29421.58695 0.0000106
7.97000 28418.43665 29155.09076 0.0000107
7.98000 28273.00342 28977.65644 0.0000107
7.99000 28237.20007 28873.62851 0.0000107
8.00000 28170.13845 28837.10725 0.0000108
8.01000 28277.10854 28870.79317 0.0000108
8.02000 28184.75529 28991.30414 0.0000108
8.03000 28702.90616 29240.64816 0.0000107
8.04000 29127.82409 29730.07690 0.0000107
8.05000 30023.49697 30664.90243 0.0000106
8.06000 31792.74797 32354.84227 0.0000105
8.07000 34792.38169 35258.54939 0.0000101
8.08000 39124.34888 39900.61967 0.0000097
8.09000 45753.96352 46747.42209 0.0000092
8.10000 54290.00849 55864.92843 0.0000085
8.11000 65853.66207 66656.15641 0.0000078
8.12000 77151.12811 77890.37109 0.0000071
8.13000 85693.04711 86765.01825 0.0000067
8.14000 87677.12408 88584.72622 0.0000067
8.15000 81200.62579 81089.68584 0.0000070
8.16000 68516.73574 67992.45629 0.0000076
8.17000 54640.61204 54576.74788 0.0000086
8.18000 43957.19239 43967.00139 0.0000094
8.19000 36907.69499 37002.04598 0.0000101
8.20000 33043.36072 33078.85935 0.0000106
8.21000 30795.57842 31115.79293 0.0000108
8.22000 30095.49309 30202.44082 0.0000109
8.23000 29243.69066 29809.69665 0.0000111
8.24000 29382.37039 29686.75702 0.0000111
8.25000 29423.39604 29737.92221 0.0000111
8.26000 30068.43510 29924.61595 0.0000110
8.27000 30330.89250 30222.89720 0.0000110
8.28000 30938.44228 30627.61139 0.0000109
8.29000 31257.34654 31194.92581 0.0000109
8.30000 32289.58902 32166.71603 0.0000108
8.31000 33911.36191 34099.41281 0.0000107
8.32000 37707.09589 38126.42541 0.0000103
8.33000 44571.52554 46125.61878 0.0000096
8.34000 57375.24661 60334.00330 0.0000086
8.35000 77579.29865 81985.50591 0.0000073
8.36000 103297.62303 109239.75484 0.0000062
8.37000 126460.92433 135357.73610 0.0000054
8.38000 138204.16325 148885.12600 0.0000051
8.39000 132934.50685 141428.39008 0.0000052
8.40000 112420.49161 117863.45402 0.0000058
8.41000 86235.71575 89963.24703 0.0000069
8.42000 62888.90616 66147.48214 0.0000083
8.43000 48278.91374 49614.17016 0.0000094
8.44000 38864.57007 39846.59164 0.0000103
8.45000 34402.94574 34724.98417 0.0000109
8.46000 31692.59938 32184.23171 0.0000112
8.47000 30233.07356 30887.24633 0.0000114
8.48000 29588.56555 30176.47881 0.0000115
8.49000 29208.76309 29806.60638 0.0000116
8.50000 29099.16986 29734.05813 0.0000117
8.51000 29451.71889 29990.37859 0.0000116
8.52000 30126.76296 30592.27963 0.0000116
8.53000 31143.11649 31451.52096 0.0000114
8.54000 31959.66196 32307.72015 0.0000114
8.55000 32487.13764 32746.17868 0.0000113
8.56000 32433.19866 32515.34200 0.0000113
8.57000 32012.45491 31897.38104 0.0000114
8.58000 31791.98990 31473.79674 0.0000115
8.59000 32271.57200 31856.82909 0.0000114
8.60000 34114.44678 33689.16435 0.0000112
8.61000 38345.44219 37570.49225 0.0000107
8.62000 45253.19443 43721.00161 0.0000100
8.63000 53492.71877 51447.54935 0.0000092
8.64000 61013.07766 58659.72713 0.0000086
8.65000 64447.22080 62017.69474 0.0000084
8.66000 62535.09299 59396.59862 0.0000086
8.67000 55272.85630 52571.65130 0.0000091
8.68000 47123.82224 44871.20809 0.0000099
8.69000 39569.89146 38478.34430 0.0000107
8.70000 35190.09253 34145.30189 0.0000112
8.71000 32356.93743 31721.32100 0.0000116
8.72000 31011.24066 30634.45864 0.0000118
8.73000 30845.86246 30414.45247 0.0000119
8.74000 31350.29656 30915.30474 0.0000118
8.75000 32726.97852 32421.76401 0.0000117
8.76000 36053.49840 35705.25266 0.0000112
8.77000 42269.35722 41886.54266 0.0000105
8.78000 52366.04957 51863.69686 0.0000095
8.79000 66127.08965 65295.56839 0.0000084
8.80000 80137.01214 79541.82902 0.0000075
8.81000 89472.99634 89202.79432 0.0000071
8.82000 89266.15675 88630.08043 0.0000071
8.83000 80019.52773 78236.57498 0.0000076
8.84000 65524.08728 63977.49334 0.0000085
8.85000 52054.93244 51072.28787 0.0000096
8.86000 42571.84625 41990.05451 0.0000106
8.87000 37923.75764 37037.14992 0.0000112
8.88000 36174.53578 35345.49241 0.0000114
8.89000 36632.67526 35721.74045 0.0000113
8.90000 37376.66471 37010.80252 0.0000113
8.91000 38535.08784 38107.55882 0.0000111
8.92000 38378.93348 38275.83364 0.0000112
8.93000 37560.41392 37567.45061 0.0000113
8.94000 35608.46977 36309.91652 0.0000115
8.95000 34256.45204 34674.68651 0.0000117
8.96000 32704.75689 32922.59104 0.0000120
8.97000 31348.62782 31430.04225 0.0000122
8.98000 30540.33359 30416.29147 0.0000123
8.99000 30163.89808 29962.74573 0.0000124
9.00000 30678.40663 30154.48484 0.0000123
9.01000 31718.37328 31232.05665 0.0000121
9.02000 34228.96949 33682.01604 0.0000118
9.03000 38195.83107 38117.31129 0.0000113
9.04000 45082.60265 44843.41038 0.0000105
9.05000 52983.27303 53217.08902 0.0000097
9.06000 60438.13025 61080.11153 0.0000090
9.07000 63713.91208 64890.07954 0.0000088
9.08000 61948.15119 62345.88583 0.0000089
9.09000 55665.08030 55409.49904 0.0000094
9.10000 48550.88941 47933.02705 0.0000101
9.11000 43255.67164 42749.54030 0.0000107
9.12000 42053.65014 41303.58716 0.0000108
9.13000 45012.17452 43912.23662 0.0000105
9.14000 51267.90320 49915.24530 0.0000099
9.15000 58515.86209 57579.84001 0.0000092
9.16000 64505.66090 63935.07561 0.0000087
9.17000 66485.51124 65739.34031 0.0000086
9.18000 63709.05656 62588.75948 0.0000088
9.19000 57607.74624 56724.43717 0.0000093
9.20000 50826.94863 49936.99142 0.0000099
9.21000 44333.83539 43371.13608 0.0000106
9.22000 39022.66760 37988.59171 0.0000112
9.23000 35172.13143 34169.04738 0.0000117
9.24000 32858.97951 31780.03714 0.0000121
9.25000 31599.36964 30518.17597 0.0000122
9.26000 31076.22167 30127.69828 0.0000123
9.27000 31334.32690 30491.80930 0.0000123
9.28000 32235.81783 31623.58372 0.0000121
9.29000 33849.39842 33508.96992 0.0000119
9.30000 35772.66612 35898.56694 0.0000116
9.31000 37854.94124 38135.92844 0.0000114
9.32000 38556.93523 39212.50512 0.0000113
9.33000 38350.22785 38585.44126 0.0000113
9.34000 37263.38245 37014.55747 0.0000114
9.35000 36567.53954 35868.10633 0.0000115
9.36000 37177.51559 36347.68330 0.0000114
9.37000 40277.96308 39336.44637 0.0000110
9.38000 46054.08173 45153.25848 0.0000104
9.39000 53768.69230 53089.97205 0.0000096
9.40000 61035.19523 60965.67353 0.0000090
9.41000 64841.62536 65160.84938 0.0000087
9.42000 63041.49850 62957.22168 0.0000088
9.43000 56821.71701 55779.82075 0.0000093
9.44000 48537.28773 47268.54744 0.0000101
9.45000 41252.56958 40016.89587 0.0000109
9.46000 36269.50039 35002.17975 0.0000115
9.47000 33741.64994 32071.06720 0.0000119
9.48000 32341.63842 30584.58695 0.0000121
9.49000 31733.83769 29920.15879 0.0000122
9.50000 31361.79151 29678.81762 0.0000122
9.51000 31217.76687 29672.12207 0.0000123
9.52000 31461.00862 29836.62619 0.0000122
9.53000 31518.54876 30156.35184 0.0000122
9.54000 32225.99440 30625.91766 0.0000121
9.55000 32596.74951 31203.78960 0.0000121
9.56000 33454.63338 31840.12418 0.0000119
9.57000 34176.09767 32545.84088 0.0000118
9.58000 35353.81165 33571.12139 0.0000116
9.59000 37477.28568 35484.84993 0.0000114
9.60000 41582.44004 39209.12796 0.0000109
9.61000 49036.35370 45997.53353 0.0000100
9.62000 61365.57908 57164.63124 0.0000089
9.63000 78620.24841 73474.93755 0.0000077
9.64000 99584.80794 94164.35982 0.0000067
9.65000 121809.61253 115914.89764 0.0000058
9.66000 140220.84685 134055.23483 0.0000052
9.67000 150132.66232 145239.41084 0.0000050
9.68000 148347.14309 145478.92073 0.0000050
9.69000 134178.29516 131619.66852 0.0000054
9.70000 110772.85562 108285.40894 0.0000062
9.71000 86125.19413 84169.86040 0.0000073
9.72000 66403.54650 65018.45150 0.0000085
9.73000 54328.63446 52881.11679 0.0000095
9.74000 49208.96246 47670.02692 0.0000100
9.75000 50449.26519 48744.08664 0.0000099
9.76000 57643.89502 55715.20607 0.0000092
9.77000 70884.51830 68016.88244 0.0000082
9.78000 86699.61679 83653.92058 0.0000073
9.79000 101409.33079 97986.67108 0.0000066
9.80000 107446.81453 104086.02446 0.0000063
9.81000 102659.73696 98347.41760 0.0000065
9.82000 90032.35888 85680.88896 0.0000071
9.83000 77426.27462 74060.85268 0.0000078
9.84000 71439.84884 69301.31132 0.0000082
9.85000 76565.19018 74224.52118 0.0000079
9.86000 91129.14095 88425.54115 0.0000071
9.87000 110752.15455 107888.73805 0.0000062
9.88000 126588.56530 124674.48279 0.0000056
9.89000 131614.10007 129174.56136 0.0000055
9.90000 121977.06615 118542.65130 0.0000058
9.91000 102903.08479 99302.42174 0.0000065
9.92000 81466.45084 78836.56346 0.0000076
9.93000 63425.58626 61479.67088 0.0000088
9.94000 50927.48001 48984.36982 0.0000099
9.95000 42832.33196 41067.21598 0.0000107
9.96000 37933.96692 36461.74833 0.0000113
9.97000 34839.30173 33897.61322 0.0000117
9.98000 33453.05989 32482.88929 0.0000119
9.99000 32432.18278 31679.40653 0.0000121
10.00000 31927.80873 31210.50992 0.0000121
10.01000 31590.78921 30949.83852 0.0000122
10.02000 31615.04554 30854.31874 0.0000122
10.03000 31618.86582 30941.71443 0.0000122
10.04000 32337.20114 31320.75844 0.0000121
10.05000 33220.36729 32240.61260 0.0000120
10.06000 35204.78256 34210.92264 0.0000117
10.07000 38735.29590 37973.27588 0.0000112
10.08000 45024.38387 44251.63677 0.0000105
10.09000 53866.03656 53199.63998 0.0000096
10.10000 64393.20835 63708.09137 0.0000087
10.11000 73109.11721 72845.80911 0.0000081
10.12000 77381.30280 76720.45094 0.0000078
10.13000 75677.68778 74124.52518 0.0000079
10.14000 69044.78869 67285.41190 0.0000084
10.15000 60128.74504 58461.90054 0.0000091
10.16000 51221.71751 49517.48901 0.0000099
10.17000 43471.99081 42080.31782 0.0000107
10.18000 37916.62323 36778.60731 0.0000114
10.19000 34311.40986 33422.93021 0.0000118
10.20000 32193.84581 31515.20644 0.0000122
10.21000 31124.76277 30546.46670 0.0000123
10.22000 30622.05545 30167.62594 0.0000124
10.23000 30563.00983 30130.33155 0.0000124
10.24000 30649.68978 30265.55610 0.0000124
10.25000 30975.84333 30404.48524 0.0000124
10.26000 30743.49568 30383.99608 0.0000124
10.27000 30759.61222 30179.15203 0.0000124
10.28000 30283.83870 29958.62907 0.0000125
10.29000 30379.12614 29943.91115 0.0000125
10.30000 30624.22948 30309.43834 0.0000124
10.31000 31561.35454 31110.50781 0.0000123
10.32000 32547.90511 32236.72997 0.0000121
10.33000 33711.02048 33339.60129 0.0000120
10.34000 34056.77261 33857.07745 0.0000119
10.35000 33684.84793 33424.04828 0.0000120
10.36000 32730.10888 32319.78663 0.0000121
10.37000 31550.56417 31087.92994 0.0000123
10.38000 30230.79766 30084.18370 0.0000125
10.39000 29612.33334 29436.11180 0.0000126
10.40000 29420.98514 29127.18694 0.0000127
10.41000 29215.49659 29105.02048 0.0000127
10.42000 29222.49349 29367.37530 0.0000127
10.43000 29725.86210 29985.26171 0.0000126
10.44000 30649.44263 31063.33823 0.0000125
10.45000 31994.62195 32621.84240 0.0000123
10.46000 33414.69038 34458.23697 0.0000121
10.47000 34637.86847 36039.45558 0.0000119
10.48000 35406.90755 36608.27325 0.0000118
10.49000 34850.54044 35855.55059 0.0000119
10.50000 33546.53819 34355.81049 0.0000120
10.51000 32165.59952 32892.41522 0.0000123
10.52000 31405.48012 31986.45348 0.0000124
10.53000 31076.45387 31924.65813 0.0000124
10.54000 32175.78585 32862.92802 0.0000123
10.55000 33779.70252 34856.06210 0.0000120
10.56000 36756.69430 37750.54940 0.0000116
10.57000 39579.30967 41019.14253 0.0000113
10.58000 41892.42244 43626.77290 0.0000110
10.59000 42411.05072 44258.86495 0.0000109
10.60000 41101.78493 42564.82499 0.0000111
10.61000 38432.70586 39684.09157 0.0000114
10.62000 36001.42125 36983.93307 0.0000117
10.63000 34347.21012 35333.99319 0.0000120
10.64000 34501.14143 35203.85311 0.0000120
10.65000 35966.61479 36858.97253 0.0000118
10.66000 39629.25023 40421.50919 0.0000113
10.67000 44878.82903 45628.80501 0.0000107
10.68000 50611.08753 51494.03168 0.0000100
10.69000 54948.19028 56083.30792 0.0000096
10.70000 56504.18156 57346.72733 0.0000095
10.71000 55103.84960 55724.47803 0.0000096
10.72000 53687.89551 54405.82724 0.0000097
10.73000 55753.80705 56805.72787 0.0000096
10.74000 63970.06345 65215.48613 0.0000089
10.75000 78840.31568 80027.27567 0.0000078
10.76000 96590.76107 98859.97486 0.0000069
10.77000 113232.33457 115834.48561 0.0000062
10.78000 121176.32359 123498.08116 0.0000059
10.79000 118461.66677 119592.52019 0.0000060
10.80000 106376.09153 107425.07954 0.0000064
10.81000 89614.47288 90562.43792 0.0000072
10.82000 72211.65871 73069.29797 0.0000083
10.83000 57667.91837 58596.80251 0.0000094
10.84000 47592.14745 48645.87538 0.0000104
10.85000 41826.27297 43151.44207 0.0000111
10.86000 39728.44279 41491.73505 0.0000113
10.87000 41247.28670 43002.68213 0.0000111
10.88000 44855.11330 46947.89797 0.0000107
10.89000 49940.25820 52164.05631 0.0000102
10.90000 53914.76069 56675.49445 0.0000098
10.91000 55187.69720 58056.87344 0.0000096
10.92000 53300.20099 55659.14780 0.0000098
10.93000 49645.99321 51707.82879 0.0000102
10.94000 46837.38257 49079.40804 0.0000105
10.95000 47690.17921 49663.79914 0.0000104
10.96000 51937.08342 54014.62403 0.0000100
10.97000 58670.37429 61174.14512 0.0000093
10.98000 65561.15306 68552.19141 0.0000088
10.99000 69603.58643 72669.00266 0.0000085
11.00000 69290.56063 71922.93985 0.0000085
11.01000 65048.79384 67211.53071 0.0000088
11.02000 57642.62027 59844.17776 0.0000094
11.03000 50009.15574 51702.74184 0.0000102
11.04000 43055.97530 44752.46088 0.0000110
11.05000 38359.96804 40011.73898 0.0000116
11.06000 36259.76478 37710.10785 0.0000118
11.07000 35812.88361 37781.75139 0.0000119
11.08000 37689.22140 40049.01581 0.0000117
11.09000 41292.89431 44089.02133 0.0000112
11.10000 45614.63580 48907.38090 0.0000107
11.11000 48504.62361 52649.29732 0.0000104
11.12000 49213.63970 53147.89904 0.0000103
11.13000 46767.18579 50107.83758 0.0000106
11.14000 42940.20965 45554.12560 0.0000110
11.15000 39474.42408 41621.25887 0.0000114
11.16000 37806.18966 39421.08662 0.0000117
11.17000 37967.83603 39046.15871 0.0000116
11.18000 39026.26278 39782.36492 0.0000115
11.19000 39652.86646 40389.27268 0.0000114
11.20000 39167.80061 39759.05964 0.0000115
11.21000 37195.29758 37868.46453 0.0000118
11.22000 34797.80333 35550.35700 0.0000121
11.23000 32519.26144 33504.05272 0.0000124
11.24000 30847.42692 32035.85482 0.0000127
11.25000 29939.23912 31150.68667 0.0000129
11.26000 29500.47918 30721.57062 0.0000129
11.27000 29281.09728 30603.32400 0.0000130
11.28000 29489.70756 30706.92339 0.0000129
11.29000 29629.46050 30987.34599 0.0000129
11.30000 29887.25255 31404.61123 0.0000129
11.31000 30407.10645 31892.63958 0.0000128
11.32000 30845.51637 32371.46982 0.0000127
11.33000 31451.13853 32886.36837 0.0000126
11.34000 32362.84623 33782.43092 0.0000125
11.35000 34133.74269 35629.68840 0.0000122
11.36000 37483.43176 39003.41157 0.0000117
11.37000 42662.74162 44212.69750 0.0000111
11.38000 49250.67309 50926.11720 0.0000103
11.39000 56636.87647 57769.58892 0.0000096
11.40000 62091.79496 62494.87338 0.0000091
11.41000 64299.94635 63684.65394 0.0000089
11.42000 62365.70037 61307.42515 0.0000091
11.43000 57285.87621 55851.97206 0.0000095
11.44000 50244.41817 48915.97578 0.0000102
11.45000 43250.58433 42470.26730 0.0000110
11.46000 37381.17791 37559.42979 0.0000118
11.47000 33802.59375 34321.66823 0.0000123
11.48000 31646.16800 32420.35547 0.0000126
11.49000 30282.10145 31391.23295 0.0000128
11.50000 29820.04148 30845.75480 0.0000129
11.51000 29673.58115 30551.40949 0.0000129
11.52000 29244.78486 30381.55871 0.0000130
11.53000 29333.22872 30277.01187 0.0000130
11.54000 29180.23511 30243.20257 0.0000130
11.55000 29272.41704 30281.82851 0.0000130
11.56000 29438.76637 30425.00829 0.0000130
11.57000 29866.48092 30717.12647 0.0000129
11.58000 30421.81494 31197.36078 0.0000128
11.59000 31513.31900 31860.41968 0.0000126
11.60000 32388.05526 32616.27864 0.0000125
11.61000 33323.79502 33283.72534 0.0000124
11.62000 33822.02027 33599.05963 0.0000123
11.63000 33494.81761 33379.01426 0.0000123
11.64000 32687.59419 32779.61010 0.0000125
11.65000 31917.69766 32115.00638 0.0000126
11.66000 31021.61461 31612.75431 0.0000127
11.67000 30415.20212 31344.28662 0.0000128
11.68000 30512.45821 31300.11936 0.0000128
11.69000 30379.51844 31440.14650 0.0000128
11.70000 30890.18987 31745.71801 0.0000128
11.71000 31215.10681 32245.57211 0.0000127
11.72000 32200.72270 33089.73733 0.0000126
11.73000 33618.14974 34612.59045 0.0000123
11.74000 36565.26190 37404.33442 0.0000119
11.75000 41433.51348 42292.73698 0.0000112
11.76000 49599.87677 49987.70816 0.0000103
11.77000 60633.06661 60530.84850 0.0000093
11.78000 72896.08646 72543.08846 0.0000083
11.79000 82781.58824 82688.92524 0.0000077
11.80000 87876.64596 87171.24482 0.0000074
11.81000 85612.47790 85108.35664 0.0000075
11.82000 78088.32767 77920.72971 0.0000080
11.83000 67742.99976 67853.11126 0.0000087
11.84000 57732.61308 58115.62423 0.0000095
11.85000 50368.11933 51312.74519 0.0000102
11.86000 47646.63535 48818.44676 0.0000105
11.87000 49826.48671 51280.32274 0.0000103
11.88000 57369.05941 58760.97312 0.0000095
11.89000 69088.69185 70301.36037 0.0000086
11.90000 81359.47437 83181.93258 0.0000078
11.91000 90237.31501 92467.05299 0.0000073
11.92000 91555.54854 93239.19512 0.0000072
11.93000 85410.56838 86481.82614 0.0000075
11.94000 77799.13844 78566.14327 0.0000080
11.95000 74197.45474 75003.90381 0.0000082
11.96000 77662.25554 77875.53900 0.0000080
11.97000 85598.37858 85496.15958 0.0000075
11.98000 92334.08568 92630.86714 0.0000071
11.99000 92615.05155 92673.54274 0.0000071
12.00000 84477.93139 83754.36299 0.0000076
12.01000 70525.62450 70321.11737 0.0000085
12.02000 56934.17028 57352.88236 0.0000096
12.03000 46323.17410 47436.84634 0.0000106
12.04000 40009.03219 41078.85828 0.0000114
12.05000 36694.90047 37634.10318 0.0000119
12.06000 35068.12294 36162.40394 0.0000121
12.07000 34864.87988 35922.34319 0.0000121
12.08000 35273.16038 36446.26213 0.0000121
12.09000 36221.12870 37393.00743 0.0000119
12.10000 37200.50521 38416.88213 0.0000118
12.11000 38155.13860 39288.44658 0.0000116
12.12000 39290.04599 40393.33672 0.0000115
12.13000 42218.03956 42785.79850 0.0000111
12.14000 47043.54649 47525.77220 0.0000105
12.15000 55298.47177 55016.62886 0.0000097
12.16000 64826.71852 64420.27850 0.0000089
12.17000 73757.58794 73127.64430 0.0000082
12.18000 78276.80271 77387.69135 0.0000079
12.19000 76985.10139 75504.70078 0.0000080
12.20000 70033.57479 68959.45684 0.0000085
12.21000 60666.86702 60058.86401 0.0000092
12.22000 51502.70650 51256.41422 0.0000101
12.23000 44372.88166 44373.04505 0.0000108
12.24000 39833.98550 40047.76873 0.0000114
12.25000 37892.16488 38165.08711 0.0000116
12.26000 38051.68623 38295.55728 0.0000116
12.27000 39926.52122 39842.13935 0.0000114
12.28000 42211.63496 41976.26989 0.0000111
12.29000 43896.37980 43532.40935 0.0000109
12.30000 43837.06116 43415.52160 0.0000109
12.31000 42417.31280 41757.03986 0.0000110
12.32000 40318.97583 39781.96001 0.0000113
12.33000 39326.84243 38585.84180 0.0000114
12.34000 39645.67343 38705.72757 0.0000114
12.35000 41592.72853 40103.93062 0.0000111
12.36000 44577.06754 42185.72457 0.0000108
12.37000 47028.36634 44008.14530 0.0000105
12.38000 47859.23431 44779.94630 0.0000104
12.39000 46965.42799 43980.22121 0.0000105
12.40000 44091.82764 41704.19405 0.0000108
12.41000 40533.56695 38879.11499 0.0000112
12.42000 37125.34871 36437.91275 0.0000117
12.43000 35085.72968 34852.13291 0.0000120
12.44000 34115.57725 34222.91141 0.0000121
12.45000 33934.98591 34427.04860 0.0000121
12.46000 34913.53868 35221.13875 0.0000120
12.47000 35761.17181 36288.44565 0.0000119
12.48000 36880.54457 37323.73290 0.0000117
12.49000 38086.95111 38389.25036 0.0000115
12.50000 40231.79492 40244.53670 0.0000112
12.51000 44225.84819 43940.32490 0.0000108
12.52000 51338.31291 50177.55742 0.0000100
12.53000 60361.16620 58790.85109 0.0000092
12.54000 70159.16123 68152.47696 0.0000084
12.55000 76846.99136 75123.71656 0.0000080
12.56000 78774.21560 77108.30363 0.0000078
12.57000 74569.73592 73815.72427 0.0000081
12.58000 66299.63747 66263.94148 0.0000087
12.59000 56684.45764 56868.10300 0.0000095
12.60000 47837.33702 48340.71471 0.0000103
12.61000 41483.65722 42092.12011 0.0000111
12.62000 37795.80846 38323.02877 0.0000115
12.63000 36156.81915 36601.34462 0.0000117
12.64000 35872.94531 36269.40791 0.0000118
12.65000 36180.14439 36681.84525 0.0000117
12.66000 36839.60043 37240.56255 0.0000116
12.67000 37173.73214 37646.95394 0.0000116
12.68000 37921.69817 38225.17646 0.0000115
12.69000 39602.09446 39695.17211 0.0000113
12.70000 42944.01276 42522.29828 0.0000108
12.71000 47429.56981 46502.19640 0.0000103
12.72000 51554.45183 50497.34953 0.0000099
12.73000 53506.66819 52497.77416 0.0000097
12.74000 52315.88868 51070.54932 0.0000098
12.75000 48149.47690 47124.53200 0.0000102
12.76000 43549.78202 42668.08438 0.0000107
12.77000 39494.63732 39114.25634 0.0000112
12.78000 37462.08909 37123.58390 0.0000115
12.79000 37335.02874 36913.87288 0.0000115
12.80000 39360.65630 38538.35992 0.0000112
12.81000 43485.41541 41941.69458 0.0000107
12.82000 48890.22595 46757.23843 0.0000101
12.83000 54701.28487 51986.78141 0.0000096
12.84000 58859.39153 55856.49089 0.0000092
12.85000 59842.01707 56867.86226 0.0000091
12.86000 58544.01627 55989.03439 0.0000092
12.87000 57714.19926 56016.55840 0.0000093
12.88000 59815.58833 59063.82832 0.0000091
12.89000 65589.98784 65413.28763 0.0000086
12.90000 72404.33760 73130.39333 0.0000082
12.91000 77309.58914 78267.25943 0.0000078
12.92000 77027.65809 77603.70103 0.0000079
12.93000 71600.48466 71746.01953 0.0000082
12.94000 63082.94789 63262.01047 0.0000088
12.95000 54777.30070 54829.13783 0.0000095
12.96000 48525.99136 48643.58947 0.0000101
12.97000 45646.05972 45867.90946 0.0000104
12.98000 46739.42556 46831.44320 0.0000103
12.99000 51776.42672 51274.35266 0.0000098
13.00000 59005.29400 58190.31611 0.0000091
13.01000 66642.18004 65499.83972 0.0000085
13.02000 70789.15447 70064.35391 0.0000082
13.03000 71088.24816 69880.30277 0.0000082
13.04000 68040.37097 66984.90286 0.0000084
13.05000 66119.98008 65382.29603 0.0000086
13.06000 68168.37814 67587.85199 0.0000084
13.07000 74266.85570 73504.48748 0.0000080
13.08000 80412.25679 80202.58926 0.0000076
13.09000 83391.56988 82964.31749 0.0000074
13.10000 80145.75582 79261.15910 0.0000076
13.11000 71968.51925 70771.89130 0.0000081
13.12000 61318.01466 60468.19203 0.0000089
13.13000 51427.49218 50964.57230 0.0000097
13.14000 44118.55060 43777.92549 0.0000105
13.15000 39564.70275 39135.33588 0.0000110
13.16000 37219.65563 36556.67823 0.0000113
13.17000 36159.25373 35388.77126 0.0000114
13.18000 35897.70646 35075.98463 0.0000115
13.19000 36312.14397 35233.69998 0.0000114
13.20000 36828.43047 35683.37819 0.0000113
13.21000 37728.08859 36596.92163 0.0000112
13.22000 39512.25097 38584.25323 0.0000110
13.23000 43350.93165 42542.92030 0.0000105
13.24000 50177.01886 49369.70434 0.0000098
13.25000 60326.48920 59410.71378 0.0000089
13.26000 72637.32579 71691.73929 0.0000080
13.27000 83748.97080 83448.79846 0.0000074
13.28000 89394.01079 90260.02549 0.0000071
13.29000 87326.80994 87967.78354 0.0000072
13.30000 77195.38440 77529.69351 0.0000077
13.31000 64433.10729 64227.28938 0.0000086
13.32000 51846.57519 52329.49941 0.0000096
13.33000 43329.36907 43646.74154 0.0000105
13.34000 38166.53912 38237.40528 0.0000111
13.35000 35421.31705 35293.73919 0.0000114
13.36000 34082.53669 33880.14390 0.0000116
13.37000 33669.85685 33337.27998 0.0000116
13.38000 33552.91172 33384.57556 0.0000117
13.39000 34259.25472 34047.09118 0.0000115
13.40000 35627.34425 35435.86910 0.0000114
13.41000 37648.95249 37498.12133 0.0000111
13.42000 39787.89657 39812.79642 0.0000108
13.43000 41044.61649 41457.29887 0.0000107
13.44000 41192.29956 41378.29035 0.0000107
13.45000 39612.07954 39556.19636 0.0000108
13.46000 37220.99007 37022.08206 0.0000111
13.47000 34809.44844 34692.84718 0.0000114
13.48000 33294.97207 32993.17067 0.0000116
13.49000 32240.32074 31982.19126 0.0000118
13.50000 32078.74774 31531.43229 0.0000118
13.51000 31780.15837 31479.43811 0.0000118
13.52000 32215.57275 31730.02056 0.0000117
13.53000 32787.68366 32305.19450 0.0000117
13.54000 34002.86414 33391.97192 0.0000115
13.55000 36088.65603 35406.28442 0.0000112
13.56000 40155.75341 38976.64946 0.0000107
13.57000 46281.39606 44672.98823 0.0000101
13.58000 55503.80845 52496.13275 0.0000092
13.59000 64734.92143 61299.68777 0.0000085
13.60000 72105.32862 68316.00512 0.0000080
13.61000 73793.46421 70119.72866 0.0000079
13.62000 69588.65813 66077.84774 0.0000081
13.63000 61682.62092 58754.31160 0.0000087
13.64000 52954.14607 51025.72172 0.0000094
13.65000 46054.57348 45000.83876 0.0000100
13.66000 42770.21176 41778.95260 0.0000104
13.67000 42656.12500 41595.83912 0.0000104
13.68000 45771.34554 44123.62303 0.0000101
13.69000 50594.55217 48479.73472 0.0000096
13.70000 55515.54676 53068.59491 0.0000092
13.71000 57805.24495 55587.27528 0.0000090
13.72000 57010.37172 54613.03507 0.0000090
13.73000 53528.81122 51463.17135 0.0000093
13.74000 49992.57770 48544.13841 0.0000096
13.75000 47982.10174 47219.39870 0.0000098
13.76000 47726.82201 47396.35791 0.0000098
13.77000 47778.95109 47732.02549 0.0000098
13.78000 46694.39210 46606.97346 0.0000099
13.79000 44022.77346 43798.96101 0.0000102
13.80000 40786.46268 40387.19923 0.0000105
13.81000 37805.97654 37412.20174 0.0000109
13.82000 35920.55731 35502.63678 0.0000111
13.83000 35400.15214 34914.62628 0.0000112
13.84000 36466.35114 35647.08895 0.0000110
13.85000 38966.76518 37506.33632 0.0000107
13.86000 42098.41650 40064.55716 0.0000104
13.87000 44724.80116 42601.69065 0.0000101
13.88000 46632.63948 44274.20433 0.0000099
13.89000 47385.02155 45106.56531 0.0000098
13.90000 48210.46283 46383.76669 0.0000097
13.91000 50833.22000 49388.00620 0.0000095
13.92000 55525.27634 54313.57804 0.0000091
13.93000 60337.65524 59837.64988 0.0000087
13.94000 63313.01091 63222.75995 0.0000085
13.95000 62141.62964 62322.25076 0.0000086
13.96000 57488.82806 57716.17171 0.0000089
13.97000 50631.40500 51359.57453 0.0000095
13.98000 44649.42473 45268.72253 0.0000101
13.99000 40244.92099 40904.80183 0.0000105
14.00000 38346.54498 38850.44260 0.0000107
14.01000 38842.22466 39009.64303 0.0000107
14.02000 40779.40150 40834.60867 0.0000105
14.03000 43126.30206 43367.76590 0.0000102
14.04000 44760.29624 45269.08998 0.0000100
14.05000 45261.99371 45505.35720 0.0000100
14.06000 44711.41413 44566.33929 0.0000100
14.07000 43944.59601 43910.05272 0.0000101
14.08000 44849.28528 44420.18526 0.0000100
14.09000 46409.25969 45884.17777 0.0000099
14.10000 47438.11643 46992.62289 0.0000098
14.11000 46671.35953 46137.21829 0.0000098
14.12000 44044.85687 43188.02628 0.0000101
14.13000 39942.73053 39472.73780 0.0000105
14.14000 36472.79474 36192.88789 0.0000109
14.15000 34044.58740 33930.64062 0.0000112
14.16000 32913.43386 32808.84839 0.0000114
14.17000 32753.26347 32685.47442 0.0000114
14.18000 33351.37052 33299.92938 0.0000113
14.19000 34098.77529 34329.16182 0.0000112
14.20000 34869.86813 35366.35298 0.0000111
14.21000 35622.85514 36055.10174 0.0000110
14.22000 36139.26575 36559.90181 0.0000110
14.23000 37163.96760 37659.88960 0.0000108
14.24000 39563.56491 40196.73823 0.0000106
14.25000 44107.30998 44610.53745 0.0000101
14.26000 50039.88108 50570.59525 0.0000095
14.27000 56392.59530 56729.34557 0.0000090
14.28000 60135.17809 60922.98456 0.0000087
14.29000 60422.55518 60893.38881 0.0000086
14.30000 56395.40292 56348.54080 0.0000090
14.31000 49676.81042 49680.73775 0.0000095
14.32000 43152.59521 43442.13121 0.0000102
14.33000 38601.14281 38944.38307 0.0000107
14.34000 36080.46979 36457.40554 0.0000110
14.35000 35374.69735 35664.16980 0.0000110
14.36000 35529.45911 36080.83452 0.0000110
14.37000 36698.59066 37409.80731 0.0000109
14.38000 39058.83253 39865.25221 0.0000106
14.39000 43662.05450 44076.27661 0.0000101
14.40000 49708.13492 50356.02414 0.0000095
14.41000 57570.27324 57958.42396 0.0000089
14.42000 63600.01034 64574.61797 0.0000084
14.43000 65993.08765 66830.74860 0.0000082
14.44000 63120.63815 63290.62131 0.0000084
14.45000 56034.53185 56042.50324 0.0000090
14.46000 48163.74680 48015.14030 0.0000097
14.47000 41038.57996 41167.46745 0.0000104
14.48000 36090.62763 36271.45211 0.0000109
14.49000 33154.27057 33220.72256 0.0000113
14.50000 31485.05840 31526.72001 0.0000115
14.51000 30855.23826 30707.89817 0.0000116
14.52000 30528.88478 30472.83236 0.0000117
14.53000 30813.54511 30748.44725 0.0000116
14.54000 31600.13837 31622.60920 0.0000115
14.55000 33359.32349 33226.84680 0.0000113
14.56000 35905.07732 35565.94284 0.0000110
14.57000 38794.12858 38323.64715 0.0000106
14.58000 40940.46975 40687.28583 0.0000104
14.59000 42009.36368 41547.89270 0.0000103
14.60000 41015.97059 40518.74324 0.0000104
14.61000 38983.07216 38328.26970 0.0000106
14.62000 36262.11676 35999.79877 0.0000109
14.63000 34493.97760 34385.59127 0.0000111
14.64000 33817.75526 34001.69022 0.0000112
14.65000 34722.33477 35003.63625 0.0000111
14.66000 36621.34277 37177.35698 0.0000109
14.67000 39170.37938 39864.35052 0.0000106
14.68000 40640.08045 41862.83660 0.0000104
14.69000 40733.26280 41843.38599 0.0000104
14.70000 38953.57833 39699.86434 0.0000106
14.71000 36220.64200 36628.94400 0.0000109
14.72000 33317.69152 33739.30075 0.0000113
14.73000 31295.19744 31547.82178 0.0000116
14.74000 30017.90203 30121.05773 0.0000117
14.75000 29349.49096 29277.06252 0.0000118
14.76000 28806.49174 28799.81766 0.0000119
14.77000 28605.76838 28545.81445 0.0000119
14.78000 28558.32870 28441.32348 0.0000120
14.79000 28568.81986 28472.09506 0.0000119
14.80000 28804.36075 28645.22087 0.0000119
14.81000 29248.89557 28980.55782 0.0000119
14.82000 29833.78985 29468.94925 0.0000118
14.83000 30590.75569 30074.14437 0.0000117
14.84000 31238.52827 30752.09142 0.0000116
14.85000 32199.13683 31554.11812 0.0000115
14.86000 33219.00045 32747.06799 0.0000113
14.87000 35092.31747 34618.60808 0.0000111
14.88000 37406.50607 37163.06155 0.0000108
14.89000 40079.29257 39862.37911 0.0000105
14.90000 41787.27195 41660.14697 0.0000103
14.91000 42100.49044 41689.18562 0.0000103
14.92000 40486.67804 40089.75548 0.0000105
14.93000 38050.98312 37632.33743 0.0000107
14.94000 35381.89558 35255.56545 0.0000111
14.95000 33518.16513 33688.00012 0.0000113
14.96000 32807.63817 33227.26082 0.0000114
14.97000 33397.51873 33802.24253 0.0000113
14.98000 34439.88179 35048.97764 0.0000112
14.99000 35697.47007 36373.03232 0.0000110
15.00000 36406.89726 37152.19918 0.0000110
15.01000 36885.01414 37418.83663 0.0000109
15.02000 37590.34836 37940.71688 0.0000108
15.03000 39508.60363 39378.99383 0.0000106
15.04000 42169.17281 41744.18108 0.0000103
15.05000 45137.12398 44236.05219 0.0000100
15.06000 46664.97605 45592.85925 0.0000099
15.07000 46057.38526 45035.54920 0.0000099
15.08000 43444.78098 42636.57173 0.0000102
15.09000 39873.49598 39272.20913 0.0000106
15.10000 36223.57686 36129.59061 0.0000110
15.11000 33716.82223 33952.60835 0.0000113
15.12000 32338.00425 32923.12521 0.0000115
15.13000 32371.74794 32822.81160 0.0000115
15.14000 32547.60667 33168.22371 0.0000114
15.15000 32611.44755 33358.41962 0.0000114
15.16000 32377.86999 33085.62611 0.0000115
15.17000 32062.89701 32660.27405 0.0000115
15.18000 31831.60227 32609.18749 0.0000115
15.19000 32374.13790 33240.83689 0.0000115
15.20000 33814.76364 34537.73900 0.0000113
15.21000 35035.29045 36083.35711 0.0000111
15.22000 35996.91442 37144.93507 0.0000110
15.23000 35870.01502 36978.77795 0.0000110
15.24000 34594.54076 35587.60153 0.0000112
15.25000 32952.21985 33765.53185 0.0000114
15.26000 31689.67839 32261.54371 0.0000116
15.27000 31045.73964 31430.11636 0.0000117
15.28000 31211.22072 31284.59992 0.0000116
15.29000 31637.81908 31593.24505 0.0000116
15.30000 32116.37094 31996.00193 0.0000115
15.31000 32439.85628 32271.18468 0.0000115
15.32000 32726.25212 32582.26739 0.0000114
15.33000 33509.32005 33207.12513 0.0000113
15.34000 34417.06533 34148.47074 0.0000112
15.35000 35382.95384 35001.38233 0.0000111
15.36000 35424.11744 35085.38337 0.0000111
15.37000 34500.62462 34122.79102 0.0000112
15.38000 32750.46931 32587.73832 0.0000114
15.39000 31086.26836 31112.87994 0.0000116
15.40000 29668.12575 30079.52354 0.0000118
15.41000 29246.35050 29629.17948 0.0000119
15.42000 29159.56098 29738.04662 0.0000119
15.43000 29869.73506 30278.08664 0.0000118
15.44000 30203.36557 31048.73173 0.0000118
15.45000 30983.89871 31809.32399 0.0000117
15.46000 31461.48061 32457.79473 0.0000116
15.47000 32229.37446 33230.53841 0.0000115
15.48000 33231.09036 34422.44964 0.0000114
15.49000 34613.31643 35970.04893 0.0000112
15.50000 35538.22195 37295.28180 0.0000111
15.51000 35853.93187 37498.31067 0.0000110
15.52000 34946.99663 36255.28375 0.0000111
15.53000 33192.04172 34264.29645 0.0000114
15.54000 31508.00002 32399.49870 0.0000116
15.55000 30148.86019 31201.27814 0.0000118
15.56000 29774.12130 30880.94928 0.0000118
15.57000 30205.36225 31391.76614 0.0000118
15.58000 31072.50172 32470.76316 0.0000116
15.59000 32068.68252 33628.75066 0.0000115
15.60000 32418.25507 34187.37454 0.0000115
15.61000 32136.36897 33738.14555 0.0000115
15.62000 31191.85275 32619.47392 0.0000116
15.63000 30475.46078 31470.10509 0.0000117
15.64000 29883.26070 30669.19748 0.0000118
15.65000 29767.37369 30283.64290 0.0000118
15.66000 29783.09067 30150.79323 0.0000118
15.67000 29824.34303 30022.92755 0.0000118
15.68000 29418.65883 29715.23855 0.0000119
15.69000 29118.64335 29243.77638 0.0000119
15.70000 28539.18385 28785.39740 0.0000120
15.71000 28286.54063 28485.23951 0.0000120
15.72000 28208.46618 28402.64459 0.0000120
15.73000 28342.33855 28525.76693 0.0000120
15.74000 28607.62752 28797.24401 0.0000120
15.75000 29104.66754 29157.83137 0.0000119
15.76000 29474.75668 29642.21750 0.0000118
15.77000 30251.91437 30383.18618 0.0000117
15.78000 31192.84457 31454.96113 0.0000116
15.79000 32538.41184 32713.17218 0.0000114
15.80000 33465.82807 33736.30556 0.0000113
15.81000 34189.64646 34040.87071 0.0000112
15.82000 33657.67031 33504.56392 0.0000113
15.83000 32678.56860 32394.81626 0.0000114
15.84000 31449.17082 31158.91348 0.0000115
15.85000 30331.28964 30190.66425 0.0000117
15.86000 29634.70935 29677.85469 0.0000118
15.87000 29646.53666 29645.29089 0.0000118
15.88000 30064.70850 30024.50212 0.0000117
15.89000 30763.99953 30722.40448 0.0000116
15.90000 31461.36650 31719.10047 0.0000115
15.91000 32903.27602 33166.00826 0.0000113
15.92000 34771.12598 35218.49123 0.0000111
15.93000 37304.65787 37685.84140 0.0000108
15.94000 38945.01899 39808.70474 0.0000106
15.95000 39628.11674 40410.44392 0.0000105
15.96000 38255.73592 38960.77949 0.0000107
15.97000 35630.75284 36275.69726 0.0000110
15.98000 32942.82642 33476.66023 0.0000113
15.99000 30607.59383 31212.21133 0.0000116
16.00000 29051.47721 29671.84483 0.0000118
16.01000 28304.39710 28786.99172 0.0000119
16.02000 27863.35551 28394.77432 0.0000120
16.03000 27913.41588 28380.60186 0.0000120
16.04000 28202.22444 28720.23627 0.0000119
16.05000 28739.31878 29463.93943 0.0000119
16.06000 29819.29716 30655.07556 0.0000117
16.07000 31221.83047 32219.85018 0.0000115
16.08000 32630.81509 33847.95227 0.0000113
16.09000 33358.89600 34935.07446 0.0000112
16.10000 33457.82687 34909.14176 0.0000112
16.11000 32373.01080 33848.87356 0.0000114
16.12000 31111.38820 32336.98125 0.0000115
16.13000 29930.67110 30931.34356 0.0000117
16.14000 29141.72660 29963.56563 0.0000118
16.15000 28939.12572 29524.95367 0.0000118
16.16000 29155.15715 29533.14084 0.0000118
16.17000 29590.33659 29797.16043 0.0000117
16.18000 30046.86630 30066.72468 0.0000117
16.19000 30367.31662 30163.11782 0.0000116
16.20000 30559.95837 30148.87978 0.0000116
16.21000 30949.08577 30199.56981 0.0000115
16.22000 31520.23813 30378.41014 0.0000115
16.23000 31921.95018 30544.11248 0.0000114
16.24000 31853.57118 30454.24074 0.0000114
16.25000 31411.06433 30038.39602 0.0000115
16.26000 30540.63538 29473.00879 0.0000116
16.27000 29562.03617 28963.56260 0.0000117
16.28000 28982.02675 28640.47771 0.0000118
16.29000 28610.07244 28553.97507 0.0000119
16.30000 28634.18179 28701.07992 0.0000118
16.31000 28677.86916 29057.47157 0.0000118
16.32000 29410.33483 29611.82000 0.0000117
16.33000 30091.79324 30414.16597 0.0000116
16.34000 31342.85663 31656.47215 0.0000115
16.35000 33615.58068 33586.91687 0.0000112
16.36000 36282.46068 36266.22929 0.0000109
16.37000 39619.71269 39351.46491 0.0000105
16.38000 42135.51417 42000.18437 0.0000102
16.39000 43244.77815 43188.99267 0.0000101
16.40000 42234.46953 42255.86318 0.0000102
16.41000 39467.67096 39561.62918 0.0000105
16.42000 36072.88058 36304.47351 0.0000109
16.43000 33128.85507 33457.08403 0.0000112
16.44000 31137.77518 31432.30759 0.0000115
16.45000 30073.71718 30263.53585 0.0000117
16.46000 29639.60483 29813.96657 0.0000117
16.47000 29892.07639 29933.98954 0.0000117
16.48000 30504.01097 30537.84495 0.0000116
16.49000 31622.98269 31556.91415 0.0000115
16.50000 32823.15563 32814.49323 0.0000113
16.51000 34057.14805 33902.37444 0.0000112
16.52000 34436.53712 34242.93823 0.0000111
16.53000 33688.37040 33578.82266 0.0000112
16.54000 32333.51714 32311.94720 0.0000114
16.55000 30825.43242 30998.93514 0.0000116
16.56000 29786.99161 29967.66360 0.0000117
16.57000 29103.39518 29326.68380 0.0000118
16.58000 28990.59189 29066.92296 0.0000118
16.59000 29104.64747 29150.49174 0.0000118
16.60000 29740.49848 29584.47926 0.0000117
16.61000 30398.62155 30443.17776 0.0000117
16.62000 32029.80105 31849.20224 0.0000114
16.63000 34136.33491 33871.17022 0.0000112
16.64000 36881.94149 36353.25906 0.0000109
16.65000 39164.01381 38760.00402 0.0000106
16.66000 40888.63295 40237.95639 0.0000104
16.67000 40753.07010 40284.57863 0.0000104
16.68000 39578.44447 39272.60693 0.0000106
16.69000 37894.48634 38138.85751 0.0000108
16.70000 37462.19473 37895.86734 0.0000108
16.71000 38297.27502 39159.62588 0.0000107
16.72000 41113.11059 41913.82052 0.0000104
16.73000 44174.69961 45401.00128 0.0000101
16.74000 46744.87430 48051.81282 0.0000099
16.75000 46786.44411 48190.97621 0.0000099
16.76000 44730.83406 45848.72641 0.0000101
16.77000 41943.82902 42655.56903 0.0000104
16.78000 39277.75526 39948.92653 0.0000107
16.79000 37617.05359 38119.69640 0.0000109
16.80000 36574.20255 36850.71398 0.0000110
16.81000 35690.97208 35645.48338 0.0000111
16.82000 34517.49458 34248.30430 0.0000113
16.83000 33002.34098 32740.04514 0.0000115
16.84000 31566.81521 31378.11578 0.0000117
16.85000 30407.86707 30343.69474 0.0000119
16.86000 29707.90810 29684.10552 0.0000120
16.87000 29401.74978 29383.43111 0.0000120
16.88000 29555.06714 29423.41100 0.0000120
16.89000 29858.05000 29826.46675 0.0000120
16.90000 30940.90879 30651.47630 0.0000118
16.91000 32206.30070 31937.56863 0.0000117
16.92000 34309.09791 33604.77888 0.0000114
16.93000 36136.89825 35349.33385 0.0000112
16.94000 37619.02886 36660.48558 0.0000110
16.95000 37891.91205 37059.81105 0.0000110
16.96000 37344.74482 36468.42112 0.0000111
16.97000 35968.47112 35454.52965 0.0000113
16.98000 35267.59535 34774.56817 0.0000114
16.99000 35473.94780 34837.69341 0.0000114
17.00000 36297.34862 35601.36930 0.0000113
17.01000 37465.19798 36585.15798 0.0000111
17.02000 37810.53833 37013.69483 0.0000111
17.03000 37346.54482 36469.16574 0.0000112
17.04000 36089.11969 35350.75766 0.0000114
17.05000 34671.66455 34249.69465 0.0000116
17.06000 33672.71791 33393.82043 0.0000117
17.07000 32733.39204 32641.85598 0.0000119
17.08000 31962.59011 31791.84836 0.0000120
17.09000 31054.44256 30887.27564 0.0000121
17.10000 30337.32221 30085.82578 0.0000123
17.11000 29636.06087 29479.85362 0.0000124
17.12000 29309.37920 29091.16449 0.0000125
17.13000 29029.05056 28903.39492 0.0000125
17.14000 29121.98620 28896.34500 0.0000125
17.15000 29326.21575 29078.16145 0.0000125
17.16000 29748.51887 29502.93948 0.0000125
17.17000 30406.18517 30258.16163 0.0000124
17.18000 31340.92910 31421.54858 0.0000123
17.19000 33075.19023 32970.26540 0.0000120
17.20000 34803.69790 34682.48001 0.0000118
17.21000 36299.82904 36092.94319 0.0000116
17.22000 36754.63459 36644.45229 0.0000116
17.23000 36276.77817 36043.27007 0.0000117
17.24000 34823.82951 34640.56751 0.0000119
17.25000 33396.41584 33105.85738 0.0000121
17.26000 32039.01783 31917.98592 0.0000124
17.27000 31370.95372 31312.85815 0.0000125
17.28000 31327.22502 31407.20916 0.0000125
17.29000 32316.29286 32300.78430 0.0000124
17.30000 34047.74561 34096.61636 0.0000121
17.31000 36801.90950 36810.18404 0.0000118
17.32000 40033.94318 40180.89852 0.0000114
17.33000 43107.07530 43433.98299 0.0000110
17.34000 44628.59942 45290.06095 0.0000108
17.35000 44121.42947 44874.14313 0.0000109
17.36000 41856.54901 42644.52450 0.0000112
17.37000 38987.45302 39776.90230 0.0000116
17.38000 36731.87881 37338.99158 0.0000119
17.39000 35713.37719 35924.57561 0.0000121
17.40000 35676.61116 35638.73923 0.0000121
17.41000 36425.42995 36245.83840 0.0000120
17.42000 37534.00439 37315.35056 0.0000119
17.43000 38718.87061 38516.33631 0.0000118
17.44000 39973.33640 39951.63085 0.0000116
17.45000 41856.28972 41840.22484 0.0000114
17.46000 43178.89309 43881.13903 0.0000112
17.47000 43970.30971 45073.37948 0.0000112
17.48000 43392.65439 44428.03260 0.0000113
17.49000 41278.02961 42196.46093 0.0000116
17.50000 38644.75984 39553.92138 0.0000119
17.51000 36808.40353 37523.86816 0.0000122
17.52000 36160.00540 36644.13764 0.0000124
17.53000 36648.43498 37012.43561 0.0000123
17.54000 38192.52780 38394.09890 0.0000121
17.55000 40003.82646 40309.72599 0.0000119
17.56000 42034.94098 42278.08516 0.0000116
17.57000 44433.10066 44359.16073 0.0000113
17.58000 47211.10376 46952.71371 0.0000110
17.59000 49805.42746 49848.78465 0.0000107
17.60000 51588.83618 51751.03446 0.0000105
17.61000 50884.35168 50982.46174 0.0000106
17.62000 47668.29626 47508.00086 0.0000110
17.63000 43037.91112 42997.46042 0.0000116
17.64000 38887.81508 38948.88461 0.0000122
17.65000 35980.09455 36066.93447 0.0000127
17.66000 34518.57570 34459.53667 0.0000130
17.67000 34050.98642 33874.50405 0.0000131
17.68000 34239.55608 33912.92202 0.0000131
17.69000 34604.75615 34225.04139 0.0000130
17.70000 35345.19530 34761.37226 0.0000129
17.71000 36298.05167 35770.71846 0.0000128
17.72000 38146.04880 37440.57719 0.0000125
17.73000 40391.25661 39602.67042 0.0000122
17.74000 42579.48564 41624.48332 0.0000119
17.75000 43447.50735 42547.38439 0.0000118
17.76000 42575.22077 41711.98149 0.0000120
17.77000 40331.48662 39549.78160 0.0000123
17.78000 37693.06687 37112.21726 0.0000128
17.79000 35626.28365 35147.83699 0.0000131
17.80000 34130.42234 33910.55614 0.0000134
17.81000 33583.72605 33307.49012 0.0000135
17.82000 33504.45999 33090.12796 0.0000136
17.83000 33443.00373 33129.38901 0.0000136
17.84000 33843.29644 33523.83186 0.0000136
17.85000 34460.61592 34391.95793 0.0000135
17.86000 35727.58567 35666.43991 0.0000133
17.87000 37205.41819 36995.81140 0.0000130
17.88000 37892.19455 37758.59960 0.0000130
17.89000 37494.91301 37452.88022 0.0000131
17.90000 36505.98937 36288.23106 0.0000132
17.91000 35291.85152 34950.30334 0.0000135
17.92000 34358.60892 34016.29622 0.0000137
17.93000 34245.67287 33845.34223 0.0000137
17.94000 34900.71674 34691.85315 0.0000136
17.95000 36913.44698 36771.16992 0.0000133
17.96000 40146.84132 40235.16685 0.0000128
17.97000 44948.90123 44977.01359 0.0000120
17.98000 49716.83718 50270.56204 0.0000114
17.99000 53431.90293 54436.10783 0.0000109
18.00000 54306.24594 55371.05544 0.0000109
18.01000 51922.74574 52583.31653 0.0000112
18.02000 47267.88275 47670.97062 0.0000118
18.03000 42075.98679 42531.47064 0.0000126
18.04000 37861.74615 38357.49401 0.0000133
18.05000 35345.02531 35564.16239 0.0000138
18.06000 34187.04346 34041.27612 0.0000140
18.07000 33829.40626 33433.86178 0.0000141
18.08000 33883.51729 33374.52070 0.0000141
18.09000 34387.35135 33657.29873 0.0000140
18.10000 35148.23186 34212.24048 0.0000139
18.11000 36090.54721 34889.08920 0.0000138
18.12000 36534.87384 35325.24542 0.0000137
18.13000 36333.19377 35120.58778 0.0000138
18.14000 35389.99113 34313.85842 0.0000140
18.15000 34251.84849 33357.38608 0.0000142
18.16000 33296.97075 32654.25909 0.0000144
18.17000 33058.72121 32399.01765 0.0000145
18.18000 33232.57937 32602.92423 0.0000145
18.19000 33785.62849 33123.22506 0.0000144
18.20000 34531.01296 33694.34034 0.0000142
18.21000 34843.33605 34077.43815 0.0000142
18.22000 35062.48646 34336.28770 0.0000142
18.23000 35557.83919 34756.13754 0.0000141
18.24000 36300.54691 35479.24172 0.0000140
18.25000 36979.75461 36356.10506 0.0000138
18.26000 37450.91559 37033.06499 0.0000138
18.27000 37366.70863 37215.36646 0.0000138
18.28000 37099.64250 37002.17364 0.0000139
18.29000 36884.13291 36918.11411 0.0000139
18.30000 37507.90416 37444.53663 0.0000138
18.31000 38668.27388 38679.50057 0.0000136
18.32000 40089.60604 40257.57922 0.0000134
18.33000 41306.40308 41415.51413 0.0000132
18.34000 41847.70970 41602.41114 0.0000131
18.35000 41668.96038 41187.86835 0.0000131
18.36000 41726.80989 40911.09921 0.0000131
18.37000 42017.58394 41026.73478 0.0000131
18.38000 42485.15473 41169.59384 0.0000130
18.39000 42127.14676 40727.56954 0.0000131
18.40000 40883.08216 39378.01292 0.0000133
18.41000 38557.24872 37381.20083 0.0000138
18.42000 36266.92021 35340.19055 0.0000142
18.43000 34349.14917 33710.90955 0.0000147
18.44000 33156.52554 32691.35084 0.0000149
18.45000 32670.82949 32335.80145 0.0000151
18.46000 32800.30790 32655.20102 0.0000150
18.47000 33893.98408 33673.98660 0.0000148
18.48000 35600.61569 35392.29270 0.0000144
18.49000 37676.03614 37674.77749 0.0000140
18.50000 40073.14052 40110.00712 0.0000136
18.51000 41703.31294 42006.85823 0.0000133
18.52000 42344.11290 42707.90712 0.0000132
18.53000 41865.56683 42147.04375 0.0000133
18.54000 40562.11064 41123.24262 0.0000135
18.55000 39989.32882 40606.66347 0.0000137
18.56000 40053.28232 41063.41366 0.0000137
18.57000 41074.90433 42345.07569 0.0000135
18.58000 42146.94962 43773.47681 0.0000133
18.59000 43121.25995 44657.52708 0.0000131
18.60000 43734.28680 45081.00493 0.0000130
18.61000 44294.55941 45539.93185 0.0000130
18.62000 44488.68769 45964.13347 0.0000129
18.63000 44084.63483 45544.72585 0.0000130
18.64000 42459.30651 43703.12627 0.0000133
18.65000 40251.17967 41028.86985 0.0000137
18.66000 37823.82073 38538.11659 0.0000142
18.67000 36332.99590 36867.63980 0.0000145
18.68000 35848.81848 36247.45408 0.0000146
18.69000 36346.40499 36630.11125 0.0000145
18.70000 37371.94259 37782.89203 0.0000143
18.71000 39126.43233 39409.55029 0.0000140
18.72000 41267.34147 41406.24501 0.0000136
18.73000 43754.67101 43848.54355 0.0000131
18.74000 46164.97532 46437.74849 0.0000127
18.75000 47743.79587 48143.82757 0.0000125
18.76000 47439.19263 47781.34352 0.0000125
18.77000 45341.35536 45457.64515 0.0000129
18.78000 42240.32003 42506.99832 0.0000134
18.79000 39549.69892 40157.43807 0.0000139
18.80000 38444.25675 39010.86622 0.0000142
18.81000 38433.25313 39071.32786 0.0000142
18.82000 39138.03626 39829.77654 0.0000140
18.83000 39621.94347 40415.52866 0.0000139
18.84000 39633.95700 40165.47381 0.0000139
18.85000 39055.57286 39253.13987 0.0000141
18.86000 38217.86710 38236.26481 0.0000142
18.87000 37331.14449 37343.18310 0.0000144
18.88000 36690.96196 36412.22822 0.0000146
18.89000 35547.74327 35279.19393 0.0000148
18.90000 34381.13896 34048.63479 0.0000151
18.91000 33220.95469 32934.98899 0.0000154
18.92000 32282.51433 32100.19957 0.0000156
18.93000 31702.11843 31632.55926 0.0000157
18.94000 31783.15190 31585.30711 0.0000157
18.95000 32022.89562 32025.75252 0.0000157
18.96000 33032.61763 33041.55205 0.0000154
18.97000 34590.55280 34697.52225 0.0000151
18.98000 36778.04582 36930.19694 0.0000146
18.99000 39017.74349 39404.75398 0.0000141
19.00000 40989.61878 41433.93550 0.0000138
19.01000 41631.13695 42266.96234 0.0000136
19.02000 41129.53588 41654.80472 0.0000137
19.03000 39649.79358 40096.89783 0.0000140
19.04000 38200.55343 38495.76736 0.0000143
19.05000 37334.03017 37487.84289 0.0000145
19.06000 37114.23060 37202.59183 0.0000146
19.07000 37256.86747 37317.82149 0.0000145
19.08000 37272.87589 37296.09407 0.0000145
19.09000 37077.63669 36904.83796 0.0000146
19.10000 36554.80280 36368.66286 0.0000147
19.11000 36059.02012 35884.66837 0.0000148
19.12000 35314.11725 35359.51659 0.0000150
19.13000 34774.86869 34604.57201 0.0000151
19.14000 33746.25134 33682.74235 0.0000153
19.15000 32952.24737 32845.66640 0.0000155
19.16000 32538.42504 32289.86826 0.0000156
19.17000 32433.49627 32123.43531 0.0000157
19.18000 32602.93574 32422.64041 0.0000156
19.19000 33523.57584 33276.92062 0.0000154
19.20000 34939.32080 34810.56872 0.0000151
19.21000 37516.44723 37171.56809 0.0000145
19.22000 40806.63018 40419.21810 0.0000139
19.23000 44834.76626 44255.05482 0.0000131
19.24000 48400.56143 47792.96462 0.0000125
19.25000 50604.48313 49760.36886 0.0000122
19.26000 49998.42137 49328.65286 0.0000123
19.27000 47599.92580 46814.07052 0.0000127
19.28000 44255.29398 43527.09197 0.0000132
19.29000 41398.73070 40723.56564 0.0000137
19.30000 39935.90954 38971.33269 0.0000140
19.31000 39421.25065 38208.63440 0.0000141
19.32000 39518.12188 37989.53338 0.0000141
19.33000 39653.44598 37935.33859 0.0000141
19.34000 39733.72487 38020.91055 0.0000141
19.35000 39841.66080 38232.74847 0.0000141
19.36000 39536.31379 38227.07628 0.0000141
19.37000 38644.70327 37544.58491 0.0000143
19.38000 37330.61065 36215.92540 0.0000146
19.39000 35508.34892 34742.87334 0.0000150
19.40000 34120.65282 33564.68183 0.0000153
19.41000 33231.71774 32893.53340 0.0000155
19.42000 33137.67602 32767.78943 0.0000155
19.43000 33311.18317 33115.24193 0.0000155
19.44000 34151.54831 33798.07576 0.0000153
19.45000 35196.61627 34718.22195 0.0000150
19.46000 36801.94820 35844.14846 0.0000147
19.47000 38165.90663 36997.28482 0.0000144
19.48000 38973.76987 37688.37576 0.0000142
19.49000 38709.86069 37380.53974 0.0000143
19.50000 37469.66763 36153.79790 0.0000145
19.51000 35577.64128 34628.49915 0.0000150
19.52000 34016.73549 33330.50337 0.0000153
19.53000 33126.00442 32491.91850 0.0000155
19.54000 32699.92367 32113.32051 0.0000156
19.55000 32649.72288 32031.41296 0.0000156
19.56000 32545.29405 32005.57247 0.0000157
19.57000 32349.23489 31891.36540 0.0000157
19.58000 32012.27396 31724.45629 0.0000158
19.59000 31811.42854 31574.91126 0.0000159
19.60000 31439.36317 31428.99365 0.0000160
19.61000 31243.02493 31236.48314 0.0000160
19.62000 30953.34970 31039.83337 0.0000161
19.63000 30866.80621 30947.88492 0.0000161
19.64000 31062.59872 31057.79958 0.0000161
19.65000 31522.64818 31427.90338 0.0000159
19.66000 32021.27929 32081.77894 0.0000158
19.67000 33072.52321 33002.26054 0.0000155
19.68000 34000.57554 34147.26917 0.0000153
19.69000 35512.04472 35532.26756 0.0000150
19.70000 37270.71315 37192.66839 0.0000146
19.71000 38860.67130 38927.13415 0.0000143
19.72000 40126.37677 40165.18806 0.0000140
19.73000 40118.66599 40328.62318 0.0000140
19.74000 39163.75854 39433.35028 0.0000142
19.75000 37630.35390 38068.05122 0.0000145
19.76000 36324.57765 36933.01687 0.0000148
19.77000 35610.41589 36481.01469 0.0000150
19.78000 35826.78324 36826.75764 0.0000149
19.79000 36495.97525 37808.95735 0.0000148
19.80000 37940.32126 39166.83116 0.0000144
19.81000 39711.73720 40869.95717 0.0000141
19.82000 41958.53488 43012.12451 0.0000137
19.83000 44074.40834 45271.69231 0.0000133
19.84000 45806.78208 46741.03628 0.0000130
19.85000 45695.96760 46532.28158 0.0000130
19.86000 44004.58453 44602.34350 0.0000133
19.87000 41121.22574 41766.32072 0.0000138
19.88000 38367.67747 39061.39658 0.0000144
19.89000 36492.19572 37139.78887 0.0000148
19.90000 35642.71545 36185.03489 0.0000149
19.91000 35586.01270 36071.33684 0.0000150
19.92000 35968.29585 36590.18735 0.0000149
19.93000 36999.05787 37662.03438 0.0000146
19.94000 38284.89420 39199.22814 0.0000144
19.95000 39706.90089 40810.42766 0.0000141
19.96000 40423.41410 41791.77885 0.0000140
19.97000 40302.83051 41578.60175 0.0000140
19.98000 39016.72193 40226.42814 0.0000142
19.99000 37538.10098 38411.76207 0.0000145
20.00000 35871.16949 36893.21384 0.0000149
20.01000 35423.49021 36088.34313 0.0000150
20.02000 35376.84413 36061.16321 0.0000150
20.03000 36002.02314 36618.91901 0.0000149
20.04000 36871.27874 37555.54548 0.0000147
20.05000 38109.67806 38768.75281 0.0000144
20.06000 39229.41789 39976.06703 0.0000142
20.07000 39467.39061 40496.01064 0.0000141
20.08000 38912.65827 39692.23028 0.0000142
20.09000 37103.38106 37762.13541 0.0000146
20.10000 34911.33924 35483.84855 0.0000151
20.11000 32986.23506 33464.77287 0.0000156
20.12000 31671.96286 31975.21716 0.0000159
20.13000 30867.97864 31065.50318 0.0000161
20.14000 30644.66488 30678.45605 0.0000161
20.15000 30747.60003 30731.87000 0.0000161
20.16000 31496.17479 31151.67723 0.0000159
20.17000 32174.27250 31846.57411 0.0000158
20.18000 33440.75544 32653.87210 0.0000154
20.19000 34143.77275 33303.24843 0.0000153
20.20000 34584.19490 33496.82423 0.0000152
20.21000 34012.49088 33110.82136 0.0000153
20.22000 33251.36430 32329.79070 0.0000155
20.23000 32090.26100 31486.07901 0.0000158
20.24000 31344.67831 30812.60516 0.0000160
20.25000 30763.37163 30405.06696 0.0000161
20.26000 30538.52143 30268.27833 0.0000162
20.27000 30612.06354 30374.84642 0.0000162
20.28000 30916.41624 30699.56644 0.0000161
20.29000 31343.34026 31191.84146 0.0000160
20.30000 31881.59760 31734.23101 0.0000158
20.31000 32316.91155 32141.30414 0.0000157
20.32000 32233.92160 32255.00857 0.0000158
20.33000 32170.20901 32095.85720 0.0000158
20.34000 31949.41698 31873.16018 0.0000158
20.35000 31783.76958 31793.60254 0.0000158
20.36000 31886.00885 31926.25963 0.0000158
20.37000 32138.85089 32204.50803 0.0000158
20.38000 32376.30127 32503.70064 0.0000157
20.39000 32621.56880 32824.80279 0.0000156
20.40000 33133.91227 33289.20129 0.0000155
20.41000 33564.59241 33940.23220 0.0000154
20.42000 34161.38086 34670.74593 0.0000153
20.43000 34690.16267 35327.92886 0.0000152
20.44000 35138.18362 35923.25278 0.0000151
20.45000 36016.60657 36751.91459 0.0000149
20.46000 37833.68319 38159.81917 0.0000145
20.47000 39960.01268 40200.42281 0.0000140
20.48000 42585.55903 42457.48247 0.0000135
20.49000 44089.43363 44112.26921 0.0000133
20.50000 45313.72474 44668.45326 0.0000131
20.51000 45364.47993 44504.02599 0.0000131
20.52000 44978.98804 44043.18473 0.0000131
20.53000 43843.94427 43042.12107 0.0000133
20.54000 42131.51935 41075.71188 0.0000136
20.55000 39066.19388 38401.64833 0.0000142
20.56000 36183.55604 35717.35913 0.0000148
20.57000 33595.81402 33503.72462 0.0000154
20.58000 32000.77985 31938.15958 0.0000158
20.59000 30884.04759 31018.90426 0.0000161
20.60000 30607.73174 30663.94512 0.0000162
20.61000 30884.10901 30771.39900 0.0000161
20.62000 31371.32599 31234.43708 0.0000160
20.63000 32187.99217 31915.69998 0.0000158
20.64000 32909.19334 32588.02268 0.0000156
20.65000 33302.70789 32956.19860 0.0000155
20.66000 33033.61407 32828.11652 0.0000156
20.67000 32656.15805 32266.63801 0.0000157
20.68000 31753.70927 31550.34722 0.0000159
20.69000 31085.18097 30956.66927 0.0000161
20.70000 30560.88743 30643.92459 0.0000162
20.71000 30546.27030 30662.52143 0.0000162
20.72000 30884.00913 30995.36474 0.0000161
20.73000 31607.27698 31601.83108 0.0000159
20.74000 32543.30312 32397.20863 0.0000157
20.75000 33259.04258 33164.11440 0.0000155
20.76000 33858.07173 33557.73002 0.0000154
20.77000 33550.22001 33337.43944 0.0000155
20.78000 32876.32778 32589.74557 0.0000156
20.79000 31802.10037 31625.89233 0.0000159
20.80000 30862.12216 30762.05592 0.0000161
20.81000 30041.48122 30190.36386 0.0000164
20.82000 29822.69798 29997.85185 0.0000164
20.83000 29966.11446 30203.61233 0.0000164
20.84000 30380.70614 30770.96100 0.0000163
20.85000 31069.99644 31592.09605 0.0000161
20.86000 31931.02772 32445.10698 0.0000159
20.87000 32524.74217 32983.13391 0.0000157
20.88000 32490.09046 32931.51098 0.0000157
20.89000 32184.33554 32335.99172 0.0000158
20.90000 31330.26960 31488.87934 0.0000160
20.91000 30452.58617 30696.24055 0.0000163
20.92000 29922.17879 30144.07361 0.0000164
20.93000 29874.61841 29897.74312 0.0000164
20.94000 29959.86450 29936.47934 0.0000164
20.95000 30371.87358 30202.09617 0.0000163
20.96000 30712.18711 30616.36598 0.0000162
20.97000 31337.35089 31044.63096 0.0000161
20.98000 31621.08933 31274.13526 0.0000160
20.99000 31688.55926 31150.34789 0.0000160
21.00000 31213.56960 30763.93052 0.0000161
21.01000 30481.67380 30347.41011 0.0000163
21.02000 30225.67414 30084.64702 0.0000164
21.03000 30077.15059 30077.97928 0.0000164
21.04000 30210.06477 30373.93447 0.0000164
21.05000 30778.38268 30980.08570 0.0000162
21.06000 31691.49066 31891.54760 0.0000160
21.07000 32794.36381 33092.41900 0.0000157
21.08000 34205.13867 34466.00676 0.0000154
21.09000 35112.78625 35712.40751 0.0000152
21.10000 35834.15679 36477.85499 0.0000150
21.11000 35887.03589 36689.34112 0.0000150
21.12000 35732.68780 36689.77402 0.0000150
21.13000 35860.98402 36984.55342 0.0000150
21.14000 36370.05369 37855.62178 0.0000149
21.15000 37370.16454 39167.22977 0.0000147
21.16000 38405.93118 40384.47195 0.0000145
21.17000 39192.05731 41011.12697 0.0000143
21.18000 39662.26394 41136.15330 0.0000142
21.19000 39809.51496 41050.70057 0.0000142
21.20000 39444.63049 40617.41537 0.0000143
21.21000 38585.84727 39450.61565 0.0000145
21.22000 37093.54565 37582.78590 0.0000148
21.23000 35131.90852 35504.57043 0.0000152
21.24000 33202.65990 33700.74799 0.0000157
21.25000 31950.14849 32427.76056 0.0000160
21.26000 31312.19225 31723.44203 0.0000162
21.27000 31201.28400 31479.45491 0.0000162
21.28000 31211.52432 31545.06349 0.0000162
21.29000 31540.25017 31814.08744 0.0000161
21.30000 32113.41683 32168.92366 0.0000160
21.31000 32362.72488 32386.74222 0.0000159
21.32000 32118.78781 32229.87418 0.0000160
21.33000 31740.61185 31675.32954 0.0000161
21.34000 31036.04565 30925.19456 0.0000163
21.35000 30373.56151 30208.37836 0.0000165
21.36000 29789.96016 29657.46582 0.0000166
21.37000 29457.16599 29295.72413 0.0000167
21.38000 29488.93727 29073.17429 0.0000167
21.39000 29198.98547 28922.16024 0.0000168
21.40000 29170.00808 28813.89421 0.0000168
21.41000 29072.89507 28747.70295 0.0000169
21.42000 29014.74747 28715.75466 0.0000169
21.43000 28870.46949 28717.80740 0.0000169
21.44000 29100.34703 28780.17275 0.0000169
21.45000 29181.21192 28957.24715 0.0000168
21.46000 29501.15392 29317.54848 0.0000168
21.47000 30050.91053 29943.26127 0.0000166
21.48000 31011.78116 30918.07210 0.0000164
21.49000 32308.61356 32298.98298 0.0000160
21.50000 33925.41757 34091.14603 0.0000156
21.51000 36068.32293 36197.59709 0.0000151
21.52000 37864.83283 38251.56855 0.0000147
21.53000 39111.00952 39538.98220 0.0000145
21.54000 38983.29499 39434.62061 0.0000145
21.55000 37652.94198 38051.28075 0.0000148
21.56000 35586.78697 36087.46135 0.0000153
21.57000 33770.09176 34244.30072 0.0000157
21.58000 32389.55411 32905.10576 0.0000160
21.59000 31804.82362 32132.25257 0.0000162
21.60000 31610.63935 31782.45438 0.0000163
21.61000 31510.94324 31683.91460 0.0000163
21.62000 31809.78908 31751.65111 0.0000162
21.63000 31853.69770 31890.48638 0.0000162
21.64000 32068.51809 31918.67682 0.0000162
21.65000 31893.04563 31701.48725 0.0000162
21.66000 31544.72601 31313.06869 0.0000163
21.67000 31185.07052 30957.69862 0.0000164
21.68000 31181.66739 30819.15408 0.0000164
21.69000 31329.90443 30987.49728 0.0000164
21.70000 31879.64708 31449.59919 0.0000162
21.71000 32495.38436 32121.87069 0.0000161
21.72000 33542.53569 32944.91054 0.0000158
21.73000 34723.21610 33877.31679 0.0000155
21.74000 35595.91708 34729.13633 0.0000153
21.75000 36146.51557 35146.46148 0.0000152
21.76000 35724.57419 34924.28212 0.0000153
21.77000 34990.59878 34253.97388 0.0000155
21.78000 33896.71723 33546.01713 0.0000158
21.79000 33408.17942 33111.09511 0.0000159
21.80000 33129.43142 33002.75593 0.0000160
21.81000 33213.34617 33012.25858 0.0000160
21.82000 33007.14232 32843.35429 0.0000160
21.83000 32789.92091 32422.96780 0.0000161
21.84000 32468.38249 31896.21949 0.0000162
21.85000 31744.37793 31342.31286 0.0000164
21.86000 31198.74590 30730.73711 0.0000165
21.87000 30394.62828 30086.34134 0.0000168
21.88000 29972.21392 29520.69007 0.0000169
21.89000 29400.15768 29126.77912 0.0000171
21.90000 29227.23423 28959.91941 0.0000171
21.91000 29259.36131 29067.68770 0.0000171
21.92000 29658.24666 29507.89355 0.0000170
21.93000 30382.44230 30326.98280 0.0000168
21.94000 31681.32209 31525.08565 0.0000164
21.95000 33047.66634 32984.08286 0.0000161
21.96000 34285.05220 34399.11568 0.0000158
21.97000 35136.46322 35273.21326 0.0000156
21.98000 34899.93949 35174.80653 0.0000156
21.99000 34067.28964 34205.09946 0.0000159
22.00000 32636.86919 32919.87748 0.0000162
22.01000 31558.62427 31801.06462 0.0000165
22.02000 30616.73919 31075.65501 0.0000168
22.03000 30350.63763 30775.46179 0.0000169
22.04000 30498.83447 30835.12571 0.0000168
22.05000 30773.34415 31136.66951 0.0000168
22.06000 31013.77560 31487.50476 0.0000167
22.07000 31387.80189 31634.36092 0.0000166
22.08000 31041.47997 31448.00668 0.0000167
22.09000 30738.30608 31044.71563 0.0000168
22.10000 30487.37760 30648.11812 0.0000169
22.11000 30171.02590 30411.88831 0.0000170
22.12000 30344.02104 30352.10767 0.0000169
22.13000 30194.82567 30353.47713 0.0000170
22.14000 30318.48121 30267.20928 0.0000170
22.15000 30231.33710 30071.34103 0.0000170
22.16000 30111.48847 29859.55390 0.0000170
22.17000 30065.74654 29688.81093 0.0000171
22.18000 30057.55292 29560.19821 0.0000171
22.19000 30078.41905 29481.08292 0.0000171
22.20000 30036.59874 29502.32977 0.0000171
22.21000 30261.23942 29683.17052 0.0000170
22.22000 30493.43276 30036.52497 0.0000170
22.23000 31042.24580 30492.66361 0.0000168
22.24000 31355.78753 30908.43835 0.0000168
22.25000 31858.12733 31184.92640 0.0000166
22.26000 31754.22775 31353.27792 0.0000167
22.27000 31778.61811 31431.10376 0.0000166
22.28000 31538.50952 31331.64445 0.0000167
22.29000 31244.58298 31028.03208 0.0000168
22.30000 30947.51352 30685.00370 0.0000169
22.31000 30726.88113 30511.26225 0.0000170
22.32000 30956.57528 30618.38192 0.0000169
22.33000 31206.75291 31004.71391 0.0000169
22.34000 31864.26146 31561.83451 0.0000167
22.35000 32243.07760 32144.04857 0.0000166
22.36000 32689.83077 32709.00579 0.0000165
22.37000 33046.02465 33268.10071 0.0000164
22.38000 33373.75996 33683.58422 0.0000163
22.39000 33369.74444 33697.59179 0.0000163
22.40000 32972.12221 33209.30664 0.0000164
22.41000 32298.16711 32420.86445 0.0000166
22.42000 31731.44614 31689.54796 0.0000168
22.43000 31287.48625 31320.40641 0.0000169
22.44000 31404.97175 31491.15408 0.0000169
22.45000 32133.83407 32253.68683 0.0000167
22.46000 33263.88366 33536.15851 0.0000164
22.47000 34926.59074 35105.84840 0.0000160
22.48000 36193.40659 36481.23929 0.0000157
22.49000 36699.09872 37006.60386 0.0000155
22.50000 36184.68707 36359.02661 0.0000157
22.51000 34652.04414 34888.36919 0.0000161
22.52000 33070.19913 33219.73100 0.0000165
22.53000 31629.72040 31829.25214 0.0000169
22.54000 30911.35780 30964.39698 0.0000171
22.55000 30735.85932 30707.99471 0.0000172
22.56000 31129.89641 31036.85100 0.0000171
22.57000 31912.49783 31847.02960 0.0000169
22.58000 33103.29553 32940.57719 0.0000165
22.59000 34243.24500 34006.51805 0.0000162
22.60000 34890.32713 34686.59672 0.0000161
22.61000 34841.55047 34815.06523 0.0000161
22.62000 34587.85752 34598.06101 0.0000162
22.63000 34433.72596 34430.73347 0.0000162
22.64000 34360.57521 34526.92628 0.0000162
22.65000 34747.69529 34785.12132 0.0000161
22.66000 34693.63073 34905.58578 0.0000162
22.67000 34610.49520 34739.12844 0.0000162
22.68000 34251.80988 34387.01242 0.0000163
22.69000 33760.53344 33884.10650 0.0000164
22.70000 32931.43100 33118.27842 0.0000167
22.71000 31988.94713 32117.62444 0.0000169
22.72000 30983.64337 31120.70325 0.0000172
22.73000 30437.61573 30344.68467 0.0000174
22.74000 29793.24408 29895.25919 0.0000176
22.75000 29823.21087 29798.24147 0.0000176
22.76000 30096.88227 30027.83834 0.0000175
22.77000 30675.90866 30533.47116 0.0000174
22.78000 31702.09418 31240.40454 0.0000171
22.79000 32275.07337 31996.34160 0.0000169
22.80000 33093.62832 32546.52068 0.0000167
22.81000 33067.00994 32665.92533 0.0000167
22.82000 32794.19933 32363.64229 0.0000168
22.83000 32118.19967 31889.39081 0.0000170
22.84000 31701.10856 31521.10725 0.0000171
22.85000 31368.27366 31393.46964 0.0000172
22.86000 31294.86218 31482.20296 0.0000172
22.87000 31434.12363 31703.81081 0.0000172
22.88000 31950.10833 32038.24892 0.0000171
22.89000 32484.44124 32472.25061 0.0000169
22.90000 32734.77990 32857.01944 0.0000169
22.91000 32943.30766 32936.99033 0.0000168
22.92000 32716.24437 32557.26656 0.0000169
22.93000 32049.12018 31850.60000 0.0000171
22.94000 31210.26289 31122.70725 0.0000173
22.95000 30702.42532 30604.93440 0.0000175
22.96000 30324.44696 30381.89747 0.0000176
22.97000 30226.12935 30433.58273 0.0000176
22.98000 30714.68642 30699.37410 0.0000175
22.99000 30892.21735 31079.61603 0.0000175
23.00000 31212.90534 31387.07338 0.0000173
23.01000 31228.56840 31414.79149 0.0000174
23.02000 30951.46867 31123.31103 0.0000174
23.03000 30556.79434 30686.09565 0.0000176
23.04000 30219.73203 30346.79125 0.0000177
23.05000 30214.82136 30289.14723 0.0000177
23.06000 30470.76074 30597.45031 0.0000176
23.07000 31210.47531 31258.80663 0.0000174
23.08000 32077.16751 32178.43963 0.0000172
23.09000 33071.75375 33151.39766 0.0000169
23.10000 33576.79856 33794.75901 0.0000167
23.11000 33559.10491 33691.85600 0.0000167
23.12000 32768.96718 32831.93408 0.0000170
23.13000 31660.75676 31623.33102 0.0000173
23.14000 30429.14252 30458.19126 0.0000177
23.15000 29621.65784 29540.84322 0.0000180
23.16000 29161.45071 28930.60226 0.0000181
23.17000 28791.99711 28601.46170 0.0000182
23.18000 28777.13328 28491.90119 0.0000182
23.19000 28853.45590 28537.11269 0.0000182
23.20000 29025.95069 28676.83708 0.0000182
23.21000 29055.67988 28860.65238 0.0000182
23.22000 29383.36845 29067.88938 0.0000181
23.23000 29719.42646 29332.69053 0.0000180
23.24000 30115.75886 29721.01817 0.0000178
23.25000 30754.91312 30270.25130 0.0000176
23.26000 31325.35084 30933.98890 0.0000175
23.27000 31964.69653 31577.88312 0.0000173
23.28000 32542.27269 32092.66521 0.0000171
23.29000 33147.52160 32477.28857 0.0000170
23.30000 33224.39230 32684.79562 0.0000169
23.31000 33041.54136 32567.85667 0.0000170
23.32000 32420.46679 32116.19803 0.0000172
23.33000 31829.75465 31574.42524 0.0000174
23.34000 31217.67256 31207.10528 0.0000176
23.35000 30894.54096 31139.80742 0.0000177
23.36000 30934.20610 31353.88459 0.0000177
23.37000 31283.10191 31724.52583 0.0000176
23.38000 31829.17511 32147.64309 0.0000174
23.39000 32480.08908 32638.53877 0.0000172
23.40000 33127.43117 33193.86289 0.0000170
23.41000 33524.98599 33640.57223 0.0000169
23.42000 33722.26762 33699.65667 0.0000169
23.43000 33366.46186 33257.73242 0.0000170
23.44000 32510.11448 32531.11966 0.0000172
23.45000 31802.13250 31821.02981 0.0000174
23.46000 31203.81999 31261.30008 0.0000176
23.47000 30771.16237 30807.18324 0.0000178
23.48000 30530.20409 30372.86260 0.0000179
23.49000 30313.40619 29957.80346 0.0000179
23.50000 30010.83705 29596.50778 0.0000180
23.51000 29699.92862 29288.06509 0.0000181
23.52000 29421.12390 29035.77361 0.0000182
23.53000 29289.11308 28888.85608 0.0000183
23.54000 29251.06476 28919.63689 0.0000183
23.55000 29444.12167 29202.48280 0.0000182
23.56000 29801.56793 29806.76175 0.0000181
23.57000 30673.42925 30773.48819 0.0000178
23.58000 31859.59500 32072.23059 0.0000175
23.59000 33313.45951 33542.63397 0.0000170
23.60000 34561.17223 34835.51017 0.0000167
23.61000 35094.68069 35499.61261 0.0000165
23.62000 35030.44486 35381.12098 0.0000166
23.63000 34667.58026 34832.94897 0.0000167
23.64000 34221.39988 34357.05067 0.0000168
23.65000 34010.16155 34256.07912 0.0000169
23.66000 34314.23638 34540.60448 0.0000168
23.67000 34923.48110 34988.68309 0.0000166
23.68000 35396.38341 35378.63891 0.0000165
23.69000 36001.69838 35677.55683 0.0000163
23.70000 36082.56202 35817.40245 0.0000163
23.71000 35864.00669 35555.65786 0.0000164
23.72000 35210.66239 34751.34245 0.0000165
23.73000 33956.10248 33597.14269 0.0000169
23.74000 32829.27639 32468.02824 0.0000172
23.75000 31759.89023 31672.24055 0.0000175
23.76000 31447.53584 31363.58460 0.0000176
23.77000 31535.02022 31558.85756 0.0000176
23.78000 32214.56814 32170.70378 0.0000174
23.79000 33076.01126 33006.12978 0.0000172
23.80000 33636.60781 33732.10195 0.0000170
23.81000 33812.12044 33972.09406 0.0000169
23.82000 33628.85512 33631.84589 0.0000170
23.83000 33053.34361 32985.85906 0.0000172
23.84000 32287.37962 32368.32938 0.0000174
23.85000 32027.68712 31936.04742 0.0000175
23.86000 31666.65757 31622.42972 0.0000176
23.87000 31496.73873 31227.33008 0.0000176
23.88000 30957.61946 30642.53510 0.0000178
23.89000 30260.34025 29958.73217 0.0000181
23.90000 29664.65691 29312.59788 0.0000182
23.91000 29132.60857 28782.02711 0.0000184
23.92000 28896.09284 28395.47324 0.0000185
23.93000 28518.81596 28157.46372 0.0000186
23.94000 28404.98645 28061.91179 0.0000187
23.95000 28449.83850 28105.45730 0.0000187
23.96000 28712.75967 28293.99596 0.0000186
23.97000 28907.09495 28639.08497 0.0000185
23.98000 29428.12632 29139.94752 0.0000183
23.99000 29949.34429 29760.51014 0.0000182
24.00000 30496.98932 30402.95385 0.0000180
24.01000 30913.17115 30902.55887 0.0000178
24.02000 31182.12038 31121.54642 0.0000178
24.03000 31124.00744 31116.07956 0.0000178
24.04000 30879.08897 31098.00680 0.0000179
24.05000 30712.82958 31225.86358 0.0000179
24.06000 30974.90966 31515.51154 0.0000178
24.07000 31276.69523 31897.10115 0.0000177
24.08000 31838.15283 32318.61930 0.0000176
24.09000 32361.85146 32702.33554 0.0000174
24.10000 32505.55363 32842.94493 0.0000174
24.11000 32129.20742 32539.31342 0.0000175
24.12000 31624.65615 31830.72634 0.0000176
24.13000 30606.75851 30970.73576 0.0000179
24.14000 29985.59456 30223.39498 0.0000182
24.15000 29414.66583 29750.72500 0.0000183
24.16000 29311.58220 29607.53768 0.0000184
24.17000 29637.64764 29764.61679 0.0000183
24.18000 29870.81828 30121.14665 0.0000182
24.19000 30267.99226 30507.71941 0.0000180
24.20000 30425.48694 30737.00648 0.0000180
24.21000 30560.60764 30761.56075 0.0000180
24.22000 30488.83584 30726.95215 0.0000180
24.23000 30559.27171 30800.01609 0.0000180
24.24000 30777.40894 31023.24033 0.0000179
24.25000 31025.02247 31284.56237 0.0000178
24.26000 31269.99084 31372.65122 0.0000177
24.27000 31102.33992 31171.72405 0.0000178
24.28000 30689.31977 30770.37049 0.0000179
24.29000 30187.67961 30298.30495 0.0000181
24.30000 29917.04077 29816.88739 0.0000182
24.31000 29404.59279 29387.17754 0.0000183
24.32000 29127.97901 29097.77349 0.0000184
24.33000 28973.12956 29019.29373 0.0000185
24.34000 28980.71220 29191.57448 0.0000185
24.35000 29369.30391 29627.39020 0.0000183
24.36000 29881.73095 30311.63606 0.0000182
24.37000 30712.45362 31194.64730 0.0000179
24.38000 31683.22809 32149.50993 0.0000176
24.39000 32402.28164 32922.15571 0.0000174
24.40000 32674.39483 33214.42908 0.0000173
24.41000 32586.73250 32918.58684 0.0000173
24.42000 32171.05183 32241.33203 0.0000174
24.43000 31533.70779 31519.88375 0.0000176
24.44000 30893.25392 30977.90503 0.0000178
24.45000 30632.47273 30674.07362 0.0000179
24.46000 30517.00431 30572.58599 0.0000179
24.47000 30682.58304 30620.28357 0.0000179
24.48000 30603.86540 30729.94707 0.0000179
24.49000 30799.11042 30761.07994 0.0000178
24.50000 30577.50701 30616.78747 0.0000179
24.51000 30400.36403 30351.54518 0.0000179
24.52000 30059.81368 30134.41458 0.0000181
24.53000 30007.14516 30132.43640 0.0000181
24.54000 30195.64118 30439.64919 0.0000180
24.55000 30799.87288 31066.61523 0.0000178
24.56000 31729.30923 31941.39406 0.0000175
24.57000 32803.53145 32888.27645 0.0000172
24.58000 33530.21137 33584.23043 0.0000170
24.59000 33778.00457 33687.21535 0.0000169
24.60000 33337.39570 33144.87036 0.0000170
24.61000 32343.19177 32246.78570 0.0000173
24.62000 31336.11305 31355.30233 0.0000176
24.63000 30562.60509 30699.93780 0.0000178
24.64000 30175.99503 30349.01014 0.0000180
24.65000 30272.92160 30263.96586 0.0000179
24.66000 30371.42698 30365.68484 0.0000179
24.67000 30430.39727 30535.67907 0.0000179
24.68000 30573.03751 30623.99998 0.0000178
24.69000 30444.16952 30565.38167 0.0000179
24.70000 30320.77164 30466.60254 0.0000179
24.71000 30092.68757 30476.49680 0.0000180
24.72000 30250.48543 30650.18495 0.0000179
24.73000 30380.79615 30918.10839 0.0000179
24.74000 30702.82577 31122.45082 0.0000178
24.75000 30734.10857 31162.92005 0.0000178
24.76000 30963.89030 31082.98489 0.0000177
24.77000 30894.06717 30940.51856 0.0000177
24.78000 30696.35894 30723.39880 0.0000177
24.79000 30555.70616 30441.44549 0.0000178
24.80000 30401.68156 30184.06714 0.0000178
24.81000 30304.96619 30060.62845 0.0000178
24.82000 30200.52244 30119.39014 0.0000179
24.83000 30401.36926 30323.55831 0.0000178
24.84000 30645.27842 30594.78987 0.0000177
24.85000 31077.56883 30881.17444 0.0000176
24.86000 31405.30042 31129.57467 0.0000175
24.87000 31597.56909 31212.27749 0.0000174
24.88000 31400.29125 31007.51781 0.0000175
24.89000 30613.51341 30546.81823 0.0000177
24.90000 30328.84421 30010.02576 0.0000178
24.91000 29630.93559 29593.27287 0.0000180
24.92000 29427.16311 29427.72420 0.0000181
24.93000 29425.16033 29572.04653 0.0000181
24.94000 29833.11369 30016.15912 0.0000179
24.95000 30589.34951 30672.36620 0.0000177
24.96000 31210.86059 31356.64992 0.0000175
24.97000 31801.08774 31801.79765 0.0000173
24.98000 31640.44171 31792.31558 0.0000174
24.99000 31254.63711 31370.78189 0.0000175
25.00000 30653.37569 30802.99737 0.0000177
25.01000 30189.69708 30336.21036 0.0000178
25.02000 29954.38847 30087.74797 0.0000179
25.03000 29943.86527 30065.81441 0.0000179
25.04000 30245.58245 30207.40016 0.0000178
25.05000 30400.66457 30383.83037 0.0000177
25.06000 30563.73364 30430.58620 0.0000177
25.07000 30329.95934 30291.81723 0.0000177
25.08000 30015.39891 30097.03668 0.0000178
25.09000 29989.06626 30033.66481 0.0000178
25.10000 29856.05334 30229.76956 0.0000179
25.11000 30422.29330 30724.05129 0.0000177
25.12000 31156.11449 31471.15793 0.0000175
25.13000 32077.38521 32361.66325 0.0000172
25.14000 32878.46763 33197.40443 0.0000169
25.15000 33392.43242 33652.32917 0.0000168
25.16000 33350.88839 33455.20612 0.0000168
25.17000 32613.64047 32686.57029 0.0000170
25.18000 31502.99481 31695.68400 0.0000173
25.19000 30565.56454 30798.63253 0.0000176
25.20000 29923.20231 30155.61584 0.0000178
25.21000 29475.53511 29789.57209 0.0000179
25.22000 29526.72693 29647.94413 0.0000179
25.23000 29594.58214 29653.53301 0.0000179
25.24000 29679.48935 29698.83477 0.0000179
25.25000 29753.61292 29658.50012 0.0000178
25.26000 29575.82944 29477.01414 0.0000179
25.27000 29282.80165 29211.06426 0.0000180
25.28000 29078.68178 28961.38265 0.0000180
25.29000 28848.57576 28794.24507 0.0000181
25.30000 28905.23233 28721.93883 0.0000181
25.31000 28753.29231 28722.13973 0.0000181
25.32000 28771.80258 28779.46172 0.0000181
25.33000 28939.23425 28884.39127 0.0000181
25.34000 28887.63960 29011.61195 0.0000181
25.35000 29053.77111 29143.34349 0.0000180
25.36000 29203.93288 29306.24594 0.0000180
25.37000 29343.81014 29547.51679 0.0000179
25.38000 29789.94927 29872.40939 0.0000178
25.39000 30077.38643 30202.75772 0.0000177
25.40000 30322.05017 30409.51465 0.0000176
25.41000 30651.69754 30433.35717 0.0000175
25.42000 30476.45437 30319.22140 0.0000175
25.43000 30338.64097 30106.51225 0.0000176
25.44000 29899.56295 29814.32638 0.0000177
25.45000 29695.59493 29519.54596 0.0000178
25.46000 29336.52106 29333.10187 0.0000179
25.47000 29290.33690 29327.95355 0.0000179
25.48000 29433.75165 29518.43908 0.0000178
25.49000 29631.68703 29872.74579 0.0000178
25.50000 30116.66135 30349.83076 0.0000176
25.51000 30696.59694 30920.22414 0.0000174
25.52000 31404.55404 31503.31794 0.0000172
25.53000 31848.01160 31932.95126 0.0000171
25.54000 32045.95056 32061.21377 0.0000170
25.55000 31961.63896 31926.22568 0.0000170
25.56000 31905.82826 31719.28865 0.0000171
25.57000 31843.30428 31573.65400 0.0000171
25.58000 31814.00213 31471.39262 0.0000171
25.59000 31694.50209 31330.62553 0.0000171
25.60000 31757.29150 31132.32394 0.0000171
25.61000 31168.57182 30882.23472 0.0000173
25.62000 30847.72769 30542.06237 0.0000173
25.63000 30466.66506 30113.39453 0.0000175
25.64000 29910.13156 29698.81242 0.0000176
25.65000 29607.78326 29433.63287 0.0000177
25.66000 29453.10560 29414.29629 0.0000178
25.67000 29832.83557 29680.45552 0.0000176
25.68000 30571.43346 30209.99967 0.0000174
25.69000 31416.04476 30902.04668 0.0000172
25.70000 32316.17705 31554.46533 0.0000169
25.71000 32694.46951 31901.10723 0.0000168
25.72000 32744.42958 31810.42762 0.0000168
25.73000 32263.06793 31424.70454 0.0000169
25.74000 31674.28053 30986.52896 0.0000171
25.75000 31052.81417 30633.93972 0.0000173
25.76000 30722.79412 30353.90344 0.0000174
25.77000 30362.27666 30048.44867 0.0000175
25.78000 29948.57801 29671.36686 0.0000176
25.79000 29616.21787 29270.61535 0.0000177
25.80000 29130.34361 28902.66266 0.0000178
25.81000 28805.48163 28600.46712 0.0000179
25.82000 28632.34372 28400.22368 0.0000180
25.83000 28359.27287 28335.80841 0.0000181
25.84000 28390.91332 28427.78170 0.0000181
25.85000 28637.22781 28678.87420 0.0000180
25.86000 29087.78167 29071.57719 0.0000178
25.87000 29488.04398 29565.28136 0.0000177
25.88000 30063.62840 30080.61170 0.0000175
25.89000 30365.25955 30487.11358 0.0000174
25.90000 30542.34912 30670.20079 0.0000174
25.91000 30389.96947 30653.14679 0.0000174
25.92000 30395.57708 30577.28461 0.0000174
25.93000 30322.40432 30568.46128 0.0000175
25.94000 30362.60128 30643.85231 0.0000174
25.95000 30387.42531 30722.72361 0.0000174
25.96000 30609.43793 30733.87315 0.0000174
25.97000 30556.42635 30683.38313 0.0000174
25.98000 30494.28526 30575.46675 0.0000174
25.99000 30115.90862 30380.07270 0.0000175
26.00000 30076.15876 30116.91165 0.0000175
26.01000 29944.40997 29883.01213 0.0000176
26.02000 29805.84361 29779.32577 0.0000176
26.03000 29882.11025 29847.56047 0.0000176
26.04000 30298.74478 30060.62778 0.0000175
26.05000 30754.10533 30368.23238 0.0000173
26.06000 31133.40968 30724.37824 0.0000172
26.07000 31666.30491 31036.90231 0.0000170
26.08000 31906.65333 31153.44507 0.0000170
26.09000 31789.80288 30979.03836 0.0000170
26.10000 31099.05388 30595.84422 0.0000172
26.11000 30491.22131 30201.86745 0.0000174
26.12000 30176.98518 29953.44825 0.0000175
26.13000 29845.73520 29906.44565 0.0000176
26.14000 30009.31119 30035.01747 0.0000175
26.15000 30223.94878 30249.20256 0.0000175
26.16000 30394.74536 30392.35630 0.0000174
26.17000 30376.67532 30313.44498 0.0000174
26.18000 30113.97802 30021.16136 0.0000175
26.19000 29730.46965 29674.05045 0.0000176
26.20000 29493.77665 29425.49036 0.0000177
26.21000 29331.12106 29353.76051 0.0000177
26.22000 29446.71645 29467.96422 0.0000177
26.23000 29662.45195 29734.99088 0.0000177
26.24000 30069.44502 30095.77136 0.0000175
26.25000 30443.47340 30443.28457 0.0000174
26.26000 30572.39758 30624.98100 0.0000174
26.27000 30635.58616 30546.42309 0.0000174
26.28000 30335.28152 30266.22713 0.0000174
26.29000 30009.02879 29934.75519 0.0000175
26.30000 29435.35216 29659.87587 0.0000177
26.31000 29367.62771 29460.23577 0.0000177
26.32000 29181.21172 29316.02560 0.0000178
26.33000 29156.32763 29222.41657 0.0000178
26.34000 29052.06705 29169.84671 0.0000178
26.35000 29011.39904 29116.56674 0.0000179
26.36000 29054.96995 29028.55102 0.0000178
26.37000 28838.43412 28931.70304 0.0000179
26.38000 28777.45796 28894.19093 0.0000179
26.39000 28830.60333 28965.45338 0.0000179
26.40000 28841.54870 29149.16776 0.0000179
26.41000 28936.62478 29418.17339 0.0000179
26.42000 29362.96942 29726.63111 0.0000178
26.43000 29726.59505 29986.78578 0.0000176
26.44000 29733.07030 30086.26238 0.0000176
26.45000 29669.28958 29987.67093 0.0000177
26.46000 29530.01118 29786.89103 0.0000177
26.47000 29317.01820 29634.57761 0.0000178
26.48000 29319.14539 29631.20100 0.0000178
26.49000 29608.22049 29792.87094 0.0000177
26.50000 29869.42135 30070.99175 0.0000176
26.51000 30388.55527 30361.74484 0.0000174
26.52000 30712.58986 30497.44387 0.0000173
26.53000 30467.63418 30328.97924 0.0000174
26.54000 30017.60034 29886.81502 0.0000176
26.55000 29421.56122 29351.06319 0.0000178
26.56000 28900.69923 28888.82905 0.0000179
26.57000 28509.60846 28592.68797 0.0000180
26.58000 28422.93493 28493.16215 0.0000181
26.59000 28565.49131 28573.89961 0.0000180
26.60000 28786.34124 28778.76792 0.0000180
26.61000 29049.99710 29017.30162 0.0000179
26.62000 29291.59097 29194.89350 0.0000178
26.63000 29308.12497 29274.56570 0.0000178
26.64000 29279.07484 29302.07323 0.0000178
26.65000 29361.33098 29342.95334 0.0000178
26.66000 29158.70145 29404.55203 0.0000179
26.67000 29169.47734 29434.77657 0.0000179
26.68000 29059.39241 29394.99848 0.0000179
26.69000 28851.48126 29297.81113 0.0000180
26.70000 28852.98780 29154.12946 0.0000180
26.71000 28512.96854 28964.49318 0.0000181
26.72000 28426.44756 28768.48886 0.0000181
26.73000 28324.60197 28630.78756 0.0000182
26.74000 28393.36476 28588.70431 0.0000181
26.75000 28526.56054 28629.15741 0.0000181
26.76000 28482.58859 28705.42036 0.0000181
26.77000 28639.77906 28781.04802 0.0000181
26.78000 28668.93340 28838.38415 0.0000180
26.79000 28718.47745 28844.96236 0.0000180
26.80000 28727.94771 28772.90119 0.0000180
26.81000 28669.61153 28651.86949 0.0000180
26.82000 28363.67640 28554.32471 0.0000182
26.83000 28388.15378 28535.21269 0.0000182
26.84000 28389.11688 28600.68650 0.0000181
26.85000 28503.61732 28715.51714 0.0000181
26.86000 28830.79258 28835.18151 0.0000180
26.87000 28950.11357 28904.62131 0.0000180
26.88000 28810.39161 28852.15229 0.0000180
26.89000 28767.00397 28658.98811 0.0000180
26.90000 28553.49453 28405.16805 0.0000181
26.91000 28244.66661 28199.93411 0.0000182
26.92000 28139.22273 28117.70779 0.0000183
26.93000 28082.80570 28189.43854 0.0000183
26.94000 28454.41036 28408.40388 0.0000182
26.95000 28795.82019 28727.14080 0.0000181
26.96000 29113.30675 29056.03731 0.0000179
26.97000 29350.40666 29296.54181 0.0000179
26.98000 29399.80198 29429.09915 0.0000179
26.99000 29393.60193 29537.36673 0.0000179
27.00000 29585.10335 29718.38150 0.0000178
27.01000 29645.67510 29994.47105 0.0000178
27.02000 30028.05194 30299.39780 0.0000177
27.03000 30243.73156 30547.16286 0.0000176
27.04000 30386.48016 30699.59093 0.0000176
27.05000 30603.84096 30708.84462 0.0000175
27.06000 30387.58327 30486.52999 0.0000176
27.07000 30048.57836 30015.39482 0.0000177
27.08000 29566.04624 29414.81402 0.0000178
27.09000 28855.97133 28852.06661 0.0000181
27.10000 28338.11987 28445.04949 0.0000182
27.11000 28264.19876 28242.56292 0.0000183
27.12000 28290.87198 28238.96956 0.0000183
27.13000 28615.96760 28383.01804 0.0000182
27.14000 28843.28659 28580.85996 0.0000181
27.15000 28937.22067 28712.30683 0.0000181
27.16000 29052.24599 28699.50791 0.0000180
27.17000 28809.54147 28575.54810 0.0000181
27.18000 28581.08549 28434.86304 0.0000182
27.19000 28549.54310 28338.82239 0.0000182
27.20000 28304.56345 28293.98532 0.0000183
27.21000 28369.58547 28279.42362 0.0000183
27.22000 28417.74785 28254.56664 0.0000183
27.23000 28289.13657 28158.55460 0.0000183
27.24000 28238.69118 27965.89247 0.0000183
27.25000 27844.02377 27729.39484 0.0000185
27.26000 27675.48058 27527.71085 0.0000185
27.27000 27618.08237 27414.54730 0.0000185
27.28000 27423.55679 27410.76815 0.0000186
27.29000 27677.10065 27510.25275 0.0000185
27.30000 27715.69700 27682.79719 0.0000185
27.31000 28013.97419 27871.23388 0.0000184
27.32000 28227.00480 28002.70375 0.0000183
27.33000 28301.70386 28037.82327 0.0000183
27.34000 28347.63434 28009.28483 0.0000183
27.35000 28113.52993 27993.66348 0.0000184
27.36000 28121.82362 28047.50840 0.0000184
27.37000 28227.44313 28179.94339 0.0000184
27.38000 28509.92574 28366.85937 0.0000183
27.39000 28565.01420 28562.60721 0.0000183
27.40000 28785.91067 28691.24845 0.0000182
27.41000 28813.52058 28686.95853 0.0000182
27.42000 28795.52618 28573.22386 0.0000182
27.43000 28539.61244 28449.07854 0.0000183
27.44000 28519.72975 28398.00086 0.0000183
27.45000 28409.62385 28443.68626 0.0000183
27.46000 28485.13315 28559.79015 0.0000183
27.47000 28523.52526 28710.70539 0.0000183
27.48000 28771.62922 28858.07904 0.0000182
27.49000 28775.54128 28941.02420 0.0000182
27.50000 28728.22560 28920.20560 0.0000182
27.51000 28686.30813 28837.56166 0.0000183
27.52000 28801.67345 28777.73485 0.0000182
27.53000 28609.83257 28785.24627 0.0000183
27.54000 28778.45658 28832.15618 0.0000182
27.55000 28941.98471 28860.24940 0.0000182
27.56000 28819.66011 28840.22050 0.0000182
27.57000 28796.75982 28755.07551 0.0000182
27.58000 28461.96347 28580.84890 0.0000184
27.59000 28375.89243 28345.19548 0.0000184
27.60000 28129.05122 28131.53043 0.0000185
27.61000 28009.01695 28005.79437 0.0000185
27.62000 28094.11638 27979.28598 0.0000185
27.63000 28097.44923 28020.44848 0.0000185
27.64000 28119.38500 28090.92478 0.0000185
27.65000 28097.00923 28163.76645 0.0000185
27.66000 28190.34113 28203.10752 0.0000185
27.67000 28215.03141 28176.73744 0.0000185
27.68000 28151.34067 28101.67073 0.0000185
27.69000 28034.64275 28035.57197 0.0000185
27.70000 27979.09919 28020.19333 0.0000186
27.71000 28175.77746 28050.67793 0.0000185
27.72000 28118.71439 28092.89364 0.0000185
27.73000 28190.12411 28123.19637 0.0000185
27.74000 28114.37100 28128.51847 0.0000185
27.75000 28063.15577 28085.53419 0.0000186
27.76000 27868.78063 27990.99661 0.0000186
27.77000 27725.52567 27889.60955 0.0000187
27.78000 27603.20716 27843.94219 0.0000187
27.79000 27705.53523 27891.81695 0.0000187
