#------------------------------------------------------------------------------
#$Date: 2016-03-22 21:15:57 +0200 (Tue, 22 Mar 2016) $
#$Revision: 179016 $
#$URL: svn://www.crystallography.net/cod/cif/4/12/14/4121462.cif $
#------------------------------------------------------------------------------
#
# This file is available in the Crystallography Open Database (COD),
# http://www.crystallography.net/
#
# All data on this site have been placed in the public domain by the
# contributors.
#
data_4121462
loop_
_publ_author_name
'Furukawa, Hiroyasu'
'G\'andara, Felipe'
'Zhang, Yue-Biao'
'Jiang, Juncong'
'Queen, Wendy L.'
'Hudson, Matthew R.'
'Yaghi, Omar M.'
_publ_section_title
;
 Water adsorption in porous metal-organic frameworks and related
 materials.
;
_journal_issue                   11
_journal_name_full               'Journal of the American Chemical Society'
_journal_page_first              4369
_journal_page_last               4381
_journal_paper_doi               10.1021/ja500330a
_journal_volume                  136
_journal_year                    2014
_chemical_formula_sum            'C4 H2.04 D1.01 O5.78 Zr'
_chemical_formula_weight         235.79
_chemical_name_systematic        ' ?'
_space_group_IT_number           201
_symmetry_cell_setting           cubic
_symmetry_space_group_name_Hall  '-P 2ab 2bc 3'
_symmetry_space_group_name_H-M   'P n -3 :2'
_audit_creation_date             2013-10-02T18:29
_audit_creation_method           'from EXP file using GSAS2CIF'
_audit_update_record
' 2013-10-02T18:29  Initial CIF as created by GSAS2CIF'
_cell_angle_alpha                90.0
_cell_angle_beta                 90.0
_cell_angle_gamma                90.0
_cell_formula_units_Z            24
_cell_length_a                   17.8736(5)
_cell_length_b                   17.8736
_cell_length_c                   17.8736
_cell_volume                     5710.00(16)
_computing_structure_refinement  GSAS
_diffrn_radiation_probe          neutron
_diffrn_radiation_wavelength     2.078
_exptl_absorpt_correction_T_max  1.00000
_exptl_absorpt_correction_T_min  1.00000
_exptl_absorpt_process_details
;   GSAS Absorption/surface roughness correction: function number 0
 No correction is applied.
;
_pd_block_id                     2013-10-02T18:29|D2O_LOADED_FREED_REM|wq|bt1
_pd_calc_method                  'Rietveld Refinement'
_pd_instr_location               ' ?'
_pd_meas_2theta_range_inc        0.05
_pd_meas_2theta_range_max        166.25
_pd_meas_2theta_range_min        1.5
_pd_meas_number_of_points        3296
_pd_phase_name
'from Z:/Users/wendyqueen/Desktop/research/Molecular Foundry/Projec'
_pd_proc_2theta_range_inc        0.05
_pd_proc_2theta_range_max        166.2798
_pd_proc_2theta_range_min        1.5298
_pd_proc_info_datetime           2013-10-02T18:29:19
_pd_proc_info_excluded_regions   ' ?'
_pd_proc_ls_background_function
;   GSAS Background function number 1 with 12 terms.
 Shifted Chebyshev function of 1st kind
      1:    1849.38     2:   -713.749     3:    171.497     4:   -33.5340    
      5:    88.3239     6:   -74.6059     7:    62.6351     8:   -47.4093    
      9:    38.3582    10:   -22.2944    11:    4.94718    12:    5.85258    
;
_pd_proc_ls_peak_cutoff          0.00050
_pd_proc_ls_profile_function
;
 CW Profile function number 3 with  19 terms
 Pseudovoigt profile coefficients as parameterized in
 P. Thompson, D.E. Cox & J.B. Hastings (1987). J. Appl. Cryst.,20,79-83.
 Asymmetry correction of L.W. Finger, D.E. Cox & A. P. Jephcoat (1994).
 J. Appl. Cryst.,27,892-900.
 Peak tails are ignored  where the intensity is below 0.0005 times the peak
   Aniso. broadening axis   0.0   0.0   1.0
;
_pd_proc_ls_prof_R_factor        0.0182
_pd_proc_ls_prof_wR_expected     0.0228
_pd_proc_ls_prof_wR_factor       0.0223
_pd_proc_number_of_points        3296
_pd_spec_mounting                ' ?'
_refine_ls_goodness_of_fit_all   1.01
_refine_ls_matrix_type           full
_refine_ls_number_parameters     88
_refine_ls_number_restraints     12
_refine_ls_R_Fsqd_factor         0.05931
_refine_ls_shift/su_max          3.43
_refine_ls_shift/su_mean         0.93
_reflns_d_resolution_high        1.076
_reflns_d_resolution_low         12.639
_reflns_limit_h_max              17
_reflns_limit_h_min              1
_reflns_limit_k_max              12
_reflns_limit_k_min              0
_reflns_limit_l_max              11
_reflns_limit_l_min              0
_reflns_number_total             815
_cod_data_source_file            ja500330a_si_004.cif
_cod_data_source_block           MOF-801-D2O_LOADED
_cod_depositor_comments
;
The following automatic conversions were performed:

'_geom_bond_publ_flag' value 'N' changed to 'n' according to
/usr/data/users/saulius/crontab/automatic-downloads/current/ACS/lib/dictionaries/cif_core.dic
dictionary named 'cif_core.dic' version 2.4.2 from 2011-04-26 (164
times).

'_geom_angle_publ_flag' value 'N' changed to 'n' according
to
/usr/data/users/saulius/crontab/automatic-downloads/current/ACS/lib/dictionaries/cif_core.dic
dictionary named 'cif_core.dic' version 2.4.2 from 2011-04-26 (277
times).

Automatic conversion script
Id: cif_fix_values 2281 2013-09-26 08:29:07Z andrius 
;
_cod_original_cell_volume        5710.0(4)
_cod_original_sg_symbol_H-M      Pn-3
_cod_database_code               4121462
#BEGIN Tags that were not found in dictionaries:
_gsas_exptl_extinct_corr_t_min   1.00000
_gsas_exptl_extinct_corr_t_max   1.00000
#END Tags that were not found in dictionaries
loop_
_symmetry_equiv_pos_site_id
_symmetry_equiv_pos_as_xyz
1 +x,+y,+z
2 +z,+x,+y
3 +y,+z,+x
4 +x+1/2,+y+1/2,-z
5 -z,+x+1/2,+y+1/2
6 +y+1/2,-z,+x+1/2
7 -z+1/2,+x,-y+1/2
8 -y+1/2,-z+1/2,+x
9 +y,-z+1/2,-x+1/2
10 -x+1/2,+y,-z+1/2
11 -z+1/2,-x+1/2,+y
12 +x,-y+1/2,-z+1/2
-1 -x,-y,-z
-2 -z,-x,-y
-3 -y,-z,-x
-4 -x+1/2,-y+1/2,+z
-5 +z,-x+1/2,-y+1/2
-6 -y+1/2,+z,-x+1/2
-7 +z+1/2,-x,+y+1/2
-8 +y+1/2,+z+1/2,-x
-9 -y,+z+1/2,+x+1/2
-10 +x+1/2,-y,+z+1/2
-11 +z+1/2,+x+1/2,-y
-12 -x,+y+1/2,+z+1/2
loop_
_atom_site_type_symbol
_atom_site_label
_atom_site_fract_x
_atom_site_fract_y
_atom_site_fract_z
_atom_site_occupancy
_atom_site_thermal_displace_type
_atom_site_U_iso_or_equiv
_atom_site_symmetry_multiplicity
Zr Zr1 0.3608(5) 0.5112(12) 0.0088(9) 1.0 Uiso 0.0022(26) 24
O O1 0.4499(20) 0.5561(29) 0.0662(18) 0.5 Uiso 0.0049(18) 24
O O2 0.3095(11) 0.6244(10) 0.0297(10) 1.0 Uiso 0.0049(18) 24
O O6a 0.4260(31) 0.4260(31) 0.0740(31) 0.5 Uiso 0.0049(18) 8
O O3 0.2919(11) 0.4061(12) 0.0072(12) 1.0 Uiso 0.0049(18) 24
C C1 0.3368(10) 0.6842(11) 0.0225(7) 1.0 Uiso 0.0094(18) 24
C C2 0.3065(10) 0.3423(10) 0.0013(10) 1.0 Uiso 0.0072(18) 24
C C3 0.2428(12) 0.2869(11) 0.0027(14) 1.0 Uiso 0.0248(18) 24
H H3 0.1902(21) 0.3043(23) -0.002(4) 1.0 Uiso 0.038(6) 24
O O4 0.4071(13) 0.7056(11) 0.0209(12) 1.0 Uiso 0.0067(18) 24
O O5 0.3729(12) 0.3140(10) -0.0037(12) 1.0 Uiso 0.0067(18) 24
C C4 0.2884(11) 0.7541(14) 0.0264(9) 1.0 Uiso 0.0213(18) 24
H H2 0.3160(24) 0.7948(27) 0.0241(15) 1.0 Uiso 0.047(6) 24
O O1a 0.4362(20) 0.5771(26) 0.0904(18) 0.5 Uiso 0.0065(18) 24
O Ow4 0.340(5) 0.340(5) 0.160(5) 0.221(19) Uiso 0.0145 8
O Ow2 0.361(4) 0.667(4) 0.1964(32) 0.221(19) Uiso 0.0145 24
O Ow5 0.178(11) 0.322(11) 0.178(11) 0.110(10) Uiso 0.0145 8
O O6 0.4382(32) 0.4382(32) 0.0618(32) 0.5 Uiso 0.0061(18) 8
D D6a 0.393(6) 0.393(6) 0.107(6) 0.39(5) Uiso 0.044(6) 8
H H6a 0.393(6) 0.393(6) 0.107(6) 0.11(5) Uiso 0.044(6) 8
D D1a 0.4111(23) 0.6084(30) 0.1239(21) 0.5 Uiso 0.044(6) 24
O Ow3 0.25 0.25 0.25 0.35(17) Uiso 0.03897 2
D Dw3 0.260(24) 0.28(5) 0.20(4) 0.051(14) Uiso 0.03756 24
O OW1 0.75 0.75 0.25 0.33(4) Uiso 0.0086 6
D DW1 0.771(15) 0.794(9) 0.219(9) 0.083(10) Uiso 0.0096 24
D Dw11 0.723(17) 0.780(9) 0.292(9) 0.083(10) Uiso 0.0096 24
D Dw2 0.310(5) 0.673(11) 0.218(7) 0.083(10) Uiso 0.0096 24
D Dw22 0.395(6) 0.646(9) 0.238(6) 0.083(10) Uiso 0.0096 24
loop_
_atom_type_symbol
_atom_type_number_in_cell
_atom_type_scat_length_neutron
_atom_type_scat_source
Zr 24.0 0.7160 International_Tables_Vol_C
O 138.657 0.5803 International_Tables_Vol_C
C 96.0 0.6646 International_Tables_Vol_C
H 48.907 -0.3739 International_Tables_Vol_C
D 24.305 0.6671 International_Tables_Vol_C
loop_
_geom_angle_atom_site_label_1
_geom_angle_atom_site_label_2
_geom_angle_atom_site_label_3
_geom_angle
_geom_angle_site_symmetry_1
_geom_angle_site_symmetry_3
_geom_angle_publ_flag
O1 Zr1 O1 90.0(18) 1_555 7_555 n
O1 Zr1 O1 60.9(14) 1_555 -9_654 n
O1 Zr1 O2 83.2(14) 1_555 1_555 n
O1 Zr1 O6a 66.7(22) 1_555 1_555 n
O1 Zr1 O3 139.2(18) 1_555 1_555 n
O1 Zr1 O4 143.8(18) 1_555 -9_665 n
O1 Zr1 O5 81.0(12) 1_555 9_555 n
O1 Zr1 O1a 15.0(11) 1_555 1_555 n
O1 Zr1 O1a 106.1(14) 1_555 7_555 n
O1 Zr1 O1a 69.9(18) 1_555 -9_665 n
O1 Zr1 O6 60.9(14) 1_555 1_555 n
O1 Zr1 O1 60.8(13) 7_555 -9_654 n
O1 Zr1 O2 146.0(20) 7_555 1_555 n
O1 Zr1 O6a 66.6(23) 7_555 1_555 n
O1 Zr1 O3 84.0(13) 7_555 1_555 n
O1 Zr1 O4 85.3(15) 7_555 -9_665 n
O1 Zr1 O5 136.3(20) 7_555 9_555 n
O1 Zr1 O1a 105.0(16) 7_555 1_555 n
O1 Zr1 O1a 16.2(12) 7_555 7_555 n
O1 Zr1 O1a 72.2(20) 7_555 -9_665 n
O1 Zr1 O6 60.8(14) 7_555 1_555 n
O1 Zr1 O2 87.2(16) -9_564 1_555 n
O1 Zr1 O6a 102.4(25) -9_564 1_555 n
O1 Zr1 O3 141.7(12) -9_555 1_555 n
O1 Zr1 O4 85.9(12) -9_665 -9_665 n
O1 Zr1 O5 139.8(12) -9_665 9_555 n
O1 Zr1 O1a 70.2(13) -9_665 1_555 n
O1 Zr1 O1a 69.7(18) -9_665 7_555 n
O1 Zr1 O1a 16.2(16) -9_665 -9_665 n
O1 Zr1 O6 93.0(20) -9_665 1_555 n
O2 Zr1 O6a 137.3(7) 1_555 1_555 n
O2 Zr1 O3 121.9(8) 1_555 1_555 n
O2 Zr1 O4 81.1(9) 1_555 -9_665 n
O2 Zr1 O5 75.4(7) 1_555 9_555 n
O2 Zr1 O1a 71.0(11) 1_555 1_555 n
O2 Zr1 O1a 144.9(16) 1_555 7_555 n
O2 Zr1 O1a 74.2(12) 1_555 -9_665 n
O2 Zr1 O6 138.0(6) 1_555 1_555 n
O6a Zr1 O3 74.0(18) 1_555 1_555 n
O6a Zr1 O4 140.4(9) 1_555 -9_665 n
O6a Zr1 O5 70.6(16) 1_555 9_555 n
O6a Zr1 O1a 73.4(13) 1_555 1_555 n
O6a Zr1 O1a 75.2(13) 1_555 7_555 n
O6a Zr1 O1a 118.5(21) 1_555 -9_665 n
O6a Zr1 O6 9(4) 1_555 1_555 n
O3 Zr1 O4 76.0(7) 1_555 -9_665 n
O3 Zr1 O5 76.1(11) 1_555 9_555 n
O3 Zr1 O1a 139.0(14) 1_555 1_555 n
O3 Zr1 O1a 72.7(13) 1_555 7_555 n
O3 Zr1 O1a 143.2(11) 1_555 -9_665 n
O3 Zr1 O6 81.3(23) 1_555 1_555 n
O4 Zr1 O5 125.4(9) -9_665 9_555 n
O4 Zr1 O1a 143.6(15) -9_665 1_555 n
O4 Zr1 O1a 71.6(13) -9_665 7_555 n
O4 Zr1 O1a 74.5(12) -9_665 -9_665 n
O4 Zr1 O6 140.9(8) -9_665 1_555 n
O5 Zr1 O1a 70.0(13) 9_555 1_555 n
O5 Zr1 O1a 138.7(15) 9_555 7_555 n
O5 Zr1 O1a 139.9(12) 9_555 -9_665 n
O5 Zr1 O6 77.8(22) 9_555 1_555 n
O1a Zr1 O1a 121.1(18) 1_555 7_555 n
O1a Zr1 O1a 75.7(13) 1_555 -9_665 n
O1a Zr1 O6 69.6(15) 1_555 1_555 n
O1a Zr1 O1a 77.5(12) 7_555 -9_665 n
O1a Zr1 O6 71.4(16) 7_555 1_555 n
O1a Zr1 O6 109.2(29) -9_665 1_555 n
Zr1 O1 Zr1 120.5(30) 1_555 9_555 n
Zr1 O1 Zr1 115.9(17) 1_555 -7_555 n
Zr1 O1 O1a 106(7) 1_555 1_555 n
Zr1 O1 D1a 102.8(20) 1_555 1_555 n
Zr1 O1 Zr1 115.7(20) 9_555 -7_555 n
Zr1 O1 O1a 96(5) 9_555 1_555 n
Zr1 O1 D1a 99.0(20) 9_555 1_555 n
Zr1 O1 O1a 96(9) -7_665 1_555 n
Zr1 O1 D1a 96.4(34) -7_665 1_555 n
O1a O1 D1a 4(5) 1_555 1_555 n
Zr1 O2 C1 128.7(18) 1_555 1_555 n
Zr1 O6a Zr1 105.6(25) 1_555 7_555 n
Zr1 O6a Zr1 105.6(25) 1_555 9_555 n
Zr1 O6a O6 66.9(22) 1_555 1_555 n
Zr1 O6a D6a 113.1(22) 1_555 1_555 n
Zr1 O6a H6a 113.1(22) 1_555 1_555 n
Zr1 O6a Zr1 105.6(25) 7_555 9_555 n
Zr1 O6a O6 66.9(22) 7_555 1_555 n
Zr1 O6a D6a 113.1(22) 7_555 1_555 n
Zr1 O6a H6a 113.1(22) 7_555 1_555 n
Zr1 O6a O6 66.9(22) 9_555 1_555 n
Zr1 O6a D6a 113.1(22) 9_555 1_555 n
Zr1 O6a H6a 113.1(22) 9_555 1_555 n
O6 O6a D6a 180.0 1_555 1_555 n
O6 O6a H6a 180.0 1_555 1_555 n
D6a O6a H6a 0.0 1_555 1_555 n
Zr1 O3 C2 133.7(16) 1_555 1_555 n
O2 C1 O4 131.4(18) 1_555 1_555 n
O2 C1 C4 120.2(20) 1_555 1_555 n
O4 C1 C4 107.8(19) 1_555 1_555 n
O3 C2 C3 117.9(19) 1_555 1_555 n
O3 C2 O5 126.2(18) 1_555 1_555 n
C3 C2 O5 115.9(16) 1_555 1_555 n
C2 C3 C3 119.9(25) 1_555 -4_555 n
C2 C3 H3 120.4(31) 1_555 1_555 n
C3 C3 H3 119.4(31) -4_654 1_555 n
Zr1 O4 C1 129.9(15) -7_654 1_555 n
Zr1 O5 C2 135.4(14) 7_555 1_555 n
C1 C4 C4 118.5(28) 1_555 -4_675 n
C1 C4 H2 111.1(31) 1_555 1_555 n
C4 C4 H2 130(4) -4_675 1_555 n
Zr1 O1a Zr1 104.4(20) 1_555 9_555 n
Zr1 O1a Zr1 101.1(14) 1_555 -7_555 n
Zr1 O1a O1 59(6) 1_555 1_555 n
Zr1 O1a D1a 115(4) 1_555 1_555 n
Zr1 O1a Zr1 104.1(16) 9_555 -7_555 n
Zr1 O1a O1 68(5) 9_555 1_555 n
Zr1 O1a D1a 117(4) 9_555 1_555 n
Zr1 O1a O1 68(8) -7_654 1_555 n
Zr1 O1a D1a 113(4) -7_665 1_555 n
O1 O1a D1a 174(9) 1_555 1_555 n
D6a Ow4 H6a 0.0 1_555 1_555 n
DW1 Ow2 Dw2 29(10) -8_566 1_555 n
DW1 Ow2 Dw22 112(13) -8_566 1_555 n
Dw2 Ow2 Dw22 106.5(20) 1_555 1_555 n
Zr1 O6 Zr1 114.6(20) 1_555 7_555 n
Zr1 O6 Zr1 114.6(20) 1_555 9_555 n
Zr1 O6 O6a 103.7(27) 1_555 1_555 n
Zr1 O6 D6a 103.7(27) 1_555 1_555 n
Zr1 O6 H6a 103.7(27) 1_555 1_555 n
Zr1 O6 Zr1 114.6(20) 7_555 9_555 n
Zr1 O6 O6a 103.7(27) 7_555 1_555 n
Zr1 O6 D6a 103.7(27) 7_555 1_555 n
Zr1 O6 H6a 103.7(27) 7_555 1_555 n
Zr1 O6 O6a 103.7(27) 9_555 1_555 n
Zr1 O6 D6a 103.7(27) 9_555 1_555 n
Zr1 O6 H6a 103.7(27) 9_555 1_555 n
O6a O6 D6a 0.0 1_555 1_555 n
O6a O6 H6a 0.0 1_555 1_555 n
D6a O6 H6a 0.0 1_555 1_555 n
O6a D6a Ow4 180.0 1_555 1_555 n
O6a D6a O6 0.0 1_555 1_555 n
O6a D6a H6a 180.00000(10) 1_555 1_555 n
Ow4 D6a O6 180.0 1_555 1_555 n
Ow4 D6a H6a 0.0 1_555 1_555 n
O6 D6a H6a 180.0 1_555 1_555 n
O6a H6a Ow4 180.0 1_555 1_555 n
O6a H6a O6 0.0 1_555 1_555 n
O6a H6a D6a 0.0 1_555 1_555 n
Ow4 H6a O6 180.0 1_555 1_555 n
Ow4 H6a D6a 180.00000(10) 1_555 1_555 n
O6 H6a D6a 0.0 1_555 1_555 n
O1 D1a O1a 2(4) 1_555 1_555 n
Dw3 Ow3 Dw3 120(10) 1_555 2_555 n
Dw3 Ow3 Dw3 120(10) 1_555 3_555 n
Dw3 Ow3 Dw3 46(46) 1_555 7_555 n
Dw3 Ow3 Dw3 79(48) 1_555 8_555 n
Dw3 Ow3 Dw3 46(46) 1_555 9_555 n
Dw3 Ow3 Dw3 110(130) 1_555 10_555 n
Dw3 Ow3 Dw3 113(50) 1_555 11_555 n
Dw3 Ow3 Dw3 159(48) 1_555 12_555 n
Dw3 Ow3 Dw3 70(120) 1_555 -4_665 n
Dw3 Ow3 Dw3 79(48) 1_555 -5_566 n
Dw3 Ow3 Dw3 113(50) 1_555 -6_656 n
Dw3 Ow3 Dw3 120(10) 2_555 3_555 n
Dw3 Ow3 Dw3 159(48) 2_555 7_555 n
Dw3 Ow3 Dw3 46(46) 2_555 8_555 n
Dw3 Ow3 Dw3 113(50) 2_555 9_555 n
Dw3 Ow3 Dw3 46(46) 2_555 10_555 n
Dw3 Ow3 Dw3 110(130) 2_555 11_555 n
Dw3 Ow3 Dw3 79(48) 2_555 12_555 n
Dw3 Ow3 Dw3 113(50) 2_555 -4_665 n
Dw3 Ow3 Dw3 70(120) 2_555 -5_566 n
Dw3 Ow3 Dw3 79(48) 2_555 -6_656 n
Dw3 Ow3 Dw3 79(48) 3_555 7_555 n
Dw3 Ow3 Dw3 159(48) 3_555 8_555 n
Dw3 Ow3 Dw3 110(130) 3_555 9_555 n
Dw3 Ow3 Dw3 113(50) 3_555 10_555 n
Dw3 Ow3 Dw3 46(46) 3_555 11_555 n
Dw3 Ow3 Dw3 46(46) 3_555 12_555 n
Dw3 Ow3 Dw3 79(48) 3_555 -4_665 n
Dw3 Ow3 Dw3 113(50) 3_555 -5_566 n
Dw3 Ow3 Dw3 70(120) 3_555 -6_656 n
Dw3 Ow3 Dw3 113(50) 7_555 8_555 n
Dw3 Ow3 Dw3 46(46) 7_555 9_555 n
Dw3 Ow3 Dw3 120(10) 7_555 10_555 n
Dw3 Ow3 Dw3 70(120) 7_555 11_555 n
Dw3 Ow3 Dw3 113(50) 7_555 12_555 n
Dw3 Ow3 Dw3 79(48) 7_555 -4_665 n
Dw3 Ow3 Dw3 110(130) 7_555 -5_566 n
Dw3 Ow3 Dw3 120(10) 7_555 -6_656 n
Dw3 Ow3 Dw3 70(120) 8_555 9_555 n
Dw3 Ow3 Dw3 46(46) 8_555 10_555 n
Dw3 Ow3 Dw3 120(10) 8_555 11_555 n
Dw3 Ow3 Dw3 113(50) 8_555 12_555 n
Dw3 Ow3 Dw3 120(10) 8_555 -4_665 n
Dw3 Ow3 Dw3 79(48) 8_555 -5_566 n
Dw3 Ow3 Dw3 110(130) 8_555 -6_656 n
Dw3 Ow3 Dw3 79(48) 9_555 10_555 n
Dw3 Ow3 Dw3 79(48) 9_555 11_555 n
Dw3 Ow3 Dw3 120(10) 9_555 12_555 n
Dw3 Ow3 Dw3 113(50) 9_555 -4_665 n
Dw3 Ow3 Dw3 120(10) 9_555 -5_566 n
Dw3 Ow3 Dw3 159(48) 9_555 -6_656 n
Dw3 Ow3 Dw3 79(48) 10_555 11_555 n
Dw3 Ow3 Dw3 70(120) 10_555 12_555 n
Dw3 Ow3 Dw3 159(48) 10_555 -4_665 n
Dw3 Ow3 Dw3 113(50) 10_555 -5_566 n
Dw3 Ow3 Dw3 120(10) 10_555 -6_656 n
Dw3 Ow3 Dw3 46(46) 11_555 12_555 n
Dw3 Ow3 Dw3 120(10) 11_555 -4_665 n
Dw3 Ow3 Dw3 159(48) 11_555 -5_566 n
Dw3 Ow3 Dw3 113(50) 11_555 -6_656 n
Dw3 Ow3 Dw3 110(130) 12_555 -4_665 n
Dw3 Ow3 Dw3 120(10) 12_555 -5_566 n
Dw3 Ow3 Dw3 79(48) 12_555 -6_656 n
Dw3 Ow3 Dw3 46(46) -4_665 -5_566 n
Dw3 Ow3 Dw3 46(46) -4_665 -6_656 n
Dw3 Ow3 Dw3 46(46) -5_566 -6_656 n
Ow3 Dw3 Dw3 67(23) 1_555 7_555 n
Ow3 Dw3 Dw3 51(24) 1_555 8_555 n
Ow3 Dw3 Dw3 67(23) 1_555 9_555 n
Ow3 Dw3 Dw3 55(62) 1_555 -4_665 n
Ow3 Dw3 Dw3 51(24) 1_555 -5_566 n
Dw3 Dw3 Dw3 110(120) 7_555 8_555 n
Dw3 Dw3 Dw3 60.0000(4) 7_555 9_555 n
Dw3 Dw3 Dw3 80(140) 7_555 -4_665 n
Dw3 Dw3 Dw3 108(55) 7_555 -5_566 n
Dw3 Dw3 Dw3 60(160) 8_555 9_555 n
Dw3 Dw3 Dw3 92(62) 8_555 -4_665 n
Dw3 Dw3 Dw3 60.0 8_555 -5_566 n
Dw3 Dw3 Dw3 119(97) 9_555 -4_665 n
Dw3 Dw3 Dw3 113(90) 9_555 -5_566 n
Dw3 Dw3 Dw3 38(51) -4_665 -5_566 n
DW1 OW1 DW1 81(25) 1_555 10_655 n
DW1 OW1 DW1 137(33) 1_555 12_565 n
DW1 OW1 DW1 115(21) 1_555 -4_775 n
DW1 OW1 Dw11 99.3(34) 1_555 1_555 n
DW1 OW1 Dw11 18(23) 1_555 10_655 n
DW1 OW1 Dw11 100(7) 1_555 12_565 n
DW1 OW1 Dw11 127(11) 1_555 -4_775 n
DW1 OW1 DW1 115(21) 10_655 12_565 n
DW1 OW1 DW1 137(33) 10_655 -4_775 n
DW1 OW1 Dw11 18(23) 10_655 1_555 n
DW1 OW1 Dw11 99.3(34) 10_655 10_655 n
DW1 OW1 Dw11 127(11) 10_655 12_565 n
DW1 OW1 Dw11 100(7) 10_655 -4_775 n
DW1 OW1 DW1 81(25) 12_565 -4_775 n
DW1 OW1 Dw11 100(7) 12_565 1_555 n
DW1 OW1 Dw11 127(11) 12_565 10_655 n
DW1 OW1 Dw11 99.3(34) 12_565 12_565 n
DW1 OW1 Dw11 18(23) 12_565 -4_775 n
DW1 OW1 Dw11 127(11) -4_775 1_555 n
DW1 OW1 Dw11 100(7) -4_775 10_655 n
DW1 OW1 Dw11 18(23) -4_775 12_565 n
DW1 OW1 Dw11 99.3(34) -4_775 -4_775 n
Dw11 OW1 Dw11 117(22) 1_555 10_655 n
Dw11 OW1 Dw11 124(36) 1_555 12_565 n
Dw11 OW1 Dw11 89(28) 1_555 -4_775 n
Dw11 OW1 Dw11 89(28) 10_655 12_565 n
Dw11 OW1 Dw11 124(36) 10_655 -4_775 n
Dw11 OW1 Dw11 117(22) 12_565 -4_775 n
Ow2 DW1 OW1 178(17) 5_654 1_555 n
Ow2 DW1 DW1 132(9) 5_654 10_655 n
Ow2 DW1 Dw11 97(9) 5_654 10_655 n
Ow2 DW1 Dw2 34(7) 5_654 5_654 n
OW1 DW1 DW1 49(12) 1_555 10_655 n
OW1 DW1 Dw11 81(12) 1_555 10_655 n
OW1 DW1 Dw2 144(18) 1_555 5_654 n
DW1 DW1 Dw11 130(9) 10_655 10_655 n
DW1 DW1 Dw2 152(37) 10_655 5_654 n
Dw11 DW1 Dw2 69(26) 10_655 5_654 n
OW1 Dw11 DW1 81(12) 1_555 10_655 n
OW1 Dw11 Dw11 46(14) 1_555 -4_775 n
OW1 Dw11 Dw2 157(42) 1_555 -11_666 n
DW1 Dw11 Dw11 110(76) 10_655 -4_775 n
DW1 Dw11 Dw2 89(39) 10_655 -11_666 n
Dw11 Dw11 Dw2 122(31) -4_775 -11_666 n
Ow2 Dw2 DW1 117(17) 1_555 -8_566 n
Ow2 Dw2 Dw11 134(30) 1_555 6_464 n
DW1 Dw2 Dw11 22(28) -8_566 6_464 n
loop_
_geom_bond_atom_site_label_1
_geom_bond_atom_site_label_2
_geom_bond_distance
_geom_bond_site_symmetry_2
_geom_bond_publ_flag
Zr1 Zr1 3.576(28) 7_555 n
Zr1 Zr1 3.576(28) 9_555 n
Zr1 Zr1 3.496(27) -7_564 n
Zr1 Zr1 3.496(27) -9_654 n
Zr1 O1 2.06(5) 1_555 n
Zr1 O1 2.06(4) 7_555 n
Zr1 O1 2.07(5) -9_654 n
Zr1 O2 2.253(23) 1_555 n
Zr1 O6a 2.24(4) 1_555 n
Zr1 O3 2.247(26) 1_555 n
Zr1 O4 2.178(27) -9_654 n
Zr1 O5 2.280(23) 9_555 n
Zr1 O1a 2.31(4) 1_555 n
Zr1 O1a 2.22(4) 7_555 n
Zr1 O1a 2.22(5) -9_654 n
Zr1 O6 2.125(33) 1_555 n
Zr1 D1a 2.77(5) 7_555 n
Zr1 D1a 2.72(5) -9_654 n
O1 Zr1 2.06(5) 1_555 n
O1 Zr1 2.06(4) 9_555 n
O1 Zr1 2.07(5) -7_564 n
O1 O1 2.09(5) -7_564 n
O1 O1 2.09(5) -9_654 n
O1 O1a 0.62(5) 1_555 n
O1 O6 2.12(6) 1_555 n
O1 D1a 1.55(5) 1_555 n
O2 Zr1 2.253(23) 1_555 n
O2 C1 1.182(22) 1_555 n
O6a Zr1 2.24(4) 1_555 n
O6a Zr1 2.24(4) 7_555 n
O6a Zr1 2.24(4) 9_555 n
O6a O6 0.38(15) 1_555 n
O6a D6a 1.01(16) 1_555 n
O6a H6a 1.03(16) 1_555 n
O3 Zr1 2.247(26) 1_555 n
O3 C2 1.175(23) 1_555 n
C1 O2 1.182(22) 1_555 n
C1 O4 1.314(25) 1_555 n
C1 C4 1.521(26) 1_555 n
C1 H2 2.01(5) 1_555 n
C2 O3 1.175(23) 1_555 n
C2 C3 1.509(24) 1_555 n
C2 O5 1.294(24) 1_555 n
C3 C2 1.509(24) 1_555 n
C3 C3 1.34(4) -4_555 n
C3 H3 0.99(5) 1_555 n
C3 H3 2.03(4) -4_555 n
H3 C3 0.99(5) 1_555 n
H3 C3 2.03(4) -4_555 n
O4 Zr1 2.178(27) -7_564 n
O4 C1 1.314(25) 1_555 n
O5 Zr1 2.280(23) 7_555 n
O5 C2 1.294(24) 1_555 n
C4 C1 1.521(26) 1_555 n
C4 C4 1.38(4) -4_565 n
C4 H2 0.88(6) 1_555 n
C4 H2 2.06(5) -4_565 n
H2 C1 2.01(5) 1_555 n
H2 C4 0.88(6) 1_555 n
H2 C4 2.06(5) -4_565 n
O1a Zr1 2.31(4) 1_555 n
O1a Zr1 2.22(4) 9_555 n
O1a Zr1 2.22(5) -7_564 n
O1a O1 0.62(5) 1_555 n
O1a D1a 0.93(4) 1_555 n
Ow4 D6a 1.65(24) 1_555 n
Ow4 H6a 1.63(24) 1_555 n
Ow4 Dw3 1.95(31) 1_555 n
Ow4 Dw3 1.95(31) 7_555 n
Ow4 Dw3 1.95(31) 9_555 n
Ow2 D1a 1.89(8) 1_555 n
Ow2 DW1 1.61(8) -8_456 n
Ow2 Dw11 1.69(12) 6_464 n
Ow2 Dw2 1.005(16) 1_555 n
Ow2 Dw22 1.031(20) 1_555 n
Ow5 Dw3 1.7(6) 1_555 n
Ow5 Dw3 1.7(6) 8_555 n
Ow5 Dw3 1.7(6) -5_555 n
O6 Zr1 2.125(33) 1_555 n
O6 Zr1 2.125(33) 7_555 n
O6 Zr1 2.125(33) 9_555 n
O6 O1 2.12(6) 1_555 n
O6 O1 2.12(6) 7_555 n
O6 O1 2.12(6) 9_555 n
O6 O6a 0.38(15) 1_555 n
O6 D6a 1.38(20) 1_555 n
O6 H6a 1.40(20) 1_555 n
D6a O6a 1.01(16) 1_555 n
D6a Ow4 1.65(24) 1_555 n
D6a O6 1.38(20) 1_555 n
D6a H6a 0.02082 1_555 n
H6a O6a 1.03(16) 1_555 n
H6a Ow4 1.63(24) 1_555 n
H6a O6 1.40(20) 1_555 n
H6a D6a 0.02082 1_555 n
D1a Zr1 2.77(5) 9_555 n
D1a Zr1 2.72(5) -7_564 n
D1a O1 1.55(5) 1_555 n
D1a O1a 0.93(4) 1_555 n
D1a Ow2 1.89(8) 1_555 n
Ow3 Dw3 1.01(13) 1_555 n
Ow3 Dw3 1.01(13) 2_555 n
Ow3 Dw3 1.01(13) 3_555 n
Ow3 Dw3 1.01(13) 7_555 n
Ow3 Dw3 1.01(13) 8_555 n
Ow3 Dw3 1.01(13) 9_555 n
Ow3 Dw3 1.01(13) 10_555 n
Ow3 Dw3 1.01(13) 11_555 n
Ow3 Dw3 1.01(13) 12_555 n
Ow3 Dw3 1.01(13) -4_555 n
Ow3 Dw3 1.01(13) -5_555 n
Ow3 Dw3 1.01(13) -6_555 n
Dw3 Ow4 1.95(31) 1_555 n
Dw3 Ow5 1.7(6) 1_555 n
Dw3 Ow3 1.01(13) 1_555 n
Dw3 Dw3 1.75(13) 2_555 n
Dw3 Dw3 1.75(13) 3_555 n
Dw3 Dw3 0.8(8) 7_555 n
Dw3 Dw3 1.3(8) 8_555 n
Dw3 Dw3 0.8(8) 9_555 n
Dw3 Dw3 1.7(15) 10_555 n
Dw3 Dw3 1.69(30) 11_555 n
Dw3 Dw3 1.2(17) -4_555 n
Dw3 Dw3 1.3(8) -5_555 n
Dw3 Dw3 1.69(30) -6_555 n
OW1 DW1 1.043(25) 1_555 n
OW1 DW1 1.043(25) 10_655 n
OW1 DW1 1.043(25) 12_565 n
OW1 DW1 1.043(25) -4_665 n
OW1 Dw11 1.043(31) 1_555 n
OW1 Dw11 1.043(31) 10_655 n
OW1 Dw11 1.043(31) 12_565 n
OW1 Dw11 1.043(31) -4_665 n
OW1 Dw2 1.83(14) 5_654 n
OW1 Dw2 1.83(14) -2_666 n
OW1 Dw2 1.83(14) -7_564 n
OW1 Dw2 1.83(14) -11_556 n
DW1 Ow2 1.61(8) 5_654 n
DW1 OW1 1.043(25) 1_555 n
DW1 DW1 1.36(33) 10_655 n
DW1 DW1 1.94(26) 12_565 n
DW1 DW1 1.76(19) -4_665 n
DW1 Dw11 1.590(15) 1_555 n
DW1 Dw11 0.3(4) 10_655 n
DW1 Dw11 1.60(10) 12_565 n
DW1 Dw11 1.87(10) -4_665 n
DW1 Dw2 0.89(16) 5_654 n
Dw11 Ow2 1.69(12) -11_556 n
Dw11 OW1 1.043(31) 1_555 n
Dw11 DW1 1.590(15) 1_555 n
Dw11 DW1 0.3(4) 10_655 n
Dw11 DW1 1.60(10) 12_565 n
Dw11 DW1 1.87(10) -4_665 n
Dw11 Dw11 1.78(23) 10_655 n
Dw11 Dw11 1.84(26) 12_565 n
Dw11 Dw11 1.5(4) -4_665 n
Dw11 Dw2 0.83(17) -11_556 n
Dw2 Ow2 1.005(16) 1_555 n
Dw2 OW1 1.83(14) 6_464 n
Dw2 DW1 0.89(16) -8_456 n
Dw2 Dw11 0.83(17) 6_464 n
Dw2 Dw22 1.631(30) 1_555 n
Dw22 Ow2 1.031(20) 1_555 n
Dw22 Dw2 1.631(30) 1_555 n
loop_
_pd_meas_intensity_total
_pd_proc_ls_weight
_pd_proc_intensity_bkg_calc
_pd_calc_intensity_total
6500(170) 0.0 5625. .
6540(170) 0.0 5596. .
6810(180) 0.0 5568. .
7290(180) 0.0 5540. .
7590(190) 0.0 5512. .
7600(190) 0.0 5484. .
8030(190) 0.0 5457. .
8640(200) 0.0 5430. .
8720(200) 0.0 5402. .
8950(200) 0.0 5375. .
9490(210) 0.0 5349. .
9580(210) 0.0 5322. .
9990(210) 0.0 5296. .
10310(220) 0.0 5269. .
10400(220) 0.0 5243. .
10760(220) 0.0 5217. .
10590(220) 0.0 5192. .
11050(220) 0.0 5166. .
11330(230) 0.0 5141. .
10880(220) 0.0 5115. .
11010(220) 0.0 5090. .
11080(220) 0.0 5066. .
10750(220) 0.0 5041. .
10490(220) 0.0 5016. .
11070(220) 0.0 4992. .
10240(210) 0.0 4968. .
10210(210) 0.0 4944. .
10090(210) 0.0 4920. .
9930(210) 0.0 4896. .
9820(210) 0.0 4873. .
9760(210) 0.0 4849. .
9200(200) 0.0 4826. .
9180(200) 0.0 4803. .
8660(200) 0.0 4780. .
8450(200) 0.0 4757. .
8280(190) 0.0 4735. .
8030(190) 0.0 4712. .
7820(190) 0.0 4690. .
7640(190) 0.0 4668. .
7350(180) 0.0 4646. .
7590(190) 0.0 4624. .
7160(180) 0.0 4603. .
7040(180) 0.0 4581. .
6700(170) 0.0 4560. .
6510(170) 0.0 4539. .
6400(170) 0.0 4518. .
6400(170) 0.0 4497. .
6120(170) 0.0 4476. .
5760(160) 0.0 4456. .
5730(160) 0.0 4435. .
5680(160) 0.0 4415. .
5480(160) 0.0 4395. .
5310(150) 0.0 4375. .
5600(160) 0.0 4355. .
5160(150) 0.0 4336. .
5370(160) 0.0 4316. .
5350(160) 0.0 4297. .
5070(150) 0.0 4278. .
4920(150) 0.0 4258. .
5120(150) 0.0 4239. .
4850(150) 0.0 4221. .
4760(150) 0.0 4202. .
4630(140) 0.0 4183. .
4530(140) 0.0 4165. .
4320(140) 0.0 4147. .
4670(150) 0.0 4129. .
4530(140) 0.0 4111. .
4270(140) 0.0 4093. .
4260(140) 0.0 4075. .
4260(140) 0.0 4058. .
4220(140) 0.0 4040. .
4430(140) 0.0 4023. .
4190(140) 0.0 4006. .
4120(140) 0.0 3989. .
4110(140) 0.0 3972. .
4050(140) 0.0 3955. .
4040(140) 0.0 3938. .
3990(130) 0.0 3922. .
3640(130) 0.0 3905. .
3720(130) 0.0 3889. .
3930(130) 0.0 3873. .
3970(130) 0.0 3857. .
3980(130) 0.0 3841. .
3640(130) 0.0 3825. .
3620(130) 0.0 3810. .
3900(130) 0.0 3794. .
3620(130) 0.0 3779. .
3580(130) 0.0 3763. .
3740(130) 0.0 3748. .
3700(130) 0.0 3733. .
3750(130) 0.0 3718. .
3460(130) 0.0 3703. .
3580(130) 0.0 3689. .
3630(130) 0.0 3674. .
3320(120) 0.0 3660. .
3510(130) 0.0 3645. .
3540(130) 0.0 3631. .
3350(120) 0.0 3617. .
3120(120) 0.0 3603. .
3440(120) 0.0 3589. .
3447(85) 0.0 3576. .
3447(85) 0.0 3562. .
3273(83) 0.0 3548. .
3332(84) 0.0 3535. .
3269(83) 0.0 3522. .
3368(84) 0.0 3508. .
3202(82) 0.0 3495. .
3236(83) 0.0 3482. .
3224(82) 0.0 3469. .
3240(83) 0.0 3457. .
3144(81) 0.0 3444. .
3083(81) 0.0 3431. .
2913(78) 0.0 3419. .
3188(82) 0.0 3407. .
3185(82) 0.0 3394. .
2979(79) 0.0 3382. .
3003(79) 0.0 3370. .
3291(83) 0.0 3358. .
3147(81) 0.0 3346. .
3023(80) 0.0 3335. .
3137(81) 0.0 3323. .
3101(81) 0.0 3312. .
2891(78) 0.0 3300. .
3142(81) 0.0 3289. .
2992(79) 0.0 3278. .
2970(79) 0.0 3266. .
3110(81) 0.0 3255. .
2991(79) 0.0 3244. .
2897(78) 0.0 3234. .
3023(80) 0.0 3223. .
2871(78) 0.0 3212. .
3064(80) 0.0 3202. .
3049(80) 0.0 3191. .
2934(78) 0.0 3181. .
2963(79) 0.0 3170. .
2877(78) 0.0 3160. .
2979(79) 0.0 3150. .
2870(78) 0.0 3140. .
2962(79) 0.0 3130. .
3003(79) 0.0 3120. .
2888(78) 0.0 3111. .
2916(78) 0.0001644 3101. 3110.
2916(78) 0.0001644 3091. 3101.
2967(79) 0.0001602 3082. 3092.
2880(78) 0.0001644 3072. 3083.
2903(78) 0.0001644 3063. 3074.
2987(79) 0.0001602 3054. 3065.
2965(79) 0.0001602 3045. 3056.
2822(77) 0.0001687 3036. 3047.
3005(79) 0.0001602 3027. 3039.
2938(79) 0.0001602 3018. 3030.
2825(77) 0.0001687 3009. 3022.
2875(78) 0.0001644 3000. 3014.
3027(80) 0.0001562 2992. 3006.
2964(79) 0.0001602 2983. 2998.
3005(79) 0.0001602 2974. 2991.
2958(79) 0.0001602 2966. 2983.
3089(81) 0.0001524 2958. 2976.
2921(78) 0.0001644 2949. 2968.
3009(79) 0.0001602 2941. 2960.
2956(79) 0.0001602 2933. 2952.
2997(79) 0.0001602 2925. 2945.
2963(79) 0.0001602 2917. 2937.
2878(78) 0.0001644 2909. 2930.
2903(78) 0.0001644 2902. 2924.
2883(78) 0.0001644 2894. 2917.
2961(79) 0.0001602 2886. 2911.
2890(78) 0.0001644 2879. 2905.
2988(79) 0.0001602 2871. 2899.
3043(80) 0.0001562 2864. 2894.
3093(81) 0.0001524 2856. 2889.
3007(79) 0.0001602 2849. 2884.
2932(78) 0.0001644 2842. 2879.
2807(77) 0.0001687 2835. 2875.
3040(80) 0.0001562 2828. 2871.
2894(78) 0.0001644 2821. 2868.
3037(80) 0.0001562 2814. 2866.
3037(80) 0.0001562 2807. 2864.
3194(82) 0.0001487 2800. 2864.
2943(79) 0.0001602 2793. 2864.
3013(80) 0.0001562 2787. 2866.
3017(80) 0.0001562 2780. 2871.
3086(81) 0.0001524 2774. 2878.
3094(81) 0.0001524 2767. 2892.
3100(81) 0.0001524 2761. 2918.
3231(82) 0.0001487 2754. 2971.
3428(85) 0.0001384 2748. 3072.
3508(86) 0.0001352 2742. 3249.
3734(89) 0.0001262 2736. 3524.
3957(91) 0.0001208 2730. 3911.
4184(94) 0.0001132 2724. 4412.
4830(100) 0.0000980 2718. 5033.
5390(110) 0.0000873 2712. 5795.
6310(120) 0.0000743 2706. 6746.
7710(130) 0.0000610 2700. 7975.
9230(140) 0.0000510 2695. 9636.
11970(220) 0.0000207 2689. 11909.
15410(250) 0.0000159 2683. 14826.
17940(270) 0.0000136 2678. 17943.
20060(290) 0.0000122 2672. 20145.
19850(210) 0.0000236 2667. 20041.
16720(190) 0.0000280 2662. 17103.
12610(160) 0.0000376 2656. 12580.
8370(130) 0.0000565 2651. 8367.
5480(110) 0.0000873 2646. 5494.
3769(89) 0.0001262 2641. 3965.
3059(80) 0.0001562 2636. 3297.
2867(77) 0.0001687 2631. 3033.
2763(76) 0.0001731 2626. 2918.
2696(75) 0.0001778 2621. 2854.
2872(77) 0.0001687 2616. 2809.
2800(76) 0.0001731 2611. 2774.
2780(76) 0.0001731 2607. 2746.
2715(75) 0.0001778 2602. 2723.
2727(75) 0.0001778 2597. 2704.
2632(74) 0.0001826 2593. 2687.
2595(73) 0.0001877 2588. 2673.
2547(72) 0.0001929 2584. 2660.
2713(75) 0.0001778 2579. 2649.
2728(75) 0.0001778 2575. 2639.
2623(74) 0.0001826 2571. 2630.
2638(74) 0.0001826 2566. 2622.
2691(75) 0.0001778 2562. 2616.
2720(75) 0.0001778 2558. 2612.
2693(75) 0.0001778 2554. 2613.
2757(75) 0.0001778 2550. 2619.
2763(76) 0.0001731 2546. 2632.
2687(74) 0.0001826 2542. 2654.
2699(75) 0.0001778 2538. 2686.
2653(74) 0.0001826 2534. 2728.
2785(76) 0.0001731 2530. 2786.
2929(78) 0.0001644 2526. 2866.
3106(80) 0.0001562 2522. 2980.
3325(83) 0.0001452 2519. 3127.
3540(86) 0.0001352 2515. 3284.
3868(90) 0.0001235 2511. 3391.
3617(87) 0.0001321 2508. 3375.
3413(84) 0.0001417 2504. 3215.
3251(82) 0.0001487 2501. 2983.
2856(77) 0.0001687 2497. 2774.
2626(74) 0.0001826 2494. 2635.
2515(72) 0.0001929 2490. 2562.
2417(70) 0.0002041 2487. 2530.
2455(71) 0.0001984 2484. 2515.
2506(72) 0.0001929 2481. 2506.
2496(72) 0.0001929 2477. 2500.
2452(71) 0.0001984 2474. 2494.
2409(70) 0.0002041 2471. 2489.
2506(72) 0.0001929 2468. 2484.
2475(71) 0.0001984 2465. 2480.
2444(71) 0.0001984 2462. 2476.
2464(71) 0.0001984 2459. 2472.
2420(70) 0.0002041 2456. 2468.
2372(70) 0.0002041 2453. 2457.
2434(71) 0.0001984 2450. 2453.
2534(72) 0.0001929 2447. 2450.
2418(70) 0.0002041 2445. 2447.
2421(71) 0.0001984 2442. 2444.
2469(71) 0.0001984 2439. 2441.
2479(71) 0.0001984 2437. 2438.
2506(72) 0.0001929 2434. 2436.
2478(71) 0.0001984 2431. 2433.
2489(72) 0.0001929 2429. 2430.
2473(71) 0.0001984 2426. 2428.
2428(71) 0.0001984 2424. 2425.
2472(71) 0.0001984 2421. 2422.
2448(71) 0.0001984 2419. 2420.
2376(70) 0.0002041 2416. 2418.
2370(70) 0.0002041 2414. 2415.
2377(70) 0.0002041 2412. 2413.
2401(70) 0.0002041 2409. 2410.
2291(68) 0.0002163 2407. 2408.
2328(69) 0.0002100 2405. 2406.
2476(71) 0.0001984 2403. 2404.
2344(69) 0.0002100 2400. 2401.
2410(70) 0.0002041 2398. 2399.
2371(70) 0.0002041 2396. 2397.
2365(70) 0.0002041 2394. 2395.
2313(69) 0.0002100 2392. 2393.
2395(70) 0.0002041 2390. 2391.
2369(70) 0.0002041 2388. 2389.
2395(70) 0.0002041 2386. 2387.
2335(69) 0.0002100 2384. 2385.
2360(70) 0.0002041 2382. 2383.
2385(70) 0.0002041 2380. 2381.
2436(71) 0.0001984 2378. 2379.
2393(70) 0.0002041 2377. 2377.
2472(71) 0.0001984 2375. 2376.
2422(71) 0.0001984 2373. 2373.
2293(69) 0.0002100 2371. 2372.
2372(70) 0.0002041 2370. 2370.
2473(71) 0.0001984 2368. 2368.
2358(70) 0.0002041 2366. 2367.
2390(70) 0.0002041 2365. 2365.
2271(68) 0.0002163 2363. 2364.
2237(68) 0.0002163 2361. 2363.
2360(100) 0.0000980 2360. 2361.
2404(69) 0.0002100 2358. 2359.
2405(69) 0.0002100 2357. 2358.
2308(67) 0.0002228 2355. 2356.
2302(67) 0.0002228 2354. 2354.
2227(66) 0.0002296 2352. 2353.
2238(66) 0.0002296 2351. 2352.
2427(69) 0.0002100 2349. 2350.
2309(67) 0.0002228 2348. 2349.
2330(67) 0.0002228 2347. 2347.
2494(70) 0.0002041 2345. 2346.
2338(68) 0.0002163 2344. 2345.
2370(68) 0.0002163 2343. 2344.
2304(67) 0.0002228 2341. 2342.
2318(67) 0.0002228 2340. 2341.
2328(67) 0.0002228 2339. 2340.
2297(67) 0.0002228 2338. 2339.
2351(68) 0.0002163 2337. 2338.
2464(69) 0.0002100 2335. 2336.
2406(69) 0.0002100 2334. 2335.
2262(66) 0.0002296 2333. 2334.
2321(67) 0.0002228 2332. 2333.
2294(67) 0.0002228 2331. 2332.
2313(67) 0.0002228 2330. 2331.
2279(67) 0.0002228 2329. 2330.
2421(69) 0.0002100 2328. 2329.
2367(68) 0.0002163 2327. 2328.
2296(67) 0.0002228 2326. 2327.
2170(65) 0.0002367 2325. 2326.
2309(67) 0.0002228 2324. 2325.
2321(67) 0.0002228 2323. 2325.
2335(68) 0.0002163 2322. 2324.
2323(67) 0.0002228 2321. 2323.
2338(68) 0.0002163 2320. 2322.
2273(67) 0.0002228 2319. 2322.
2310(67) 0.0002228 2319. 2321.
2381(68) 0.0002163 2318. 2320.
2383(68) 0.0002163 2317. 2320.
2396(68) 0.0002163 2316. 2320.
2356(68) 0.0002163 2315. 2319.
2258(66) 0.0002296 2315. 2319.
2318(67) 0.0002228 2314. 2320.
2390(68) 0.0002163 2313. 2322.
2286(67) 0.0002228 2312. 2327.
2226(66) 0.0002296 2312. 2337.
2270(67) 0.0002228 2311. 2355.
2366(68) 0.0002163 2310. 2382.
2356(68) 0.0002163 2310. 2424.
2428(69) 0.0002100 2309. 2484.
2559(71) 0.0001984 2308. 2558.
2573(71) 0.0001984 2308. 2630.
2586(71) 0.0001984 2307. 2663.
2699(73) 0.0001877 2306. 2631.
2507(70) 0.0002041 2306. 2544.
2380(68) 0.0002163 2305. 2447.
2240(66) 0.0002296 2305. 2376.
2349(68) 0.0002163 2304. 2337.
2247(66) 0.0002296 2304. 2319.
2233(66) 0.0002296 2303. 2313.
2255(66) 0.0002296 2303. 2309.
2378(68) 0.0002163 2302. 2308.
2430(69) 0.0002100 2302. 2306.
2291(67) 0.0002228 2301. 2305.
2306(67) 0.0002228 2301. 2304.
2301(67) 0.0002228 2300. 2304.
2338(68) 0.0002163 2300. 2304.
2328(67) 0.0002228 2299. 2303.
2289(67) 0.0002228 2299. 2303.
2241(66) 0.0002296 2298. 2302.
2342(68) 0.0002163 2298. 2303.
2273(67) 0.0002228 2298. 2303.
2202(65) 0.0002367 2297. 2304.
2235(66) 0.0002296 2297. 2306.
2281(67) 0.0002228 2297. 2307.
2284(67) 0.0002228 2296. 2308.
2257(66) 0.0002296 2296. 2307.
2325(67) 0.0002228 2295. 2305.
2325(67) 0.0002228 2295. 2302.
2194(65) 0.0002367 2295. 2300.
2364(68) 0.0002163 2295. 2298.
2262(66) 0.0002296 2294. 2298.
2192(65) 0.0002367 2294. 2297.
2191(65) 0.0002367 2294. 2297.
2286(67) 0.0002228 2293. 2297.
2356(68) 0.0002163 2293. 2297.
2246(66) 0.0002296 2293. 2297.
2248(66) 0.0002296 2293. 2296.
2241(66) 0.0002296 2292. 2296.
2199(65) 0.0002367 2292. 2296.
2253(66) 0.0002296 2292. 2296.
2231(66) 0.0002296 2292. 2296.
2362(68) 0.0002163 2291. 2296.
2296(67) 0.0002228 2291. 2296.
2176(65) 0.0002367 2291. 2296.
2287(67) 0.0002228 2291. 2296.
2237(66) 0.0002296 2291. 2297.
2311(67) 0.0002228 2291. 2297.
2443(69) 0.0002100 2290. 2297.
2171(65) 0.0002367 2290. 2298.
2255(66) 0.0002296 2290. 2298.
2355(64) 0.0002441 2290. 2299.
2341(64) 0.0002441 2290. 2300.
2291(63) 0.0002520 2290. 2301.
2302(63) 0.0002520 2289. 2302.
2288(63) 0.0002520 2289. 2304.
2299(63) 0.0002520 2289. 2306.
2373(64) 0.0002441 2289. 2309.
2297(63) 0.0002520 2289. 2313.
2262(63) 0.0002520 2289. 2321.
2316(63) 0.0002520 2289. 2337.
2357(64) 0.0002441 2289. 2369.
2526(66) 0.0002296 2289. 2435.
2593(67) 0.0002228 2288. 2554.
2738(69) 0.0002100 2288. 2756.
3055(73) 0.0001877 2288. 3064.
3510(79) 0.0001602 2288. 3472.
3935(84) 0.0001417 2288. 3891.
4277(87) 0.0001321 2288. 4138.
4163(86) 0.0001352 2288. 4030.
3841(83) 0.0001452 2288. 3594.
3336(77) 0.0001687 2288. 3078.
2818(70) 0.0002041 2288. 2687.
2605(67) 0.0002228 2288. 2469.
2387(64) 0.0002441 2288. 2374.
2368(64) 0.0002441 2288. 2339.
2364(64) 0.0002441 2288. 2325.
2335(64) 0.0002441 2288. 2319.
2289(63) 0.0002520 2287. 2315.
2317(63) 0.0002520 2287. 2314.
2295(63) 0.0002520 2287. 2315.
2334(64) 0.0002441 2287. 2320.
2402(65) 0.0002367 2287. 2335.
2324(63) 0.0002520 2287. 2364.
2346(64) 0.0002441 2287. 2417.
2429(65) 0.0002367 2287. 2502.
2443(65) 0.0002367 2287. 2616.
2608(67) 0.0002228 2287. 2737.
2620(68) 0.0002163 2287. 2812.
2651(68) 0.0002163 2287. 2787.
2523(66) 0.0002296 2287. 2667.
2451(65) 0.0002367 2287. 2520.
2318(63) 0.0002520 2287. 2407.
2454(65) 0.0002367 2287. 2343.
2354(64) 0.0002441 2287. 2315.
2276(63) 0.0002520 2287. 2305.
2163(61) 0.0002687 2287. 2301.
2349(64) 0.0002441 2287. 2298.
2265(63) 0.0002520 2287. 2297.
2273(63) 0.0002520 2287. 2296.
2315(63) 0.0002520 2287. 2295.
2266(63) 0.0002520 2287. 2294.
2155(61) 0.0002687 2287. 2294.
2198(62) 0.0002601 2287. 2293.
2280(63) 0.0002520 2287. 2293.
2295(63) 0.0002520 2287. 2293.
2244(62) 0.0002601 2287. 2293.
2310(63) 0.0002520 2287. 2293.
2354(64) 0.0002441 2287. 2293.
2188(61) 0.0002687 2287. 2293.
2229(62) 0.0002601 2287. 2293.
2234(62) 0.0002601 2287. 2293.
2318(63) 0.0002520 2287. 2294.
2327(64) 0.0002441 2287. 2294.
2292(63) 0.0002520 2287. 2295.
2335(64) 0.0002441 2287. 2295.
2340(64) 0.0002441 2287. 2296.
2265(63) 0.0002520 2287. 2298.
2256(62) 0.0002601 2287. 2302.
2361(64) 0.0002441 2287. 2309.
2400(65) 0.0002367 2287. 2325.
2400(65) 0.0002367 2287. 2358.
2405(65) 0.0002367 2287. 2418.
2552(67) 0.0002228 2287. 2514.
2699(69) 0.0002100 2287. 2643.
2832(70) 0.0002041 2287. 2773.
2882(71) 0.0001984 2287. 2842.
2785(70) 0.0002041 2287. 2798.
2582(67) 0.0002228 2287. 2659.
2473(66) 0.0002296 2287. 2505.
2405(65) 0.0002367 2287. 2395.
2408(65) 0.0002367 2287. 2336.
2313(63) 0.0002520 2287. 2311.
2257(62) 0.0002601 2287. 2302.
2272(63) 0.0002520 2287. 2299.
2294(63) 0.0002520 2287. 2297.
2274(63) 0.0002520 2287. 2295.
2362(64) 0.0002441 2287. 2295.
2261(63) 0.0002520 2287. 2294.
2315(63) 0.0002520 2287. 2293.
2325(63) 0.0002520 2287. 2293.
2325(63) 0.0002520 2287. 2293.
2353(64) 0.0002441 2287. 2292.
2249(62) 0.0002601 2287. 2292.
2279(63) 0.0002520 2287. 2292.
2324(63) 0.0002520 2287. 2293.
2329(64) 0.0002441 2287. 2293.
2222(62) 0.0002601 2287. 2293.
2217(62) 0.0002601 2287. 2294.
2264(63) 0.0002520 2287. 2294.
2155(61) 0.0002687 2287. 2295.
2321(63) 0.0002520 2287. 2297.
2345(63) 0.0002520 2287. 2298.
2300(62) 0.0002601 2287. 2302.
2309(62) 0.0002601 2287. 2308.
2331(63) 0.0002520 2287. 2323.
2332(63) 0.0002520 2287. 2356.
2399(64) 0.0002441 2287. 2421.
2504(65) 0.0002367 2287. 2536.
2726(68) 0.0002163 2287. 2706.
2868(70) 0.0002041 2287. 2900.
2966(71) 0.0001984 2287. 3040.
3080(73) 0.0001877 2287. 3037.
2877(70) 0.0002041 2287. 2877.
2742(68) 0.0002163 2287. 2656.
2501(65) 0.0002367 2287. 2477.
2347(63) 0.0002520 2287. 2373.
2244(61) 0.0002687 2286. 2326.
2312(62) 0.0002601 2286. 2308.
2364(63) 0.0002520 2286. 2301.
2283(62) 0.0002601 2286. 2298.
2321(63) 0.0002520 2286. 2296.
2267(62) 0.0002601 2286. 2294.
2280(62) 0.0002601 2286. 2294.
2239(61) 0.0002687 2286. 2293.
2230(61) 0.0002687 2286. 2293.
2197(61) 0.0002687 2286. 2294.
2330(63) 0.0002520 2286. 2294.
2247(61) 0.0002687 2286. 2295.
2366(63) 0.0002520 2285. 2294.
2363(63) 0.0002520 2285. 2293.
2400(64) 0.0002441 2285. 2291.
2288(62) 0.0002601 2285. 2290.
2227(61) 0.0002687 2285. 2289.
2307(62) 0.0002601 2285. 2288.
2417(64) 0.0002441 2285. 2288.
2291(62) 0.0002601 2285. 2288.
2283(62) 0.0002601 2285. 2288.
2339(63) 0.0002520 2285. 2288.
2356(63) 0.0002520 2284. 2288.
2262(62) 0.0002601 2284. 2289.
2297(62) 0.0002601 2284. 2291.
2383(63) 0.0002520 2284. 2294.
2384(63) 0.0002520 2284. 2298.
2337(63) 0.0002520 2284. 2302.
2340(63) 0.0002520 2284. 2303.
2306(62) 0.0002601 2283. 2300.
2296(62) 0.0002601 2283. 2296.
2384(63) 0.0002520 2283. 2292.
2329(63) 0.0002520 2283. 2290.
2175(60) 0.0002778 2283. 2289.
2289(62) 0.0002601 2283. 2288.
2277(62) 0.0002601 2283. 2289.
2286(62) 0.0002601 2282. 2290.
2231(61) 0.0002687 2282. 2292.
2219(61) 0.0002687 2282. 2296.
2281(62) 0.0002601 2282. 2306.
2270(62) 0.0002601 2282. 2325.
2328(63) 0.0002520 2281. 2355.
2361(63) 0.0002520 2281. 2395.
2424(64) 0.0002441 2281. 2430.
2445(64) 0.0002441 2281. 2441.
2374(63) 0.0002520 2281. 2420.
2308(62) 0.0002601 2281. 2378.
2269(62) 0.0002601 2280. 2341.
2383(63) 0.0002520 2280. 2317.
2292(62) 0.0002601 2280. 2308.
2320(62) 0.0002601 2280. 2307.
2288(62) 0.0002601 2279. 2312.
2349(63) 0.0002520 2279. 2324.
2321(63) 0.0002520 2279. 2352.
2411(64) 0.0002441 2279. 2420.
2577(66) 0.0002296 2279. 2565.
2874(70) 0.0002041 2278. 2833.
3224(75) 0.0001778 2278. 3240.
3611(79) 0.0001602 2278. 3705.
3954(83) 0.0001452 2278. 4033.
4154(85) 0.0001384 2277. 4007.
3835(82) 0.0001487 2277. 3616.
3203(74) 0.0001826 2277. 3103.
2868(70) 0.0002041 2277. 2697.
2604(67) 0.0002228 2276. 2465.
2443(64) 0.0002441 2276. 2363.
2272(62) 0.0002601 2276. 2324.
2310(62) 0.0002601 2276. 2308.
2326(63) 0.0002520 2275. 2301.
2339(63) 0.0002520 2275. 2296.
2320(62) 0.0002601 2275. 2293.
2326(63) 0.0002520 2274. 2292.
2317(62) 0.0002601 2274. 2293.
2310(62) 0.0002601 2274. 2294.
2295(62) 0.0002601 2274. 2296.
2360(63) 0.0002520 2273. 2295.
2388(64) 0.0002441 2273. 2291.
2385(63) 0.0002520 2273. 2286.
2310(62) 0.0002601 2272. 2282.
2333(63) 0.0002520 2272. 2279.
2347(63) 0.0002520 2272. 2277.
2367(63) 0.0002520 2271. 2276.
2319(62) 0.0002601 2271. 2275.
2232(61) 0.0002687 2271. 2274.
2183(58) 0.0002973 2271. 2274.
2290(60) 0.0002778 2270. 2273.
2344(61) 0.0002687 2270. 2272.
2287(60) 0.0002778 2270. 2272.
2338(61) 0.0002687 2269. 2271.
2283(60) 0.0002778 2269. 2271.
2297(60) 0.0002778 2269. 2270.
2318(60) 0.0002778 2268. 2270.
2321(60) 0.0002778 2268. 2269.
2248(59) 0.0002873 2267. 2269.
2194(59) 0.0002873 2267. 2269.
2244(59) 0.0002873 2267. 2268.
2305(60) 0.0002778 2266. 2268.
2321(60) 0.0002778 2266. 2267.
2286(60) 0.0002778 2266. 2267.
2267(60) 0.0002778 2265. 2267.
2263(60) 0.0002778 2265. 2266.
2218(59) 0.0002873 2265. 2266.
2394(61) 0.0002687 2264. 2265.
2238(59) 0.0002873 2264. 2265.
2239(59) 0.0002873 2263. 2265.
2332(61) 0.0002687 2263. 2264.
2275(60) 0.0002778 2263. 2264.
2262(60) 0.0002778 2262. 2265.
2239(59) 0.0002873 2262. 2264.
2309(60) 0.0002778 2261. 2264.
2279(60) 0.0002778 2261. 2264.
2280(60) 0.0002778 2261. 2264.
2410(62) 0.0002601 2260. 2264.
2369(61) 0.0002687 2260. 2266.
2225(59) 0.0002873 2259. 2270.
2240(59) 0.0002873 2259. 2280.
2291(60) 0.0002778 2258. 2296.
2421(62) 0.0002601 2258. 2314.
2394(61) 0.0002687 2258. 2329.
2407(62) 0.0002601 2257. 2330.
2417(62) 0.0002601 2257. 2316.
2321(60) 0.0002778 2256. 2295.
2290(60) 0.0002778 2256. 2277.
2263(60) 0.0002778 2255. 2267.
2262(60) 0.0002778 2255. 2262.
2295(60) 0.0002778 2254. 2260.
2325(60) 0.0002778 2254. 2259.
2260(59) 0.0002873 2254. 2259.
2271(60) 0.0002778 2253. 2258.
2254(59) 0.0002873 2253. 2258.
2324(60) 0.0002778 2252. 2258.
2310(60) 0.0002778 2252. 2258.
2288(60) 0.0002778 2251. 2259.
2321(60) 0.0002778 2251. 2259.
2278(60) 0.0002778 2250. 2260.
2307(60) 0.0002778 2250. 2261.
2325(60) 0.0002778 2249. 2262.
2230(59) 0.0002873 2249. 2263.
2307(60) 0.0002778 2248. 2266.
2340(61) 0.0002687 2248. 2271.
2253(59) 0.0002873 2247. 2282.
2313(60) 0.0002778 2247. 2308.
2419(62) 0.0002601 2246. 2368.
2541(63) 0.0002520 2246. 2484.
2657(65) 0.0002367 2245. 2666.
2882(68) 0.0002163 2245. 2879.
3020(70) 0.0002041 2244. 3031.
2989(69) 0.0002100 2244. 3026.
2788(67) 0.0002228 2243. 2858.
2678(65) 0.0002367 2243. 2636.
2542(63) 0.0002520 2242. 2461.
2379(61) 0.0002687 2242. 2363.
2231(59) 0.0002873 2241. 2326.
2330(61) 0.0002687 2241. 2329.
2429(62) 0.0002601 2240. 2372.
2557(64) 0.0002441 2240. 2490.
2951(69) 0.0002100 2239. 2750.
3234(72) 0.0001929 2238. 3220.
3913(80) 0.0001562 2238. 3879.
4577(87) 0.0001321 2237. 4529.
4800(89) 0.0001262 2237. 4830.
4637(87) 0.0001321 2236. 4553.
3937(80) 0.0001562 2236. 3871.
3216(72) 0.0001929 2235. 3173.
2758(66) 0.0002296 2235. 2690.
2471(62) 0.0002601 2234. 2439.
2251(59) 0.0002873 2234. 2334.
2167(58) 0.0002973 2233. 2294.
2182(58) 0.0002973 2232. 2277.
2246(59) 0.0002873 2232. 2268.
2312(60) 0.0002778 2231. 2261.
2205(59) 0.0002873 2231. 2256.
2143(58) 0.0002973 2230. 2252.
2232(59) 0.0002873 2230. 2249.
2265(60) 0.0002778 2229. 2246.
2299(60) 0.0002778 2228. 2244.
2248(59) 0.0002873 2228. 2242.
2246(59) 0.0002873 2227. 2241.
2229(59) 0.0002873 2227. 2241.
2244(59) 0.0002873 2226. 2241.
2348(61) 0.0002687 2225. 2245.
2255(59) 0.0002873 2225. 2254.
2338(61) 0.0002687 2224. 2279.
2382(61) 0.0002687 2224. 2330.
2402(48) 0.000434 2223. 2411.
2529(59) 0.0002873 2222. 2508.
2570(60) 0.0002778 2222. 2580.
2512(59) 0.0002873 2221. 2581.
2512(59) 0.0002873 2221. 2505.
2448(58) 0.0002973 2220. 2401.
2297(56) 0.0003189 2219. 2316.
2268(56) 0.0003189 2219. 2264.
2201(55) 0.0003306 2218. 2240.
2289(56) 0.0003189 2218. 2230.
2330(57) 0.0003078 2217. 2226.
2271(56) 0.0003189 2216. 2225.
2329(57) 0.0003078 2216. 2225.
2317(56) 0.0003189 2215. 2225.
2273(56) 0.0003189 2214. 2227.
2315(56) 0.0003189 2214. 2228.
2196(55) 0.0003306 2213. 2226.
2244(55) 0.0003306 2213. 2223.
2240(55) 0.0003306 2212. 2219.
2231(55) 0.0003306 2211. 2216.
2178(55) 0.0003306 2211. 2214.
2240(55) 0.0003306 2210. 2212.
2226(55) 0.0003306 2209. 2211.
2215(55) 0.0003306 2209. 2210.
2242(55) 0.0003306 2208. 2210.
2188(55) 0.0003306 2207. 2209.
2229(55) 0.0003306 2207. 2208.
2207(55) 0.0003306 2206. 2208.
2231(55) 0.0003306 2205. 2207.
2278(56) 0.0003189 2205. 2205.
2234(55) 0.0003306 2204. 2205.
2220(55) 0.0003306 2204. 2204.
2281(56) 0.0003189 2203. 2203.
2210(55) 0.0003306 2202. 2203.
2216(55) 0.0003306 2202. 2203.
2164(54) 0.0003429 2201. 2203.
2181(55) 0.0003306 2200. 2204.
2267(56) 0.0003189 2200. 2208.
2230(55) 0.0003306 2199. 2214.
2256(56) 0.0003189 2198. 2222.
2269(56) 0.0003189 2198. 2229.
2297(56) 0.0003189 2197. 2231.
2251(56) 0.0003189 2196. 2225.
2263(56) 0.0003189 2196. 2215.
2213(55) 0.0003306 2195. 2206.
2180(55) 0.0003306 2194. 2200.
2110(54) 0.0003429 2194. 2197.
2245(55) 0.0003306 2193. 2195.
2216(55) 0.0003306 2192. 2195.
2179(55) 0.0003306 2192. 2195.
2227(55) 0.0003306 2191. 2196.
2219(55) 0.0003306 2190. 2197.
2222(55) 0.0003306 2190. 2199.
2174(55) 0.0003306 2189. 2200.
2206(55) 0.0003306 2188. 2199.
2191(55) 0.0003306 2188. 2196.
2210(55) 0.0003306 2187. 2193.
2213(55) 0.0003306 2186. 2191.
2243(55) 0.0003306 2185. 2191.
2251(56) 0.0003189 2185. 2191.
2167(54) 0.0003429 2184. 2194.
2140(54) 0.0003429 2183. 2202.
2178(55) 0.0003306 2183. 2216.
2245(55) 0.0003306 2182. 2239.
2312(56) 0.0003189 2181. 2265.
2321(56) 0.0003189 2181. 2282.
2287(56) 0.0003189 2180. 2280.
2268(56) 0.0003189 2179. 2260.
2264(56) 0.0003189 2179. 2235.
2158(54) 0.0003429 2178. 2216.
2152(54) 0.0003429 2177. 2208.
2137(54) 0.0003429 2177. 2214.
2215(55) 0.0003306 2176. 2241.
2322(56) 0.0003189 2175. 2308.
2543(59) 0.0002873 2174. 2441.
2687(61) 0.0002687 2174. 2650.
2866(63) 0.0002520 2173. 2891.
2986(64) 0.0002441 2172. 3060.
3014(65) 0.0002367 2172. 3051.
2843(63) 0.0002520 2171. 2863.
2638(60) 0.0002778 2170. 2613.
2346(57) 0.0003078 2170. 2408.
2247(56) 0.0003189 2169. 2285.
2236(55) 0.0003306 2168. 2231.
2194(55) 0.0003306 2167. 2218.
2181(55) 0.0003306 2167. 2236.
2241(55) 0.0003306 2166. 2283.
2328(57) 0.0003078 2165. 2359.
2469(58) 0.0002973 2165. 2446.
2483(59) 0.0002873 2164. 2503.
2542(59) 0.0002873 2163. 2492.
2383(57) 0.0003078 2163. 2418.
2322(56) 0.0003189 2162. 2324.
2207(55) 0.0003306 2161. 2248.
2194(55) 0.0003306 2160. 2203.
2227(55) 0.0003306 2160. 2181.
2145(54) 0.0003429 2159. 2172.
2123(54) 0.0003429 2158. 2167.
2126(54) 0.0003429 2158. 2165.
2170(54) 0.0003429 2157. 2163.
2224(52) 0.000370 2156. 2162.
2135(51) 0.000384 2155. 2160.
2090(50) 0.000400 2155. 2159.
2218(52) 0.000370 2154. 2158.
2184(51) 0.000384 2153. 2158.
2094(50) 0.000400 2153. 2157.
2202(52) 0.000370 2152. 2157.
2162(51) 0.000384 2151. 2159.
2197(52) 0.000370 2151. 2165.
2132(51) 0.000384 2150. 2178.
2135(51) 0.000384 2149. 2200.
2208(52) 0.000370 2148. 2229.
2279(53) 0.000356 2148. 2254.
2267(52) 0.000370 2147. 2260.
2281(53) 0.000356 2146. 2243.
2209(52) 0.000370 2146. 2212.
2163(51) 0.000384 2145. 2184.
2139(51) 0.000384 2144. 2164.
2179(51) 0.000384 2143. 2153.
2174(51) 0.000384 2143. 2148.
2187(51) 0.000384 2142. 2146.
2101(50) 0.000400 2141. 2145.
2142(51) 0.000384 2141. 2144.
2207(52) 0.000370 2140. 2143.
2116(51) 0.000384 2139. 2142.
2118(51) 0.000384 2139. 2142.
2055(50) 0.000400 2138. 2142.
2133(51) 0.000384 2137. 2142.
2177(51) 0.000384 2136. 2142.
2155(51) 0.000384 2136. 2144.
2040(50) 0.000400 2135. 2148.
2137(51) 0.000384 2134. 2162.
2187(51) 0.000384 2134. 2189.
2255(52) 0.000370 2133. 2233.
2274(53) 0.000356 2132. 2289.
2341(53) 0.000356 2131. 2334.
2346(53) 0.000356 2131. 2343.
2382(54) 0.0003429 2130. 2309.
2258(52) 0.000370 2129. 2252.
2203(52) 0.000370 2129. 2201.
2169(51) 0.000384 2128. 2167.
2161(51) 0.000384 2127. 2152.
2146(51) 0.000384 2127. 2154.
2168(51) 0.000384 2126. 2171.
2119(51) 0.000384 2125. 2205.
2171(51) 0.000384 2124. 2251.
2219(52) 0.000370 2124. 2295.
2339(53) 0.000356 2123. 2313.
2235(52) 0.000370 2122. 2292.
2192(52) 0.000370 2122. 2245.
2193(52) 0.000370 2121. 2196.
2167(51) 0.000384 2120. 2160.
2160(51) 0.000384 2120. 2140.
2159(51) 0.000384 2119. 2133.
2114(51) 0.000384 2118. 2133.
2077(50) 0.000400 2117. 2139.
2107(50) 0.000400 2117. 2150.
2168(51) 0.000384 2116. 2161.
2188(51) 0.000384 2115. 2166.
2144(51) 0.000384 2115. 2161.
2107(50) 0.000400 2114. 2150.
2139(51) 0.000384 2113. 2137.
2149(51) 0.000384 2113. 2128.
2112(50) 0.000400 2112. 2124.
2064(50) 0.000400 2111. 2126.
2060(50) 0.000400 2111. 2135.
2103(50) 0.000400 2110. 2155.
2169(51) 0.000384 2109. 2182.
2290(53) 0.000356 2109. 2211.
2190(51) 0.000384 2108. 2227.
2154(51) 0.000384 2107. 2219.
2142(51) 0.000384 2106. 2192.
2105(50) 0.000400 2106. 2161.
2098(50) 0.000400 2105. 2138.
2144(51) 0.000384 2104. 2126.
2141(51) 0.000384 2104. 2127.
2093(50) 0.000400 2103. 2141.
2089(50) 0.000400 2102. 2170.
2128(51) 0.000384 2102. 2212.
2182(51) 0.000384 2101. 2254.
2232(52) 0.000370 2100. 2275.
2239(52) 0.000370 2100. 2261.
2177(51) 0.000384 2099. 2221.
2146(51) 0.000384 2098. 2175.
2168(51) 0.000384 2098. 2139.
2071(50) 0.000400 2097. 2119.
2017(49) 0.000416 2096. 2110.
2031(49) 0.000416 2096. 2109.
2180(51) 0.000384 2095. 2113.
2109(50) 0.000400 2094. 2119.
2118(51) 0.000384 2094. 2125.
2122(51) 0.000384 2093. 2128.
2112(51) 0.000384 2092. 2124.
2104(50) 0.000400 2092. 2116.
2082(50) 0.000400 2091. 2108.
2100(50) 0.000400 2090. 2102.
2063(50) 0.000400 2090. 2102.
2067(50) 0.000400 2089. 2110.
2139(51) 0.000384 2088. 2127.
2228(52) 0.000370 2088. 2155.
2187(49) 0.000416 2087. 2190.
2225(49) 0.000416 2086. 2218.
2233(50) 0.000400 2086. 2224.
2171(49) 0.000416 2085. 2202.
2144(48) 0.000434 2084. 2166.
2057(47) 0.000453 2084. 2132.
2042(47) 0.000453 2083. 2108.
2083(48) 0.000434 2082. 2095.
2002(47) 0.000453 2082. 2088.
1991(47) 0.000453 2081. 2085.
2000(47) 0.000453 2080. 2084.
2009(47) 0.000453 2080. 2083.
2041(47) 0.000453 2079. 2082.
2088(48) 0.000434 2078. 2081.
2069(48) 0.000434 2078. 2080.
2039(47) 0.000453 2077. 2080.
2050(47) 0.000453 2077. 2080.
2074(48) 0.000434 2076. 2081.
2031(47) 0.000453 2075. 2084.
2041(47) 0.000453 2075. 2092.
2052(47) 0.000453 2074. 2104.
2153(49) 0.000416 2073. 2121.
2109(48) 0.000434 2073. 2135.
2120(48) 0.000434 2072. 2140.
2176(49) 0.000416 2071. 2132.
2102(48) 0.000434 2071. 2116.
2027(47) 0.000453 2070. 2099.
2028(47) 0.000453 2069. 2086.
2042(47) 0.000453 2069. 2080.
2100(48) 0.000434 2068. 2078.
2052(47) 0.000453 2068. 2080.
2010(47) 0.000453 2067. 2084.
1973(46) 0.000473 2066. 2089.
1990(47) 0.000453 2066. 2093.
2059(47) 0.000453 2065. 2092.
2020(47) 0.000453 2064. 2087.
2038(47) 0.000453 2064. 2081.
2061(47) 0.000453 2063. 2078.
2040(47) 0.000453 2063. 2078.
2043(47) 0.000453 2062. 2086.
2048(47) 0.000453 2061. 2104.
2078(48) 0.000434 2061. 2132.
2165(49) 0.000416 2060. 2166.
2146(48) 0.000434 2059. 2194.
2240(50) 0.000400 2059. 2201.
2125(48) 0.000434 2058. 2183.
2089(48) 0.000434 2058. 2152.
2125(48) 0.000434 2057. 2124.
2135(48) 0.000434 2056. 2112.
2138(48) 0.000434 2056. 2127.
2162(49) 0.000416 2055. 2178.
2192(49) 0.000416 2055. 2269.
2397(51) 0.000384 2054. 2390.
2559(53) 0.000356 2053. 2503.
2556(53) 0.000356 2053. 2554.
2568(53) 0.000356 2052. 2510.
2438(52) 0.000370 2052. 2399.
2255(50) 0.000400 2051. 2274.
2147(48) 0.000434 2050. 2178.
2097(48) 0.000434 2050. 2123.
2062(47) 0.000453 2049. 2104.
2064(47) 0.000453 2049. 2110.
2083(48) 0.000434 2048. 2131.
2102(48) 0.000434 2047. 2155.
2113(48) 0.000434 2047. 2170.
2157(49) 0.000416 2046. 2164.
2150(48) 0.000434 2046. 2141.
2154(49) 0.000416 2045. 2114.
2143(48) 0.000434 2044. 2096.
2046(47) 0.000453 2044. 2093.
2042(47) 0.000453 2043. 2114.
2154(49) 0.000416 2043. 2162.
2228(49) 0.000416 2042. 2232.
2296(50) 0.000400 2042. 2308.
2266(50) 0.000400 2041. 2358.
2292(50) 0.000400 2040. 2352.
2268(50) 0.000400 2040. 2295.
2243(50) 0.000400 2039. 2218.
2115(48) 0.000434 2039. 2154.
2079(48) 0.000434 2038. 2120.
2128(48) 0.000434 2037. 2123.
2098(48) 0.000434 2037. 2163.
2239(49) 0.000416 2036. 2231.
2279(50) 0.000400 2036. 2308.
2359(51) 0.000384 2035. 2361.
2356(51) 0.000384 2035. 2358.
2254(50) 0.000400 2034. 2301.
2123(48) 0.000434 2033. 2219.
2092(48) 0.000434 2033. 2145.
2052(47) 0.000453 2032. 2093.
2046(47) 0.000453 2032. 2063.
2033(47) 0.000453 2031. 2049.
1972(46) 0.000473 2031. 2043.
2008(47) 0.000453 2030. 2040.
2049(47) 0.000453 2030. 2038.
2028(47) 0.000453 2029. 2037.
2044(47) 0.000453 2028. 2036.
2034(47) 0.000453 2028. 2035.
2057(47) 0.000453 2027. 2035.
2045(47) 0.000453 2027. 2036.
2040(45) 0.000494 2026. 2039.
2002(45) 0.000494 2026. 2046.
1997(45) 0.000494 2025. 2054.
2002(45) 0.000494 2025. 2063.
2023(45) 0.000494 2024. 2069.
2036(45) 0.000494 2023. 2068.
2060(45) 0.000494 2023. 2061.
2090(46) 0.000473 2022. 2051.
2078(46) 0.000473 2022. 2042.
2055(45) 0.000494 2021. 2038.
2080(46) 0.000473 2021. 2039.
2076(46) 0.000473 2020. 2045.
2052(45) 0.000494 2020. 2054.
2074(46) 0.000473 2019. 2064.
2101(46) 0.000473 2019. 2070.
2073(46) 0.000473 2018. 2068.
2108(46) 0.000473 2018. 2060.
2073(46) 0.000473 2017. 2050.
2106(46) 0.000473 2016. 2042.
2020(45) 0.000494 2016. 2039.
2009(45) 0.000494 2015. 2040.
1972(44) 0.000517 2015. 2046.
2081(46) 0.000473 2014. 2055.
2050(45) 0.000494 2014. 2064.
2034(45) 0.000494 2013. 2071.
2075(46) 0.000473 2013. 2074.
2046(45) 0.000494 2012. 2080.
1980(45) 0.000494 2012. 2101.
2175(47) 0.000453 2011. 2161.
2326(48) 0.000434 2011. 2296.
2606(51) 0.000384 2010. 2541.
2937(54) 0.0003429 2010. 2904.
3461(59) 0.0002873 2009. 3322.
3792(62) 0.0002601 2009. 3656.
3713(61) 0.0002687 2008. 3745.
3599(60) 0.0002778 2008. 3534.
3197(57) 0.0003078 2007. 3140.
2704(52) 0.000370 2007. 2729.
2438(49) 0.000416 2006. 2411.
2239(47) 0.000453 2006. 2213.
2093(46) 0.000473 2005. 2111.
2106(46) 0.000473 2005. 2065.
2082(46) 0.000473 2004. 2046.
2068(46) 0.000473 2004. 2037.
2039(45) 0.000494 2003. 2032.
2039(45) 0.000494 2003. 2030.
2031(45) 0.000494 2002. 2032.
2026(45) 0.000494 2001. 2040.
2041(45) 0.000494 2001. 2062.
2110(46) 0.000473 2000. 2103.
2201(47) 0.000453 2000. 2167.
2289(48) 0.000434 1999. 2247.
2330(48) 0.000434 1999. 2318.
2373(49) 0.000416 1998. 2350.
2302(48) 0.000434 1998. 2324.
2322(48) 0.000434 1998. 2255.
2154(46) 0.000473 1997. 2176.
2142(46) 0.000473 1997. 2114.
2071(46) 0.000473 1996. 2082.
2099(46) 0.000473 1996. 2080.
2235(47) 0.000453 1995. 2101.
2179(47) 0.000453 1995. 2131.
2149(46) 0.000473 1994. 2154.
2142(46) 0.000473 1994. 2156.
2125(46) 0.000473 1993. 2133.
2093(46) 0.000473 1993. 2097.
2070(46) 0.000473 1992. 2061.
2025(45) 0.000494 1992. 2033.
2061(45) 0.000494 1991. 2016.
1988(45) 0.000494 1991. 2008.
2039(45) 0.000494 1990. 2003.
2019(45) 0.000494 1990. 2001.
2022(45) 0.000494 1989. 2001.
2065(45) 0.000494 1989. 2001.
2090(46) 0.000473 1988. 2002.
2064(45) 0.000494 1988. 2005.
2007(45) 0.000494 1987. 2012.
2095(46) 0.000473 1987. 2028.
2051(45) 0.000494 1986. 2053.
2115(46) 0.000473 1986. 2088.
2138(46) 0.000473 1985. 2124.
2153(46) 0.000473 1985. 2149.
2155(46) 0.000473 1984. 2152.
2140(46) 0.000473 1984. 2132.
2164(47) 0.000453 1983. 2105.
2112(46) 0.000473 1983. 2089.
2139(46) 0.000473 1983. 2100.
2164(47) 0.000453 1982. 2149.
2268(48) 0.000434 1982. 2236.
2386(49) 0.000416 1981. 2343.
2575(51) 0.000384 1981. 2433.
2509(50) 0.000400 1980. 2466.
2412(49) 0.000416 1980. 2423.
2333(48) 0.000434 1979. 2326.
2212(47) 0.000453 1979. 2219.
2197(47) 0.000453 1978. 2134.
2141(46) 0.000473 1978. 2086.
2156(46) 0.000473 1977. 2072.
2088(46) 0.000473 1977. 2081.
2096(46) 0.000473 1976. 2098.
2122(45) 0.000494 1976. 2107.
2149(45) 0.000494 1976. 2101.
2102(44) 0.000517 1975. 2082.
2114(44) 0.000517 1975. 2060.
2097(44) 0.000517 1974. 2045.
2046(44) 0.000517 1974. 2044.
2108(44) 0.000517 1973. 2059.
2089(44) 0.000517 1973. 2088.
2096(44) 0.000517 1972. 2120.
2126(45) 0.000494 1972. 2143.
2128(45) 0.000494 1971. 2150.
2115(44) 0.000517 1971. 2144.
2122(45) 0.000494 1971. 2147.
2154(45) 0.000494 1970. 2192.
2299(46) 0.000473 1970. 2314.
2623(50) 0.000400 1969. 2538.
2966(53) 0.000356 1969. 2855.
3221(55) 0.0003306 1968. 3201.
3481(57) 0.0003078 1968. 3461.
3513(58) 0.0002973 1967. 3517.
3286(56) 0.0003189 1967. 3337.
3010(53) 0.000356 1966. 3012.
2735(51) 0.000384 1966. 2671.
2378(47) 0.000453 1966. 2403.
2214(46) 0.000473 1965. 2240.
2177(45) 0.000494 1965. 2169.
2225(46) 0.000473 1964. 2156.
2220(46) 0.000473 1964. 2164.
2193(45) 0.000494 1963. 2165.
2163(45) 0.000494 1963. 2146.
2182(45) 0.000494 1962. 2113.
2079(44) 0.000517 1962. 2082.
2092(44) 0.000517 1962. 2065.
2173(45) 0.000494 1961. 2070.
2226(46) 0.000473 1961. 2098.
2202(45) 0.000494 1960. 2139.
2335(47) 0.000453 1960. 2177.
2381(47) 0.000453 1959. 2193.
2284(46) 0.000473 1959. 2177.
2274(46) 0.000473 1958. 2136.
2122(45) 0.000494 1958. 2086.
2076(44) 0.000517 1958. 2042.
2065(44) 0.000517 1957. 2011.
1972(43) 0.000541 1957. 1993.
1983(43) 0.000541 1956. 1984.
2050(44) 0.000517 1956. 1980.
2018(43) 0.000541 1955. 1981.
2028(44) 0.000517 1955. 1985.
2046(44) 0.000517 1954. 1998.
2062(44) 0.000517 1954. 2025.
2054(44) 0.000517 1954. 2080.
2207(45) 0.000494 1953. 2174.
2343(47) 0.000453 1953. 2310.
2421(48) 0.000434 1952. 2471.
2686(50) 0.000400 1952. 2617.
2781(51) 0.000384 1951. 2691.
2785(51) 0.000384 1951. 2659.
2609(50) 0.000400 1950. 2535.
2401(48) 0.000434 1950. 2374.
2269(46) 0.000473 1950. 2224.
2181(45) 0.000494 1949. 2113.
2106(44) 0.000517 1949. 2045.
2031(44) 0.000517 1948. 2010.
1996(43) 0.000541 1948. 1995.
1976(43) 0.000541 1947. 1989.
1980(43) 0.000541 1947. 1988.
2011(43) 0.000541 1947. 1990.
1961(43) 0.000541 1946. 1998.
2027(44) 0.000517 1946. 2016.
2095(44) 0.000517 1945. 2050.
2180(45) 0.000494 1945. 2099.
2268(46) 0.000473 1944. 2158.
2222(46) 0.000473 1944. 2213.
2250(46) 0.000473 1943. 2245.
2267(46) 0.000473 1943. 2247.
2327(47) 0.000453 1943. 2234.
2250(46) 0.000473 1942. 2242.
2353(47) 0.000453 1942. 2311.
2523(49) 0.000416 1941. 2472.
2889(52) 0.000370 1941. 2726.
3089(54) 0.0003429 1940. 3032.
3343(56) 0.0003189 1940. 3301.
3438(57) 0.0003078 1940. 3426.
3245(55) 0.0003306 1939. 3349.
2997(53) 0.000356 1939. 3110.
2789(51) 0.000384 1938. 2816.
2574(49) 0.000416 1938. 2569.
2431(48) 0.000434 1937. 2423.
2392(47) 0.000453 1937. 2386.
2469(48) 0.000434 1936. 2423.
2486(48) 0.000434 1936. 2479.
2437(48) 0.000434 1936. 2500.
2479(48) 0.000434 1935. 2460.
2335(47) 0.000453 1935. 2374.
2224(46) 0.000473 1934. 2281.
2240(46) 0.000473 1934. 2217.
2188(45) 0.000494 1933. 2203.
2249(46) 0.000473 1933. 2237.
2293(46) 0.000473 1933. 2297.
2374(47) 0.000453 1932. 2351.
2259(44) 0.000517 1932. 2364.
2245(44) 0.000517 1931. 2325.
2248(44) 0.000517 1931. 2249.
2194(44) 0.000517 1930. 2163.
2164(43) 0.000541 1930. 2091.
2115(43) 0.000541 1929. 2045.
2044(42) 0.000567 1929. 2023.
2037(42) 0.000567 1929. 2018.
2077(42) 0.000567 1928. 2018.
2003(42) 0.000567 1928. 2015.
1988(42) 0.000567 1927. 2004.
1960(41) 0.000595 1927. 1989.
2004(42) 0.000567 1926. 1973.
1937(41) 0.000595 1926. 1959.
1936(41) 0.000595 1926. 1949.
1938(41) 0.000595 1925. 1943.
1994(42) 0.000567 1925. 1940.
1953(41) 0.000595 1924. 1938.
1898(41) 0.000595 1924. 1939.
1945(41) 0.000595 1923. 1942.
1933(41) 0.000595 1923. 1949.
1975(41) 0.000595 1922. 1963.
2007(42) 0.000567 1922. 1986.
2023(42) 0.000567 1922. 2016.
2069(42) 0.000567 1921. 2051.
2052(42) 0.000567 1921. 2082.
2095(43) 0.000541 1920. 2098.
2080(43) 0.000541 1920. 2094.
2080(43) 0.000541 1919. 2075.
2063(42) 0.000567 1919. 2055.
2005(42) 0.000567 1918. 2045.
2127(43) 0.000541 1918. 2056.
2146(43) 0.000541 1918. 2085.
2113(43) 0.000541 1917. 2124.
2206(44) 0.000517 1917. 2158.
2212(44) 0.000517 1916. 2173.
2142(43) 0.000541 1916. 2165.
2102(43) 0.000541 1915. 2148.
2113(43) 0.000541 1915. 2144.
2164(43) 0.000541 1914. 2175.
2226(44) 0.000517 1914. 2248.
2467(46) 0.000473 1914. 2355.
2528(47) 0.000453 1913. 2466.
2601(48) 0.000434 1913. 2541.
2625(48) 0.000434 1912. 2543.
2574(47) 0.000453 1912. 2470.
2356(45) 0.000494 1911. 2351.
2189(44) 0.000517 1911. 2224.
2198(44) 0.000517 1910. 2120.
2129(43) 0.000541 1910. 2049.
2033(42) 0.000567 1909. 2010.
1960(41) 0.000595 1909. 1991.
1905(41) 0.000595 1909. 1982.
1930(41) 0.000595 1908. 1974.
2003(42) 0.000567 1908. 1963.
1994(42) 0.000567 1907. 1952.
1959(41) 0.000595 1907. 1943.
1918(41) 0.000595 1906. 1937.
1932(41) 0.000595 1906. 1935.
1964(41) 0.000595 1905. 1936.
1979(41) 0.000595 1905. 1936.
1935(41) 0.000595 1904. 1936.
1898(41) 0.000595 1904. 1933.
1894(41) 0.000595 1904. 1927.
1880(40) 0.000625 1903. 1922.
1904(41) 0.000595 1903. 1916.
1936(41) 0.000595 1902. 1912.
1944(41) 0.000595 1902. 1910.
1898(41) 0.000595 1901. 1908.
1920(41) 0.000595 1901. 1907.
1899(41) 0.000595 1900. 1908.
1928(41) 0.000595 1900. 1909.
1924(41) 0.000595 1899. 1914.
1926(41) 0.000595 1899. 1921.
1932(41) 0.000595 1898. 1932.
1887(40) 0.000625 1898. 1947.
1905(41) 0.000595 1898. 1961.
1921(41) 0.000595 1897. 1973.
2006(42) 0.000567 1897. 1977.
1934(41) 0.000595 1896. 1971.
1963(41) 0.000595 1896. 1958.
1954(41) 0.000595 1895. 1943.
1936(41) 0.000595 1895. 1928.
1900(41) 0.000595 1894. 1916.
1861(40) 0.000625 1894. 1909.
1895(41) 0.000595 1893. 1905.
1880(40) 0.000625 1893. 1903.
1917(41) 0.000595 1892. 1904.
1842(40) 0.000625 1892. 1908.
1856(40) 0.000625 1891. 1917.
1963(41) 0.000595 1891. 1933.
1928(41) 0.000595 1890. 1955.
2007(42) 0.000567 1890. 1984.
1943(41) 0.000595 1890. 2013.
1991(42) 0.000567 1889. 2036.
2027(42) 0.000567 1889. 2046.
2015(42) 0.000567 1888. 2040.
2027(42) 0.000567 1888. 2023.
1972(41) 0.000595 1887. 2006.
1924(41) 0.000595 1887. 1996.
2035(58) 0.0002973 1886. 1998.
1967(40) 0.000625 1886. 2009.
2035(40) 0.000625 1885. 2022.
2029(40) 0.000625 1885. 2031.
1988(40) 0.000625 1884. 2030.
2004(40) 0.000625 1884. 2023.
2022(40) 0.000625 1883. 2019.
1998(40) 0.000625 1883. 2028.
2005(40) 0.000625 1882. 2054.
2120(41) 0.000595 1882. 2094.
2216(42) 0.000567 1881. 2137.
2199(42) 0.000567 1881. 2168.
2168(42) 0.000567 1880. 2173.
2138(41) 0.000595 1880. 2149.
2120(41) 0.000595 1879. 2110.
2070(41) 0.000595 1879. 2070.
2044(41) 0.000595 1878. 2043.
2039(41) 0.000595 1878. 2034.
2053(41) 0.000595 1877. 2039.
2042(41) 0.000595 1877. 2048.
2099(41) 0.000595 1876. 2050.
2052(41) 0.000595 1876. 2038.
1992(40) 0.000625 1875. 2012.
2006(40) 0.000625 1875. 1979.
1947(40) 0.000625 1874. 1948.
1915(39) 0.000657 1874. 1922.
1846(39) 0.000657 1873. 1904.
1855(39) 0.000657 1873. 1892.
1858(39) 0.000657 1872. 1885.
1858(39) 0.000657 1872. 1882.
1911(39) 0.000657 1871. 1880.
1900(39) 0.000657 1871. 1878.
1891(39) 0.000657 1870. 1878.
1851(39) 0.000657 1870. 1877.
1816(38) 0.000693 1869. 1877.
1870(39) 0.000657 1869. 1878.
1910(39) 0.000657 1868. 1879.
1910(39) 0.000657 1868. 1883.
1868(39) 0.000657 1867. 1892.
1859(39) 0.000657 1867. 1907.
1907(39) 0.000657 1866. 1933.
1994(40) 0.000625 1866. 1969.
2088(41) 0.000595 1865. 2015.
2094(41) 0.000595 1865. 2062.
2093(41) 0.000595 1864. 2101.
2119(41) 0.000595 1864. 2119.
2123(41) 0.000595 1863. 2109.
2055(41) 0.000595 1863. 2075.
2011(40) 0.000625 1862. 2028.
1944(40) 0.000625 1862. 1980.
1937(39) 0.000657 1861. 1940.
1912(39) 0.000657 1861. 1911.
1859(39) 0.000657 1860. 1893.
1858(39) 0.000657 1860. 1885.
1863(39) 0.000657 1859. 1884.
1875(39) 0.000657 1859. 1892.
1926(39) 0.000657 1858. 1909.
1896(39) 0.000657 1858. 1936.
1957(40) 0.000625 1857. 1973.
2035(40) 0.000625 1857. 2015.
2045(41) 0.000595 1856. 2056.
2089(41) 0.000595 1856. 2085.
2126(41) 0.000595 1855. 2091.
2071(41) 0.000595 1854. 2072.
2029(40) 0.000625 1854. 2036.
2056(41) 0.000595 1853. 1992.
2015(40) 0.000625 1853. 1950.
1878(39) 0.000657 1852. 1916.
1894(39) 0.000657 1852. 1893.
1909(39) 0.000657 1851. 1879.
1857(39) 0.000657 1851. 1872.
1822(38) 0.000693 1850. 1871.
1835(38) 0.000693 1850. 1875.
1861(39) 0.000657 1849. 1884.
1830(38) 0.000693 1849. 1897.
1888(39) 0.000657 1848. 1915.
1940(40) 0.000625 1848. 1934.
1919(39) 0.000657 1847. 1950.
1949(40) 0.000625 1846. 1961.
1947(40) 0.000625 1846. 1966.
1951(40) 0.000625 1845. 1966.
1976(40) 0.000625 1845. 1967.
1989(40) 0.000625 1844. 1977.
2006(40) 0.000625 1844. 1996.
2031(40) 0.000625 1843. 2023.
2058(41) 0.000595 1843. 2051.
2092(41) 0.000595 1842. 2072.
2097(41) 0.000595 1842. 2080.
2084(41) 0.000595 1841. 2078.
2073(41) 0.000595 1840. 2075.
2052(41) 0.000595 1840. 2084.
2069(41) 0.000595 1839. 2109.
2127(41) 0.000595 1839. 2149.
2133(41) 0.000595 1838. 2193.
2206(42) 0.000567 1838. 2224.
2218(42) 0.000567 1837. 2225.
2141(42) 0.000567 1837. 2193.
2058(41) 0.000595 1836. 2136.
2029(40) 0.000625 1835. 2070.
1980(40) 0.000625 1835. 2007.
2012(40) 0.000625 1834. 1958.
1873(39) 0.000657 1834. 1923.
1884(39) 0.000657 1833. 1902.
1879(39) 0.000657 1833. 1890.
1866(39) 0.000657 1832. 1883.
1844(38) 0.000693 1832. 1880.
1856(39) 0.000657 1831. 1881.
1801(38) 0.000693 1830. 1885.
1916(39) 0.000657 1830. 1893.
1974(40) 0.000625 1829. 1902.
1894(39) 0.000657 1829. 1909.
1901(39) 0.000657 1828. 1912.
1901(39) 0.000657 1828. 1907.
1911(39) 0.000657 1827. 1897.
1872(39) 0.000657 1826. 1884.
1872(39) 0.000657 1826. 1870.
1844(38) 0.000693 1825. 1859.
1836(38) 0.000693 1825. 1852.
1790(38) 0.000693 1824. 1848.
1820(38) 0.000693 1824. 1851.
1835(38) 0.000693 1823. 1859.
1802(38) 0.000693 1822. 1876.
1898(39) 0.000657 1822. 1904.
2024(40) 0.000625 1821. 1942.
2047(41) 0.000595 1821. 1988.
1986(40) 0.000625 1820. 2037.
2063(41) 0.000595 1820. 2081.
2134(41) 0.000595 1819. 2111.
2121(41) 0.000595 1818. 2125.
2106(41) 0.000595 1818. 2129.
2077(41) 0.000595 1817. 2134.
2139(42) 0.000567 1817. 2152.
2175(42) 0.000567 1816. 2188.
2232(42) 0.000567 1815. 2237.
2292(43) 0.000541 1815. 2285.
2274(43) 0.000541 1814. 2314.
2280(43) 0.000541 1814. 2311.
2157(42) 0.000567 1813. 2276.
2148(42) 0.000567 1813. 2223.
2166(42) 0.000567 1812. 2169.
2165(42) 0.000567 1811. 2128.
2111(41) 0.000595 1811. 2104.
2103(41) 0.000595 1810. 2093.
2027(40) 0.000625 1810. 2085.
2021(40) 0.000625 1809. 2070.
2055(41) 0.000595 1808. 2044.
2069(41) 0.000595 1808. 2012.
1988(40) 0.000625 1807. 1978.
1924(39) 0.000657 1807. 1950.
1922(39) 0.000657 1806. 1929.
1916(39) 0.000657 1805. 1916.
1877(39) 0.000657 1805. 1908.
1843(38) 0.000693 1804. 1900.
1870(39) 0.000657 1804. 1891.
1903(39) 0.000657 1803. 1881.
1911(39) 0.000657 1802. 1873.
1881(39) 0.000657 1802. 1867.
1831(38) 0.000693 1801. 1863.
1839(38) 0.000693 1801. 1862.
1851(39) 0.000657 1800. 1861.
1865(39) 0.000657 1799. 1858.
1824(38) 0.000693 1799. 1852.
1812(38) 0.000693 1798. 1844.
1831(38) 0.000693 1798. 1836.
1812(38) 0.000693 1797. 1828.
1784(38) 0.000693 1796. 1821.
1785(38) 0.000693 1796. 1817.
1765(38) 0.000693 1795. 1815.
1786(38) 0.000693 1795. 1815.
1773(38) 0.000693 1794. 1816.
1826(38) 0.000693 1793. 1820.
1842(38) 0.000693 1793. 1826.
1806(38) 0.000693 1792. 1834.
1865(39) 0.000657 1792. 1843.
1856(39) 0.000657 1791. 1852.
1834(38) 0.000693 1790. 1857.
1835(38) 0.000693 1790. 1858.
1924(39) 0.000657 1789. 1852.
1830(38) 0.000693 1788. 1843.
1808(38) 0.000693 1788. 1831.
1788(38) 0.000693 1787. 1819.
1825(38) 0.000693 1787. 1809.
1812(38) 0.000693 1786. 1801.
1791(38) 0.000693 1785. 1795.
1811(38) 0.000693 1785. 1791.
1776(38) 0.000693 1784. 1788.
1783(38) 0.000693 1784. 1787.
1839(38) 0.000693 1783. 1786.
1762(38) 0.000693 1782. 1785.
1789(38) 0.000693 1782. 1784.
1803(38) 0.000693 1781. 1783.
1783(38) 0.000693 1780. 1783.
1727(37) 0.000730 1780. 1782.
1777(38) 0.000693 1779. 1782.
1816(38) 0.000693 1779. 1782.
1785(38) 0.000693 1778. 1782.
1746(37) 0.000730 1777. 1782.
1801(38) 0.000693 1777. 1783.
1786(38) 0.000693 1776. 1783.
1787(38) 0.000693 1775. 1783.
1770(31) 0.001041 1774.8 1782.7
1790(38) 0.000693 1774. 1782.
1762(38) 0.000693 1774. 1781.
1800(38) 0.000693 1773. 1780.
1744(37) 0.000730 1772. 1780.
1787(38) 0.000693 1772. 1779.
1811(38) 0.000693 1771. 1780.
1788(38) 0.000693 1770. 1781.
1783(38) 0.000693 1770. 1784.
1756(37) 0.000730 1769. 1789.
1749(37) 0.000730 1768. 1796.
1761(38) 0.000693 1768. 1805.
1791(38) 0.000693 1767. 1817.
1841(38) 0.000693 1767. 1830.
1791(38) 0.000693 1766. 1842.
1816(38) 0.000693 1765. 1851.
1811(38) 0.000693 1765. 1856.
1817(38) 0.000693 1764. 1858.
1830(38) 0.000693 1763. 1858.
1835(38) 0.000693 1763. 1859.
1826(38) 0.000693 1762. 1862.
1923(39) 0.000657 1761. 1868.
1858(39) 0.000657 1761. 1876.
1872(39) 0.000657 1760. 1884.
1932(39) 0.000657 1760. 1891.
1918(39) 0.000657 1759. 1897.
1929(39) 0.000657 1758. 1904.
2011(40) 0.000625 1758. 1916.
1943(39) 0.000657 1757. 1932.
1893(39) 0.000657 1756. 1951.
1933(39) 0.000657 1756. 1968.
1905(39) 0.000657 1755. 1977.
1920(39) 0.000657 1754. 1974.
1962(40) 0.000625 1754. 1958.
1979(40) 0.000625 1753. 1932.
1923(39) 0.000657 1753. 1902.
1917(39) 0.000657 1752. 1873.
1871(39) 0.000657 1751. 1848.
1865(39) 0.000657 1751. 1828.
1859(39) 0.000657 1750. 1814.
1743(37) 0.000730 1749. 1802.
1820(38) 0.000693 1749. 1793.
1782(38) 0.000693 1748. 1784.
1786(38) 0.000693 1747. 1777.
1762(38) 0.000693 1747. 1771.
1797(38) 0.000693 1746. 1767.
1730(37) 0.000730 1745. 1765.
1778(38) 0.000693 1745. 1768.
1821(38) 0.000693 1744. 1774.
1776(38) 0.000693 1743. 1786.
1807(38) 0.000693 1743. 1803.
1856(39) 0.000657 1742. 1824.
1866(39) 0.000657 1742. 1848.
1906(39) 0.000657 1741. 1872.
1946(40) 0.000625 1740. 1890.
1985(40) 0.000625 1740. 1901.
1967(40) 0.000625 1739. 1900.
1895(39) 0.000657 1738. 1890.
1871(39) 0.000657 1738. 1873.
1850(39) 0.000657 1737. 1854.
1817(38) 0.000693 1736. 1837.
1774(38) 0.000693 1736. 1825.
1787(38) 0.000693 1735. 1817.
1747(37) 0.000730 1734. 1815.
1767(38) 0.000693 1734. 1818.
1792(38) 0.000693 1733. 1827.
1903(39) 0.000657 1732. 1842.
1872(39) 0.000657 1732. 1861.
1863(39) 0.000657 1731. 1885.
1925(39) 0.000657 1730. 1908.
1967(40) 0.000625 1730. 1928.
1939(39) 0.000657 1729. 1941.
1903(39) 0.000657 1729. 1947.
1928(39) 0.000657 1728. 1948.
1966(40) 0.000625 1727. 1946.
1966(40) 0.000625 1727. 1947.
1907(39) 0.000657 1726. 1950.
2004(40) 0.000625 1725. 1954.
1971(40) 0.000625 1725. 1955.
1922(39) 0.000657 1724. 1948.
1852(39) 0.000657 1723. 1931.
1908(39) 0.000657 1723. 1904.
1816(38) 0.000693 1722. 1872.
1813(38) 0.000693 1721. 1839.
1784(38) 0.000693 1721. 1808.
1753(37) 0.000730 1720. 1783.
1703(37) 0.000730 1719. 1765.
1735(37) 0.000730 1719. 1754.
1777(38) 0.000693 1718. 1749.
1779(38) 0.000693 1717. 1749.
1750(37) 0.000730 1717. 1753.
1755(37) 0.000730 1716. 1759.
1798(38) 0.000693 1715. 1767.
1791(38) 0.000693 1715. 1774.
1867(39) 0.000657 1714. 1779.
1839(38) 0.000693 1713. 1782.
1796(38) 0.000693 1713. 1783.
1769(38) 0.000693 1712. 1782.
1783(38) 0.000693 1712. 1780.
1808(38) 0.000693 1711. 1779.
1823(53) 0.000356 1710. 1779.
1768(37) 0.000730 1710. 1778.
1741(36) 0.000772 1709. 1776.
1740(36) 0.000772 1708. 1772.
1739(36) 0.000772 1708. 1765.
1709(36) 0.000772 1707. 1757.
1806(37) 0.000730 1706. 1747.
1793(37) 0.000730 1706. 1738.
1745(36) 0.000772 1705. 1730.
1721(36) 0.000772 1704. 1724.
1747(36) 0.000772 1704. 1720.
1755(36) 0.000772 1703. 1719.
1772(37) 0.000730 1702. 1719.
1706(36) 0.000772 1702. 1721.
1754(36) 0.000772 1701. 1724.
1751(36) 0.000772 1700. 1729.
1737(36) 0.000772 1700. 1735.
1788(37) 0.000730 1699. 1742.
1765(37) 0.000730 1698. 1750.
1801(37) 0.000730 1698. 1759.
1758(37) 0.000730 1697. 1771.
1774(37) 0.000730 1696. 1785.
1785(37) 0.000730 1696. 1801.
1797(37) 0.000730 1695. 1818.
1803(37) 0.000730 1695. 1833.
1763(37) 0.000730 1694. 1845.
1813(37) 0.000730 1693. 1850.
1835(37) 0.000730 1693. 1848.
1836(37) 0.000730 1692. 1840.
1834(37) 0.000730 1691. 1830.
1847(37) 0.000730 1691. 1820.
1761(37) 0.000730 1690. 1814.
1763(37) 0.000730 1689. 1814.
1763(37) 0.000730 1689. 1822.
1831(37) 0.000730 1688. 1841.
1948(38) 0.000693 1687. 1871.
1952(39) 0.000657 1687. 1913.
2041(39) 0.000657 1686. 1966.
2093(40) 0.000625 1685. 2026.
2117(40) 0.000625 1685. 2086.
2117(40) 0.000625 1684. 2138.
2139(40) 0.000625 1683. 2173.
2211(41) 0.000595 1683. 2186.
2218(41) 0.000595 1682. 2177.
2229(41) 0.000595 1682. 2150.
2112(40) 0.000625 1681. 2115.
2125(40) 0.000625 1680. 2079.
2069(40) 0.000625 1680. 2045.
1969(39) 0.000657 1679. 2014.
1997(39) 0.000657 1678. 1984.
1898(38) 0.000693 1678. 1952.
1896(38) 0.000693 1677. 1916.
1893(38) 0.000693 1676. 1878.
1834(37) 0.000730 1676. 1840.
1791(37) 0.000730 1675. 1805.
1785(37) 0.000730 1674. 1775.
1762(37) 0.000730 1674. 1752.
1667(36) 0.000772 1673. 1737.
1709(36) 0.000772 1672. 1730.
1733(36) 0.000772 1672. 1731.
1764(37) 0.000730 1671. 1737.
1667(36) 0.000772 1671. 1746.
1704(36) 0.000772 1670. 1758.
1796(37) 0.000730 1669. 1768.
1729(36) 0.000772 1669. 1775.
1794(37) 0.000730 1668. 1777.
1794(37) 0.000730 1667. 1772.
1733(36) 0.000772 1667. 1762.
1714(36) 0.000772 1666. 1748.
1782(37) 0.000730 1665. 1733.
1769(37) 0.000730 1665. 1719.
1691(36) 0.000772 1664. 1706.
1737(36) 0.000772 1664. 1698.
1711(36) 0.000772 1663. 1692.
1754(36) 0.000772 1662. 1690.
1679(36) 0.000772 1662. 1691.
1675(36) 0.000772 1661. 1695.
1730(36) 0.000772 1660. 1699.
1730(36) 0.000772 1660. 1705.
1680(36) 0.000772 1659. 1709.
1729(36) 0.000772 1658. 1712.
1677(36) 0.000772 1658. 1712.
1779(37) 0.000730 1657. 1710.
1746(36) 0.000772 1657. 1706.
1728(36) 0.000772 1656. 1701.
1676(36) 0.000772 1655. 1695.
1636(35) 0.000816 1654.6 1690.5
1741(36) 0.000772 1654. 1686.
1697(36) 0.000772 1653. 1683.
1703(36) 0.000772 1653. 1680.
1647(35) 0.000816 1652.1 1679.0
1686(36) 0.000772 1651. 1679.
1664(36) 0.000772 1651. 1681.
1680(36) 0.000772 1650. 1685.
1704(36) 0.000772 1650. 1693.
1702(36) 0.000772 1649. 1707.
1722(36) 0.000772 1648. 1726.
1723(36) 0.000772 1648. 1753.
1797(37) 0.000730 1647. 1787.
1906(38) 0.000693 1646. 1828.
1931(38) 0.000693 1646. 1872.
1967(39) 0.000657 1645. 1916.
1971(39) 0.000657 1645. 1952.
2066(40) 0.000625 1644. 1976.
1986(39) 0.000657 1643. 1983.
2070(40) 0.000625 1643. 1971.
1935(38) 0.000693 1642. 1942.
1966(39) 0.000657 1642. 1903.
1871(38) 0.000693 1641. 1860.
1878(38) 0.000693 1640. 1818.
1834(37) 0.000730 1640. 1781.
1765(37) 0.000730 1639. 1752.
1733(36) 0.000772 1638. 1732.
1764(37) 0.000730 1638. 1720.
1751(36) 0.000772 1637. 1716.
1709(36) 0.000772 1637. 1718.
1691(36) 0.000772 1636. 1723.
1723(36) 0.000772 1635. 1729.
1697(36) 0.000772 1635. 1734.
1702(36) 0.000772 1634. 1735.
1664(35) 0.000816 1633.5 1733.0
1737(36) 0.000772 1633. 1726.
1785(37) 0.000730 1632. 1717.
1768(37) 0.000730 1632. 1705.
1691(36) 0.000772 1631. 1692.
1681(36) 0.000772 1630. 1681.
1600(35) 0.000816 1629.9 1670.5
1618(35) 0.000816 1629.2 1661.8
1690(36) 0.000772 1629. 1655.
1644(35) 0.000816 1628.0 1649.3
1697(36) 0.000772 1627. 1645.
1624(35) 0.000816 1626.8 1642.2
1696(36) 0.000772 1626. 1640.
1669(35) 0.000816 1625.6 1639.7
1702(36) 0.000772 1625. 1640.
1648(35) 0.000816 1624.4 1641.9
1576(34) 0.000865 1623.8 1644.9
1654(35) 0.000816 1623.2 1649.2
1640(35) 0.000816 1622.6 1654.5
1655(35) 0.000816 1622.0 1660.6
1656(35) 0.000816 1621.4 1667.0
1674(36) 0.000772 1621. 1673.
1674(36) 0.000772 1620. 1679.
1686(36) 0.000772 1620. 1684.
1658(35) 0.000816 1619.0 1688.6
1737(36) 0.000772 1618. 1694.
1716(36) 0.000772 1618. 1701.
1688(36) 0.000772 1617. 1711.
1700(36) 0.000772 1617. 1725.
1697(36) 0.000772 1616. 1746.
1715(36) 0.000772 1615. 1774.
1781(37) 0.000730 1615. 1811.
1895(38) 0.000693 1614. 1856.
1962(39) 0.000657 1614. 1909.
2005(39) 0.000657 1613. 1966.
2007(39) 0.000657 1613. 2022.
2105(40) 0.000625 1612. 2072.
2008(39) 0.000657 1611. 2107.
2155(40) 0.000625 1611. 2122.
2060(40) 0.000625 1610. 2113.
2080(40) 0.000625 1610. 2083.
2073(40) 0.000625 1609. 2035.
1985(39) 0.000657 1608. 1979.
1969(39) 0.000657 1608. 1920.
1864(38) 0.000693 1607. 1864.
1835(37) 0.000730 1607. 1815.
1717(36) 0.000772 1606. 1774.
1757(36) 0.000772 1606. 1742.
1771(37) 0.000730 1605. 1718.
1716(36) 0.000772 1604. 1701.
1772(37) 0.000730 1604. 1690.
1691(36) 0.000772 1603. 1683.
1743(36) 0.000772 1603. 1680.
1651(35) 0.000816 1602.1 1680.3
1766(37) 0.000730 1602. 1683.
1656(35) 0.000816 1601.0 1687.6
1675(36) 0.000772 1600. 1694.
1697(36) 0.000772 1600. 1703.
1764(37) 0.000730 1599. 1713.
1707(36) 0.000772 1599. 1724.
1749(36) 0.000772 1598. 1736.
1770(37) 0.000730 1598. 1746.
1724(36) 0.000772 1597. 1756.
1774(37) 0.000730 1596. 1764.
1791(37) 0.000730 1596. 1772.
1817(37) 0.000730 1595. 1779.
1818(37) 0.000730 1595. 1784.
1801(37) 0.000730 1594. 1788.
1801(37) 0.000730 1594. 1788.
1739(36) 0.000772 1593. 1784.
1788(37) 0.000730 1593. 1774.
1819(37) 0.000730 1592. 1760.
1807(37) 0.000730 1591. 1743.
1696(36) 0.000772 1591. 1726.
1746(36) 0.000772 1590. 1711.
1668(35) 0.000816 1589.7 1702.0
1726(36) 0.000772 1589. 1700.
1745(36) 0.000772 1589. 1708.
1731(36) 0.000772 1588. 1724.
1796(37) 0.000730 1588. 1749.
1775(37) 0.000730 1587. 1780.
1840(39) 0.000657 1586. 1815.
1857(39) 0.000657 1586. 1848.
1875(39) 0.000657 1585. 1877.
1853(39) 0.000657 1585. 1896.
1886(39) 0.000657 1584. 1903.
1914(40) 0.000625 1584. 1898.
1865(39) 0.000657 1583. 1882.
1875(39) 0.000657 1583. 1859.
1848(39) 0.000657 1582. 1831.
1811(39) 0.000657 1582. 1802.
1761(38) 0.000693 1581. 1775.
1722(38) 0.000693 1580. 1751.
1696(37) 0.000730 1580. 1730.
1736(38) 0.000693 1579. 1713.
1716(37) 0.000730 1579. 1699.
1706(37) 0.000730 1578. 1689.
1714(37) 0.000730 1578. 1683.
1706(37) 0.000730 1577. 1681.
1654(37) 0.000730 1577. 1683.
1658(37) 0.000730 1576. 1688.
1623(36) 0.000772 1576. 1696.
1694(37) 0.000730 1575. 1708.
1714(37) 0.000730 1575. 1721.
1731(38) 0.000693 1574. 1735.
1731(38) 0.000693 1574. 1748.
1788(38) 0.000693 1573. 1758.
1740(38) 0.000693 1573. 1764.
1739(38) 0.000693 1572. 1763.
1763(38) 0.000693 1571. 1754.
1762(38) 0.000693 1571. 1739.
1696(37) 0.000730 1570. 1719.
1696(37) 0.000730 1570. 1697.
1677(37) 0.000730 1569. 1673.
1608(36) 0.000772 1569. 1652.
1626(36) 0.000772 1568. 1632.
1610(36) 0.000772 1568. 1616.
1591(36) 0.000772 1567. 1604.
1601(36) 0.000772 1567. 1595.
1648(37) 0.000730 1566. 1590.
1562(36) 0.000772 1566. 1587.
1569(36) 0.000772 1565. 1588.
1594(36) 0.000772 1565. 1591.
1615(36) 0.000772 1564. 1596.
1623(36) 0.000772 1564. 1604.
1581(36) 0.000772 1563. 1613.
1653(37) 0.000730 1563. 1624.
1672(37) 0.000730 1562. 1636.
1649(37) 0.000730 1562. 1647.
1579(36) 0.000772 1561. 1657.
1669(37) 0.000730 1561. 1664.
1708(37) 0.000730 1560. 1667.
1701(37) 0.000730 1560. 1665.
1647(37) 0.000730 1559. 1659.
1665(37) 0.000730 1559. 1650.
1631(37) 0.000730 1558. 1639.
1696(37) 0.000730 1558. 1627.
1625(36) 0.000772 1557. 1615.
1609(36) 0.000772 1557. 1605.
1621(36) 0.000772 1556. 1597.
1606(36) 0.000772 1556. 1591.
1589(36) 0.000772 1555. 1589.
1601(36) 0.000772 1555. 1588.
1618(36) 0.000772 1554. 1591.
1550(36) 0.000772 1554. 1596.
1582(36) 0.000772 1553. 1603.
1593(36) 0.000772 1553. 1612.
1628(37) 0.000730 1552. 1624.
1614(36) 0.000772 1552. 1637.
1668(37) 0.000730 1551. 1652.
1686(37) 0.000730 1551. 1668.
1641(37) 0.000730 1550. 1684.
1699(37) 0.000730 1550. 1699.
1667(37) 0.000730 1549. 1712.
1753(38) 0.000693 1549. 1722.
1779(38) 0.000693 1548. 1728.
1694(37) 0.000730 1548. 1730.
1718(38) 0.000693 1547. 1728.
1716(38) 0.000693 1547. 1724.
1690(37) 0.000730 1547. 1719.
1780(38) 0.000693 1546. 1713.
1741(38) 0.000693 1546. 1707.
1679(37) 0.000730 1545. 1701.
1673(37) 0.000730 1545. 1695.
1668(37) 0.000730 1544. 1691.
1667(37) 0.000730 1544. 1688.
1663(37) 0.000730 1543. 1687.
1703(37) 0.000730 1543. 1690.
1691(37) 0.000730 1542. 1696.
1728(38) 0.000693 1542. 1706.
1715(37) 0.000730 1541. 1719.
1755(38) 0.000693 1541. 1737.
1720(38) 0.000693 1540. 1757.
1827(39) 0.000657 1540. 1780.
1822(39) 0.000657 1539. 1804.
1798(38) 0.000693 1539. 1826.
1853(39) 0.000657 1539. 1845.
1818(39) 0.000657 1538. 1858.
1864(39) 0.000657 1538. 1864.
1847(39) 0.000657 1537. 1861.
1866(40) 0.000625 1537. 1851.
1821(39) 0.000657 1536. 1835.
1899(40) 0.000625 1536. 1816.
1855(40) 0.000625 1535. 1797.
1844(39) 0.000657 1535. 1778.
1801(39) 0.000657 1534. 1761.
1761(39) 0.000657 1534. 1747.
1746(38) 0.000693 1534. 1736.
1752(38) 0.000693 1533. 1729.
1765(39) 0.000657 1533. 1723.
1718(38) 0.000693 1532. 1719.
1701(38) 0.000693 1532. 1716.
1722(38) 0.000693 1531. 1712.
1733(38) 0.000693 1531. 1706.
1710(38) 0.000693 1530. 1698.
1688(38) 0.000693 1530. 1686.
1661(37) 0.000730 1530. 1673.
1708(38) 0.000693 1529. 1659.
1651(37) 0.000730 1529. 1646.
1593(37) 0.000730 1528. 1636.
1600(37) 0.000730 1528. 1628.
1606(37) 0.000730 1527. 1625.
1563(36) 0.000772 1527. 1626.
1665(37) 0.000730 1526. 1632.
1629(37) 0.000730 1526. 1641.
1651(37) 0.000730 1526. 1653.
1662(37) 0.000730 1525. 1666.
1651(37) 0.000730 1525. 1678.
1723(38) 0.000693 1524. 1687.
1692(38) 0.000693 1524. 1693.
1707(38) 0.000693 1523. 1694.
1651(37) 0.000730 1523. 1691.
1685(38) 0.000693 1523. 1685.
1694(38) 0.000693 1522. 1676.
1647(37) 0.000730 1522. 1667.
1628(37) 0.000730 1521. 1659.
1668(38) 0.000693 1521. 1652.
1653(37) 0.000730 1520. 1647.
1630(37) 0.000730 1520. 1644.
1633(37) 0.000730 1520. 1644.
1642(37) 0.000730 1519. 1646.
1632(37) 0.000730 1519. 1649.
1617(37) 0.000730 1518. 1653.
1611(37) 0.000730 1518. 1655.
1628(37) 0.000730 1517. 1656.
1699(38) 0.000693 1517. 1654.
1650(37) 0.000730 1517. 1650.
1638(37) 0.000730 1516. 1642.
1622(37) 0.000730 1516. 1633.
1561(36) 0.000772 1515. 1623.
1615(37) 0.000730 1515. 1612.
1586(37) 0.000730 1514. 1602.
1571(36) 0.000772 1514. 1593.
1665(37) 0.000730 1514. 1585.
1560(36) 0.000772 1513. 1580.
1631(37) 0.000730 1513. 1576.
1611(37) 0.000730 1512. 1575.
1621(37) 0.000730 1512. 1576.
1593(37) 0.000730 1512. 1579.
1594(37) 0.000730 1511. 1583.
1579(37) 0.000730 1511. 1590.
1616(37) 0.000730 1510. 1597.
1577(36) 0.000772 1510. 1606.
1610(37) 0.000730 1510. 1615.
1643(37) 0.000730 1509. 1625.
1651(37) 0.000730 1509. 1634.
1629(37) 0.000730 1508. 1641.
1550(36) 0.000772 1508. 1647.
1656(37) 0.000730 1507. 1650.
1646(37) 0.000730 1507. 1651.
1615(37) 0.000730 1507. 1648.
1680(38) 0.000693 1506. 1642.
1640(37) 0.000730 1506. 1635.
1624(37) 0.000730 1505. 1625.
1622(37) 0.000730 1505. 1615.
1597(37) 0.000730 1505. 1605.
1612(37) 0.000730 1504. 1594.
1575(36) 0.000772 1504. 1583.
1548(36) 0.000772 1503. 1572.
1597(37) 0.000730 1503. 1562.
1563(36) 0.000772 1503. 1553.
1518(36) 0.000772 1502. 1544.
1529(36) 0.000772 1502. 1536.
1558(36) 0.000772 1501. 1530.
1516(36) 0.000772 1501. 1524.
1545(36) 0.000772 1501. 1520.
1535(36) 0.000772 1500. 1517.
1530(36) 0.000772 1500. 1515.
1470(35) 0.000816 1499.5 1513.7
1546(36) 0.000772 1499. 1514.
1478(35) 0.000816 1498.7 1514.4
1500(36) 0.000772 1498. 1516.
1505(36) 0.000772 1498. 1518.
1444(35) 0.000816 1497.6 1521.4
1533(36) 0.000772 1497. 1525.
1534(36) 0.000772 1497. 1529.
1531(36) 0.000772 1496. 1534.
1513(36) 0.000772 1496. 1538.
1565(36) 0.000772 1496. 1542.
1560(36) 0.000772 1495. 1546.
1556(36) 0.000772 1495. 1550.
1523(34) 0.000865 1494.5 1552.5
1466(34) 0.000865 1494.1 1555.1
1519(34) 0.000865 1493.7 1557.6
1549(35) 0.000816 1493.3 1560.2
1531(35) 0.000816 1493.0 1563.0
1563(35) 0.000816 1492.6 1566.4
1568(35) 0.000816 1492.2 1570.2
1579(35) 0.000816 1491.8 1574.6
1645(36) 0.000772 1491. 1579.
1611(35) 0.000816 1491.1 1584.5
1593(35) 0.000816 1490.7 1589.8
1573(35) 0.000816 1490.3 1594.9
1602(35) 0.000816 1489.9 1599.4
1625(36) 0.000772 1490. 1603.
1590(35) 0.000816 1489.2 1604.7
1599(35) 0.000816 1488.8 1604.7
1621(36) 0.000772 1488. 1603.
1648(36) 0.000772 1488. 1599.
1603(35) 0.000816 1487.7 1594.1
1549(35) 0.000816 1487.3 1588.0
1566(35) 0.000816 1486.9 1581.3
1536(35) 0.000816 1486.5 1574.3
1576(35) 0.000816 1486.2 1567.4
1517(34) 0.000865 1485.8 1560.9
1550(35) 0.000816 1485.4 1555.0
1495(34) 0.000865 1485.1 1550.3
1528(34) 0.000865 1484.7 1546.8
1541(35) 0.000816 1484.3 1545.0
1540(35) 0.000816 1483.9 1544.9
1568(35) 0.000816 1483.6 1546.7
1578(35) 0.000816 1483.2 1550.5
1540(35) 0.000816 1482.8 1556.0
1530(35) 0.000816 1482.5 1562.9
1521(34) 0.000865 1482.1 1570.8
1597(35) 0.000816 1481.7 1579.1
1491(34) 0.000865 1481.4 1587.0
1559(35) 0.000816 1481.0 1593.8
1602(35) 0.000816 1480.6 1598.5
1621(36) 0.000772 1480. 1600.
1590(35) 0.000816 1479.9 1599.3
1615(35) 0.000816 1479.5 1594.9
1620(36) 0.000772 1479. 1588.
1616(35) 0.000816 1478.8 1578.2
1641(36) 0.000772 1478. 1567.
1606(35) 0.000816 1478.1 1555.7
1567(35) 0.000816 1477.7 1544.2
1535(35) 0.000816 1477.4 1533.5
1510(34) 0.000865 1477.0 1524.2
1501(34) 0.000865 1476.6 1516.5
1487(34) 0.000865 1476.3 1510.7
1484(34) 0.000865 1475.9 1506.9
1516(34) 0.000865 1475.6 1505.1
1498(34) 0.000865 1475.2 1505.2
1499(34) 0.000865 1474.8 1506.9
1500(34) 0.000865 1474.5 1510.2
1547(35) 0.000816 1474.1 1514.8
1540(35) 0.000816 1473.8 1520.5
1503(34) 0.000865 1473.4 1527.1
1504(34) 0.000865 1473.0 1534.2
1524(34) 0.000865 1472.7 1541.5
1545(35) 0.000816 1472.3 1548.7
1471(34) 0.000865 1472.0 1555.5
1515(34) 0.000865 1471.6 1561.7
1596(35) 0.000816 1471.3 1567.1
1584(35) 0.000816 1470.9 1571.7
1556(35) 0.000816 1470.5 1575.8
1559(35) 0.000816 1470.2 1579.5
1581(35) 0.000816 1469.8 1583.3
1569(35) 0.000816 1469.5 1587.2
1614(35) 0.000816 1469.1 1591.6
1627(36) 0.000772 1469. 1596.
1629(36) 0.000772 1468. 1601.
1595(35) 0.000816 1468.1 1606.5
1624(36) 0.000772 1468. 1612.
1614(35) 0.000816 1467.3 1616.4
1563(35) 0.000816 1467.0 1620.4
1616(35) 0.000816 1466.6 1622.9
1664(36) 0.000772 1466. 1624.
1706(36) 0.000772 1466. 1622.
1614(35) 0.000816 1465.6 1618.1
1592(35) 0.000816 1465.2 1611.7
1555(35) 0.000816 1464.9 1603.5
1576(35) 0.000816 1464.5 1594.2
1589(35) 0.000816 1464.2 1584.7
1597(35) 0.000816 1463.8 1575.7
1552(35) 0.000816 1463.5 1567.9
1590(35) 0.000816 1463.1 1562.0
1593(35) 0.000816 1462.8 1558.3
1580(35) 0.000816 1462.4 1556.7
1543(35) 0.000816 1462.1 1557.2
1576(35) 0.000816 1461.7 1559.1
1625(36) 0.000772 1461. 1562.
1558(35) 0.000816 1461.0 1565.1
1543(35) 0.000816 1460.7 1567.5
1538(35) 0.000816 1460.3 1568.5
1553(35) 0.000816 1460.0 1567.7
1585(35) 0.000816 1459.6 1564.7
1517(34) 0.000865 1459.3 1559.7
1559(35) 0.000816 1458.9 1552.8
1479(47) 0.000453 1459. 1545.
1527(35) 0.000816 1458.2 1535.6
1526(35) 0.000816 1457.9 1526.2
1570(35) 0.000816 1457.5 1517.0
1515(35) 0.000816 1457.2 1508.2
1492(34) 0.000865 1456.8 1500.3
1495(34) 0.000865 1456.5 1493.5
1516(35) 0.000816 1456.1 1487.8
1531(35) 0.000816 1455.8 1483.4
1504(35) 0.000816 1455.5 1480.4
1514(35) 0.000816 1455.1 1478.4
1470(34) 0.000865 1454.8 1477.5
1458(34) 0.000865 1454.4 1477.5
1515(35) 0.000816 1454.1 1478.3
1462(34) 0.000865 1453.7 1479.8
1474(34) 0.000865 1453.4 1481.7
1509(35) 0.000816 1453.0 1484.0
1514(35) 0.000816 1452.7 1486.3
1503(35) 0.000816 1452.3 1488.6
1500(34) 0.000865 1452.0 1490.8
1477(34) 0.000865 1451.6 1492.7
1469(34) 0.000865 1451.3 1494.4
1472(34) 0.000865 1451.0 1495.9
1496(34) 0.000865 1450.6 1497.5
1498(34) 0.000865 1450.3 1499.1
1508(35) 0.000816 1449.9 1501.0
1527(35) 0.000816 1449.6 1503.4
1556(35) 0.000816 1449.2 1506.3
1483(34) 0.000865 1448.9 1509.7
1455(34) 0.000865 1448.5 1513.6
1475(34) 0.000865 1448.2 1517.9
1526(35) 0.000816 1447.9 1522.3
1569(35) 0.000816 1447.5 1526.8
1538(35) 0.000816 1447.2 1531.0
1517(35) 0.000816 1446.8 1534.6
1541(35) 0.000816 1446.5 1537.3
1516(35) 0.000816 1446.1 1538.8
1499(34) 0.000865 1445.8 1539.1
1519(35) 0.000816 1445.4 1538.1
1530(35) 0.000816 1445.1 1536.1
1558(35) 0.000816 1444.8 1533.2
1559(35) 0.000816 1444.4 1529.7
1524(35) 0.000816 1444.1 1526.0
1542(35) 0.000816 1443.7 1522.2
1520(35) 0.000816 1443.4 1518.5
1533(35) 0.000816 1443.0 1515.0
1504(35) 0.000816 1442.7 1511.9
1496(34) 0.000865 1442.3 1509.2
1499(34) 0.000865 1442.0 1506.9
1472(34) 0.000865 1441.7 1504.9
1497(34) 0.000865 1441.3 1503.2
1541(35) 0.000816 1441.0 1501.5
1506(35) 0.000816 1440.6 1499.9
1487(34) 0.000865 1440.3 1498.3
1473(34) 0.000865 1439.9 1496.7
1475(34) 0.000865 1439.6 1495.3
1501(34) 0.000865 1439.3 1494.2
1532(35) 0.000816 1438.9 1493.6
1506(35) 0.000816 1438.6 1493.7
1506(35) 0.000816 1438.2 1494.5
1461(34) 0.000865 1437.9 1496.2
1473(34) 0.000865 1437.5 1498.7
1493(34) 0.000865 1437.2 1501.9
1515(35) 0.000816 1436.9 1505.7
1544(35) 0.000816 1436.5 1509.7
1510(35) 0.000816 1436.2 1513.7
1516(35) 0.000816 1435.8 1517.3
1563(35) 0.000816 1435.5 1520.2
1566(35) 0.000816 1435.1 1522.0
1547(35) 0.000816 1434.8 1522.6
1526(35) 0.000816 1434.5 1521.8
1489(34) 0.000865 1434.1 1519.9
1510(35) 0.000816 1433.8 1517.0
1508(35) 0.000816 1433.4 1513.6
1526(35) 0.000816 1433.1 1510.1
1518(35) 0.000816 1432.7 1506.9
1479(34) 0.000865 1432.4 1504.3
1474(34) 0.000865 1432.0 1502.7
1505(35) 0.000816 1431.7 1502.3
1515(35) 0.000816 1431.4 1503.2
1478(34) 0.000865 1431.0 1505.4
1506(35) 0.000816 1430.7 1508.8
1505(35) 0.000816 1430.3 1513.2
1502(35) 0.000816 1430.0 1518.4
1468(34) 0.000865 1429.6 1523.9
1538(35) 0.000816 1429.3 1529.6
1527(35) 0.000816 1429.0 1535.3
1497(34) 0.000865 1428.6 1540.9
1552(35) 0.000816 1428.3 1546.2
1561(35) 0.000816 1427.9 1551.3
1604(36) 0.000772 1428. 1556.
1594(35) 0.000816 1427.2 1560.8
1579(35) 0.000816 1426.9 1565.2
1543(35) 0.000816 1426.5 1569.5
1574(35) 0.000816 1426.2 1573.4
1554(35) 0.000816 1425.9 1577.1
1570(35) 0.000816 1425.5 1580.5
1658(36) 0.000772 1425. 1584.
1657(36) 0.000772 1425. 1586.
1627(36) 0.000772 1424. 1588.
1588(35) 0.000816 1424.1 1589.6
1621(36) 0.000772 1424. 1590.
1556(35) 0.000816 1423.5 1589.9
1592(36) 0.000772 1423. 1589.
1609(36) 0.000772 1423. 1586.
1534(35) 0.000816 1422.4 1583.2
1578(35) 0.000816 1422.1 1579.4
1577(35) 0.000816 1421.7 1575.2
1617(36) 0.000772 1421. 1571.
1598(36) 0.000772 1421. 1566.
1573(35) 0.000816 1420.7 1560.9
1532(35) 0.000816 1420.3 1555.9
1564(35) 0.000816 1420.0 1551.0
1494(35) 0.000816 1419.7 1546.3
1513(35) 0.000816 1419.3 1541.9
1506(35) 0.000816 1419.0 1537.9
1484(34) 0.000865 1418.6 1534.4
1499(35) 0.000816 1418.3 1531.5
1499(35) 0.000816 1417.9 1529.3
1492(35) 0.000816 1417.6 1527.9
1493(35) 0.000816 1417.2 1527.6
1488(35) 0.000816 1416.9 1528.5
1491(35) 0.000816 1416.6 1530.9
1486(34) 0.000865 1416.2 1535.1
1558(35) 0.000816 1415.9 1541.3
1543(35) 0.000816 1415.5 1549.4
1511(35) 0.000816 1415.2 1559.4
1576(35) 0.000816 1414.8 1571.3
1634(36) 0.000772 1414. 1584.
1586(36) 0.000772 1414. 1598.
1621(36) 0.000772 1414. 1613.
1624(36) 0.000772 1413. 1626.
1637(36) 0.000772 1413. 1639.
1588(36) 0.000772 1413. 1648.
1627(36) 0.000772 1412. 1655.
1664(36) 0.000772 1412. 1658.
1654(36) 0.000772 1412. 1657.
1627(36) 0.000772 1411. 1652.
1641(36) 0.000772 1411. 1643.
1614(36) 0.000772 1411. 1631.
1629(36) 0.000772 1410. 1616.
1593(36) 0.000772 1410. 1600.
1608(36) 0.000772 1410. 1583.
1619(36) 0.000772 1409. 1567.
1569(35) 0.000816 1408.9 1551.8
1561(35) 0.000816 1408.6 1538.6
1523(35) 0.000816 1408.3 1527.8
1499(35) 0.000816 1407.9 1519.6
1489(35) 0.000816 1407.6 1514.3
1449(34) 0.000865 1407.2 1511.7
1445(34) 0.000865 1406.9 1511.7
1539(35) 0.000816 1406.5 1514.0
1531(35) 0.000816 1406.2 1518.3
1542(35) 0.000816 1405.8 1524.1
1501(35) 0.000816 1405.5 1531.0
1533(35) 0.000816 1405.1 1538.5
1567(35) 0.000816 1404.8 1546.2
1559(35) 0.000816 1404.4 1553.7
1569(35) 0.000816 1404.1 1560.5
1560(35) 0.000816 1403.7 1566.2
1552(35) 0.000816 1403.4 1570.5
1606(36) 0.000772 1403. 1573.
1591(36) 0.000772 1403. 1574.
1602(36) 0.000772 1402. 1573.
1599(36) 0.000772 1402. 1571.
1583(36) 0.000772 1402. 1568.
1585(36) 0.000772 1401. 1563.
1593(36) 0.000772 1401. 1558.
1578(35) 0.000816 1400.6 1552.9
1542(35) 0.000816 1400.3 1547.7
1575(35) 0.000816 1399.9 1542.8
1545(35) 0.000816 1399.6 1538.4
1522(35) 0.000816 1399.2 1534.9
1537(35) 0.000816 1398.9 1532.5
1534(35) 0.000816 1398.6 1531.2
1500(35) 0.000816 1398.2 1531.3
1551(35) 0.000816 1397.9 1532.6
1544(35) 0.000816 1397.5 1535.2
1523(35) 0.000816 1397.2 1538.9
1540(35) 0.000816 1396.8 1543.6
1568(35) 0.000816 1396.5 1549.1
1568(35) 0.000816 1396.1 1555.1
1523(35) 0.000816 1395.8 1561.3
1550(35) 0.000816 1395.4 1567.6
1558(35) 0.000816 1395.1 1573.4
1564(35) 0.000816 1394.7 1578.5
1588(36) 0.000772 1394. 1583.
1578(35) 0.000816 1394.1 1585.4
1583(36) 0.000772 1394. 1587.
1564(35) 0.000816 1393.4 1586.5
1576(35) 0.000816 1393.0 1584.7
1606(36) 0.000772 1393. 1581.
1601(36) 0.000772 1392. 1577.
1587(36) 0.000772 1392. 1571.
1540(35) 0.000816 1391.6 1563.2
1553(35) 0.000816 1391.3 1554.9
1586(36) 0.000772 1391. 1546.
1585(36) 0.000772 1391. 1536.
1564(35) 0.000816 1390.3 1525.6
1532(35) 0.000816 1389.9 1515.3
1535(35) 0.000816 1389.6 1505.3
1466(35) 0.000816 1389.2 1495.8
1487(36) 0.000772 1389. 1487.
1549(36) 0.000772 1389. 1480.
1565(36) 0.000772 1388. 1474.
1525(36) 0.000772 1388. 1470.
1460(35) 0.000816 1387.5 1468.2
1463(35) 0.000816 1387.2 1468.3
1472(35) 0.000816 1386.8 1470.7
1457(35) 0.000816 1386.5 1475.5
1495(36) 0.000772 1386. 1483.
1538(36) 0.000772 1386. 1492.
1561(36) 0.000772 1385. 1503.
1527(36) 0.000772 1385. 1516.
1558(36) 0.000772 1385. 1531.
1559(36) 0.000772 1384. 1546.
1539(36) 0.000772 1384. 1562.
1565(36) 0.000772 1384. 1577.
1543(36) 0.000772 1383. 1592.
1562(36) 0.000772 1383. 1604.
1597(37) 0.000730 1383. 1615.
1601(37) 0.000730 1382. 1623.
1645(37) 0.000730 1382. 1629.
1586(37) 0.000730 1382. 1631.
1614(37) 0.000730 1381. 1631.
1615(37) 0.000730 1381. 1628.
1591(37) 0.000730 1381. 1622.
1595(37) 0.000730 1380. 1615.
1597(37) 0.000730 1380. 1607.
1637(37) 0.000730 1380. 1597.
1612(37) 0.000730 1379. 1587.
1562(36) 0.000772 1379. 1576.
1531(36) 0.000772 1379. 1566.
1531(36) 0.000772 1378. 1555.
1559(36) 0.000772 1378. 1545.
1519(36) 0.000772 1378. 1535.
1504(36) 0.000772 1377. 1526.
1493(36) 0.000772 1377. 1517.
1451(35) 0.000816 1376.6 1509.0
1492(36) 0.000772 1376. 1501.
1537(36) 0.000772 1376. 1493.
1479(35) 0.000816 1375.6 1486.0
1468(35) 0.000816 1375.2 1479.0
1439(35) 0.000816 1374.9 1472.4
1412(35) 0.000816 1374.6 1466.3
1494(36) 0.000772 1374. 1461.
1485(36) 0.000772 1374. 1456.
1459(35) 0.000816 1373.6 1452.1
1491(36) 0.000772 1373. 1449.
1467(35) 0.000816 1372.9 1447.6
1470(35) 0.000816 1372.5 1447.2
1468(35) 0.000816 1372.2 1448.3
1414(35) 0.000816 1371.9 1450.9
1455(35) 0.000816 1371.5 1455.1
1459(35) 0.000816 1371.2 1460.8
1452(35) 0.000816 1370.9 1467.9
1489(36) 0.000772 1371. 1476.
1508(36) 0.000772 1370. 1486.
1526(36) 0.000772 1370. 1496.
1494(36) 0.000772 1370. 1507.
1504(36) 0.000772 1369. 1518.
1570(36) 0.000772 1369. 1528.
1516(36) 0.000772 1369. 1537.
1517(36) 0.000772 1368. 1545.
1541(36) 0.000772 1368. 1551.
1517(36) 0.000772 1368. 1555.
1583(37) 0.000730 1367. 1556.
1579(37) 0.000730 1367. 1555.
1568(36) 0.000772 1367. 1551.
1536(36) 0.000772 1366. 1545.
1497(36) 0.000772 1366. 1538.
1506(36) 0.000772 1366. 1528.
1583(37) 0.000730 1365. 1518.
1535(36) 0.000772 1365. 1506.
1591(37) 0.000730 1365. 1494.
1508(36) 0.000772 1364. 1482.
1455(35) 0.000816 1364.0 1469.8
1465(35) 0.000816 1363.7 1458.2
1487(36) 0.000772 1363. 1447.
1507(36) 0.000772 1363. 1437.
1441(35) 0.000816 1362.7 1428.3
1394(34) 0.000865 1362.4 1420.5
1413(35) 0.000816 1362.0 1414.0
1376(34) 0.000865 1361.7 1408.7
1431(35) 0.000816 1361.4 1404.6
1421(35) 0.000816 1361.1 1401.9
1434(35) 0.000816 1360.8 1400.4
1439(35) 0.000816 1360.4 1400.1
1438(35) 0.000816 1360.1 1401.0
1438(35) 0.000816 1359.8 1402.9
1396(34) 0.000865 1359.5 1406.0
1410(35) 0.000816 1359.2 1409.8
1485(35) 0.000816 1358.9 1414.5
1431(35) 0.000816 1358.5 1419.8
1479(35) 0.000816 1358.2 1425.6
1471(35) 0.000816 1357.9 1431.8
1442(35) 0.000816 1357.6 1438.2
1445(35) 0.000816 1357.3 1444.6
1459(35) 0.000816 1357.0 1451.0
1372(34) 0.000865 1356.7 1457.1
1486(29) 0.001189 1356.3 1462.9
1414(36) 0.000772 1356. 1468.
1383(35) 0.000816 1355.7 1473.3
1473(36) 0.000772 1355. 1478.
1496(36) 0.000772 1355. 1482.
1503(37) 0.000730 1355. 1486.
1456(36) 0.000772 1354. 1490.
1487(36) 0.000772 1354. 1494.
1476(36) 0.000772 1354. 1498.
1496(36) 0.000772 1354. 1502.
1481(36) 0.000772 1353. 1507.
1485(36) 0.000772 1353. 1511.
1520(37) 0.000730 1353. 1515.
1513(37) 0.000730 1352. 1520.
1523(37) 0.000730 1352. 1524.
1522(37) 0.000730 1352. 1528.
1551(37) 0.000730 1351. 1531.
1532(37) 0.000730 1351. 1533.
1557(37) 0.000730 1351. 1534.
1537(37) 0.000730 1351. 1534.
1535(37) 0.000730 1350. 1533.
1579(37) 0.000730 1350. 1531.
1503(37) 0.000730 1350. 1527.
1523(37) 0.000730 1349. 1523.
1576(37) 0.000730 1349. 1518.
1527(37) 0.000730 1349. 1513.
1552(37) 0.000730 1348. 1507.
1554(37) 0.000730 1348. 1502.
1552(37) 0.000730 1348. 1498.
1502(37) 0.000730 1348. 1495.
1538(37) 0.000730 1347. 1493.
1455(36) 0.000772 1347. 1493.
1503(37) 0.000730 1347. 1494.
1545(37) 0.000730 1346. 1497.
1518(37) 0.000730 1346. 1501.
1505(37) 0.000730 1346. 1507.
1512(37) 0.000730 1346. 1514.
1500(37) 0.000730 1345. 1522.
1505(37) 0.000730 1345. 1531.
1554(37) 0.000730 1345. 1540.
1558(37) 0.000730 1344. 1549.
1522(37) 0.000730 1344. 1557.
1573(37) 0.000730 1344. 1565.
1497(36) 0.000772 1344. 1571.
1537(37) 0.000730 1343. 1576.
1534(37) 0.000730 1343. 1580.
1502(37) 0.000730 1343. 1581.
1536(37) 0.000730 1342. 1579.
1600(38) 0.000693 1342. 1576.
1618(38) 0.000693 1342. 1570.
1548(37) 0.000730 1342. 1563.
1550(37) 0.000730 1341. 1553.
1573(37) 0.000730 1341. 1543.
1562(37) 0.000730 1341. 1531.
1546(37) 0.000730 1341. 1519.
1465(36) 0.000772 1340. 1507.
1493(36) 0.000772 1340. 1496.
1491(36) 0.000772 1340. 1485.
1453(36) 0.000772 1339. 1476.
1426(36) 0.000772 1339. 1468.
1497(36) 0.000772 1339. 1461.
1466(36) 0.000772 1339. 1457.
1482(36) 0.000772 1338. 1455.
1505(37) 0.000730 1338. 1455.
1482(36) 0.000772 1338. 1457.
1410(35) 0.000816 1337.6 1460.3
1447(36) 0.000772 1337. 1466.
1451(36) 0.000772 1337. 1473.
1387(35) 0.000816 1336.8 1481.2
1479(36) 0.000772 1337. 1491.
1516(37) 0.000730 1336. 1501.
1579(37) 0.000730 1336. 1511.
1503(37) 0.000730 1336. 1522.
1507(37) 0.000730 1336. 1532.
1520(37) 0.000730 1335. 1542.
1514(37) 0.000730 1335. 1551.
1523(37) 0.000730 1335. 1559.
1561(37) 0.000730 1335. 1566.
1493(36) 0.000772 1334. 1571.
1538(37) 0.000730 1334. 1575.
1563(37) 0.000730 1334. 1578.
1629(38) 0.000693 1334. 1579.
1611(38) 0.000693 1333. 1578.
1570(37) 0.000730 1333. 1576.
1538(37) 0.000730 1333. 1573.
1559(37) 0.000730 1333. 1569.
1529(37) 0.000730 1332. 1563.
1503(37) 0.000730 1332. 1557.
1578(37) 0.000730 1332. 1550.
1642(38) 0.000693 1332. 1543.
1559(37) 0.000730 1331. 1536.
1529(37) 0.000730 1331. 1529.
1585(37) 0.000730 1331. 1522.
1527(37) 0.000730 1331. 1516.
1490(36) 0.000772 1330. 1511.
1501(37) 0.000730 1330. 1507.
1483(36) 0.000772 1330. 1504.
1539(37) 0.000730 1330. 1502.
1472(36) 0.000772 1330. 1502.
1437(36) 0.000772 1329. 1502.
1539(37) 0.000730 1329. 1503.
1531(36) 0.000772 1329. 1505.
1465(35) 0.000816 1328.6 1508.0
1433(35) 0.000816 1328.4 1511.7
1517(36) 0.000772 1328. 1516.
1530(36) 0.000772 1328. 1520.
1499(35) 0.000816 1327.7 1525.2
1517(36) 0.000772 1327. 1530.
1474(35) 0.000816 1327.3 1535.3
1484(35) 0.000816 1327.1 1540.4
1518(36) 0.000772 1327. 1545.
1597(37) 0.000730 1327. 1550.
1567(36) 0.000772 1326. 1554.
1668(37) 0.000730 1326. 1557.
1616(37) 0.000730 1326. 1560.
1583(36) 0.000772 1326. 1563.
1555(36) 0.000772 1326. 1564.
1560(36) 0.000772 1325. 1564.
1575(36) 0.000772 1325. 1564.
1637(37) 0.000730 1325. 1562.
1580(36) 0.000772 1325. 1560.
1602(37) 0.000730 1325. 1556.
1516(36) 0.000772 1324. 1551.
1536(36) 0.000772 1324. 1545.
1456(35) 0.000816 1324.0 1538.0
1502(35) 0.000816 1323.8 1530.1
1510(36) 0.000772 1324. 1521.
1546(36) 0.000772 1323. 1512.
1510(36) 0.000772 1323. 1503.
1515(36) 0.000772 1323. 1494.
1611(37) 0.000730 1323. 1485.
1503(36) 0.000772 1323. 1476.
1496(35) 0.000816 1322.4 1468.6
1519(36) 0.000772 1322. 1462.
1483(35) 0.000816 1322.0 1456.9
1428(35) 0.000816 1321.8 1453.4
1531(36) 0.000772 1322. 1452.
1438(35) 0.000816 1321.5 1451.6
1471(35) 0.000816 1321.3 1453.6
1543(36) 0.000772 1321. 1457.
1471(35) 0.000816 1320.9 1463.3
1482(35) 0.000816 1320.8 1470.9
1507(36) 0.000772 1321. 1480.
1505(36) 0.000772 1320. 1491.
1545(36) 0.000772 1320. 1503.
1452(35) 0.000816 1320.0 1515.8
1470(35) 0.000816 1319.9 1529.3
1567(36) 0.000772 1320. 1543.
1571(36) 0.000772 1320. 1557.
1528(36) 0.000772 1319. 1570.
1542(36) 0.000772 1319. 1582.
1609(37) 0.000730 1319. 1593.
1623(37) 0.000730 1319. 1603.
1605(37) 0.000730 1319. 1610.
1497(35) 0.000816 1318.5 1616.1
1593(36) 0.000772 1318. 1620.
1596(37) 0.000730 1318. 1621.
1595(37) 0.000730 1318. 1621.
1564(36) 0.000772 1318. 1619.
1619(37) 0.000730 1318. 1614.
1604(37) 0.000730 1318. 1609.
1642(37) 0.000730 1317. 1601.
1676(37) 0.000730 1317. 1593.
1596(37) 0.000730 1317. 1584.
1521(36) 0.000772 1317. 1574.
1565(36) 0.000772 1317. 1563.
1585(36) 0.000772 1317. 1552.
1537(36) 0.000772 1317. 1541.
1525(36) 0.000772 1316. 1531.
1473(35) 0.000816 1316.2 1520.0
1516(36) 0.000772 1316. 1510.
1503(36) 0.000772 1316. 1500.
1494(35) 0.000816 1315.8 1491.2
1493(35) 0.000816 1315.7 1483.0
1437(35) 0.000816 1315.5 1475.6
1440(35) 0.000816 1315.4 1468.9
1471(35) 0.000816 1315.2 1463.1
1433(35) 0.000816 1315.1 1458.1
1450(35) 0.000816 1315.0 1454.0
1458(35) 0.000816 1314.8 1450.6
1440(35) 0.000816 1314.7 1448.1
1416(35) 0.000816 1314.6 1446.3
1389(34) 0.000865 1314.4 1445.2
1499(35) 0.000816 1314.3 1444.8
1423(35) 0.000816 1314.2 1444.8
1470(35) 0.000816 1314.1 1445.3
1456(35) 0.000816 1313.9 1446.0
1426(35) 0.000816 1313.8 1447.1
1493(35) 0.000816 1313.7 1448.1
1470(35) 0.000816 1313.6 1449.2
1467(35) 0.000816 1313.4 1450.1
1444(35) 0.000816 1313.3 1450.8
1481(35) 0.000816 1313.2 1451.1
1504(36) 0.000772 1313. 1451.
1371(34) 0.000865 1313.0 1450.2
1514(36) 0.000772 1313. 1449.
1472(35) 0.000816 1312.7 1447.1
1410(34) 0.000865 1312.6 1444.7
1478(35) 0.000816 1312.5 1441.6
1451(35) 0.000816 1312.4 1438.2
1378(48) 0.000434 1312. 1434.
1395(34) 0.000865 1312.2 1429.9
1415(34) 0.000865 1312.1 1425.3
1378(33) 0.000918 1312.0 1420.4
1379(34) 0.000865 1311.9 1415.4
1416(34) 0.000865 1311.8 1410.3
1429(34) 0.000865 1311.7 1405.3
1412(34) 0.000865 1311.6 1400.5
1445(34) 0.000865 1311.5 1395.9
1413(34) 0.000865 1311.4 1391.6
1419(34) 0.000865 1311.3 1387.8
1394(34) 0.000865 1311.2 1384.5
1431(34) 0.000865 1311.1 1381.8
1407(34) 0.000865 1311.0 1379.7
1374(33) 0.000918 1310.9 1378.2
1381(34) 0.000865 1310.8 1377.5
1424(34) 0.000865 1310.7 1377.6
1421(34) 0.000865 1310.6 1378.3
1379(33) 0.000918 1310.5 1379.9
1379(33) 0.000918 1310.4 1382.3
1408(34) 0.000865 1310.3 1385.3
1410(34) 0.000865 1310.2 1389.2
1378(33) 0.000918 1310.2 1393.7
1445(34) 0.000865 1310.1 1399.0
1410(34) 0.000865 1310.0 1404.9
1428(34) 0.000865 1309.9 1411.4
1460(34) 0.000865 1309.8 1418.4
1443(34) 0.000865 1309.7 1425.9
1456(34) 0.000865 1309.7 1433.8
1437(34) 0.000865 1309.6 1442.0
1450(34) 0.000865 1309.5 1450.6
1474(35) 0.000816 1309.4 1459.4
1460(34) 0.000865 1309.3 1468.2
1443(34) 0.000865 1309.3 1477.1
1468(34) 0.000865 1309.2 1486.0
1481(35) 0.000816 1309.1 1494.7
1528(35) 0.000816 1309.0 1503.1
1555(35) 0.000816 1309.0 1511.3
1538(35) 0.000816 1308.9 1519.1
1508(35) 0.000816 1308.8 1526.3
1489(35) 0.000816 1308.8 1533.1
1497(35) 0.000816 1308.7 1539.2
1520(35) 0.000816 1308.6 1544.6
1536(35) 0.000816 1308.6 1549.3
1533(35) 0.000816 1308.5 1553.2
1527(35) 0.000816 1308.4 1556.2
1552(35) 0.000816 1308.4 1558.3
1560(36) 0.000772 1308. 1559.
1492(35) 0.000816 1308.2 1559.6
1545(35) 0.000816 1308.2 1558.8
1550(35) 0.000816 1308.1 1557.2
1534(35) 0.000816 1308.1 1554.6
1503(35) 0.000816 1308.0 1551.2
1514(35) 0.000816 1308.0 1547.0
1530(35) 0.000816 1307.9 1542.1
1520(35) 0.000816 1307.8 1536.5
1515(35) 0.000816 1307.8 1530.3
1556(35) 0.000816 1307.7 1523.7
1586(36) 0.000772 1308. 1517.
1521(35) 0.000816 1307.6 1509.5
1447(34) 0.000865 1307.6 1502.3
1472(35) 0.000816 1307.5 1495.1
1516(35) 0.000816 1307.5 1488.1
1507(35) 0.000816 1307.4 1481.4
1481(35) 0.000816 1307.4 1475.3
1466(34) 0.000865 1307.3 1469.8
1443(34) 0.000865 1307.3 1465.0
1471(35) 0.000816 1307.2 1461.1
1499(35) 0.000816 1307.2 1458.1
1430(34) 0.000865 1307.1 1456.2
1487(35) 0.000816 1307.1 1455.3
1512(35) 0.000816 1307.0 1455.5
1466(34) 0.000865 1307.0 1456.7
1411(34) 0.000865 1307.0 1459.0
1412(34) 0.000865 1306.9 1462.2
1477(35) 0.000816 1306.9 1466.3
1456(34) 0.000865 1306.8 1471.2
1452(34) 0.000865 1306.8 1476.7
1541(35) 0.000816 1306.8 1482.8
1525(35) 0.000816 1306.7 1489.2
1549(35) 0.000816 1306.7 1495.7
1477(35) 0.000816 1306.6 1502.3
1476(35) 0.000816 1306.6 1508.8
1498(35) 0.000816 1306.6 1514.9
1517(35) 0.000816 1306.5 1520.5
1534(35) 0.000816 1306.5 1525.5
1524(35) 0.000816 1306.5 1529.7
1528(35) 0.000816 1306.4 1532.9
1499(35) 0.000816 1306.4 1535.2
1500(35) 0.000816 1306.4 1536.4
1528(35) 0.000816 1306.3 1536.6
1517(35) 0.000816 1306.3 1535.7
1503(35) 0.000816 1306.3 1533.7
1543(35) 0.000816 1306.2 1530.8
1535(35) 0.000816 1306.2 1527.2
1513(35) 0.000816 1306.2 1522.9
1495(35) 0.000816 1306.1 1518.1
1518(35) 0.000816 1306.1 1513.1
1513(35) 0.000816 1306.1 1507.9
1526(35) 0.000816 1306.0 1502.9
1502(29) 0.001189 1306.0 1498.2
1468(35) 0.000816 1306.0 1494.0
1492(35) 0.000816 1306.0 1490.4
1537(35) 0.000816 1305.9 1487.5
1506(35) 0.000816 1305.9 1485.6
1510(35) 0.000816 1305.9 1484.7
1527(35) 0.000816 1305.8 1484.7
1519(35) 0.000816 1305.8 1485.9
1503(35) 0.000816 1305.8 1488.2
1493(35) 0.000816 1305.8 1491.6
1500(35) 0.000816 1305.7 1495.9
1509(35) 0.000816 1305.7 1501.2
1504(35) 0.000816 1305.7 1507.3
1528(35) 0.000816 1305.7 1514.0
1527(35) 0.000816 1305.6 1521.3
1540(35) 0.000816 1305.6 1529.0
1584(36) 0.000772 1306. 1537.
1565(36) 0.000772 1306. 1545.
1514(35) 0.000816 1305.6 1552.8
1595(36) 0.000772 1306. 1560.
1564(36) 0.000772 1306. 1567.
1549(35) 0.000816 1305.5 1573.9
1568(36) 0.000772 1305. 1580.
1521(35) 0.000816 1305.4 1584.6
1551(35) 0.000816 1305.4 1588.6
1587(36) 0.000772 1305. 1592.
1601(36) 0.000772 1305. 1594.
1638(36) 0.000772 1305. 1595.
1605(36) 0.000772 1305. 1595.
1590(36) 0.000772 1305. 1594.
1593(36) 0.000772 1305. 1592.
1566(36) 0.000772 1305. 1590.
1611(36) 0.000772 1305. 1587.
1583(36) 0.000772 1305. 1583.
1613(36) 0.000772 1305. 1579.
1573(36) 0.000772 1305. 1574.
1599(36) 0.000772 1305. 1570.
1596(36) 0.000772 1305. 1565.
1510(35) 0.000816 1305.1 1559.6
1482(35) 0.000816 1305.1 1554.5
1542(35) 0.000816 1305.1 1549.7
1595(36) 0.000772 1305. 1545.
1577(36) 0.000772 1305. 1541.
1508(35) 0.000816 1305.0 1536.4
1492(35) 0.000816 1305.0 1532.6
1527(35) 0.000816 1305.0 1529.2
1489(35) 0.000816 1305.0 1526.1
1506(35) 0.000816 1305.0 1523.4
1550(35) 0.000816 1304.9 1521.1
1513(35) 0.000816 1304.9 1519.2
1535(35) 0.000816 1304.9 1517.6
1547(35) 0.000816 1304.9 1516.5
1494(35) 0.000816 1304.9 1515.7
1543(35) 0.000816 1304.9 1515.2
1546(35) 0.000816 1304.8 1515.0
1516(35) 0.000816 1304.8 1515.0
1510(35) 0.000816 1304.8 1515.3
1580(36) 0.000772 1305. 1516.
1525(35) 0.000816 1304.8 1516.1
1509(35) 0.000816 1304.7 1516.7
1492(35) 0.000816 1304.7 1517.3
1464(35) 0.000816 1304.7 1517.8
1510(35) 0.000816 1304.7 1518.2
1513(35) 0.000816 1304.7 1518.5
1524(35) 0.000816 1304.6 1518.6
1513(35) 0.000816 1304.6 1518.4
1484(35) 0.000816 1304.6 1518.0
1534(35) 0.000816 1304.6 1517.2
1532(35) 0.000816 1304.6 1516.1
1504(35) 0.000816 1304.5 1514.5
1469(35) 0.000816 1304.5 1512.6
1489(35) 0.000816 1304.5 1510.2
1539(35) 0.000816 1304.5 1507.5
1480(35) 0.000816 1304.5 1504.3
1494(35) 0.000816 1304.4 1500.7
1490(35) 0.000816 1304.4 1496.7
1508(35) 0.000816 1304.4 1492.5
1512(35) 0.000816 1304.4 1487.9
1495(35) 0.000816 1304.4 1483.1
1446(34) 0.000865 1304.3 1478.0
1443(34) 0.000865 1304.3 1472.8
1459(34) 0.000865 1304.3 1467.6
1489(35) 0.000816 1304.3 1462.3
1486(35) 0.000816 1304.2 1457.0
1476(35) 0.000816 1304.2 1451.8
1464(35) 0.000816 1304.2 1446.7
1506(35) 0.000816 1304.2 1441.8
1464(35) 0.000816 1304.2 1437.2
1427(34) 0.000865 1304.1 1432.9
1397(34) 0.000865 1304.1 1429.0
1405(34) 0.000865 1304.1 1425.5
1427(34) 0.000865 1304.1 1422.4
1411(34) 0.000865 1304.1 1419.9
1385(34) 0.000865 1304.0 1417.8
1467(35) 0.000816 1304.0 1416.4
1446(34) 0.000865 1304.0 1415.5
1375(34) 0.000865 1304.0 1415.2
1439(34) 0.000865 1303.9 1415.5
1412(34) 0.000865 1303.9 1416.4
1398(34) 0.000865 1303.9 1418.0
1392(34) 0.000865 1303.9 1420.2
1406(35) 0.000816 1303.9 1423.0
1409(35) 0.000816 1303.8 1426.5
1403(35) 0.000816 1303.8 1430.5
1451(35) 0.000816 1303.8 1435.1
1415(35) 0.000816 1303.8 1440.3
1475(35) 0.000816 1303.7 1446.0
1453(35) 0.000816 1303.7 1452.2
1479(35) 0.000816 1303.7 1458.9
1488(36) 0.000772 1304. 1466.
1436(35) 0.000816 1303.6 1473.6
1457(35) 0.000816 1303.6 1481.5
1468(35) 0.000816 1303.6 1489.7
1487(36) 0.000772 1304. 1498.
1498(36) 0.000772 1304. 1507.
1479(35) 0.000816 1303.5 1515.8
1522(36) 0.000772 1304. 1525.
1516(36) 0.000772 1303. 1534.
1549(36) 0.000772 1303. 1543.
1545(36) 0.000772 1303. 1551.
1619(37) 0.000730 1303. 1560.
1521(36) 0.000772 1303. 1568.
1523(36) 0.000772 1303. 1576.
1551(36) 0.000772 1303. 1583.
1528(36) 0.000772 1303. 1590.
1550(36) 0.000772 1303. 1596.
1578(37) 0.000730 1303. 1601.
1592(37) 0.000730 1303. 1606.
1567(36) 0.000772 1303. 1610.
1559(36) 0.000772 1303. 1612.
1578(37) 0.000730 1303. 1614.
1572(36) 0.000772 1303. 1615.
1584(37) 0.000730 1303. 1614.
1549(36) 0.000772 1303. 1613.
1643(37) 0.000730 1303. 1610.
1599(37) 0.000730 1303. 1607.
1572(36) 0.000772 1303. 1602.
1587(37) 0.000730 1303. 1597.
1537(36) 0.000772 1303. 1591.
1602(37) 0.000730 1303. 1584.
1613(37) 0.000730 1303. 1577.
1611(37) 0.000730 1303. 1569.
1574(36) 0.000772 1303. 1561.
1549(36) 0.000772 1303. 1552.
1594(37) 0.000730 1303. 1544.
1564(36) 0.000772 1303. 1535.
1558(36) 0.000772 1303. 1526.
1509(36) 0.000772 1303. 1518.
1535(36) 0.000772 1303. 1510.
1516(36) 0.000772 1303. 1502.
1504(36) 0.000772 1303. 1495.
1489(36) 0.000772 1303. 1488.
1495(36) 0.000772 1303. 1482.
1458(35) 0.000816 1302.9 1476.5
1438(35) 0.000816 1302.9 1471.5
1454(35) 0.000816 1302.9 1467.3
1444(35) 0.000816 1302.9 1463.7
1445(35) 0.000816 1302.9 1460.8
1468(35) 0.000816 1302.9 1458.6
1473(35) 0.000816 1302.9 1457.0
1489(36) 0.000772 1303. 1456.
1471(35) 0.000816 1302.9 1455.6
1458(35) 0.000816 1302.9 1455.7
1460(35) 0.000816 1302.9 1456.4
1437(35) 0.000816 1302.9 1457.4
1445(35) 0.000816 1303.0 1458.7
1452(35) 0.000816 1303.0 1460.4
1443(35) 0.000816 1303.0 1462.2
1504(36) 0.000772 1303. 1464.
1471(35) 0.000816 1303.0 1466.3
1459(35) 0.000816 1303.0 1468.4
1459(35) 0.000816 1303.0 1470.5
1472(35) 0.000816 1303.1 1472.4
1468(35) 0.000816 1303.1 1474.1
1511(36) 0.000772 1303. 1476.
1522(36) 0.000772 1303. 1477.
1480(35) 0.000816 1303.2 1477.9
1493(36) 0.000772 1303. 1479.
1491(36) 0.000772 1303. 1479.
1475(35) 0.000816 1303.3 1478.7
1474(35) 0.000816 1303.3 1478.3
1493(36) 0.000772 1303. 1477.
1500(36) 0.000772 1303. 1476.
1501(36) 0.000772 1303. 1474.
1495(36) 0.000772 1303. 1472.
1479(35) 0.000816 1303.5 1470.1
1427(35) 0.000816 1303.6 1467.4
1491(36) 0.000772 1304. 1464.
1519(36) 0.000772 1304. 1461.
1465(35) 0.000816 1303.8 1457.5
1482(35) 0.000816 1303.8 1453.7
1513(36) 0.000772 1304. 1450.
1477(35) 0.000816 1304.0 1445.7
1456(35) 0.000816 1304.0 1441.6
1470(35) 0.000816 1304.1 1437.4
1496(36) 0.000772 1304. 1433.
1437(35) 0.000816 1304.3 1429.2
1419(35) 0.000816 1304.4 1425.2
1403(35) 0.000816 1304.5 1421.4
1433(35) 0.000816 1304.6 1417.7
1434(35) 0.000816 1304.7 1414.2
1460(35) 0.000816 1304.8 1411.0
1444(35) 0.000816 1304.9 1408.0
1438(35) 0.000816 1305.0 1405.3
1430(35) 0.000816 1305.1 1402.9
1428(35) 0.000816 1305.2 1400.8
1466(35) 0.000816 1305.3 1399.1
1445(35) 0.000816 1305.4 1397.7
1403(35) 0.000816 1305.6 1396.6
1378(34) 0.000865 1305.7 1395.8
1439(35) 0.000816 1305.9 1395.4
1446(35) 0.000816 1306.0 1395.3
1399(35) 0.000816 1306.1 1395.5
1389(35) 0.000816 1306.3 1396.0
1415(35) 0.000816 1306.5 1396.9
1398(35) 0.000816 1306.6 1397.9
1393(35) 0.000816 1306.8 1399.3
1413(35) 0.000816 1307.0 1400.9
1425(35) 0.000816 1307.1 1402.7
1389(35) 0.000816 1307.3 1404.7
1412(35) 0.000816 1307.5 1406.9
1408(35) 0.000816 1307.7 1409.2
1431(35) 0.000816 1307.9 1411.7
1434(35) 0.000816 1308.1 1414.3
1457(35) 0.000816 1308.3 1416.9
1445(35) 0.000816 1308.6 1419.6
1398(35) 0.000816 1308.8 1422.4
1414(35) 0.000816 1309.0 1425.1
1382(35) 0.000816 1309.3 1427.9
1384(35) 0.000816 1309.5 1430.6
1416(35) 0.000816 1309.8 1433.3
1431(35) 0.000816 1310.0 1436.0
1424(35) 0.000816 1310.3 1438.6
1387(35) 0.000816 1310.6 1441.0
1386(35) 0.000816 1310.9 1443.4
1393(35) 0.000816 1311.2 1445.7
1432(35) 0.000816 1311.5 1447.8
1405(35) 0.000816 1311.8 1449.8
1385(35) 0.000816 1312.1 1451.6
1404(35) 0.000816 1312.4 1453.3
1437(35) 0.000816 1312.7 1454.8
1372(34) 0.000865 1313.1 1456.1
1448(35) 0.000816 1313.4 1457.3
1449(35) 0.000816 1313.8 1458.3
1461(35) 0.000816 1314.1 1459.2
1488(36) 0.000772 1315. 1460.
1486(36) 0.000772 1315. 1460.
1423(35) 0.000816 1315.3 1460.8
1416(35) 0.000816 1315.7 1461.1
1443(35) 0.000816 1316.1 1461.2
1442(35) 0.000816 1316.5 1461.2
1467(35) 0.000816 1317.0 1461.1
1497(36) 0.000772 1317. 1461.
1465(35) 0.000816 1317.9 1460.7
1474(36) 0.000772 1318. 1460.
1452(35) 0.000816 1318.8 1459.9
1453(35) 0.000816 1319.3 1459.5
1485(36) 0.000772 1320. 1459.
1455(35) 0.000816 1320.3 1458.5
1418(35) 0.000816 1320.8 1458.0
1425(35) 0.000816 1321.3 1457.4
1454(35) 0.000816 1321.9 1456.9
1491(36) 0.000772 1322. 1456.
1493(36) 0.000772 1323. 1456.
1444(35) 0.000816 1323.6 1455.3
1445(35) 0.000816 1324.2 1454.8
1457(35) 0.000816 1324.8 1454.4
1464(35) 0.000816 1325.4 1454.0
1477(36) 0.000772 1326. 1454.
1454(35) 0.000816 1326.7 1453.4
1434(35) 0.000816 1327.3 1453.1
1467(35) 0.000816 1328.0 1452.9
1496(36) 0.000772 1329. 1453.
1455(35) 0.000816 1329.4 1452.7
1476(36) . . .
1499(36) . . .
1455(35) . . .
1480(36) . . .
1465(35) . . .
1473(36) . . .
1484(36) . . .
1483(36) . . .
1456(35) . . .
1451(35) . . .
1510(36) . . .
1511(36) . . .
1479(36) . . .
1469(35) . . .
1457(35) . . .
1496(36) . . .
1506(36) . . .
1497(36) . . .
1455(35) . . .
1485(36) . . .
1497(36) . . .
1443(35) . . .
1427(35) . . .
1415(35) . . .
1402(35) . . .
1442(35) . . .
1492(29) . . .
1468(35) . . .
1483(35) . . .
1501(36) . . .
1479(35) . . .
1469(35) . . .
1483(35) . . .
1482(35) . . .
1456(35) . . .
1442(35) . . .
1449(35) . . .
1501(36) . . .
1472(35) . . .
1440(35) . . .
1466(35) . . .
1498(36) . . .
1488(36) . . .
1469(35) . . .
1499(36) . . .
1504(36) . . .
1506(36) . . .
1479(35) . . .
1500(36) . . .
1509(36) . . .
1483(35) . . .
1492(36) . . .
1466(35) . . .
1494(36) . . .
1546(36) . . .
1545(36) . . .
1532(36) . . .
1514(36) . . .
1468(35) . . .
1448(35) . . .
1482(35) . . .
1480(35) . . .
1492(36) . . .
1501(36) . . .
1511(36) . . .
1517(36) . . .
1508(36) . . .
1497(36) . . .
1536(36) . . .
1547(36) . . .
1523(36) . . .
1536(36) . . .
1534(36) . . .
1513(36) . . .
1521(36) . . .
1540(36) . . .
1534(36) . . .
1512(36) . . .
1519(36) . . .
1522(36) . . .
1533(36) . . .
1530(36) . . .
1506(36) . . .
1504(36) . . .
1521(36) . . .
1564(36) . . .
1541(36) . . .
1519(36) . . .
1504(36) . . .
1494(36) . . .
1528(36) . . .
1575(36) . . .
1573(36) . . .
1586(37) . . .
1565(36) . . .
1575(36) . . .
1564(36) . . .
1553(36) . . .
1581(37) . . .
1552(36) . . .
1555(36) . . .
1553(36) . . .
1579(36) . . .
1562(36) . . .
1549(36) . . .
1564(36) . . .
1591(37) . . .
1585(37) . . .
1597(37) . . .
1553(36) . . .
1531(36) . . .
1538(36) . . .
1544(36) . . .
1553(36) . . .
1603(37) . . .
1603(37) . . .
1585(37) . . .
1572(36) . . .
1571(36) . . .
1588(37) . . .
1583(37) . . .
1552(36) . . .
1558(36) . . .
1589(37) . . .
1656(37) . . .
1647(37) . . .
1650(38) . . .
1650(38) . . .
1659(38) . . .
1681(38) . . .
1652(38) . . .
1664(38) . . .
1649(38) . . .
1655(38) . . .
1697(38) . . .
1730(39) . . .
1736(39) . . .
1718(39) . . .
1688(38) . . .
1707(38) . . .
1675(38) . . .
1679(38) . . .
1691(38) . . .
1708(38) . . .
1692(38) . . .
1687(38) . . .
1725(39) . . .
1705(38) . . .
1709(38) . . .
1760(39) . . .
1778(39) . . .
1784(39) . . .
1803(39) . . .
1803(39) . . .
1722(39) . . .
1735(39) . . .
1795(39) . . .
1824(40) . . .
1825(40) . . .
1850(40) . . .
1851(40) . . .
1815(40) . . .
1797(39) . . .
1802(39) . . .
1807(39) . . .
1819(40) . . .
1778(39) . . .
1849(40) . . .
1833(40) . . .
1850(40) . . .
1860(40) . . .
1873(40) . . .
1887(40) . . .
1894(40) . . .
1887(40) . . .
1841(40) . . .
1884(40) . . .
1954(41) . . .
1890(40) . . .
1911(40) . . .
1890(40) . . .
1951(41) . . .
1921(41) . . .
1924(41) . . .
1969(41) . . .
1964(41) . . .
1917(41) . . .
1924(41) . . .
1928(41) . . .
1946(41) . . .
1995(41) . . .
2001(41) . . .
1994(41) . . .
2012(41) . . .
1994(41) . . .
1958(41) . . .
1964(41) . . .
1994(41) . . .
1981(41) . . .
1969(41) . . .
1971(41) . . .
1997(41) . . .
1977(41) . . .
1981(41) . . .
2009(41) . . .
1975(41) . . .
2041(42) . . .
2036(42) . . .
1967(41) . . .
2004(41) . . .
2056(42) . . .
2028(42) . . .
2060(42) . . .
2055(42) . . .
2136(43) . . .
2037(42) . . .
2005(41) . . .
2013(41) . . .
2059(42) . . .
2058(42) . . .
2106(42) . . .
2050(42) . . .
2102(42) . . .
2086(42) . . .
2112(42) . . .
2134(43) . . .
2088(61) . . .
2130(61) . . .
2134(62) . . .
2064(61) . . .
2212(62) . . .
2271(63) . . .
2208(62) . . .
2148(62) . . .
2181(62) . . .
2198(62) . . .
2208(62) . . .
2254(63) . . .
2239(63) . . .
2233(63) . . .
2188(62) . . .
2272(63) . . .
2289(63) . . .
2322(64) . . .
2356(64) . . .
2344(64) . . .
2288(63) . . .
2265(63) . . .
2347(64) . . .
2284(63) . . .
2337(64) . . .
2351(64) . . .
2327(64) . . .
2443(65) . . .
2350(64) . . .
2372(64) . . .
2474(66) . . .
2473(66) . . .
2419(65) . . .
2434(65) . . .
2472(66) . . .
2348(64) . . .
2404(65) . . .
2379(65) . . .
2418(65) . . .
2439(65) . . .
2463(66) . . .
2385(65) . . .
2438(65) . . .
2443(65) . . .
2527(66) . . .
2445(65) . . .
2457(65) . . .
2536(66) . . .
2441(65) . . .
2520(66) . . .
2600(67) . . .
2562(67) . . .
2541(66) . . .
2480(66) . . .
2496(66) . . .
2616(67) . . .
2467(66) . . .
2511(66) . . .
2618(67) . . .
2607(67) . . .
2579(67) . . .
2657(68) . . .
2596(67) . . .
2566(67) . . .
2588(67) . . .
2552(67) . . .
2574(67) . . .
2647(68) . . .
2579(67) . . .
2506(66) . . .
2641(68) . . .
2588(67) . . .
2626(67) . . .
2732(69) . . .
2702(68) . . .
2560(67) . . .
2615(67) . . .
2678(68) . . .
2609(67) . . .
2671(68) . . .
2652(68) . . .
2628(67) . . .
2637(68) . . .
2644(68) . . .
2639(68) . . .
2761(69) . . .
2658(68) . . .
2719(68) . . .
2674(68) . . .
2690(68) . . .
2786(69) . . .
2666(68) . . .
2715(68) . . .
2714(68) . . .
2614(67) . . .
2694(68) . . .
2604(67) . . .
2635(68) . . .
2783(69) . . .
2754(69) . . .
loop_
_refln_index_h
_refln_index_k
_refln_index_l
_refln_observed_status
_refln_F_squared_meas
_refln_F_squared_calc
_refln_phase_calc
_refln_d_spacing
_gsas_i100_meas
1 1 0 o 0.000 0.152 0.00 12.63858 0.00
1 1 1 o 2660.740 2674.464 0.00 10.31936 100.00
2 0 0 o 281.796 220.939 0.00 8.93682 5.97
2 1 1 o 0.000 0.071 180.00 7.29689 0.00
2 2 0 o 49.859 78.919 180.00 6.31929 1.06
2 2 1 o 0.000 1.101 0.00 5.95788 0.00
3 0 1 o 0.000 0.001 180.00 5.65214 0.00
3 1 0 o 0.000 0.027 0.00 5.65214 0.00
3 1 1 o 281.920 268.302 180.00 5.38911 8.79
2 2 2 o 151.408 243.825 0.00 5.15968 1.44
3 1 2 o 64.272 61.688 0.00 4.77693 1.58
3 2 1 o 38.070 36.539 180.00 4.77693 0.94
4 0 0 o 593.015 615.027 0.00 4.46841 3.21
3 2 2 o 2.871 1.011 180.00 4.33500 0.06
4 1 1 o 11.295 2.935 180.00 4.21286 0.22
3 3 0 o 3.944 1.025 0.00 4.21286 0.04
3 3 1 o 23.022 35.270 180.00 4.10050 0.42
4 0 2 o 305.890 270.640 180.00 3.99667 2.67
4 2 0 o 677.462 599.393 180.00 3.99667 5.90
4 1 2 o 4.464 1.160 0.00 3.90035 0.07
4 2 1 o 9.534 2.477 180.00 3.90035 0.16
3 3 2 o 0.000 0.000 0.00 3.81067 0.00
4 2 2 o 47.726 20.751 0.00 3.64844 0.70
5 1 0 o 295.209 270.772 180.00 3.50531 2.00
5 0 1 o 177.419 162.733 0.00 3.50531 1.20
4 3 1 o 17.791 16.318 0.00 3.50531 0.24
4 1 3 o 12.861 11.796 180.00 3.50531 0.17
3 3 3 o 1621.194 1543.163 0.00 3.43979 7.07
5 1 1 o 330.476 314.569 0.00 3.43979 4.32
4 2 3 o 97.181 80.463 0.00 3.31905 1.19
4 3 2 o 54.446 45.080 180.00 3.31905 0.67
5 1 2 o 15.623 3.662 0.00 3.26327 0.18
5 2 1 o 0.123 0.029 180.00 3.26327 0.00
4 4 0 o 59.681 25.332 0.00 3.15964 0.33
4 4 1 o 0.244 0.117 0.00 3.11140 0.00
5 2 2 o 7.106 3.420 180.00 3.11140 0.08
4 3 3 o 0.399 0.378 180.00 3.06531 0.00
5 0 3 o 54.641 51.747 180.00 3.06531 0.29
5 3 0 o 27.069 25.635 0.00 3.06531 0.14
5 1 3 o 178.083 182.771 180.00 3.02120 1.82
5 3 1 o 188.556 193.520 180.00 3.02120 1.93
4 4 2 o 33.083 36.165 180.00 2.97894 0.33
6 0 0 o 395.210 432.027 0.00 2.97894 0.99
5 2 3 o 4.941 5.225 0.00 2.89949 0.05
5 3 2 o 3.588 3.794 180.00 2.89949 0.03
6 1 1 o 39.446 41.712 180.00 2.89949 0.37
6 2 0 o 66.190 69.066 180.00 2.82607 0.30
6 0 2 o 128.512 134.095 180.00 2.82607 0.58
4 4 3 o 1.386 1.957 180.00 2.79139 0.01
6 2 1 o 34.413 48.597 180.00 2.79139 0.30
6 1 2 o 29.592 41.789 0.00 2.79139 0.26
5 4 1 o 0.823 1.462 0.00 2.75796 0.01
5 1 4 o 12.565 22.321 180.00 2.75796 0.11
5 3 3 o 30.732 60.440 180.00 2.72571 0.26
6 2 2 o 44.185 91.843 0.00 2.69455 0.37
5 4 2 o 0.463 1.016 180.00 2.66445 0.00
5 2 4 o 7.376 16.199 0.00 2.66445 0.06
6 3 1 o 30.042 67.593 0.00 2.63533 0.24
6 1 3 o 4.164 9.368 180.00 2.63533 0.03
4 4 4 o 13.014 116.227 180.00 2.57984 0.03
6 3 2 o 0.000 8.300 180.00 2.55338 0.00
6 2 3 o 0.000 5.567 0.00 2.55338 0.00
5 5 0 o 0.578 0.954 0.00 2.52772 0.00
5 4 3 o 0.841 1.388 0.00 2.52772 0.01
7 1 0 o 44.204 72.925 180.00 2.52772 0.16
7 0 1 o 31.382 51.772 0.00 2.52772 0.12
5 3 4 o 11.556 19.065 180.00 2.52772 0.09
5 5 1 o 272.254 285.805 0.00 2.50281 1.97
7 1 1 o 25.001 26.245 180.00 2.50281 0.18
6 0 4 o 106.676 140.140 180.00 2.47863 0.38
6 4 0 o 3.276 4.303 180.00 2.47863 0.01
6 4 1 o 69.670 84.214 0.00 2.45513 0.49
6 1 4 o 101.150 122.266 180.00 2.45513 0.71
5 5 2 o 0.807 1.017 0.00 2.43230 0.01
6 3 3 o 2.136 2.690 0.00 2.43230 0.01
7 1 2 o 128.273 161.515 0.00 2.43230 0.88
7 2 1 o 42.797 53.888 180.00 2.43230 0.29
6 2 4 o 0.227 0.442 0.00 2.38847 0.00
6 4 2 o 14.139 27.582 180.00 2.38847 0.09
7 2 2 o 38.004 24.272 180.00 2.36742 0.25
5 4 4 o 10.127 6.468 180.00 2.36742 0.07
7 3 0 o 0.219 0.367 0.00 2.34693 0.00
7 0 3 o 27.146 45.508 180.00 2.34693 0.09
5 5 3 o 1058.500 1011.922 180.00 2.32695 6.75
7 1 3 o 159.906 152.870 180.00 2.32695 1.02
7 3 1 o 142.707 136.427 180.00 2.32695 0.91
6 4 3 o 132.384 121.818 180.00 2.28849 0.82
6 3 4 o 156.782 144.269 0.00 2.28849 0.97
6 1 5 o 129.197 106.963 0.00 2.26996 0.79
6 5 1 o 15.138 12.533 180.00 2.26996 0.09
7 3 2 o 2.330 1.929 0.00 2.26996 0.01
7 2 3 o 1.136 0.941 0.00 2.26996 0.01
8 0 0 o 650.633 516.093 0.00 2.23421 0.97
6 2 5 o 271.154 234.805 180.00 2.21695 1.59
6 5 2 o 192.723 166.887 0.00 2.21695 1.13
8 1 1 o 90.494 70.195 180.00 2.20009 0.52
7 1 4 o 17.329 13.442 0.00 2.20009 0.10
7 4 1 o 13.474 10.452 180.00 2.20009 0.08
5 5 4 o 3.036 2.355 180.00 2.20009 0.02
7 3 3 o 122.853 126.038 0.00 2.18361 0.70
8 2 0 o 435.511 422.867 180.00 2.16750 1.23
8 0 2 o 359.088 348.663 180.00 2.16750 1.01
6 4 4 o 1028.642 998.779 180.00 2.16750 5.80
8 1 2 o 4.642 3.814 0.00 2.15173 0.03
8 2 1 o 3.930 3.229 180.00 2.15173 0.02
7 2 4 o 69.387 57.013 0.00 2.15173 0.39
7 4 2 o 106.735 87.701 0.00 2.15173 0.59
6 5 3 o 120.789 75.604 180.00 2.13631 0.66
6 3 5 o 201.946 126.401 0.00 2.13631 1.11
8 2 2 o 202.208 177.503 180.00 2.10643 1.09
6 6 0 o 1202.552 1055.632 0.00 2.10643 3.23
6 6 1 o 10.932 10.199 0.00 2.09195 0.06
7 0 5 o 108.585 92.555 180.00 2.07777 0.29
8 3 1 o 5.806 4.949 0.00 2.07777 0.03
8 1 3 o 12.977 11.062 180.00 2.07777 0.07
7 4 3 o 66.565 56.739 0.00 2.07777 0.35
7 5 0 o 84.752 72.241 0.00 2.07777 0.22
7 3 4 o 126.234 107.599 180.00 2.07777 0.66
5 5 5 o 1121.527 1099.918 180.00 2.06387 1.94
7 5 1 o 648.173 635.684 0.00 2.06387 3.37
7 1 5 o 496.593 487.025 0.00 2.06387 2.58
6 6 2 o 530.298 537.028 0.00 2.05025 2.72
6 4 5 o 143.865 143.897 180.00 2.03689 0.73
8 3 2 o 104.777 104.801 180.00 2.03689 0.53
8 2 3 o 161.131 161.167 0.00 2.03689 0.82
6 5 4 o 21.979 21.984 0.00 2.03689 0.11
7 2 5 o 25.323 22.683 180.00 2.02379 0.13
7 5 2 o 57.974 51.929 0.00 2.02379 0.29
8 4 0 o 211.933 209.649 0.00 1.99833 0.52
8 0 4 o 157.385 155.689 0.00 1.99833 0.39
6 6 3 o 0.122 0.117 0.00 1.98596 0.00
7 4 4 o 1.847 1.762 0.00 1.98596 0.01
8 4 1 o 131.994 125.943 0.00 1.98596 0.64
8 1 4 o 140.170 133.744 180.00 1.98596 0.68
9 1 0 o 823.437 751.407 180.00 1.97381 1.99
9 0 1 o 696.576 635.643 0.00 1.97381 1.68
8 3 3 o 29.911 27.295 0.00 1.97381 0.14
7 5 3 o 28.156 28.824 0.00 1.96189 0.13
7 3 5 o 13.586 13.908 0.00 1.96189 0.06
9 1 1 o 16.128 16.511 0.00 1.96189 0.08
8 4 2 o 16.613 18.478 0.00 1.95017 0.08
8 2 4 o 9.395 10.450 0.00 1.95017 0.04
7 1 6 o 17.581 25.394 0.00 1.92737 0.08
7 6 1 o 1.962 2.834 0.00 1.92737 0.01
9 2 1 o 21.973 31.737 0.00 1.92737 0.10
6 5 5 o 6.281 9.072 180.00 1.92737 0.03
9 1 2 o 16.879 24.379 180.00 1.92737 0.08
6 6 4 o 139.556 186.981 180.00 1.90534 0.64
9 2 2 o 59.707 67.669 180.00 1.89460 0.27
8 4 3 o 0.193 0.219 180.00 1.89460 0.00
7 2 6 o 54.260 61.495 0.00 1.89460 0.25
7 6 2 o 20.284 22.989 180.00 1.89460 0.09
8 3 4 o 10.620 12.036 0.00 1.89460 0.05
8 1 5 o 5.829 5.734 0.00 1.88405 0.03
8 5 1 o 43.555 42.849 180.00 1.88405 0.20
7 4 5 o 39.587 38.946 0.00 1.88405 0.18
9 3 0 o 272.089 267.678 0.00 1.88405 0.61
9 0 3 o 74.527 73.319 180.00 1.88405 0.17
7 5 4 o 108.168 106.414 180.00 1.88405 0.48
9 1 3 o 95.376 97.959 180.00 1.87367 0.42
9 3 1 o 110.250 113.235 180.00 1.87367 0.49
8 2 5 o 0.001 0.002 180.00 1.85341 0.00
8 5 2 o 0.052 0.094 180.00 1.85341 0.00
9 2 3 o 75.705 79.004 180.00 1.84353 0.33
7 6 3 o 48.402 50.512 0.00 1.84353 0.21
9 3 2 o 44.059 45.979 0.00 1.84353 0.19
7 3 6 o 164.600 171.772 180.00 1.84353 0.71
8 4 4 o 334.160 329.605 0.00 1.82422 1.43
6 6 5 o 0.563 1.165 0.00 1.81479 0.00
8 3 5 o 7.293 9.395 0.00 1.80551 0.03
7 7 0 o 1.063 1.370 180.00 1.80551 0.00
8 5 3 o 51.315 66.111 0.00 1.80551 0.22
9 4 1 o 6.307 8.126 0.00 1.80551 0.03
9 1 4 o 48.336 62.274 180.00 1.80551 0.20
9 3 3 o 63.061 63.079 0.00 1.79637 0.26
7 7 1 o 231.579 231.645 0.00 1.79637 0.97
7 5 5 o 12.558 12.561 0.00 1.79637 0.05
8 6 0 o 126.825 143.321 0.00 1.78736 0.26
10 0 0 o 798.505 902.361 0.00 1.78736 0.83
8 0 6 o 474.063 535.721 0.00 1.78736 0.98
8 1 6 o 0.509 0.722 180.00 1.77849 0.00
7 4 6 o 0.198 0.281 180.00 1.77849 0.00
7 6 4 o 0.297 0.422 180.00 1.77849 0.00
9 2 4 o 0.817 1.160 0.00 1.77849 0.00
8 6 1 o 1.001 1.420 0.00 1.77849 0.00
9 4 2 o 27.188 38.598 0.00 1.77849 0.11
7 7 2 o 25.268 28.793 0.00 1.76975 0.10
10 1 1 o 75.052 85.523 180.00 1.76975 0.31
10 2 0 o 48.635 51.292 180.00 1.75266 0.10
10 0 2 o 1.995 2.104 0.00 1.75266 0.00
8 2 6 o 121.304 127.930 0.00 1.75266 0.49
8 6 2 o 251.207 264.929 0.00 1.75266 1.01
8 5 4 o 5.279 5.695 180.00 1.74429 0.02
10 1 2 o 392.463 423.432 0.00 1.74429 1.57
10 2 1 o 302.521 326.392 180.00 1.74429 1.21
8 4 5 o 0.025 0.027 180.00 1.74429 0.00
9 0 5 o 9.863 10.227 0.00 1.73604 0.02
9 5 0 o 54.040 56.037 0.00 1.73604 0.11
9 3 4 o 229.334 237.807 0.00 1.73604 0.91
9 4 3 o 98.850 102.502 180.00 1.73604 0.39
7 7 3 o 66.598 74.129 0.00 1.72791 0.26
9 1 5 o 42.949 47.806 0.00 1.72791 0.17
9 5 1 o 0.074 0.082 180.00 1.72791 0.00
10 2 2 o 2.203 3.265 180.00 1.71989 0.01
6 6 6 o 159.853 236.926 0.00 1.71989 0.21
8 6 3 o 0.124 1.261 0.00 1.71199 0.00
8 3 6 o 1.225 12.425 180.00 1.71199 0.00
10 3 1 o 30.709 32.344 0.00 1.70419 0.12
7 6 5 o 21.782 22.942 180.00 1.70419 0.08
10 1 3 o 0.312 0.328 180.00 1.70419 0.00
9 5 2 o 1.000 1.053 180.00 1.70419 0.00
9 2 5 o 32.277 33.996 180.00 1.70419 0.12
7 5 6 o 21.688 22.844 0.00 1.70419 0.08
10 3 2 o 2.063 2.658 180.00 1.68141 0.01
9 4 4 o 5.394 6.949 0.00 1.68141 0.02
10 2 3 o 0.340 0.439 0.00 1.68141 0.00
8 5 5 o 3.152 4.123 180.00 1.67402 0.01
8 1 7 o 0.001 0.002 0.00 1.67402 0.00
7 7 4 o 0.787 1.030 0.00 1.67402 0.00
8 7 1 o 0.471 0.617 180.00 1.67402 0.00
9 5 3 o 41.420 66.951 180.00 1.66673 0.16
9 3 5 o 47.132 76.184 180.00 1.66673 0.18
8 4 6 o 48.272 46.741 0.00 1.65953 0.18
8 6 4 o 29.676 28.734 0.00 1.65953 0.11
10 0 4 o 65.567 63.488 180.00 1.65953 0.12
10 4 0 o 159.063 154.018 180.00 1.65953 0.30
10 4 1 o 251.783 247.919 0.00 1.65242 0.93
8 2 7 o 15.302 15.067 0.00 1.65242 0.06
10 1 4 o 130.967 128.957 180.00 1.65242 0.48
8 7 2 o 0.562 0.553 180.00 1.65242 0.00
9 6 1 o 23.869 20.915 0.00 1.64540 0.09
10 3 3 o 25.353 22.215 180.00 1.64540 0.09
9 1 6 o 23.212 20.339 180.00 1.64540 0.09
10 4 2 o 209.983 181.851 180.00 1.63163 0.76
10 2 4 o 139.266 120.608 180.00 1.63163 0.51
7 6 6 o 1.560 1.976 0.00 1.62488 0.01
9 6 2 o 57.754 73.176 180.00 1.62488 0.21
9 2 6 o 0.063 0.080 0.00 1.62488 0.00
8 7 3 o 1.915 1.937 0.00 1.61820 0.01
11 0 1 o 332.747 336.635 0.00 1.61820 0.60
11 1 0 o 373.217 377.578 180.00 1.61820 0.67
8 3 7 o 4.347 4.398 180.00 1.61820 0.02
9 5 4 o 0.011 0.011 180.00 1.61820 0.00
9 4 5 o 0.405 0.410 0.00 1.61820 0.00
7 7 5 o 192.082 215.601 0.00 1.61161 0.69
11 1 1 o 171.750 192.776 0.00 1.61161 0.61
8 5 6 o 108.262 80.659 180.00 1.59867 0.38
8 6 5 o 14.528 10.824 0.00 1.59867 0.05
10 3 4 o 33.219 24.749 180.00 1.59867 0.12
10 4 3 o 1.151 0.858 0.00 1.59867 0.00
10 1 5 o 60.236 52.925 0.00 1.59231 0.21
11 1 2 o 11.565 10.162 0.00 1.59231 0.04
10 5 1 o 11.085 9.739 180.00 1.59231 0.04
9 3 6 o 28.162 24.744 0.00 1.59231 0.10
9 6 3 o 11.371 9.991 180.00 1.59231 0.04
11 2 1 o 9.402 8.261 0.00 1.59231 0.03
8 8 0 o 162.813 118.172 0.00 1.57982 0.28
8 8 1 o 5.221 5.871 0.00 1.57369 0.02
10 2 5 o 112.132 126.089 180.00 1.57369 0.39
11 2 2 o 76.164 85.645 180.00 1.57369 0.26
8 4 7 o 13.016 14.636 0.00 1.57369 0.05
8 7 4 o 0.045 0.050 0.00 1.57369 0.00
10 5 2 o 62.527 70.310 0.00 1.57369 0.22
11 0 3 o 29.316 30.039 0.00 1.56762 0.05
11 3 0 o 48.542 49.737 180.00 1.56762 0.08
9 7 0 o 133.655 136.947 0.00 1.56762 0.23
9 0 7 o 8.825 9.042 180.00 1.56762 0.02
11 1 3 o 325.452 307.844 180.00 1.56163 1.12
11 3 1 o 411.390 389.132 180.00 1.56163 1.42
9 5 5 o 125.345 118.563 180.00 1.56163 0.43
9 7 1 o 122.885 116.237 0.00 1.56163 0.42
9 1 7 o 92.552 87.544 0.00 1.56163 0.32
9 4 6 o 0.742 0.898 0.00 1.54984 0.00
9 6 4 o 4.893 5.922 180.00 1.54984 0.02
10 4 4 o 443.883 455.867 180.00 1.55570 1.52
8 8 2 o 37.454 38.465 180.00 1.55570 0.13
7 7 6 o 0.232 0.236 180.00 1.54405 0.00
9 2 7 o 28.563 29.071 180.00 1.54405 0.10
9 7 2 o 9.184 9.348 180.00 1.54405 0.03
10 3 5 o 3.509 3.572 0.00 1.54405 0.01
11 3 2 o 53.259 54.207 180.00 1.54405 0.18
10 5 3 o 0.259 0.263 180.00 1.54405 0.00
11 2 3 o 138.287 140.748 0.00 1.54405 0.47
10 0 6 o 28.270 22.791 0.00 1.53265 0.05
10 6 0 o 2.159 1.741 0.00 1.53265 0.00
8 6 6 o 124.028 99.990 0.00 1.53265 0.42
10 1 6 o 20.586 18.747 0.00 1.52705 0.07
8 8 3 o 10.086 9.185 0.00 1.52705 0.03
10 6 1 o 1.681 1.531 0.00 1.52705 0.01
8 5 7 o 0.023 0.022 0.00 1.52151 0.00
11 1 4 o 5.322 5.172 180.00 1.52151 0.02
8 7 5 o 6.244 6.068 0.00 1.52151 0.02
11 4 1 o 14.646 14.233 180.00 1.52151 0.05
9 3 7 o 28.889 25.047 0.00 1.51602 0.10
11 3 3 o 808.519 700.992 180.00 1.51602 2.69
9 7 3 o 101.968 88.407 0.00 1.51602 0.34
10 2 6 o 42.354 37.452 180.00 1.51060 0.14
10 6 2 o 0.017 0.015 180.00 1.51060 0.00
10 5 4 o 14.184 14.492 180.00 1.50523 0.05
11 4 2 o 51.117 52.227 0.00 1.50523 0.17
11 2 4 o 129.642 132.457 0.00 1.50523 0.43
10 4 5 o 27.162 27.751 0.00 1.50523 0.09
9 5 6 o 1.026 0.773 0.00 1.49992 0.00
9 6 5 o 27.249 20.540 180.00 1.49992 0.09
8 8 4 o 27.919 29.473 0.00 1.48947 0.09
12 0 0 o 300.508 317.231 0.00 1.48947 0.25
10 3 6 o 112.793 119.466 180.00 1.48433 0.37
10 6 3 o 13.612 14.418 0.00 1.48433 0.04
9 4 7 o 179.976 177.866 180.00 1.47923 0.58
9 7 4 o 187.680 185.478 0.00 1.47923 0.61
11 4 3 o 25.109 24.814 0.00 1.47923 0.08
11 5 0 o 217.880 215.325 0.00 1.47923 0.35
11 3 4 o 176.282 174.215 180.00 1.47923 0.57
9 8 1 o 15.801 15.616 0.00 1.47923 0.05
11 0 5 o 190.712 188.475 180.00 1.47923 0.31
9 1 8 o 215.960 213.427 180.00 1.47923 0.70
12 1 1 o 294.443 290.989 180.00 1.47923 0.95
11 5 1 o 118.219 104.117 0.00 1.47419 0.38
11 1 5 o 24.585 21.652 0.00 1.47419 0.08
7 7 7 o 18.806 16.562 180.00 1.47419 0.02
12 0 2 o 187.709 158.638 180.00 1.46920 0.30
12 2 0 o 25.001 21.129 180.00 1.46920 0.04
8 7 6 o 0.212 0.198 0.00 1.46427 0.00
12 1 2 o 178.803 166.455 0.00 1.46427 0.57
9 8 2 o 7.819 7.279 180.00 1.46427 0.03
12 2 1 o 79.014 73.557 180.00 1.46427 0.25
9 2 8 o 0.790 0.736 0.00 1.46427 0.00
8 6 7 o 27.908 25.981 180.00 1.46427 0.09
10 5 5 o 0.000 0.000 180.00 1.45938 0.00
10 1 7 o 83.247 76.312 0.00 1.45938 0.27
11 2 5 o 82.916 76.009 180.00 1.45938 0.26
11 5 2 o 303.822 278.512 0.00 1.45938 0.97
10 7 1 o 2.476 2.270 0.00 1.45938 0.01
10 4 6 o 514.734 505.535 180.00 1.44974 1.63
10 6 4 o 201.337 197.739 180.00 1.44974 0.64
12 2 2 o 125.582 123.338 180.00 1.44974 0.40
9 8 3 o 4.087 4.342 0.00 1.44030 0.01
9 3 8 o 76.672 81.460 0.00 1.44030 0.24
12 3 1 o 31.347 33.305 0.00 1.44030 0.10
12 1 3 o 0.044 0.047 180.00 1.44030 0.00
10 2 7 o 64.342 64.203 180.00 1.44500 0.20
10 7 2 o 73.713 73.554 0.00 1.44500 0.23
9 6 6 o 6.797 6.783 0.00 1.44500 0.02
8 8 5 o 6.052 6.039 0.00 1.44500 0.02
11 4 4 o 49.672 49.565 180.00 1.44500 0.16
9 7 5 o 0.086 0.090 180.00 1.43565 0.00
11 3 5 o 277.978 293.284 180.00 1.43565 0.87
9 5 7 o 52.747 55.652 180.00 1.43565 0.17
11 5 3 o 149.640 157.879 180.00 1.43565 0.47
12 2 3 o 2.099 1.947 0.00 1.42647 0.01
12 3 2 o 0.839 0.778 180.00 1.42647 0.00
11 1 6 o 10.013 8.914 180.00 1.42195 0.03
11 6 1 o 35.897 31.956 0.00 1.42195 0.11
10 3 7 o 2.536 2.257 180.00 1.42195 0.01
10 7 3 o 293.055 260.883 180.00 1.42195 0.91
12 4 0 o 29.531 30.790 0.00 1.41304 0.05
12 0 4 o 90.495 94.355 180.00 1.41304 0.14
10 5 6 o 7.441 7.614 0.00 1.40864 0.02
11 2 6 o 64.504 66.003 0.00 1.40864 0.20
9 4 8 o 20.325 20.798 0.00 1.40864 0.06
12 4 1 o 87.878 89.920 0.00 1.40864 0.27
11 6 2 o 102.115 104.488 180.00 1.40864 0.32
9 8 4 o 5.890 6.026 0.00 1.40864 0.02
10 6 5 o 20.885 21.370 0.00 1.40864 0.06
12 1 4 o 112.759 115.379 180.00 1.40864 0.35
9 9 0 o 374.146 380.570 0.00 1.40429 0.58
12 3 3 o 11.332 11.526 0.00 1.40429 0.03
8 7 7 o 12.740 12.959 0.00 1.40429 0.04
11 5 4 o 15.422 15.687 0.00 1.40429 0.05
11 4 5 o 31.369 31.907 180.00 1.40429 0.10
9 9 1 o 199.110 199.692 0.00 1.39997 0.61
10 0 8 o 301.200 289.912 0.00 1.39570 0.46
8 8 6 o 77.208 74.314 180.00 1.39570 0.24
10 8 0 o 1095.351 1054.302 0.00 1.39570 1.68
12 4 2 o 89.176 85.834 180.00 1.39570 0.27
12 2 4 o 30.957 29.796 180.00 1.39570 0.10
10 7 4 o 38.630 35.387 180.00 1.39146 0.12
10 8 1 o 179.039 164.004 0.00 1.39146 0.55
10 1 8 o 77.176 70.696 180.00 1.39146 0.24
10 4 7 o 4.836 4.430 0.00 1.39146 0.01
11 3 6 o 183.050 178.904 180.00 1.38726 0.56
9 9 2 o 68.951 67.389 180.00 1.38726 0.21
11 6 3 o 146.797 143.472 0.00 1.38726 0.45
9 6 7 o 36.047 35.231 180.00 1.38726 0.11
9 7 6 o 1.924 1.880 180.00 1.38726 0.01
10 2 8 o 396.494 413.832 0.00 1.37898 1.21
10 8 2 o 73.091 76.287 0.00 1.37898 0.22
12 3 4 o 86.541 92.111 0.00 1.37490 0.26
12 4 3 o 25.748 27.405 180.00 1.37490 0.08
9 5 8 o 83.039 88.063 180.00 1.37085 0.25
11 0 7 o 9.273 9.834 0.00 1.37085 0.01
11 7 0 o 34.000 36.058 180.00 1.37085 0.05
9 8 5 o 34.624 36.719 0.00 1.37085 0.11
12 1 5 o 38.729 41.072 0.00 1.37085 0.12
12 5 1 o 4.196 4.450 180.00 1.37085 0.01
13 1 0 o 142.831 151.473 180.00 1.37085 0.22
13 0 1 o 200.538 212.672 0.00 1.37085 0.30
10 6 6 o 114.239 103.767 180.00 1.36285 0.35
11 5 5 o 2.313 2.069 180.00 1.36683 0.01
11 7 1 o 23.212 20.755 0.00 1.36683 0.07
11 1 7 o 37.151 33.219 0.00 1.36683 0.11
13 1 1 o 3.193 2.855 180.00 1.36683 0.01
9 9 3 o 5.388 4.818 0.00 1.36683 0.02
10 8 3 o 0.614 0.628 0.00 1.35891 0.00
10 3 8 o 250.486 256.212 180.00 1.35891 0.76
11 4 6 o 41.110 42.050 180.00 1.35891 0.12
11 6 4 o 2.356 2.410 0.00 1.35891 0.01
12 2 5 o 84.178 86.103 180.00 1.35891 0.25
12 5 2 o 7.358 7.526 0.00 1.35891 0.02
10 7 5 o 0.552 0.534 0.00 1.35500 0.00
11 2 7 o 31.843 30.828 0.00 1.35500 0.10
10 5 7 o 22.936 22.205 0.00 1.35500 0.07
13 2 1 o 5.765 5.581 0.00 1.35500 0.02
11 7 2 o 29.510 28.569 180.00 1.35500 0.09
13 1 2 o 64.769 62.705 0.00 1.35500 0.20
12 4 4 o 4.343 7.032 180.00 1.34728 0.01
8 8 7 o 0.023 0.033 0.00 1.34347 0.00
13 2 2 o 91.864 129.905 180.00 1.34347 0.28
13 3 0 o 42.421 45.985 0.00 1.33969 0.06
13 0 3 o 60.312 65.379 180.00 1.33969 0.09
12 5 3 o 0.723 0.784 0.00 1.33969 0.00
9 9 4 o 53.077 57.535 0.00 1.33969 0.16
12 3 5 o 3.263 3.537 0.00 1.33969 0.01
11 3 7 o 88.551 90.306 180.00 1.33594 0.26
13 1 3 o 1.193 1.217 0.00 1.33594 0.00
9 7 7 o 3.499 3.569 180.00 1.33594 0.01
13 3 1 o 4.567 4.658 0.00 1.33594 0.01
11 7 3 o 214.458 218.709 180.00 1.33594 0.64
10 8 4 o 35.365 41.445 0.00 1.33222 0.11
10 4 8 o 1.171 1.372 0.00 1.33222 0.00
12 0 6 o 100.648 117.952 0.00 1.33222 0.15
12 6 0 o 36.340 42.587 0.00 1.33222 0.05
9 8 6 o 20.864 24.129 180.00 1.32854 0.06
12 6 1 o 0.739 0.854 180.00 1.32854 0.00
9 6 8 o 1.872 2.165 180.00 1.32854 0.01
12 1 6 o 7.719 8.927 0.00 1.32854 0.02
10 9 1 o 10.331 10.225 180.00 1.32488 0.03
10 1 9 o 123.887 122.620 0.00 1.32488 0.37
11 6 5 o 52.977 52.435 180.00 1.32488 0.16
13 3 2 o 0.723 0.716 0.00 1.32488 0.00
13 2 3 o 0.466 0.461 0.00 1.32488 0.00
11 5 6 o 235.418 233.011 0.00 1.32488 0.70
12 2 6 o 10.914 12.435 0.00 1.31766 0.03
12 6 2 o 3.921 4.468 0.00 1.31766 0.01
12 5 4 o 17.880 20.362 180.00 1.31410 0.05
10 9 2 o 27.612 31.446 0.00 1.31410 0.08
10 6 7 o 58.547 66.676 180.00 1.31410 0.17
10 2 9 o 104.575 119.095 180.00 1.31410 0.31
12 4 5 o 4.047 4.609 0.00 1.31410 0.01
10 7 6 o 0.011 0.013 0.00 1.31410 0.00
11 8 1 o 0.538 0.546 180.00 1.31056 0.00
13 4 1 o 2.898 2.937 180.00 1.31056 0.01
11 7 4 o 79.674 80.767 180.00 1.31056 0.24
11 1 8 o 109.837 111.343 180.00 1.31056 0.33
11 4 7 o 0.189 0.191 180.00 1.31056 0.00
13 1 4 o 2.792 2.830 0.00 1.31056 0.01
9 9 5 o 108.577 105.803 180.00 1.30705 0.32
13 3 3 o 391.939 381.928 0.00 1.30705 1.16
11 2 8 o 84.266 81.953 0.00 1.30012 0.25
10 8 5 o 0.105 0.102 180.00 1.30012 0.00
11 8 2 o 0.061 0.060 0.00 1.30012 0.00
13 4 2 o 221.493 215.412 0.00 1.30012 0.66
12 3 6 o 0.013 0.013 180.00 1.30012 0.00
12 6 3 o 22.889 22.260 180.00 1.30012 0.07
10 5 8 o 40.470 39.359 0.00 1.30012 0.12
13 2 4 o 27.869 27.104 0.00 1.30012 0.08
10 9 3 o 37.147 30.406 0.00 1.29669 0.11
10 3 9 o 0.311 0.254 180.00 1.29669 0.00
8 8 8 o 372.922 342.759 180.00 1.28992 0.37
11 6 6 o 56.163 58.306 0.00 1.28657 0.17
11 8 3 o 3.042 3.154 180.00 1.28325 0.01
13 5 0 o 54.832 56.843 180.00 1.28325 0.08
13 4 3 o 3.169 3.285 180.00 1.28325 0.01
13 0 5 o 6.871 7.124 0.00 1.28325 0.01
12 7 1 o 0.548 0.568 180.00 1.28325 0.00
12 1 7 o 3.551 3.682 0.00 1.28325 0.01
12 5 5 o 107.092 111.021 180.00 1.28325 0.32
9 8 7 o 2.868 2.973 0.00 1.28325 0.01
13 3 4 o 5.594 5.800 0.00 1.28325 0.02
9 7 8 o 112.058 116.169 180.00 1.28325 0.33
11 3 8 o 16.014 16.601 180.00 1.28325 0.05
11 7 5 o 28.030 28.205 0.00 1.27996 0.08
13 5 1 o 4.877 4.907 180.00 1.27996 0.01
13 1 5 o 0.958 0.964 180.00 1.27996 0.00
11 5 7 o 59.132 59.499 0.00 1.27996 0.17
12 4 6 o 46.009 46.444 0.00 1.27669 0.14
12 6 4 o 1.626 1.642 180.00 1.27669 0.00
14 0 0 o 410.199 414.072 0.00 1.27669 0.30
10 9 4 o 2.418 2.346 180.00 1.27344 0.01
10 4 9 o 0.959 0.930 180.00 1.27344 0.00
12 7 2 o 14.047 13.629 0.00 1.27344 0.04
12 2 7 o 4.450 4.318 180.00 1.27344 0.01
9 9 6 o 23.497 22.666 0.00 1.27022 0.07
10 7 7 o 7.282 7.024 180.00 1.27022 0.02
13 2 5 o 5.854 5.646 0.00 1.27022 0.02
14 1 1 o 200.785 193.682 180.00 1.27022 0.59
13 5 2 o 102.049 98.439 180.00 1.27022 0.30
14 2 0 o 5.670 5.974 0.00 1.26386 0.01
10 10 0 o 11.146 11.744 0.00 1.26386 0.02
10 8 6 o 0.594 0.625 180.00 1.26386 0.00
14 0 2 o 315.429 332.360 0.00 1.26386 0.47
10 6 8 o 79.507 83.774 0.00 1.26386 0.23
11 9 0 o 647.657 625.275 0.00 1.25759 0.96
11 0 9 o 217.944 210.413 180.00 1.25759 0.32
12 3 7 o 13.655 13.183 180.00 1.25759 0.04
12 7 3 o 1.315 1.269 0.00 1.25759 0.00
14 1 2 o 0.201 0.194 0.00 1.26071 0.00
14 2 1 o 1.707 1.641 0.00 1.26071 0.01
11 4 8 o 35.914 34.524 180.00 1.26071 0.11
10 10 1 o 86.991 83.623 0.00 1.26071 0.26
13 4 4 o 153.483 147.541 180.00 1.26071 0.45
11 8 4 o 19.396 18.645 0.00 1.26071 0.06
13 5 3 o 1.932 2.102 180.00 1.25448 0.01
11 9 1 o 215.946 234.997 0.00 1.25448 0.64
13 3 5 o 17.285 18.810 0.00 1.25448 0.05
11 1 9 o 1.359 1.478 0.00 1.25448 0.00
10 10 2 o 61.950 75.073 180.00 1.25141 0.18
14 2 2 o 118.350 143.421 0.00 1.25141 0.35
12 5 6 o 20.253 22.576 180.00 1.24835 0.06
12 6 5 o 53.945 60.133 0.00 1.24835 0.16
11 7 6 o 107.833 111.452 180.00 1.24532 0.32
11 9 2 o 69.951 72.299 0.00 1.24532 0.21
11 6 7 o 414.245 428.147 0.00 1.24532 1.23
10 5 9 o 3.664 3.787 180.00 1.24532 0.01
13 6 1 o 0.051 0.052 0.00 1.24532 0.00
14 3 1 o 38.795 40.097 0.00 1.24532 0.11
14 1 3 o 0.248 0.256 180.00 1.24532 0.00
11 2 9 o 324.274 335.156 180.00 1.24532 0.96
13 1 6 o 38.910 40.216 0.00 1.24532 0.12
10 9 5 o 1.502 1.553 0.00 1.24532 0.00
12 8 0 o 37.756 38.787 0.00 1.23931 0.06
12 0 8 o 254.909 261.868 180.00 1.23931 0.38
10 10 3 o 49.078 47.039 180.00 1.23635 0.15
14 3 2 o 54.219 51.966 180.00 1.23635 0.16
14 2 3 o 319.237 305.975 0.00 1.23635 0.95
12 1 8 o 0.453 0.434 180.00 1.23635 0.00
13 2 6 o 4.431 4.247 180.00 1.23635 0.01
12 4 7 o 109.969 105.401 0.00 1.23635 0.33
13 6 2 o 4.591 4.400 180.00 1.23635 0.01
12 7 4 o 15.113 14.485 180.00 1.23635 0.04
12 8 1 o 2.282 2.187 180.00 1.23635 0.01
9 8 8 o 25.591 24.528 0.00 1.23635 0.08
13 4 5 o 4.021 3.830 0.00 1.23340 0.01
11 8 5 o 174.605 166.310 180.00 1.23340 0.52
11 5 8 o 10.754 10.243 0.00 1.23340 0.03
13 5 4 o 50.438 48.042 180.00 1.23340 0.15
11 3 9 o 4.881 4.863 180.00 1.23047 0.01
11 9 3 o 153.342 152.782 180.00 1.23047 0.46
9 9 7 o 24.308 24.219 180.00 1.23047 0.07
12 2 8 o 105.559 103.974 180.00 1.22757 0.31
14 4 0 o 25.995 25.605 0.00 1.22757 0.04
14 0 4 o 106.206 104.612 0.00 1.22757 0.16
12 8 2 o 399.217 393.223 180.00 1.22757 1.19
13 3 6 o 3.563 3.036 0.00 1.22182 0.01
13 6 3 o 24.079 20.515 180.00 1.22182 0.07
14 3 3 o 31.732 27.036 180.00 1.22182 0.09
14 4 1 o 350.529 314.762 180.00 1.22468 1.05
10 8 7 o 21.909 19.673 180.00 1.22468 0.07
10 7 8 o 0.442 0.397 180.00 1.22468 0.00
14 1 4 o 85.347 76.639 0.00 1.22468 0.25
10 10 4 o 475.085 483.864 180.00 1.21615 1.42
14 2 4 o 78.705 80.159 0.00 1.21615 0.24
14 4 2 o 34.900 35.545 0.00 1.21615 0.10
12 6 6 o 372.543 379.427 0.00 1.21615 1.12
12 3 8 o 93.311 98.219 0.00 1.21334 0.28
10 9 6 o 0.861 0.906 180.00 1.21334 0.00
10 6 9 o 0.501 0.527 180.00 1.21334 0.00
12 8 3 o 208.095 219.042 180.00 1.21334 0.62
11 9 4 o 58.471 60.119 180.00 1.21056 0.18
11 4 9 o 1.585 1.629 0.00 1.21056 0.00
12 7 5 o 217.191 223.312 0.00 1.21056 0.65
13 7 0 o 18.290 18.806 0.00 1.21056 0.03
13 0 7 o 2.704 2.780 0.00 1.21056 0.00
12 5 7 o 1.448 1.489 180.00 1.21056 0.00
13 7 1 o 50.198 48.448 180.00 1.20779 0.15
11 7 7 o 0.280 0.270 180.00 1.20779 0.00
13 1 7 o 38.066 36.739 180.00 1.20779 0.11
13 5 5 o 1.195 1.153 0.00 1.20779 0.00
13 6 4 o 47.192 44.305 180.00 1.20231 0.14
11 8 6 o 45.169 42.406 180.00 1.20231 0.14
14 4 3 o 284.088 266.710 180.00 1.20231 0.86
14 3 4 o 459.058 430.977 0.00 1.20231 1.39
13 4 6 o 45.475 42.694 180.00 1.20231 0.14
11 6 8 o 24.883 23.361 180.00 1.20231 0.08
11 1 10 o 85.023 72.691 180.00 1.19960 0.26
11 10 1 o 57.701 49.332 0.00 1.19960 0.17
14 5 1 o 6.778 5.795 0.00 1.19960 0.02
13 2 7 o 9.185 7.853 0.00 1.19960 0.03
13 7 2 o 2.561 2.189 0.00 1.19960 0.01
14 1 5 o 11.055 9.451 0.00 1.19960 0.03
10 10 5 o 125.260 121.902 0.00 1.19158 0.38
14 2 5 o 4.422 4.303 0.00 1.19158 0.01
11 2 10 o 255.391 248.544 0.00 1.19158 0.78
11 10 2 o 5.267 5.126 180.00 1.19158 0.02
14 5 2 o 39.066 38.019 180.00 1.19158 0.12
12 8 4 o 1.928 1.566 180.00 1.19423 0.01
12 4 8 o 4.228 3.436 180.00 1.19423 0.01
15 0 1 o 38.108 38.935 180.00 1.18894 0.06
15 1 0 o 37.922 38.745 180.00 1.18894 0.06
12 9 1 o 0.580 0.593 180.00 1.18894 0.00
12 1 9 o 18.409 18.809 0.00 1.18894 0.06
9 9 8 o 72.811 74.391 0.00 1.18894 0.22
13 3 7 o 37.320 35.498 0.00 1.18632 0.11
11 9 5 o 5.989 5.697 180.00 1.18632 0.02
13 7 3 o 17.278 16.435 0.00 1.18632 0.05
11 5 9 o 4.370 4.157 180.00 1.18632 0.01
15 1 1 o 749.020 712.456 0.00 1.18632 2.30
14 4 4 o 7.904 7.387 0.00 1.18371 0.02
10 8 8 o 27.575 25.772 0.00 1.18371 0.08
12 2 9 o 169.268 168.953 180.00 1.18112 0.52
12 7 6 o 15.614 15.585 0.00 1.18112 0.05
12 9 2 o 96.093 95.914 180.00 1.18112 0.30
12 6 7 o 0.175 0.175 0.00 1.18112 0.00
11 3 10 o 238.586 245.377 180.00 1.17855 0.74
11 10 3 o 0.023 0.023 180.00 1.17855 0.00
14 3 5 o 36.692 37.737 180.00 1.17855 0.11
13 5 6 o 52.222 53.708 0.00 1.17855 0.16
10 7 9 o 281.096 289.097 180.00 1.17855 0.87
15 1 2 o 171.895 176.788 0.00 1.17855 0.53
13 6 5 o 116.444 119.759 180.00 1.17855 0.36
10 9 7 o 16.363 16.829 0.00 1.17855 0.05
15 2 1 o 121.110 124.558 180.00 1.17855 0.38
14 5 3 o 6.071 6.243 180.00 1.17855 0.02
14 6 0 o 102.618 106.376 180.00 1.17346 0.16
14 0 6 o 1.750 1.814 0.00 1.17346 0.00
15 3 0 o 420.802 427.931 180.00 1.16844 0.66
12 9 3 o 155.781 158.420 0.00 1.16844 0.49
15 0 3 o 118.528 120.536 0.00 1.16844 0.19
11 7 8 o 57.460 58.434 180.00 1.16844 0.18
11 8 7 o 18.033 18.339 0.00 1.16844 0.06
12 3 9 o 38.823 39.481 0.00 1.16844 0.12
13 8 1 o 5.012 5.097 180.00 1.16844 0.02
13 7 4 o 131.110 133.331 0.00 1.16844 0.41
13 4 7 o 31.827 32.366 180.00 1.16844 0.10
13 1 8 o 10.143 10.314 0.00 1.16844 0.03
15 2 2 o 184.213 193.076 180.00 1.17094 0.58
14 1 6 o 43.390 45.477 180.00 1.17094 0.14
14 6 1 o 24.277 25.445 0.00 1.17094 0.08
12 5 8 o 238.120 249.577 0.00 1.17094 0.75
12 8 5 o 198.793 208.358 180.00 1.17094 0.62
15 3 1 o 11.880 12.033 0.00 1.16595 0.04
15 1 3 o 94.575 95.796 0.00 1.16595 0.30
14 2 6 o 58.279 59.338 180.00 1.16348 0.18
10 10 6 o 381.628 388.566 180.00 1.16348 1.21
14 6 2 o 7.024 7.152 180.00 1.16348 0.02
14 5 4 o 0.052 0.051 180.00 1.16102 0.00
14 4 5 o 351.313 342.372 180.00 1.16102 1.12
13 8 2 o 95.653 93.219 0.00 1.16102 0.30
13 2 8 o 6.765 6.593 180.00 1.16102 0.02
11 10 4 o 31.398 30.599 0.00 1.16102 0.10
11 4 10 o 73.926 72.044 180.00 1.16102 0.24
15 2 3 o 645.896 597.812 0.00 1.15858 2.06
11 6 9 o 49.218 45.554 0.00 1.15858 0.16
11 9 6 o 13.198 12.215 180.00 1.15858 0.04
15 3 2 o 158.202 146.425 180.00 1.15858 0.51
13 3 8 o 113.569 116.319 0.00 1.14896 0.37
12 7 7 o 62.093 63.596 0.00 1.14896 0.20
13 8 3 o 0.873 0.894 180.00 1.14896 0.00
15 1 4 o 32.130 32.907 0.00 1.14896 0.10
15 4 1 o 288.385 295.367 180.00 1.14896 0.94
11 11 0 o 14.979 15.342 0.00 1.14896 0.02
13 6 6 o 317.351 320.463 0.00 1.15134 1.03
14 6 3 o 603.390 609.308 0.00 1.15134 1.96
12 9 4 o 9.764 9.860 180.00 1.15134 0.03
12 4 9 o 0.053 0.053 0.00 1.15134 0.00
14 3 6 o 395.732 399.613 180.00 1.15134 1.28
15 3 3 o 27.260 27.864 180.00 1.14660 0.09
9 9 9 o 5.078 5.191 180.00 1.14660 0.01
11 11 1 o 47.641 48.696 180.00 1.14660 0.16
13 7 5 o 198.347 202.738 0.00 1.14660 0.65
13 5 7 o 1.055 1.078 180.00 1.14660 0.00
12 0 10 o 0.684 0.681 180.00 1.14424 0.00
12 10 0 o 92.994 92.684 0.00 1.14424 0.15
12 6 8 o 8.293 8.265 180.00 1.14424 0.03
12 8 6 o 60.633 60.431 0.00 1.14424 0.20
15 4 2 o 58.187 56.176 0.00 1.14191 0.19
10 8 9 o 72.773 70.259 0.00 1.14191 0.24
12 1 10 o 186.815 180.361 180.00 1.14191 0.62
12 10 1 o 196.505 189.716 0.00 1.14191 0.65
15 2 4 o 56.855 54.891 0.00 1.14191 0.19
10 9 8 o 2.987 2.884 180.00 1.14191 0.01
14 7 1 o 54.379 49.673 0.00 1.13958 0.18
14 1 7 o 36.351 33.205 0.00 1.13958 0.12
11 5 10 o 41.024 37.474 0.00 1.13958 0.14
11 10 5 o 1.354 1.237 0.00 1.13958 0.00
14 5 5 o 35.223 32.175 180.00 1.13958 0.12
11 11 2 o 43.309 39.561 0.00 1.13958 0.14
13 4 8 o 0.042 0.041 0.00 1.13270 0.00
11 8 8 o 82.549 80.902 180.00 1.13270 0.28
10 10 7 o 1.321 1.294 180.00 1.13270 0.00
13 8 4 o 17.471 17.123 0.00 1.13270 0.06
14 7 2 o 0.328 0.322 180.00 1.13270 0.00
14 2 7 o 387.441 379.710 0.00 1.13270 1.31
12 10 2 o 11.494 10.316 0.00 1.13498 0.04
12 2 10 o 7.404 6.645 180.00 1.13498 0.02
14 6 4 o 15.924 14.291 0.00 1.13498 0.05
14 4 6 o 88.597 79.515 180.00 1.13498 0.30
15 3 4 o 294.716 303.563 180.00 1.13043 1.01
15 5 0 o 17.553 18.080 180.00 1.13043 0.03
13 0 9 o 108.812 112.079 0.00 1.13043 0.19
15 4 3 o 224.147 230.876 0.00 1.13043 0.77
12 5 9 o 83.671 86.183 180.00 1.13043 0.29
15 0 5 o 37.648 38.778 180.00 1.13043 0.06
12 9 5 o 55.298 56.958 180.00 1.13043 0.19
13 9 0 o 38.534 39.691 180.00 1.13043 0.07
15 5 1 o 1.138 1.157 0.00 1.12817 0.00
13 9 1 o 0.010 0.010 180.00 1.12817 0.00
11 7 9 o 9.234 9.383 0.00 1.12817 0.03
11 9 7 o 1.569 1.595 180.00 1.12817 0.01
15 1 5 o 40.695 41.353 0.00 1.12817 0.14
13 1 9 o 52.173 53.017 180.00 1.12817 0.18
11 11 3 o 569.985 579.208 180.00 1.12817 1.96
15 2 5 o 0.110 0.110 0.00 1.12149 0.00
14 3 7 o 150.764 150.691 180.00 1.12149 0.53
13 9 2 o 629.680 629.374 180.00 1.12149 2.22
13 7 6 o 24.557 24.545 0.00 1.12149 0.09
13 2 9 o 49.797 49.773 0.00 1.12149 0.18
13 6 7 o 22.583 22.572 180.00 1.12149 0.08
15 5 2 o 145.888 145.818 0.00 1.12149 0.51
14 7 3 o 226.999 226.888 180.00 1.12149 0.80
12 3 10 o 0.326 0.326 0.00 1.12371 0.00
12 10 3 o 191.253 191.262 180.00 1.12371 0.67
16 0 0 o 311.529 302.819 0.00 1.11710 0.28
12 7 8 o 215.838 213.268 0.00 1.11493 0.78
11 10 6 o 2.087 2.062 0.00 1.11493 0.01
12 8 7 o 72.694 71.828 180.00 1.11493 0.26
14 6 5 o 176.532 174.429 0.00 1.11493 0.64
15 4 4 o 0.243 0.240 180.00 1.11493 0.00
11 6 10 o 13.900 13.735 180.00 1.11493 0.05
14 5 6 o 849.857 839.735 180.00 1.11493 3.07
15 3 5 o 209.109 209.095 180.00 1.11061 0.77
13 9 3 o 28.049 28.047 180.00 1.11061 0.10
15 5 3 o 27.166 27.165 180.00 1.11061 0.10
13 3 9 o 175.420 175.408 0.00 1.11061 0.65
16 1 1 o 409.170 408.617 180.00 1.11276 1.49
11 11 4 o 12.011 11.995 180.00 1.11276 0.04
13 5 8 o 8.557 8.546 180.00 1.11276 0.03
13 8 5 o 48.871 48.805 0.00 1.11276 0.18
16 2 0 o 131.091 131.381 0.00 1.10848 0.24
14 0 8 o 3.931 3.939 180.00 1.10848 0.01
16 0 2 o 140.831 141.143 0.00 1.10848 0.26
14 8 0 o 83.600 83.785 0.00 1.10848 0.16
12 4 10 o 44.545 44.644 0.00 1.10848 0.17
12 10 4 o 165.392 165.757 180.00 1.10848 0.61
16 2 1 o 291.457 291.512 180.00 1.10635 1.09
14 1 8 o 56.467 56.477 0.00 1.10635 0.21
14 8 1 o 98.182 98.201 180.00 1.10635 0.37
12 9 6 o 11.491 11.493 180.00 1.10635 0.04
14 4 7 o 14.692 14.695 180.00 1.10635 0.06
12 6 9 o 31.898 31.904 180.00 1.10635 0.12
16 1 2 o 155.771 155.801 0.00 1.10635 0.58
14 7 4 o 108.855 108.876 0.00 1.10635 0.41
10 9 9 o 200.464 199.574 0.00 1.10424 0.76
15 1 6 o 65.326 65.036 0.00 1.10424 0.25
15 6 1 o 66.804 66.508 180.00 1.10424 0.25
16 2 2 o 81.940 85.340 0.00 1.10005 0.32
14 8 2 o 1.715 1.786 180.00 1.10005 0.01
14 2 8 o 194.889 202.976 0.00 1.10005 0.76
10 10 8 o 0.527 0.549 180.00 1.10005 0.00
15 2 6 o 34.442 36.351 180.00 1.09797 0.14
15 6 2 o 269.287 284.213 180.00 1.09797 1.06
13 7 7 o 67.673 67.864 0.00 1.09385 0.27
11 11 5 o 92.698 92.960 180.00 1.09385 0.37
11 8 9 o 256.656 265.920 180.00 1.09590 1.02
16 3 1 o 4.373 4.531 0.00 1.09590 0.02
12 1 11 o 54.924 56.906 0.00 1.09590 0.22
11 9 8 o 24.457 25.340 0.00 1.09590 0.10
16 1 3 o 1.765 1.828 180.00 1.09590 0.01
12 11 1 o 35.131 36.399 180.00 1.09590 0.14
15 4 5 o 191.381 198.289 180.00 1.09590 0.76
15 5 4 o 4.652 4.820 0.00 1.09590 0.02
13 9 4 o 374.985 388.521 180.00 1.09590 1.49
13 4 9 o 713.527 739.283 0.00 1.09590 2.84
14 6 6 o 0.380 0.372 0.00 1.09181 0.00
13 6 8 o 19.111 18.065 0.00 1.08978 0.08
12 10 5 o 23.044 21.783 0.00 1.08978 0.10
12 2 11 o 222.048 209.893 180.00 1.08978 0.92
13 8 6 o 16.564 15.658 0.00 1.08978 0.07
16 2 3 o 96.275 91.005 180.00 1.08978 0.40
12 11 2 o 37.516 35.462 0.00 1.08978 0.16
14 3 8 o 151.198 142.921 0.00 1.08978 0.63
16 3 2 o 50.566 47.798 0.00 1.08978 0.21
12 5 10 o 0.249 0.236 180.00 1.08978 0.00
14 8 3 o 24.571 23.226 0.00 1.08978 0.10
14 7 5 o 25.082 22.519 0.00 1.08776 0.11
14 5 7 o 211.241 189.650 0.00 1.08776 0.89
11 7 10 o 2.843 2.552 0.00 1.08776 0.01
13 10 1 o 0.625 0.561 0.00 1.08776 0.00
11 10 7 o 8.097 7.270 0.00 1.08776 0.03
13 1 10 o 8.682 7.795 180.00 1.08776 0.04
15 3 6 o 202.040 181.389 180.00 1.08776 0.85
15 6 3 o 297.064 266.701 0.00 1.08776 1.25
16 4 1 o 124.547 127.455 0.00 1.08176 0.55
16 1 4 o 24.241 24.807 180.00 1.08176 0.11
13 2 10 o 48.026 49.147 0.00 1.08176 0.21
13 10 2 o 66.023 67.564 0.00 1.08176 0.29
16 4 0 o 47.394 43.782 180.00 1.08375 0.10
16 0 4 o 97.523 90.092 180.00 1.08375 0.21
12 8 8 o 43.539 40.221 180.00 1.08375 0.19
16 3 3 o 52.593 56.356 0.00 1.07979 0.24
12 3 11 o 26.248 28.126 0.00 1.07979 0.12
15 0 7 o 124.403 133.303 180.00 1.07979 0.28
12 9 7 o 299.806 321.254 180.00 1.07979 1.35
15 7 0 o 39.822 42.670 180.00 1.07979 0.09
12 11 3 o 4.266 4.572 0.00 1.07979 0.02
12 7 9 o 55.460 59.427 180.00 1.07979 0.25
16 2 4 o 86.016 86.122 180.00 1.07587 0.40
14 4 8 o 26.134 26.166 0.00 1.07587 0.12
16 4 2 o 63.012 63.090 180.00 1.07587 0.30
14 8 4 o 217.280 217.548 0.00 1.07587 1.02
13 9 5 o 58.661 61.084 0.00 1.07782 0.27
15 1 7 o 88.154 91.796 0.00 1.07782 0.41
15 5 5 o 23.709 24.689 180.00 1.07782 0.11
13 5 9 o 13.297 13.847 180.00 1.07782 0.06
15 7 1 o 37.277 38.816 0.00 1.07782 0.17
