#------------------------------------------------------------------------------
#$Date: 2016-02-16 22:30:59 +0200 (Tue, 16 Feb 2016) $
#$Revision: 176467 $
#$URL: svn://www.crystallography.net/cod/cif/4/12/24/4122450.cif $
#------------------------------------------------------------------------------
#
# This file is available in the Crystallography Open Database (COD),
# http://www.crystallography.net/
#
# All data on this site have been placed in the public domain by the
# contributors.
#
data_4122450
loop_
_publ_author_name
'Kapelewski, Matthew T.'
'Geier, Stephen J.'
'Hudson, Matthew R.'
'St\"uck, David'
'Mason, Jarad A.'
'Nelson, Jocienne N.'
'Xiao, Dianne J.'
'Hulvey, Zeric'
'Gilmour, Elizabeth'
'FitzGerald, Stephen A.'
'Head-Gordon, Martin'
'Brown, Craig M.'
'Long, Jeffrey R.'
_publ_section_title
;
 M2(m-dobdc) (M = Mg, Mn, Fe, Co, Ni) Metal-Organic Frameworks Exhibiting
 Increased Charge Density and Enhanced H2 Binding at the Open Metal Sites.
;
_journal_issue                   34
_journal_name_full               'Journal of the American Chemical Society'
_journal_page_first              12119
_journal_paper_doi               10.1021/ja506230r
_journal_volume                  136
_journal_year                    2014
_chemical_formula_sum            'C4 H Co D2.37 O3'
_chemical_formula_weight         160.75
_chemical_name_systematic        ' ?'
_space_group_IT_number           160
_symmetry_cell_setting           trigonal
_symmetry_space_group_name_Hall  'R 3 -2"'
_symmetry_space_group_name_H-M   'R 3 m :H'
_audit_creation_date             2013-06-27T12:05
_audit_creation_method           'from EXP file using GSAS2CIF'
_audit_update_record
' 2013-06-27T12:05  Initial CIF as created by GSAS2CIF'
_cell_angle_alpha                90.0
_cell_angle_beta                 90.0
_cell_angle_gamma                120.0
_cell_formula_units_Z            18
_cell_length_a                   25.8518(12)
_cell_length_b                   25.8518
_cell_length_c                   6.7881(5)
_cell_volume                     3928.8(3)
_computing_structure_refinement  GSAS
_diffrn_radiation_probe          neutron
_diffrn_radiation_wavelength     2.078
_exptl_absorpt_correction_T_max  1.00000
_exptl_absorpt_correction_T_min  1.00000
_exptl_absorpt_process_details
;   GSAS Absorption/surface roughness correction: function number 0
 No correction is applied.
;
_pd_block_id                     2013-06-27T12:05|CO_PRIME_1P25D2_R||BT1
_pd_calc_method                  'Rietveld Refinement'
_pd_instr_location               ' ?'
_pd_meas_2theta_range_inc        0.05
_pd_meas_2theta_range_max        166.25
_pd_meas_2theta_range_min        1.5
_pd_meas_number_of_points        3296
_pd_phase_name                   Co_dobdc_prime_1.25_D2
_pd_proc_2theta_range_inc        0.05
_pd_proc_2theta_range_max        166.2937
_pd_proc_2theta_range_min        1.5437
_pd_proc_info_datetime           2013-06-27T12:05:48
_pd_proc_info_excluded_regions   ' ?'
_pd_proc_ls_background_function
;   GSAS Background function number 1 with 12 terms.
 Shifted Chebyshev function of 1st kind
      1:    821.004     2:   -156.645     3:    189.438     4:    9.90191    
      5:    97.1693     6:    8.54178     7:    54.2477     8:    3.48466    
      9:    19.8397    10:   -3.40510    11:    8.54860    12:  -0.933888    
;
_pd_proc_ls_peak_cutoff          0.00050
_pd_proc_ls_profile_function
;
 CW Profile function number 3 with  19 terms
 Pseudovoigt profile coefficients as parameterized in
 P. Thompson, D.E. Cox & J.B. Hastings (1987). J. Appl. Cryst.,20,79-83.
 Asymmetry correction of L.W. Finger, D.E. Cox & A. P. Jephcoat (1994).
 J. Appl. Cryst.,27,892-900.
 Peak tails are ignored  where the intensity is below 0.0005 times the peak
   Aniso. broadening axis   0.0   0.0   1.0
;
_pd_proc_ls_prof_R_factor        0.0280
_pd_proc_ls_prof_wR_expected     0.0329
_pd_proc_ls_prof_wR_factor       0.0345
_pd_proc_number_of_points        3296
_pd_spec_mounting                ' ?'
_refine_ls_goodness_of_fit_all   1.06
_refine_ls_matrix_type           full
_refine_ls_number_parameters     65
_refine_ls_number_restraints     16
_refine_ls_R_Fsqd_factor         0.04809
_refine_ls_shift/su_max          11.59
_refine_ls_shift/su_mean         2.49
_reflns_d_resolution_high        1.059
_reflns_d_resolution_low         12.926
_reflns_limit_h_max              21
_reflns_limit_h_min              0
_reflns_limit_k_max              12
_reflns_limit_k_min              0
_reflns_limit_l_max              6
_reflns_limit_l_min              -6
_reflns_number_total             432
_cod_data_source_file            CO_PRIME_1P25D2_R.cif
_cod_data_source_block           CO_PRIME_1P25D2_R_publ
_cod_depositor_comments
;
The following automatic conversions were performed:

'_geom_bond_publ_flag' value 'N' changed to 'n' according to
/usr/data/users/saulius/crontab/automatic-downloads/rss-feeds/ACS/lib/dictionaries/cif_core.dic
dictionary named 'cif_core.dic' version 2.4.2 from 2011-04-26 (127
times).

'_geom_angle_publ_flag' value 'N' changed to 'n' according
to
/usr/data/users/saulius/crontab/automatic-downloads/rss-feeds/ACS/lib/dictionaries/cif_core.dic
dictionary named 'cif_core.dic' version 2.4.2 from 2011-04-26 (32
times).

Automatic conversion script
Id: cif_fix_values 2281 2013-09-26 08:29:07Z andrius 

 Adding full bibliography for 4122440--4122455.cif.
;
_cod_original_cell_volume        3928.8(4)
_cod_original_sg_symbol_H-M      'R 3 m'
_cod_original_formula_sum        'C4 H D2.37 Co O3'
_cod_database_code               4122450
#BEGIN Tags that were not found in dictionaries:
_gsas_exptl_extinct_corr_t_min   1.00000
_gsas_exptl_extinct_corr_t_max   1.00000
#END Tags that were not found in dictionaries
loop_
_symmetry_equiv_pos_site_id
_symmetry_equiv_pos_as_xyz
1 +x,+y,+z
2 -y,x-y,+z
3 y-x,-x,+z
4 y-x,+y,+z
5 -y,-x,+z
6 +x,x-y,+z
101 +x+1/3,+y+2/3,+z+2/3
102 -y+1/3,x-y+2/3,+z+2/3
103 y-x+1/3,-x+2/3,+z+2/3
104 y-x+1/3,+y+2/3,+z+2/3
105 -y+1/3,-x+2/3,+z+2/3
106 +x+1/3,x-y+2/3,+z+2/3
201 +x+2/3,+y+1/3,+z+1/3
202 -y+2/3,x-y+1/3,+z+1/3
203 y-x+2/3,-x+1/3,+z+1/3
204 y-x+2/3,+y+1/3,+z+1/3
205 -y+2/3,-x+1/3,+z+1/3
206 +x+2/3,x-y+1/3,+z+1/3
loop_
_atom_site_type_symbol
_atom_site_label
_atom_site_fract_x
_atom_site_fract_y
_atom_site_fract_z
_atom_site_occupancy
_atom_site_thermal_displace_type
_atom_site_U_iso_or_equiv
_atom_site_symmetry_multiplicity
C C1 0.6567(6) 0.8752(6) 0.8373(24) 1.0 Uiso 0.010(4) 18
C C2 0.6664(9) 0.8332(4) 0.7531(35) 1.0 Uiso 0.010(6) 9
C C6 0.6414(6) 0.8682(6) 0.0403(24) 1.0 Uiso 0.014(4) 18
C C11 0.6337(5) 0.9093(5) 0.1599(20) 1.0 Uiso 0.0076(34) 18
Co Co2 0.3281(16) 0.3727(12) 0.570(4) 1.0 Uiso 0.002(8) 18
H H7 0.6743(19) 0.8372(10) 0.608(7) 1.0 Uiso 0.045(15) 9
O O9 0.6723(6) 0.9273(6) 0.7433(24) 1.0 Uiso 0.005(4) 18
O O12 0.6511(7) 0.9636(7) 0.0857(22) 1.0 Uiso 0.018(5) 18
O O15 0.6103(7) 0.8947(6) 0.3379(22) 1.0 Uiso 0.010(4) 18
C C2m 0.6275(8) 0.8137(4) 0.1361(30) 1.0 Uiso 0.012(6) 9
H H7m 0.6181(18) 0.8091(9) 0.275(7) 1.0 Uiso 0.035(11) 9
D D1 0.2044(4) 0.2145(5) 0.0189(14) 1.87(4) Uiso 0.071(5) 18
D D2 0.7909(24) 0.9523(23) 0.414(6) 0.500(35) Uiso 0.153(33) 18
loop_
_atom_type_symbol
_atom_type_number_in_cell
_atom_type_scat_length_neutron
_atom_type_scat_source
C 72.0 0.6646 International_Tables_Vol_C
Co 18.0 0.2490 International_Tables_Vol_C
H 18.0 -0.3739 International_Tables_Vol_C
O 54.0 0.5803 International_Tables_Vol_C
D 42.58 0.6671 International_Tables_Vol_C
loop_
_geom_angle_atom_site_label_1
_geom_angle_atom_site_label_2
_geom_angle_atom_site_label_3
_geom_angle
_geom_angle_site_symmetry_1
_geom_angle_site_symmetry_3
_geom_angle_publ_flag
C2 C1 C6 117.3(16) 1_555 1_556 n
C2 C1 O9 120.9(17) 1_555 1_555 n
C6 C1 O9 120.6(13) 1_556 1_555 n
C1 C2 C1 126.4(24) 1_555 6_565 n
C1 C2 H7 116.3(13) 1_555 1_555 n
C1 C2 H7 116.3(13) 6_565 1_555 n
C1 C6 C11 126.2(12) 1_554 1_555 n
C1 C6 C2m 119.0(13) 1_554 1_555 n
C11 C6 C2m 114.5(13) 1_555 1_555 n
C6 C11 O12 117.8(14) 1_555 1_555 n
C6 C11 O15 121.6(13) 1_555 1_555 n
O12 C11 O15 120.6(15) 1_555 1_555 n
O9 Co2 O9 172.8(21) 3_565 102_654 n
O9 Co2 O12 87.7(15) 3_565 102_655 n
O9 Co2 O12 95.7(12) 3_565 201_445 n
O9 Co2 O15 96.3(17) 3_565 3_565 n
O9 Co2 O12 85.8(17) 102_654 102_655 n
O9 Co2 O12 80.6(11) 102_654 201_445 n
O9 Co2 O15 89.9(15) 102_654 3_565 n
O12 Co2 O12 84.5(11) 102_655 201_445 n
O12 Co2 O15 173.4(16) 102_655 3_565 n
O12 Co2 O15 89.9(12) 201_445 3_565 n
C1 O9 Co2 133.6(12) 1_555 2_665 n
C1 O9 Co2 118.7(16) 1_555 203_565 n
Co2 O9 Co2 92.4(13) 2_665 203_565 n
C11 O12 Co2 127.7(15) 1_555 101_554 n
C11 O12 Co2 127.1(15) 1_555 203_564 n
Co2 O12 Co2 96.0(8) 101_554 203_564 n
C11 O15 Co2 125.2(13) 1_555 2_665 n
C6 C2m C6 119.2(18) 1_555 6_565 n
C6 C2m H7m 119.5(9) 1_555 1_555 n
C6 C2m H7m 119.5(9) 6_565 1_555 n
loop_
_geom_bond_atom_site_label_1
_geom_bond_atom_site_label_2
_geom_bond_distance
_geom_bond_site_symmetry_2
_geom_bond_publ_flag
C1 C2 1.358(16) 1_555 n
C1 C6 1.420(16) 1_556 n
C1 Co2 3.12(4) 2_665 n
C1 Co2 2.957(34) 203_565 n
C1 H7 2.01(4) 1_555 n
C1 O9 1.355(17) 1_555 n
C1 D1 3.394(17) 2_666 n
C1 D1 3.320(15) 101_555 n
C2 C1 1.358(16) 1_555 n
C2 C1 1.357(16) 6_565 n
C2 H7 1.00(6) 1_555 n
C2 D1 4.083(18) 2_666 n
C2 D1 4.082(18) 5_666 n
C2 D1 4.117(16) 101_555 n
C2 D1 4.116(16) 106_555 n
C2 D2 3.90(6) 1_555 n
C2 D2 3.90(6) 6_565 n
C6 C1 1.420(16) 1_554 n
C6 C11 1.428(18) 1_555 n
C6 Co2 3.20(4) 203_564 n
C6 C2m 1.425(15) 1_555 n
C6 H7m 2.08(5) 1_555 n
C6 D1 3.474(14) 2_665 n
C6 D1 3.741(18) 101_554 n
C6 D2 3.90(6) 103_564 n
C11 C6 1.428(18) 1_555 n
C11 Co2 3.07(4) 2_665 n
C11 Co2 3.112(27) 101_554 n
C11 Co2 2.87(4) 203_564 n
C11 O12 1.340(18) 1_555 n
C11 O15 1.319(16) 1_555 n
C11 D1 3.533(15) 2_665 n
C11 D1 3.905(13) 101_554 n
C11 D2 4.03(5) 1_555 n
C11 D2 3.29(5) 103_564 n
Co2 C1 3.12(4) 3_565 n
Co2 C1 2.957(34) 102_654 n
Co2 C6 3.20(4) 102_655 n
Co2 C11 3.07(4) 3_565 n
Co2 C11 2.87(4) 102_655 n
Co2 C11 3.112(27) 201_445 n
Co2 Co2 2.949(30) 103_554 n
Co2 Co2 2.949(30) 202_555 n
Co2 O9 2.029(35) 3_565 n
Co2 O9 2.056(32) 102_654 n
Co2 O12 3.332(34) 3_565 n
Co2 O12 1.85(4) 102_655 n
Co2 O12 2.107(28) 201_445 n
Co2 O15 2.11(4) 3_565 n
Co2 O15 3.356(32) 201_445 n
Co2 D1 5.280(33) 1_555 n
Co2 D1 4.813(32) 1_556 n
Co2 D1 2.283(25) 103_555 n
Co2 D1 4.268(29) 202_555 n
Co2 D2 4.40(6) 3_565 n
Co2 D2 4.47(6) 102_654 n
Co2 D2 4.57(6) 102_655 n
Co2 D2 5.02(6) 201_445 n
H7 C1 2.01(4) 1_555 n
H7 C1 2.01(4) 6_565 n
H7 C2 1.00(6) 1_555 n
H7 D2 3.27(7) 1_555 n
H7 D2 3.27(7) 6_565 n
O9 C1 1.355(17) 1_555 n
O9 Co2 2.029(35) 2_665 n
O9 Co2 2.056(32) 203_565 n
O9 D1 3.153(17) 2_666 n
O9 D1 3.089(15) 101_555 n
O9 D2 3.58(5) 1_555 n
O12 C11 1.340(18) 1_555 n
O12 Co2 3.332(34) 2_665 n
O12 Co2 2.107(28) 101_554 n
O12 Co2 1.85(4) 203_564 n
O12 D1 3.222(16) 2_665 n
O12 D1 3.776(18) 101_554 n
O12 D2 3.51(5) 103_564 n
O15 C11 1.319(16) 1_555 n
O15 Co2 2.11(4) 2_665 n
O15 Co2 3.356(32) 101_554 n
O15 D1 2.925(18) 101_555 n
O15 D2 3.28(5) 103_564 n
C2m C6 1.425(15) 1_555 n
C2m C6 1.425(15) 6_565 n
C2m H7m 0.97(6) 1_555 n
H7m C6 2.08(5) 1_555 n
H7m C6 2.08(5) 6_565 n
H7m C2m 0.97(6) 1_555 n
D1 C1 3.394(17) 3_564 n
D1 C1 3.320(15) 201_444 n
D1 C2 4.083(18) 3_564 n
D1 C2 4.117(16) 201_444 n
D1 C6 3.474(14) 3_565 n
D1 C6 3.741(18) 201_445 n
D1 C11 3.533(15) 3_565 n
D1 C11 3.905(13) 201_445 n
D1 Co2 4.813(32) 1_554 n
D1 Co2 5.280(33) 1_555 n
D1 Co2 4.268(29) 103_554 n
D1 Co2 2.283(25) 202_554 n
D1 O9 3.153(17) 3_564 n
D1 O9 3.089(15) 201_444 n
D1 O12 3.222(16) 3_565 n
D1 O12 3.776(18) 201_445 n
D1 O15 2.925(18) 201_444 n
D1 D1 5.021(17) 4_555 n
D1 D1 5.808(20) 6_555 n
D1 D2 4.24(4) 3_564 n
D1 D2 2.88(5) 3_565 n
D1 D2 5.72(5) 5_664 n
D1 D2 4.80(4) 5_665 n
D2 C2 3.90(6) 1_555 n
D2 C6 3.90(6) 202_665 n
D2 C11 4.03(5) 1_555 n
D2 C11 3.29(5) 202_665 n
D2 Co2 4.40(6) 2_665 n
D2 Co2 5.02(6) 101_554 n
D2 Co2 4.57(6) 203_564 n
D2 Co2 4.47(6) 203_565 n
D2 H7 3.27(7) 1_555 n
D2 O9 3.58(5) 1_555 n
D2 O12 3.51(5) 202_665 n
D2 O15 3.28(5) 202_665 n
D2 D1 2.88(5) 2_665 n
D2 D1 4.24(4) 2_666 n
D2 D1 4.80(4) 5_665 n
D2 D1 5.72(5) 5_666 n
D2 D2 2.94(10) 6_565 n
loop_
_pd_meas_intensity_total
_pd_proc_ls_weight
_pd_proc_intensity_bkg_calc
_pd_calc_intensity_total
7850(190) 0.0 2062. .
6930(180) 0.0 2052. .
6130(170) 0.0 2041. .
5800(160) 0.0 2030. .
5170(150) 0.0 2020. .
4970(150) 0.0 2009. .
4340(140) 0.0 1999. .
3930(130) 0.0 1989. .
3520(130) 0.0 1978. .
3330(120) 0.0 1968. .
3170(120) 0.0 1958. .
3020(120) 0.0 1948. .
2920(110) 0.0 1939. .
2780(110) 0.0 1929. .
2460(100) 0.0 1919. .
2740(110) 0.0 1910. .
2480(100) 0.0 1900. .
2480(100) 0.0 1891. .
2420(100) 0.0 1881. .
2480(100) 0.0 1872. .
2590(110) 0.0 1863. .
2400(100) 0.0 1854. .
2580(110) 0.0 1845. .
2700(110) 0.0 1836. .
2450(100) 0.0 1827. .
2450(100) 0.0 1818. .
2320(100) 0.0 1810. .
2390(100) 0.0 1801. .
2248(99) 0.0 1793. .
2410(100) 0.0 1784. .
2140(97) 0.0 1776. .
2390(100) 0.0 1767. .
2122(96) 0.0 1759. .
2104(96) 0.0 1751. .
1974(93) 0.0 1743. .
1916(92) 0.0 1735. .
2028(94) 0.0 1727. .
2006(94) 0.0 1719. .
2015(94) 0.0 1711. .
1894(91) 0.0 1703. .
2010(94) 0.0 1696. .
1988(93) 0.0 1688. .
1674(85) 0.0 1680. .
1858(90) 0.0 1673. .
1809(89) 0.0 1666. .
1665(85) 0.0 1658. .
1701(86) 0.0 1651. .
1755(88) 0.0 1644. .
1795(89) 0.0 1637. .
1804(89) 0.0 1630. .
1809(89) 0.0 1623. .
1746(87) 0.0 1616. .
1679(86) 0.0 1609. .
1652(85) 0.0 1602. .
1585(83) 0.0 1595. .
1594(83) 0.0 1588. .
1679(86) 0.0 1582. .
1616(84) 0.0 1575. .
1580(83) 0.0 1569. .
1616(84) 0.0 1562. .
1795(89) 0.0 1556. .
1549(82) 0.0 1549. .
1558(82) 0.0 1543. .
1459(80) 0.0 1537. .
1527(81) 0.0 1531. .
1612(84) 0.0 1524. .
1513(81) 0.0 1518. .
1285(75) 0.0 1512. .
1419(78) 0.0 1506. .
1352(77) 0.0 1501. .
1410(78) 0.0 1495. .
1406(78) 0.0 1489. .
1540(82) 0.0 1483. .
1316(75) 0.0 1477. .
1451(79) 0.0 1472. .
1245(73) 0.0 1466. .
1451(79) 0.0 1461. .
1321(76) 0.0 1455. .
1428(79) 0.0 1450. .
1352(77) 0.0 1444. .
1294(75) 0.0 1439. .
1352(77) 0.0 1434. .
1213(72) 0.0 1429. .
1316(75) 0.0 1423. .
1339(76) 0.0 1418. .
1401(78) 0.0 1413. .
1410(78) 0.0 1408. .
1388(78) 0.0 1403. .
1307(75) 0.0 1398. .
1285(75) 0.0 1393. .
1271(74) 0.0 1388. .
1428(79) 0.0 1384. .
1227(73) 0.0 1379. .
1258(74) 0.0 1374. .
1330(76) 0.0 1369. .
1253(74) 0.0 1365. .
1397(78) 0.0 1360. .
1352(77) 0.0 1356. .
1285(75) 0.0 1351. .
1159(71) 0.0 1347. .
1461(55) 0.0 1342. .
1374(53) 0.0 1338. .
1355(52) 0.0 1334. .
1299(51) 0.000384 1329. 1349.
1420(54) 0.0003429 1325. 1346.
1344(52) 0.000370 1321. 1343.
1280(51) 0.000384 1317. 1340.
1341(52) 0.000370 1313. 1337.
1314(52) 0.000370 1308. 1334.
1223(50) 0.000400 1304. 1332.
1329(52) 0.000370 1300. 1329.
1223(50) 0.000400 1296. 1327.
1295(51) 0.000384 1292. 1325.
1339(52) 0.000370 1289. 1323.
1333(52) 0.000370 1285. 1322.
1296(51) 0.000384 1281. 1321.
1314(52) 0.000370 1277. 1320.
1340(52) 0.000370 1273. 1319.
1299(51) 0.000384 1270. 1319.
1384(53) 0.000356 1266. 1320.
1403(53) 0.000356 1262. 1321.
1376(53) 0.000356 1259. 1323.
1421(54) 0.0003429 1255. 1327.
1518(56) 0.0003189 1252. 1333.
1479(55) 0.0003306 1248. 1344.
1606(57) 0.0003078 1245. 1364.
1637(58) 0.0002973 1241. 1395.
1644(58) 0.0002973 1238. 1442.
1736(60) 0.0002778 1234. 1508.
1830(61) 0.0002687 1231. 1593.
1893(62) 0.0002601 1228. 1697.
2047(65) 0.0002367 1224. 1816.
1976(64) 0.0002441 1221. 1950.
2190(67) 0.0002228 1218. 2097.
2339(70) 0.0002041 1215. 2258.
2510(72) 0.0001929 1212. 2434.
2701(75) 0.0001778 1209. 2626.
2864(77) 0.0001687 1206. 2837.
2884(78) 0.0001644 1202. 3069.
2994(79) 0.0001602 1199. 3328.
3475(85) 0.0001384 1196. 3616.
3833(90) 0.0001235 1193. 3942.
4150(93) 0.0001156 1191. 4313.
4590(98) 0.0001041 1188. 4742.
5070(100) 0.0000943 1185. 5247.
5580(110) 0.0000842 1182. 5858.
6380(120) 0.0000743 1179. 6619.
7410(130) 0.0000640 1176. 7595.
8760(140) 0.0000541 1173. 8850.
10180(150) 0.0000463 1171. 10399.
12050(160) 0.0000391 1168. 12109.
13560(170) 0.0000346 1165. 13628.
14210(170) 0.0000330 1163. 14404.
13410(170) 0.0000350 1160. 13893.
11580(160) 0.0000406 1157. 11974.
9080(140) 0.0000518 1155. 9227.
6570(120) 0.0000718 1152. 6508.
4250(94) 0.0001132 1150. 4373.
2910(78) 0.0001644 1147. 2971.
2048(65) 0.0002367 1145. 2178.
1728(59) 0.0002873 1142. 1775.
1479(55) 0.0003306 1140. 1578.
1378(53) 0.000356 1137. 1475.
1381(53) 0.000356 1135. 1412.
1242(50) 0.000400 1133. 1367.
1246(50) 0.000400 1130. 1332.
1219(50) 0.000400 1128. 1303.
1232(50) 0.000400 1126. 1280.
1176(49) 0.000416 1124. 1260.
1193(49) 0.000416 1121. 1243.
1261(50) 0.000400 1119. 1228.
1135(48) 0.000434 1117. 1215.
1203(49) 0.000416 1115. 1204.
1063(46) 0.000473 1113. 1194.
1101(47) 0.000453 1110. 1185.
1161(48) 0.000434 1108. 1177.
1091(47) 0.000453 1106. 1169.
1099(47) 0.000453 1104. 1162.
1100(47) 0.000453 1102. 1156.
1121(47) 0.000453 1100. 1150.
1140(48) 0.000434 1098. 1145.
1135(48) 0.000434 1096. 1140.
1120(47) 0.000453 1094. 1135.
1062(46) 0.000473 1092. 1131.
1029(45) 0.000494 1090. 1126.
1055(46) 0.000473 1088. 1122.
1035(45) 0.000494 1086. 1119.
1127(47) 0.000453 1084. 1115.
1042(46) 0.000473 1083. 1112.
966(44) 0.000517 1081. 1108.
1094(47) 0.000453 1079. 1105.
1157(48) 0.000434 1077. 1102.
1077(46) 0.000473 1075. 1099.
1041(45) 0.000494 1074. 1097.
1046(46) 0.000473 1072. 1094.
1110(47) 0.000453 1070. 1091.
1052(62) 0.0002601 1068. 1089.
1063(63) 0.0002520 1067. 1086.
1058(63) 0.0002520 1065. 1084.
1117(65) 0.0002367 1063. 1081.
1117(47) 0.000453 1062. 1079.
1177(48) 0.000434 1060. 1077.
1064(46) 0.000473 1059. 1074.
1050(45) 0.000494 1057. 1072.
1075(46) 0.000473 1055. 1070.
1117(47) 0.000453 1054. 1068.
1090(46) 0.000473 1052. 1066.
1015(45) 0.000494 1051. 1064.
996(44) 0.000517 1049. 1062.
1080(46) 0.000473 1048. 1060.
1053(45) 0.000494 1046. 1058.
1062(46) 0.000473 1045. 1057.
1092(46) 0.000473 1043. 1055.
1097(47) 0.000453 1042. 1053.
1096(46) 0.000473 1040. 1051.
1114(47) 0.000453 1039. 1050.
1104(47) 0.000453 1038. 1048.
1028(45) 0.000494 1036. 1046.
1021(45) 0.000494 1035. 1045.
1011(44) 0.000517 1034. 1043.
1012(45) 0.000494 1032. 1041.
1040(45) 0.000494 1031. 1040.
1067(46) 0.000473 1030. 1038.
1060(46) 0.000473 1028. 1037.
1051(45) 0.000494 1027. 1035.
1021(45) 0.000494 1026. 1034.
1033(45) 0.000494 1024. 1033.
1024(45) 0.000494 1023. 1031.
1070(46) 0.000473 1022. 1030.
1023(45) 0.000494 1021. 1028.
1059(46) 0.000473 1019. 1027.
1099(47) 0.000453 1018. 1026.
1050(45) 0.000494 1017. 1025.
1006(44) 0.000517 1016. 1023.
1000(44) 0.000517 1015. 1022.
1065(46) 0.000473 1014. 1021.
1078(46) 0.000473 1012. 1020.
1005(44) 0.000517 1011. 1018.
1032(45) 0.000494 1010. 1017.
1022(45) 0.000494 1009. 1016.
1038(45) 0.000494 1008. 1015.
1007(44) 0.000517 1007. 1014.
1031(45) 0.000494 1006. 1013.
961(43) 0.000541 1005. 1012.
1036(45) 0.000494 1004. 1011.
1069(46) 0.000473 1003. 1010.
944(43) 0.000541 1002. 1009.
952(43) 0.000541 1000. 1008.
1019(45) 0.000494 999. 1007.
1051(45) 0.000494 998. 1006.
1032(45) 0.000494 997. 1005.
1059(46) 0.000473 996. 1004.
1044(45) 0.000494 995. 1003.
1021(45) 0.000494 995. 1003.
1013(45) 0.000494 994. 1002.
1008(44) 0.000517 993. 1001.
1058(46) 0.000473 992. 1000.
1020(45) 0.000494 991. 1000.
1010(44) 0.000517 990. 999.
999(44) 0.000517 989. 998.
1031(45) 0.000494 988. 998.
1019(45) 0.000494 987. 997.
1016(45) 0.000494 986. 997.
1029(45) 0.000494 985. 997.
1030(45) 0.000494 984. 997.
1088(46) 0.000473 984. 997.
1003(44) 0.000517 983. 997.
1031(45) 0.000494 982. 997.
1048(45) 0.000494 981. 998.
1030(45) 0.000494 980. 998.
1017(45) 0.000494 979. 1000.
1040(45) 0.000494 979. 1002.
1063(46) 0.000473 978. 1006.
1012(45) 0.000494 977. 1013.
1089(46) 0.000473 976. 1023.
1048(45) 0.000494 975. 1039.
1083(46) 0.000473 975. 1061.
1046(45) 0.000494 974. 1091.
1108(47) 0.000453 973. 1128.
1152(48) 0.000434 972. 1174.
1221(49) 0.000416 971. 1229.
1247(50) 0.000400 971. 1298.
1422(54) 0.0003429 970. 1385.
1523(55) 0.0003306 969. 1495.
1692(59) 0.0002873 968. 1635.
1762(60) 0.0002778 968. 1802.
1873(62) 0.0002601 967. 1977.
2106(66) 0.0002296 966. 2122.
2171(67) 0.0002228 966. 2179.
2066(65) 0.0002367 965. 2103.
1887(62) 0.0002601 964. 1901.
1593(57) 0.0003078 964. 1644.
1308(51) 0.000384 963. 1409.
1209(49) 0.000416 962. 1234.
1150(48) 0.000434 962. 1122.
1054(46) 0.000473 961. 1060.
985(64) 0.0002441 960. 1027.
984(44) 0.000517 960. 1010.
1056(45) 0.000494 959. 1000.
987(44) 0.000517 958. 993.
1067(45) 0.000494 958. 988.
1023(44) 0.000517 957. 984.
989(44) 0.000517 956. 981.
925(42) 0.000567 956. 978.
1003(44) 0.000517 955. 976.
1009(44) 0.000517 955. 973.
980(43) 0.000541 954. 972.
1007(44) 0.000517 953. 970.
1100(46) 0.000473 953. 969.
1013(44) 0.000517 952. 968.
986(44) 0.000517 952. 967.
1016(44) 0.000517 951. 966.
1049(45) 0.000494 950. 965.
1023(44) 0.000517 950. 964.
956(43) 0.000541 949. 964.
994(44) 0.000517 949. 963.
972(43) 0.000541 948. 963.
1006(44) 0.000517 948. 963.
961(43) 0.000541 947. 963.
973(43) 0.000541 947. 964.
943(43) 0.000541 946. 964.
1014(44) 0.000517 945. 966.
1048(45) 0.000494 945. 968.
986(44) 0.000517 944. 973.
951(43) 0.000541 944. 979.
1030(45) 0.000494 943. 990.
982(44) 0.000517 943. 1005.
976(43) 0.000541 942. 1025.
1104(46) 0.000473 942. 1052.
1099(46) 0.000473 941. 1086.
1152(47) 0.000453 941. 1131.
1209(49) 0.000416 940. 1187.
1195(48) 0.000434 940. 1259.
1335(51) 0.000384 939. 1345.
1487(54) 0.0003429 939. 1437.
1629(57) 0.0003078 938. 1517.
1711(58) 0.0002973 938. 1558.
1655(57) 0.0003078 937. 1533.
1532(55) 0.0003306 937. 1443.
1399(52) 0.000370 936. 1319.
1273(50) 0.000400 936. 1199.
1163(48) 0.000434 935. 1104.
1096(46) 0.000473 935. 1040.
1036(45) 0.000494 934. 1002.
1022(44) 0.000517 934. 982.
995(44) 0.000517 934. 970.
962(43) 0.000541 933. 964.
942(43) 0.000541 933. 960.
923(42) 0.000567 932. 957.
961(43) 0.000541 932. 955.
984(44) 0.000517 931. 954.
952(43) 0.000541 931. 952.
957(43) 0.000541 930. 951.
850(40) 0.000625 930. 951.
1000(44) 0.000517 930. 951.
1066(45) 0.000494 929. 951.
942(43) 0.000541 929. 951.
919(42) 0.000567 928. 951.
897(41) 0.000595 928. 952.
983(44) 0.000517 927. 953.
1011(44) 0.000517 927. 954.
975(43) 0.000541 927. 956.
932(42) 0.000567 926. 958.
1019(44) 0.000517 926. 960.
882(41) 0.000595 925. 964.
997(44) 0.000517 925. 969.
978(43) 0.000541 925. 975.
909(42) 0.000567 924. 985.
998(44) 0.000517 924. 1000.
1078(46) 0.000473 923. 1024.
1066(45) 0.000494 923. 1061.
1111(46) 0.000473 923. 1116.
1144(47) 0.000453 922. 1194.
1285(50) 0.000400 922. 1299.
1375(52) 0.000370 921. 1440.
1604(56) 0.0003189 921. 1624.
1902(62) 0.0002601 921. 1860.
2087(65) 0.0002367 920. 2150.
2505(71) 0.0001984 920. 2470.
2769(75) 0.0001778 919. 2767.
3054(78) 0.0001644 919. 2951.
3049(78) 0.0001644 919. 2926.
2625(73) 0.0001877 918. 2660.
2233(67) 0.0002228 918. 2247.
1722(58) 0.0002973 918. 1828.
1390(52) 0.000370 917. 1493.
1215(49) 0.000416 917. 1266.
1056(45) 0.000494 916. 1131.
1122(47) 0.000453 916. 1057.
1037(45) 0.000494 916. 1017.
1002(44) 0.000517 915. 995.
951(43) 0.000541 915. 981.
917(42) 0.000567 915. 970.
893(41) 0.000595 914. 962.
964(43) 0.000541 914. 956.
1034(45) 0.000494 914. 951.
913(40) 0.000625 913. 947.
959(41) 0.000595 913. 943.
914(40) 0.000625 912. 940.
894(40) 0.000625 912. 937.
922(41) 0.000595 912. 935.
853(39) 0.000657 911. 933.
859(39) 0.000657 911. 931.
923(41) 0.000595 911. 930.
970(42) 0.000567 910. 929.
940(41) 0.000595 910. 928.
921(41) 0.000595 910. 927.
930(41) 0.000595 909. 927.
908(40) 0.000625 909. 927.
940(41) 0.000595 909. 927.
907(40) 0.000625 908. 929.
925(41) 0.000595 908. 932.
902(40) 0.000625 908. 937.
969(42) 0.000567 907. 944.
975(42) 0.000567 907. 955.
1020(43) 0.000541 907. 970.
1047(43) 0.000541 906. 989.
1028(43) 0.000541 906. 1014.
1025(43) 0.000541 906. 1042.
1107(45) 0.000494 905. 1070.
1067(44) 0.000517 905. 1089.
1064(44) 0.000517 905. 1091.
1085(44) 0.000517 904. 1071.
1016(43) 0.000541 904. 1036.
993(42) 0.000567 904. 998.
970(42) 0.000567 903. 967.
922(41) 0.000595 903. 945.
922(41) 0.000595 903. 931.
881(40) 0.000625 902. 923.
869(39) 0.000657 902. 919.
813(38) 0.000693 902. 916.
933(41) 0.000595 901. 915.
886(40) 0.000625 901. 913.
889(40) 0.000625 901. 912.
868(39) 0.000657 900. 912.
892(40) 0.000625 900. 911.
912(40) 0.000625 900. 911.
911(40) 0.000625 899. 910.
921(41) 0.000595 899. 910.
920(41) 0.000595 899. 910.
943(41) 0.000595 898. 910.
887(40) 0.000625 898. 910.
931(41) 0.000595 898. 910.
963(42) 0.000567 898. 911.
907(40) 0.000625 897. 911.
885(40) 0.000625 897. 912.
895(40) 0.000625 897. 914.
913(40) 0.000625 896. 916.
982(42) 0.000567 896. 920.
920(41) 0.000595 896. 926.
893(40) 0.000625 895. 936.
908(40) 0.000625 895. 951.
960(42) 0.000567 895. 973.
1005(42) 0.000567 894. 1005.
1048(43) 0.000541 894. 1050.
1071(44) 0.000517 894. 1107.
1117(45) 0.000494 893. 1177.
1189(46) 0.000473 893. 1250.
1219(47) 0.000453 893. 1312.
1305(49) 0.000416 893. 1342.
1255(48) 0.000434 892. 1320.
1221(47) 0.000453 892. 1249.
1146(45) 0.000494 892. 1157.
1058(44) 0.000517 891. 1071.
972(42) 0.000567 891. 1006.
895(40) 0.000625 891. 964.
939(41) 0.000595 890. 939.
989(42) 0.000567 890. 925.
934(41) 0.000595 890. 917.
887(40) 0.000625 889. 912.
888(40) 0.000625 889. 909.
912(40) 0.000625 889. 907.
866(39) 0.000657 889. 905.
870(39) 0.000657 888. 904.
926(41) 0.000595 888. 903.
945(41) 0.000595 888. 902.
937(41) 0.000595 887. 901.
902(40) 0.000625 887. 901.
889(40) 0.000625 887. 901.
874(39) 0.000657 886. 901.
893(40) 0.000625 886. 902.
928(41) 0.000595 886. 903.
891(40) 0.000625 886. 905.
877(40) 0.000625 885. 909.
912(40) 0.000625 885. 915.
919(41) 0.000595 885. 925.
908(40) 0.000625 884. 940.
994(42) 0.000567 884. 961.
973(42) 0.000567 884. 990.
1021(43) 0.000541 883. 1025.
1103(45) 0.000494 883. 1064.
1104(45) 0.000494 883. 1099.
1138(45) 0.000494 883. 1118.
1092(44) 0.000517 882. 1113.
988(42) 0.000567 882. 1080.
1032(43) 0.000541 882. 1034.
1039(43) 0.000541 881. 989.
980(42) 0.000567 881. 954.
972(42) 0.000567 881. 930.
911(40) 0.000625 880. 916.
905(40) 0.000625 880. 909.
856(39) 0.000657 880. 905.
905(40) 0.000625 880. 902.
918(41) 0.000595 879. 901.
915(40) 0.000625 879. 901.
914(40) 0.000625 879. 901.
890(40) 0.000625 878. 901.
889(40) 0.000625 878. 902.
955(41) 0.000595 878. 903.
901(40) 0.000625 878. 905.
917(41) 0.000595 877. 907.
909(40) 0.000625 877. 910.
913(40) 0.000625 877. 914.
924(41) 0.000595 876. 920.
948(41) 0.000595 876. 928.
895(40) 0.000625 876. 941.
942(41) 0.000595 875. 960.
999(42) 0.000567 875. 991.
1059(44) 0.000517 875. 1040.
1095(44) 0.000517 875. 1114.
1165(46) 0.000473 874. 1222.
1352(49) 0.000416 874. 1369.
1461(51) 0.000384 874. 1555.
1660(55) 0.0003306 873. 1762.
1874(58) 0.0002973 873. 1958.
2073(61) 0.0002687 873. 2087.
2117(62) 0.0002601 873. 2097.
1977(60) 0.0002778 872. 1970.
1791(57) 0.0003078 872. 1746.
1538(53) 0.000356 872. 1501.
1328(49) 0.000416 871. 1292.
1149(45) 0.000494 871. 1141.
1060(44) 0.000517 871. 1044.
1022(43) 0.000541 871. 986.
936(41) 0.000595 870. 954.
946(41) 0.000595 870. 935.
953(41) 0.000595 870. 923.
922(41) 0.000595 869. 915.
896(40) 0.000625 869. 908.
921(41) 0.000595 869. 904.
902(40) 0.000625 869. 900.
885(40) 0.000625 868. 897.
889(40) 0.000625 868. 894.
929(41) 0.000595 868. 892.
921(41) 0.000595 867. 891.
857(39) 0.000657 867. 890.
878(40) 0.000625 867. 890.
833(39) 0.000657 867. 891.
882(40) 0.000625 866. 894.
875(40) 0.000625 866. 899.
909(40) 0.000625 866. 908.
936(41) 0.000595 865. 922.
971(42) 0.000567 865. 939.
977(42) 0.000567 865. 960.
927(41) 0.000595 865. 982.
1031(43) 0.000541 864. 998.
950(41) 0.000595 864. 1002.
963(42) 0.000567 864. 991.
961(42) 0.000567 863. 968.
942(41) 0.000595 863. 941.
934(41) 0.000595 863. 918.
898(40) 0.000625 863. 901.
875(40) 0.000625 862. 889.
899(40) 0.000625 862. 883.
839(39) 0.000657 862. 879.
790(38) 0.000693 861. 876.
842(39) 0.000657 861. 875.
848(39) 0.000657 861. 873.
859(39) 0.000657 861. 873.
894(40) 0.000625 860. 872.
916(41) 0.000595 860. 871.
910(40) 0.000625 860. 871.
872(40) 0.000625 859. 870.
923(41) 0.000595 859. 870.
922(41) 0.000595 859. 869.
894(40) 0.000625 859. 869.
877(40) 0.000625 858. 869.
852(39) 0.000657 858. 869.
801(38) 0.000693 858. 868.
840(39) 0.000657 858. 868.
845(39) 0.000657 857. 868.
871(39) 0.000657 857. 868.
848(39) 0.000657 857. 868.
868(39) 0.000657 856. 868.
886(40) 0.000625 856. 868.
847(39) 0.000657 856. 869.
830(39) 0.000657 856. 869.
879(40) 0.000625 855. 869.
880(40) 0.000625 855. 869.
894(40) 0.000625 855. 870.
912(40) 0.000625 855. 871.
921(41) 0.000595 854. 871.
944(41) 0.000595 854. 872.
944(41) 0.000595 854. 873.
838(39) 0.000657 853. 875.
887(40) 0.000625 853. 876.
916(39) 0.000657 853. 878.
932(39) 0.000657 853. 880.
936(39) 0.000657 852. 883.
907(39) 0.000657 852. 886.
913(39) 0.000657 852. 890.
901(39) 0.000657 852. 895.
902(39) 0.000657 851. 902.
927(39) 0.000657 851. 911.
984(40) 0.000625 851. 924.
981(40) 0.000625 850. 945.
1030(41) 0.000595 850. 979.
1118(43) 0.000541 850. 1032.
1103(43) 0.000541 850. 1115.
1230(45) 0.000494 849. 1237.
1438(49) 0.000416 849. 1403.
1607(52) 0.000370 849. 1606.
1763(54) 0.0003429 849. 1823.
1986(58) 0.0002973 848. 2009.
2049(59) 0.0002873 848. 2102.
2054(59) 0.0002873 848. 2055.
1896(56) 0.0003189 848. 1878.
1539(51) 0.000384 847. 1638.
1288(46) 0.000473 847. 1405.
1138(44) 0.000517 847. 1221.
1060(42) 0.000567 846. 1094.
1000(41) 0.000595 846. 1014.
936(39) 0.000657 846. 967.
909(39) 0.000657 846. 941.
915(39) 0.000657 845. 925.
894(38) 0.000693 845. 915.
848(37) 0.000730 845. 909.
984(40) 0.000625 845. 905.
962(40) 0.000625 844. 903.
866(38) 0.000693 844. 902.
838(37) 0.000730 844. 904.
903(39) 0.000657 844. 908.
936(39) 0.000657 843. 916.
935(39) 0.000657 843. 930.
963(40) 0.000625 843. 955.
984(40) 0.000625 843. 994.
1066(42) 0.000567 842. 1055.
1163(44) 0.000517 842. 1140.
1239(45) 0.000494 842. 1247.
1320(47) 0.000453 842. 1366.
1485(50) 0.000400 841. 1473.
1580(51) 0.000384 841. 1536.
1566(51) 0.000384 841. 1525.
1412(49) 0.000416 841. 1440.
1325(47) 0.000453 840. 1313.
1190(44) 0.000517 840. 1184.
1068(42) 0.000567 840. 1080.
946(40) 0.000625 840. 1006.
934(39) 0.000657 839. 959.
890(38) 0.000693 839. 931.
945(40) 0.000625 839. 917.
906(39) 0.000657 839. 909.
876(38) 0.000693 838. 905.
917(39) 0.000657 838. 905.
940(39) 0.000657 838. 906.
923(39) 0.000657 838. 910.
936(39) 0.000657 837. 917.
951(40) 0.000625 837. 928.
969(40) 0.000625 837. 947.
998(41) 0.000595 837. 978.
1037(41) 0.000595 836. 1029.
1119(43) 0.000541 836. 1111.
1205(45) 0.000494 836. 1237.
1343(47) 0.000453 836. 1412.
1548(51) 0.000384 835. 1631.
1887(56) 0.0003189 835. 1868.
2151(60) 0.0002778 835. 2077.
2262(62) 0.0002601 835. 2184.
2130(60) 0.0002778 834. 2131.
1859(56) 0.0003189 834. 1932.
1559(51) 0.000384 834. 1668.
1319(47) 0.000453 834. 1420.
1140(44) 0.000517 833. 1227.
1038(42) 0.000567 833. 1093.
969(40) 0.000625 833. 1009.
910(39) 0.000657 833. 959.
953(40) 0.000625 832. 930.
913(39) 0.000657 832. 912.
941(39) 0.000657 832. 900.
950(40) 0.000625 832. 892.
921(39) 0.000657 831. 887.
906(39) 0.000657 831. 883.
871(38) 0.000693 831. 883.
875(38) 0.000693 831. 886.
902(39) 0.000657 831. 892.
926(39) 0.000657 830. 904.
932(39) 0.000657 830. 920.
1006(41) 0.000595 830. 938.
1024(41) 0.000595 830. 955.
998(41) 0.000595 829. 966.
973(40) 0.000625 829. 965.
976(40) 0.000625 829. 949.
905(39) 0.000657 829. 926.
914(39) 0.000657 828. 902.
870(38) 0.000693 828. 883.
891(38) 0.000693 828. 869.
906(30) 0.001111 827.7 860.3
847(35) 0.000816 827.5 854.8
839(35) 0.000816 827.3 851.4
884(36) 0.000772 827. 849.
871(35) 0.000816 826.8 848.0
863(35) 0.000816 826.6 847.2
807(34) 0.000865 826.4 846.8
815(34) 0.000865 826.1 846.7
833(35) 0.000816 825.9 847.2
859(35) 0.000816 825.7 848.2
861(35) 0.000816 825.5 850.0
931(37) 0.000730 825. 853.
905(36) 0.000772 825. 858.
879(35) 0.000816 824.8 867.0
855(35) 0.000816 824.6 880.0
877(35) 0.000816 824.4 898.1
945(37) 0.000730 824. 921.
981(37) 0.000730 824. 948.
1013(38) 0.000693 824. 975.
1025(38) 0.000693 823. 997.
980(37) 0.000730 823. 1008.
976(37) 0.000730 823. 1007.
974(37) 0.000730 823. 992.
943(37) 0.000730 823. 964.
936(37) 0.000730 822. 932.
904(36) 0.000772 822. 903.
892(36) 0.000772 822. 882.
876(35) 0.000816 821.7 866.8
894(36) 0.000772 822. 858.
904(36) 0.000772 821. 853.
880(35) 0.000816 821.1 850.1
859(35) 0.000816 820.9 849.4
820(34) 0.000865 820.7 850.1
876(35) 0.000816 820.5 852.4
886(36) 0.000772 820. 857.
868(35) 0.000816 820.0 865.5
856(35) 0.000816 819.8 879.6
889(36) 0.000772 820. 902.
939(37) 0.000730 819. 934.
961(37) 0.000730 819. 975.
1082(39) 0.000657 819. 1021.
1106(40) 0.000625 819. 1063.
1157(41) 0.000595 819. 1089.
1182(41) 0.000595 818. 1087.
1058(39) 0.000657 818. 1054.
1047(39) 0.000657 818. 1004.
921(36) 0.000772 818. 954.
900(36) 0.000772 818. 914.
927(36) 0.000772 817. 885.
904(36) 0.000772 817. 866.
862(35) 0.000816 816.9 854.0
805(34) 0.000865 816.7 847.0
839(35) 0.000816 816.5 842.7
825(34) 0.000865 816.3 839.9
864(35) 0.000816 816.1 837.9
844(35) 0.000816 815.9 836.4
801(34) 0.000865 815.7 835.3
813(34) 0.000865 815.5 834.4
880(36) 0.000772 815. 834.
906(36) 0.000772 815. 833.
796(34) 0.000865 814.9 833.5
825(34) 0.000865 814.7 833.6
844(35) 0.000816 814.5 834.0
836(35) 0.000816 814.3 834.9
836(35) 0.000816 814.1 836.3
829(34) 0.000865 813.9 838.2
861(35) 0.000816 813.7 840.4
890(36) 0.000772 814. 843.
851(35) 0.000816 813.4 844.8
866(35) 0.000816 813.2 846.0
852(35) 0.000816 813.0 845.9
844(35) 0.000816 812.8 845.2
875(35) 0.000816 812.6 844.5
858(35) 0.000816 812.4 844.3
877(35) 0.000816 812.2 844.9
854(35) 0.000816 812.0 846.4
856(35) 0.000816 811.8 848.7
859(35) 0.000816 811.6 851.9
897(36) 0.000772 811. 856.
896(36) 0.000772 811. 861.
833(35) 0.000816 811.1 868.2
855(35) 0.000816 810.9 877.7
854(35) 0.000816 810.7 891.0
872(35) 0.000816 810.5 910.6
911(36) 0.000772 810. 940.
1008(38) 0.000693 810. 986.
1092(40) 0.000625 810. 1054.
1114(40) 0.000625 810. 1152.
1255(42) 0.000567 810. 1284.
1463(46) 0.000473 809. 1447.
1618(48) 0.000434 809. 1622.
1793(51) 0.000384 809. 1780.
1898(52) 0.000370 809. 1879.
1952(53) 0.000356 809. 1873.
1767(50) 0.000400 808. 1749.
1613(48) 0.000434 808. 1558.
1378(44) 0.000517 808. 1365.
1198(41) 0.000595 808. 1205.
1054(39) 0.000657 808. 1088.
986(38) 0.000693 808. 1011.
971(35) 0.000816 807.4 965.7
898(34) 0.000865 807.2 940.7
911(34) 0.000865 807.1 929.3
914(34) 0.000865 806.9 927.9
969(35) 0.000816 806.7 936.0
1001(36) 0.000772 807. 955.
973(35) 0.000816 806.4 990.4
1058(37) 0.000730 806. 1045.
1154(39) 0.000657 806. 1124.
1229(40) 0.000625 806. 1226.
1387(42) 0.000567 806. 1344.
1444(43) 0.000541 805. 1459.
1490(44) 0.000517 805. 1547.
1636(46) 0.000473 805. 1586.
1578(45) 0.000494 805. 1566.
1564(45) 0.000494 805. 1482.
1375(42) 0.000567 805. 1355.
1226(40) 0.000625 804. 1223.
1117(38) 0.000693 804. 1111.
1029(36) 0.000772 804. 1027.
974(35) 0.000816 804.0 970.4
908(34) 0.000865 803.8 935.3
844(33) 0.000918 803.6 915.3
873(34) 0.000865 803.5 905.3
864(33) 0.000918 803.3 902.4
888(34) 0.000865 803.1 905.7
882(34) 0.000865 803.0 915.9
924(35) 0.000816 802.8 935.7
980(36) 0.000772 803. 969.
952(35) 0.000816 802.5 1022.1
1075(37) 0.000730 802. 1099.
1196(39) 0.000657 802. 1201.
1359(42) 0.000567 802. 1324.
1482(44) 0.000517 802. 1453.
1566(45) 0.000494 802. 1564.
1618(46) 0.000473 801. 1630.
1614(46) 0.000473 801. 1629.
1512(44) 0.000517 801. 1551.
1385(42) 0.000567 801. 1416.
1271(41) 0.000595 801. 1269.
1141(38) 0.000693 801. 1139.
993(36) 0.000772 801. 1039.
916(34) 0.000865 800.4 968.2
890(34) 0.000865 800.2 921.9
890(34) 0.000865 800.0 892.5
854(33) 0.000918 799.9 873.9
834(33) 0.000918 799.7 861.6
816(32) 0.000977 799.6 853.1
811(32) 0.000977 799.4 846.6
830(33) 0.000918 799.3 841.6
844(33) 0.000918 799.1 837.5
864(33) 0.000918 798.9 834.1
795(32) 0.000977 798.8 831.4
844(33) 0.000918 798.6 829.1
804(32) 0.000977 798.5 827.2
784(32) 0.000977 798.3 825.6
806(32) 0.000977 798.2 824.3
821(33) 0.000918 798.0 823.2
828(33) 0.000918 797.9 822.4
820(33) 0.000918 797.7 821.9
851(33) 0.000918 797.6 821.5
830(33) 0.000918 797.4 821.4
821(33) 0.000918 797.3 821.6
840(33) 0.000918 797.1 822.1
869(33) 0.000918 797.0 823.1
842(33) 0.000918 796.8 824.6
859(33) 0.000918 796.7 827.2
863(33) 0.000918 796.5 831.4
834(33) 0.000918 796.4 838.5
837(33) 0.000918 796.2 850.1
878(34) 0.000865 796.1 868.0
837(33) 0.000918 795.9 893.7
854(33) 0.000918 795.8 927.0
949(35) 0.000816 795.6 964.5
1014(36) 0.000772 795. 998.
1033(37) 0.000730 795. 1012.
1046(37) 0.000730 795. 1001.
1039(37) 0.000730 795. 969.
968(35) 0.000816 794.9 931.6
889(34) 0.000865 794.7 897.8
914(34) 0.000865 794.6 871.4
838(33) 0.000918 794.4 853.0
839(33) 0.000918 794.3 841.5
831(33) 0.000918 794.2 834.6
859(33) 0.000918 794.0 830.9
826(33) 0.000918 793.9 829.2
830(33) 0.000918 793.7 829.0
834(33) 0.000918 793.6 830.0
842(33) 0.000918 793.4 832.2
825(33) 0.000918 793.3 836.2
868(33) 0.000918 793.2 843.0
865(33) 0.000918 793.0 854.4
922(35) 0.000816 792.9 872.9
875(34) 0.000865 792.7 901.7
915(34) 0.000865 792.6 943.1
1026(36) 0.000772 792. 997.
1000(36) 0.000772 792. 1060.
1143(38) 0.000693 792. 1119.
1193(39) 0.000657 792. 1153.
1237(40) 0.000625 792. 1143.
1240(38) 0.000693 792. 1096.
1101(36) 0.000772 792. 1033.
1026(34) 0.000865 791.5 973.8
977(33) 0.000918 791.3 925.7
944(33) 0.000918 791.2 891.1
899(32) 0.000977 791.1 868.5
825(31) 0.001041 790.9 855.2
837(31) 0.001041 790.8 848.6
821(31) 0.001041 790.6 846.9
828(31) 0.001041 790.5 849.5
827(31) 0.001041 790.4 857.2
862(31) 0.001041 790.2 871.1
845(31) 0.001041 790.1 892.8
930(33) 0.000918 790.0 923.5
948(33) 0.000918 789.8 962.5
1003(34) 0.000865 789.7 1005.3
1025(34) 0.000865 789.6 1042.8
1025(34) 0.000865 789.4 1065.8
1113(36) 0.000772 789. 1072.
1078(35) 0.000816 789.2 1059.5
1034(34) 0.000865 789.0 1029.5
970(33) 0.000918 788.9 987.8
924(33) 0.000918 788.8 944.6
907(32) 0.000977 788.6 907.6
907(32) 0.000977 788.5 879.4
880(32) 0.000977 788.4 859.7
870(32) 0.000977 788.2 847.0
815(31) 0.001041 788.1 839.6
805(30) 0.001111 788.0 836.0
812(31) 0.001041 787.8 835.3
825(31) 0.001041 787.7 837.4
833(31) 0.001041 787.6 843.1
835(31) 0.001041 787.4 853.6
832(31) 0.001041 787.3 871.1
880(32) 0.000977 787.2 897.2
911(32) 0.000977 787.0 932.9
950(33) 0.000918 786.9 976.2
961(33) 0.000918 786.8 1021.0
1047(35) 0.000816 786.6 1053.9
1097(35) 0.000816 786.5 1059.6
1071(35) 0.000816 786.4 1034.6
1056(35) 0.000816 786.2 992.1
989(34) 0.000865 786.1 947.4
931(33) 0.000918 786.0 908.8
882(32) 0.000977 785.9 879.5
874(32) 0.000977 785.7 859.4
846(31) 0.001041 785.6 846.9
849(31) 0.001041 785.5 840.1
840(31) 0.001041 785.3 837.2
836(31) 0.001041 785.2 837.5
818(31) 0.001041 785.1 840.7
866(32) 0.000977 785.0 847.7
865(32) 0.000977 784.8 859.9
892(32) 0.000977 784.7 879.2
928(33) 0.000918 784.6 907.7
943(33) 0.000918 784.4 946.4
1030(34) 0.000865 784.3 994.1
1099(35) 0.000816 784.2 1045.8
1177(37) 0.000730 784. 1091.
1171(37) 0.000730 784. 1113.
1187(37) 0.000730 784. 1100.
1128(36) 0.000772 784. 1058.
1071(35) 0.000816 783.6 1005.4
1052(35) 0.000816 783.4 956.6
950(33) 0.000918 783.3 917.6
858(31) 0.001041 783.2 890.0
858(31) 0.001041 783.0 872.7
858(31) 0.001041 782.9 864.0
848(31) 0.001041 782.8 862.1
861(31) 0.001041 782.7 866.5
851(31) 0.001041 782.5 878.1
901(32) 0.000977 782.4 899.4
937(33) 0.000918 782.3 933.9
960(33) 0.000918 782.2 985.3
1033(34) 0.000865 782.0 1055.7
1110(36) 0.000772 782. 1143.
1164(37) 0.000730 782. 1236.
1293(38) 0.000693 782. 1312.
1449(41) 0.000595 782. 1339.
1379(40) 0.000625 781. 1304.
1330(39) 0.000657 781. 1225.
1247(38) 0.000693 781. 1132.
1097(35) 0.000816 781.0 1047.1
1050(35) 0.000816 780.9 979.2
971(33) 0.000918 780.8 930.2
922(33) 0.000918 780.7 897.8
850(31) 0.001041 780.5 878.3
848(31) 0.001041 780.4 868.3
850(31) 0.001041 780.3 865.6
850(31) 0.001041 780.2 869.8
826(31) 0.001041 780.0 881.8
843(31) 0.001041 779.9 903.5
904(32) 0.000977 779.8 937.1
930(33) 0.000918 779.7 983.7
982(34) 0.000865 779.5 1041.5
993(34) 0.000865 779.4 1103.4
1071(35) 0.000816 779.3 1154.2
1138(36) 0.000772 779. 1173.
1138(36) 0.000772 779. 1149.
1136(36) 0.000772 779. 1093.
1036(33) 0.000918 778.8 1028.7
1018(32) 0.000977 778.7 969.1
931(31) 0.001041 778.6 921.1
871(30) 0.001111 778.4 885.7
926(31) 0.001041 778.3 861.4
871(30) 0.001111 778.2 845.6
844(30) 0.001111 778.1 835.8
839(29) 0.001189 777.9 829.8
871(30) 0.001111 777.8 826.6
792(29) 0.001189 777.7 825.3
800(29) 0.001189 777.6 826.0
769(28) 0.001276 777.4 828.4
832(29) 0.001189 777.3 832.8
814(29) 0.001189 777.2 838.6
785(29) 0.001189 777.1 845.2
831(29) 0.001189 776.9 851.1
814(29) 0.001189 776.8 854.0
841(29) 0.001189 776.7 853.2
825(29) 0.001189 776.6 850.2
844(30) 0.001111 776.4 847.2
812(29) 0.001189 776.3 845.8
781(28) 0.001276 776.2 847.2
846(30) 0.001111 776.1 852.2
848(30) 0.001111 775.9 862.1
851(30) 0.001111 775.8 879.3
858(30) 0.001111 775.7 907.2
933(31) 0.001041 775.6 950.0
976(32) 0.000977 775.5 1012.7
1040(33) 0.000918 775.3 1098.7
1139(34) 0.000865 775.2 1207.2
1291(36) 0.000772 775. 1329.
1408(38) 0.000693 775. 1442.
1513(39) 0.000657 775. 1508.
1588(40) 0.000625 775. 1496.
1516(39) 0.000657 775. 1416.
1397(38) 0.000693 774. 1301.
1186(35) 0.000816 774.3 1184.2
1089(33) 0.000918 774.2 1082.1
1041(33) 0.000918 774.1 1001.5
972(32) 0.000977 774.0 942.7
856(30) 0.001111 773.8 902.4
855(30) 0.001111 773.7 875.9
829(29) 0.001189 773.6 859.0
812(29) 0.001189 773.5 848.7
806(29) 0.001189 773.3 842.9
832(29) 0.001189 773.2 840.8
801(29) 0.001189 773.1 841.7
835(29) 0.001189 773.0 845.3
830(29) 0.001189 772.8 851.1
819(29) 0.001189 772.7 857.8
820(29) 0.001189 772.6 863.1
870(30) 0.001111 772.5 864.3
878(30) 0.001111 772.3 860.8
882(30) 0.001111 772.2 854.5
865(30) 0.001111 772.1 848.3
790(29) 0.001189 772.0 844.2
844(30) 0.001111 771.8 843.7
830(29) 0.001189 771.7 848.2
832(29) 0.001189 771.6 859.0
867(30) 0.001111 771.5 878.2
892(30) 0.001111 771.3 907.6
934(31) 0.001041 771.2 948.3
998(32) 0.000977 771.1 999.8
1079(33) 0.000918 770.9 1057.6
1102(34) 0.000865 770.8 1111.0
1135(34) 0.000865 770.7 1142.3
1152(34) 0.000865 770.6 1136.7
1096(34) 0.000865 770.4 1097.4
1114(34) 0.000865 770.3 1041.6
970(32) 0.000977 770.2 985.5
896(30) 0.001111 770.1 937.5
911(31) 0.001041 769.9 900.6
858(30) 0.001111 769.8 874.9
862(30) 0.001111 769.7 858.8
837(29) 0.001189 769.5 850.4
814(29) 0.001189 769.4 848.5
807(29) 0.001189 769.3 852.5
840(29) 0.001189 769.2 862.8
881(30) 0.001111 769.0 880.0
924(31) 0.001041 768.9 905.1
1001(32) 0.000977 768.8 938.2
962(31) 0.001041 768.7 977.5
1048(33) 0.000918 768.5 1018.3
1088(33) 0.000918 768.4 1051.8
1062(33) 0.000918 768.3 1070.4
1132(34) 0.000865 768.1 1075.3
1104(34) 0.000865 768.0 1075.7
1102(34) 0.000865 767.9 1077.9
1105(34) 0.000865 767.7 1080.3
1051(33) 0.000918 767.6 1073.8
1024(32) 0.000977 767.5 1050.3
970(32) 0.000977 767.4 1012.2
958(31) 0.001041 767.2 969.2
970(32) 0.000977 767.1 929.4
908(31) 0.001041 767.0 897.0
843(29) 0.001189 766.8 873.2
855(30) 0.001111 766.7 857.8
821(29) 0.001189 766.6 850.3
866(30) 0.001111 766.4 850.0
808(29) 0.001189 766.3 856.7
847(29) 0.001189 766.2 870.1
927(30) 0.001111 766.1 890.0
894(29) 0.001189 765.9 914.9
968(31) 0.001041 765.8 941.1
947(30) 0.001111 765.7 961.9
996(31) 0.001041 765.5 968.6
978(31) 0.001041 765.4 957.3
931(30) 0.001111 765.3 933.1
910(30) 0.001111 765.1 904.5
905(30) 0.001111 765.0 877.8
905(30) 0.001111 764.9 855.8
809(28) 0.001276 764.7 839.5
820(28) 0.001276 764.6 828.5
847(29) 0.001189 764.5 822.1
801(28) 0.001276 764.3 819.3
776(27) 0.001372 764.2 819.5
824(28) 0.001276 764.1 821.9
789(28) 0.001276 763.9 826.0
839(28) 0.001276 763.8 831.1
880(29) 0.001189 763.7 836.2
891(29) 0.001189 763.5 840.9
908(30) 0.001111 763.4 845.6
885(29) 0.001189 763.3 850.9
883(29) 0.001189 763.1 856.6
829(28) 0.001276 763.0 861.5
885(29) 0.001189 762.9 863.8
832(28) 0.001276 762.7 863.6
814(28) 0.001276 762.6 862.9
872(29) 0.001189 762.4 864.7
840(28) 0.001276 762.3 871.8
909(30) 0.001111 762.2 886.6
943(30) 0.001111 762.0 911.3
1088(32) 0.000977 761.9 947.3
1078(32) 0.000977 761.8 995.2
1141(33) 0.000918 761.6 1053.5
1245(35) 0.000816 761.5 1116.4
1271(35) 0.000816 761.4 1173.4
1347(36) 0.000772 761. 1213.
1321(36) 0.000772 761. 1234.
1321(36) 0.000772 761. 1242.
1287(35) 0.000816 760.8 1243.7
1301(35) 0.000816 760.7 1235.9
1255(35) 0.000816 760.5 1212.2
1211(34) 0.000865 760.4 1168.6
1200(34) 0.000865 760.2 1110.4
1049(32) 0.000977 760.1 1048.8
1013(31) 0.001041 760.0 993.3
911(30) 0.001111 759.8 948.4
964(30) 0.001111 759.7 915.3
861(29) 0.001189 759.6 893.5
867(29) 0.001189 759.4 881.9
848(29) 0.001189 759.3 879.9
864(29) 0.001189 759.1 887.3
865(29) 0.001189 759.0 904.8
907(30) 0.001111 758.9 933.5
944(30) 0.001111 758.7 973.8
1050(32) 0.000977 758.6 1024.9
1088(32) 0.000977 758.4 1082.4
1206(34) 0.000865 758.3 1136.7
1194(34) 0.000865 758.1 1171.8
1275(35) 0.000816 758.0 1172.9
1168(34) 0.000865 757.9 1139.4
1117(33) 0.000918 757.7 1085.9
1042(32) 0.000977 757.6 1028.6
1011(31) 0.001041 757.4 977.9
922(30) 0.001111 757.3 938.4
971(31) 0.001041 757.1 911.6
899(29) 0.001189 757.0 897.5
938(30) 0.001111 756.9 895.4
887(29) 0.001189 756.7 904.3
911(30) 0.001111 756.6 923.4
983(31) 0.001041 756.4 951.1
983(31) 0.001041 756.3 984.5
1014(31) 0.001041 756.1 1017.9
1099(33) 0.000918 756.0 1042.1
1061(32) 0.000977 755.9 1048.0
1050(32) 0.000977 755.7 1034.0
1049(32) 0.000977 755.6 1008.0
933(30) 0.001111 755.4 979.8
930(30) 0.001111 755.3 956.7
925(30) 0.001111 755.1 943.3
921(30) 0.001111 755.0 942.9
893(29) 0.001189 754.8 957.5
941(30) 0.001111 754.7 988.9
1023(31) 0.001041 754.5 1038.0
1110(33) 0.000918 754.4 1104.1
1197(34) 0.000865 754.2 1183.6
1313(36) 0.000772 754. 1267.
1291(35) 0.000816 754.0 1339.4
1334(36) 0.000772 754. 1388.
1456(37) 0.000730 754. 1408.
1439(37) 0.000730 754. 1400.
1351(36) 0.000772 753. 1361.
1340(36) 0.000772 753. 1296.
1202(34) 0.000865 753.1 1214.0
1100(33) 0.000918 752.9 1130.7
1022(31) 0.001041 752.8 1055.9
958(30) 0.001111 752.6 994.8
938(30) 0.001111 752.5 949.0
902(29) 0.001189 752.3 917.6
842(27) 0.001372 752.2 899.2
875(28) 0.001276 752.0 892.6
887(28) 0.001276 751.9 896.9
908(28) 0.001276 751.7 911.9
935(29) 0.001189 751.6 937.4
977(29) 0.001189 751.4 972.7
1026(30) 0.001111 751.3 1015.0
1086(31) 0.001041 751.1 1058.7
1101(31) 0.001041 751.0 1093.6
1113(31) 0.001041 750.8 1109.0
1089(31) 0.001041 750.7 1099.6
1118(32) 0.000977 750.5 1068.6
1084(31) 0.001041 750.4 1024.5
957(29) 0.001189 750.2 976.8
886(28) 0.001276 750.1 933.1
859(28) 0.001276 749.9 897.2
909(28) 0.001276 749.8 870.3
857(28) 0.001276 749.6 852.0
799(27) 0.001372 749.4 840.9
813(27) 0.001372 749.3 835.3
820(27) 0.001372 749.1 833.0
820(27) 0.001372 749.0 831.6
806(27) 0.001372 748.8 828.7
828(27) 0.001372 748.7 823.0
794(27) 0.001372 748.5 815.1
797(27) 0.001372 748.4 806.4
794(27) 0.001372 748.2 798.3
797(27) 0.001372 748.1 791.3
799(27) 0.001372 747.9 785.5
771(26) 0.001479 747.7 781.0
768(26) 0.001479 747.6 777.6
780(26) 0.001479 747.4 775.1
746(26) 0.001479 747.3 773.2
762(26) 0.001479 747.1 771.9
806(27) 0.001372 747.0 771.0
759(26) 0.001479 746.8 770.4
780(26) 0.001479 746.7 770.4
772(26) 0.001479 746.5 770.8
786(26) 0.001479 746.3 771.8
778(26) 0.001479 746.2 773.5
750(26) 0.001479 746.0 776.0
809(27) 0.001372 745.9 779.1
793(27) 0.001372 745.7 782.7
800(27) 0.001372 745.6 786.0
797(27) 0.001372 745.4 788.2
783(26) 0.001479 745.2 788.4
782(26) 0.001479 745.1 786.4
806(27) 0.001372 744.9 782.9
781(26) 0.001479 744.8 779.0
767(26) 0.001479 744.6 775.4
726(25) 0.001600 744.4 772.5
776(26) 0.001479 744.3 770.4
781(26) 0.001479 744.1 769.0
780(26) 0.001479 744.0 768.4
827(27) 0.001372 743.8 768.5
772(26) 0.001479 743.6 769.2
754(26) 0.001479 743.5 770.4
759(26) 0.001479 743.3 772.1
785(26) 0.001479 743.2 774.3
783(26) 0.001479 743.0 776.7
778(26) 0.001479 742.8 779.3
786(26) 0.001479 742.7 781.9
771(26) 0.001479 742.5 785.0
805(27) 0.001372 742.4 789.1
780(26) 0.001479 742.2 795.3
770(26) 0.001479 742.0 804.4
763(26) 0.001479 741.9 817.3
787(26) 0.001479 741.7 834.7
819(27) 0.001372 741.6 856.8
863(28) 0.001276 741.4 883.2
935(29) 0.001189 741.2 911.8
999(30) 0.001111 741.1 939.1
977(29) 0.001189 740.9 960.8
962(29) 0.001189 740.7 974.6
1046(31) 0.001041 740.6 979.9
980(30) 0.001111 740.4 975.9
935(29) 0.001189 740.3 962.2
901(28) 0.001276 740.1 940.6
880(28) 0.001276 739.9 915.0
890(28) 0.001276 739.8 889.7
869(28) 0.001276 739.6 868.2
784(26) 0.001479 739.4 852.5
790(26) 0.001479 739.3 843.5
854(28) 0.001276 739.1 840.8
815(27) 0.001372 738.9 843.8
837(27) 0.001372 738.8 851.0
851(28) 0.001276 738.6 859.9
860(28) 0.001276 738.5 866.8
857(28) 0.001276 738.3 868.2
860(28) 0.001276 738.1 862.2
847(27) 0.001372 738.0 850.7
824(27) 0.001372 737.8 837.0
773(26) 0.001479 737.6 823.6
812(27) 0.001372 737.5 812.1
804(27) 0.001372 737.3 803.1
779(26) 0.001479 737.1 796.7
813(27) 0.001372 737.0 793.1
771(26) 0.001479 736.8 792.1
751(26) 0.001479 736.6 794.0
818(27) 0.001372 736.5 799.1
789(37) 0.000730 736. 808.
807(26) 0.001479 736.1 820.5
832(26) 0.001479 736.0 837.8
834(26) 0.001479 735.8 859.6
889(27) 0.001372 735.6 885.0
908(27) 0.001372 735.5 911.7
938(28) 0.001276 735.3 935.1
949(28) 0.001276 735.1 949.0
964(28) 0.001276 735.0 948.7
946(28) 0.001276 734.8 935.1
902(27) 0.001372 734.6 913.9
886(27) 0.001372 734.5 891.3
869(27) 0.001372 734.3 871.8
855(27) 0.001372 734.1 857.6
811(26) 0.001479 734.0 850.4
812(26) 0.001479 733.8 850.9
830(26) 0.001479 733.6 860.1
873(27) 0.001372 733.5 878.8
861(27) 0.001372 733.3 907.5
952(28) 0.001276 733.1 946.5
1043(29) 0.001189 733.0 994.9
1090(30) 0.001111 732.8 1049.4
1163(31) 0.001041 732.6 1103.5
1155(31) 0.001041 732.5 1146.6
1194(31) 0.001041 732.3 1168.1
1171(31) 0.001041 732.1 1162.4
1153(31) 0.001041 731.9 1131.6
1092(30) 0.001111 731.8 1083.7
1052(29) 0.001189 731.6 1029.0
985(28) 0.001276 731.4 976.2
936(28) 0.001276 731.3 930.9
923(28) 0.001276 731.1 895.3
860(27) 0.001372 730.9 870.1
898(27) 0.001372 730.8 854.7
852(26) 0.001479 730.6 847.9
816(26) 0.001479 730.4 848.3
844(26) 0.001479 730.3 854.3
898(27) 0.001372 730.1 863.7
891(27) 0.001372 729.9 873.4
893(27) 0.001372 729.7 879.6
858(27) 0.001372 729.6 879.2
862(27) 0.001372 729.4 871.3
837(26) 0.001479 729.2 857.7
805(26) 0.001479 729.1 841.2
812(26) 0.001479 728.9 824.1
822(26) 0.001479 728.7 808.2
807(26) 0.001479 728.6 794.6
786(25) 0.001600 728.4 783.6
769(25) 0.001600 728.2 775.0
764(25) 0.001600 728.1 768.6
765(25) 0.001600 727.9 764.0
746(25) 0.001600 727.7 760.8
751(25) 0.001600 727.5 758.7
751(25) 0.001600 727.4 757.3
765(25) 0.001600 727.2 756.6
743(25) 0.001600 727.0 756.2
736(25) 0.001600 726.9 756.0
766(25) 0.001600 726.7 755.8
757(25) 0.001600 726.5 755.4
771(25) 0.001600 726.3 755.0
759(25) 0.001600 726.2 754.6
760(25) 0.001600 726.0 754.7
764(25) 0.001600 725.8 755.3
746(25) 0.001600 725.7 756.9
735(25) 0.001600 725.5 759.6
751(25) 0.001600 725.3 763.5
767(25) 0.001600 725.2 768.8
774(25) 0.001600 725.0 775.3
795(26) 0.001479 724.8 782.8
780(25) 0.001600 724.6 790.5
781(25) 0.001600 724.5 797.1
784(25) 0.001600 724.3 801.0
783(25) 0.001600 724.1 801.4
770(25) 0.001600 724.0 798.9
797(26) 0.001479 723.8 795.2
795(26) 0.001479 723.6 792.2
810(26) 0.001479 723.4 791.3
812(26) 0.001479 723.3 793.5
781(25) 0.001600 723.1 799.3
780(25) 0.001600 722.9 808.8
809(26) 0.001479 722.8 822.0
844(26) 0.001479 722.6 837.9
844(26) 0.001479 722.4 854.7
860(27) 0.001372 722.3 869.6
826(26) 0.001479 722.1 879.7
864(27) 0.001372 721.9 883.3
861(27) 0.001372 721.7 881.3
830(26) 0.001479 721.6 875.2
854(27) 0.001372 721.4 866.1
874(27) 0.001372 721.2 854.3
825(26) 0.001479 721.1 840.5
806(26) 0.001479 720.9 825.5
812(26) 0.001479 720.7 810.8
819(26) 0.001479 720.5 797.9
789(25) 0.001600 720.4 787.4
753(25) 0.001600 720.2 779.8
772(25) 0.001600 720.0 775.1
761(25) 0.001600 719.9 773.2
766(25) 0.001600 719.7 774.1
775(25) 0.001600 719.5 777.6
823(26) 0.001479 719.4 783.3
807(26) 0.001479 719.2 790.7
785(26) 0.001479 719.0 798.9
824(26) 0.001479 718.8 806.5
829(26) 0.001479 718.7 811.4
843(26) 0.001479 718.5 812.2
836(26) 0.001479 718.3 808.8
827(26) 0.001479 718.2 802.9
810(26) 0.001479 718.0 796.6
815(26) 0.001479 717.8 791.5
825(26) 0.001479 717.7 788.6
803(26) 0.001479 717.5 788.1
784(26) 0.001479 717.3 789.8
802(26) 0.001479 717.1 792.9
811(26) 0.001479 717.0 796.2
864(27) 0.001372 716.8 798.2
816(26) 0.001479 716.6 797.9
791(26) 0.001479 716.5 795.5
766(25) 0.001600 716.3 791.9
761(25) 0.001600 716.1 787.8
789(26) 0.001479 716.0 783.3
790(26) 0.001479 715.8 778.7
780(25) 0.001600 715.6 774.3
754(25) 0.001600 715.5 770.9
756(25) 0.001600 715.3 769.1
746(25) 0.001600 715.1 769.4
738(25) 0.001600 715.0 772.1
765(25) 0.001600 714.8 777.5
804(26) 0.001479 714.6 785.7
791(26) 0.001479 714.4 796.6
827(26) 0.001479 714.3 809.6
822(26) 0.001479 714.1 823.7
847(27) 0.001372 713.9 836.9
872(27) 0.001372 713.8 846.3
839(26) 0.001479 713.6 849.1
842(26) 0.001479 713.4 844.8
837(26) 0.001479 713.3 835.2
825(26) 0.001479 713.1 823.4
830(26) 0.001479 712.9 812.2
817(26) 0.001479 712.8 803.4
809(26) 0.001479 712.6 798.4
779(25) 0.001600 712.4 797.6
791(26) 0.001479 712.3 801.7
834(26) 0.001479 712.1 810.7
819(26) 0.001479 711.9 824.5
836(26) 0.001479 711.8 842.5
903(27) 0.001372 711.6 863.5
907(27) 0.001372 711.4 884.9
936(28) 0.001276 711.3 903.0
952(28) 0.001276 711.1 913.1
937(28) 0.001276 710.9 912.0
928(28) 0.001276 710.8 900.1
907(27) 0.001372 710.6 880.7
907(27) 0.001372 710.4 858.1
846(26) 0.001479 710.3 835.7
836(26) 0.001479 710.1 815.8
819(26) 0.001479 709.9 799.4
784(26) 0.001479 709.8 786.8
734(25) 0.001600 709.6 778.1
792(26) 0.001479 709.5 773.0
805(26) 0.001479 709.3 771.0
775(25) 0.001600 709.1 771.9
782(25) 0.001600 709.0 775.1
791(26) 0.001479 708.8 780.3
792(26) 0.001479 708.6 786.8
801(26) 0.001479 708.5 793.6
780(25) 0.001600 708.3 799.5
820(26) 0.001479 708.1 803.3
782(25) 0.001600 708.0 804.4
795(26) 0.001479 707.8 803.6
806(26) 0.001479 707.7 802.4
763(25) 0.001600 707.5 802.4
766(25) 0.001600 707.3 804.5
744(25) 0.001600 707.2 809.1
777(25) 0.001600 707.0 815.8
821(26) 0.001479 706.8 823.7
824(26) 0.001479 706.7 830.8
854(27) 0.001372 706.5 835.3
855(27) 0.001372 706.4 836.2
853(27) 0.001372 706.2 833.9
841(26) 0.001479 706.0 829.4
807(26) 0.001479 705.9 823.3
825(26) 0.001479 705.7 816.0
827(26) 0.001479 705.5 807.5
832(26) 0.001479 705.4 798.9
817(26) 0.001479 705.2 791.2
800(26) 0.001479 705.1 785.4
788(26) 0.001479 704.9 782.2
808(26) 0.001479 704.7 781.8
812(26) 0.001479 704.6 784.3
772(25) 0.001600 704.4 789.5
781(25) 0.001600 704.3 797.3
836(26) 0.001479 704.1 806.9
853(27) 0.001372 703.9 817.2
854(27) 0.001372 703.8 826.4
867(27) 0.001372 703.6 832.5
859(27) 0.001372 703.5 834.1
820(26) 0.001479 703.3 831.8
848(27) 0.001372 703.2 827.4
879(27) 0.001372 703.0 823.4
832(21) 0.002268 702.8 821.2
813(26) 0.001479 702.7 821.9
821(26) 0.001479 702.5 825.6
852(26) 0.001479 702.4 832.2
820(26) 0.001479 702.2 841.0
874(27) 0.001372 702.1 851.5
880(27) 0.001372 701.9 862.5
861(27) 0.001372 701.7 872.7
868(27) 0.001372 701.6 880.6
877(27) 0.001372 701.4 886.3
910(27) 0.001372 701.3 890.2
891(27) 0.001372 701.1 892.9
913(27) 0.001372 701.0 894.3
946(28) 0.001276 700.8 894.4
893(27) 0.001372 700.7 893.7
891(27) 0.001372 700.5 894.1
915(27) 0.001372 700.3 896.9
875(27) 0.001372 700.2 902.9
906(27) 0.001372 700.0 911.8
923(28) 0.001276 699.9 923.0
942(28) 0.001276 699.7 936.1
955(28) 0.001276 699.6 950.6
999(29) 0.001189 699.4 965.4
1022(29) 0.001189 699.3 979.1
1000(29) 0.001189 699.1 990.4
1019(29) 0.001189 699.0 998.2
1068(30) 0.001111 698.8 1001.2
1048(29) 0.001189 698.7 996.8
1004(29) 0.001189 698.5 982.9
1000(29) 0.001189 698.4 959.6
923(28) 0.001276 698.2 930.0
920(27) 0.001372 698.1 898.1
902(27) 0.001372 697.9 867.5
882(27) 0.001372 697.8 840.2
825(26) 0.001479 697.6 817.2
816(26) 0.001479 697.5 798.7
760(25) 0.001600 697.3 784.5
766(25) 0.001600 697.2 774.0
762(25) 0.001600 697.0 766.7
753(25) 0.001600 696.9 761.9
739(25) 0.001600 696.7 759.0
762(25) 0.001600 696.6 757.2
751(25) 0.001600 696.4 755.9
739(25) 0.001600 696.3 754.5
737(25) 0.001600 696.1 752.8
732(25) 0.001600 696.0 750.8
720(24) 0.001736 695.8 748.8
746(25) 0.001600 695.7 747.1
755(25) 0.001600 695.5 745.8
708(24) 0.001736 695.4 744.9
689(24) 0.001736 695.3 744.6
749(25) 0.001600 695.1 745.1
695(24) 0.001736 695.0 746.5
712(24) 0.001736 694.8 749.0
726(24) 0.001736 694.7 753.0
745(25) 0.001600 694.5 758.3
760(25) 0.001600 694.4 765.2
767(25) 0.001600 694.2 773.5
792(26) 0.001479 694.1 783.0
769(25) 0.001600 694.0 793.7
781(25) 0.001600 693.8 805.6
812(26) 0.001479 693.7 819.0
849(26) 0.001479 693.5 833.7
848(26) 0.001479 693.4 849.1
884(27) 0.001372 693.2 864.5
871(27) 0.001372 693.1 879.2
892(27) 0.001372 693.0 892.8
943(28) 0.001276 692.8 904.4
967(28) 0.001276 692.7 913.0
966(28) 0.001276 692.5 917.8
947(28) 0.001276 692.4 918.7
933(28) 0.001276 692.3 915.9
925(28) 0.001276 692.1 909.2
879(27) 0.001372 692.0 898.1
906(27) 0.001372 691.8 882.7
906(27) 0.001372 691.7 864.0
825(26) 0.001479 691.6 844.2
822(26) 0.001479 691.4 824.9
802(26) 0.001479 691.3 807.4
825(26) 0.001479 691.1 792.0
782(25) 0.001600 691.0 778.8
756(25) 0.001600 690.9 767.9
756(25) 0.001600 690.7 759.0
771(25) 0.001600 690.6 752.0
727(24) 0.001736 690.5 746.5
692(24) 0.001736 690.3 742.1
711(24) 0.001736 690.2 738.3
734(25) 0.001600 690.1 734.8
744(25) 0.001600 689.9 731.4
710(24) 0.001736 689.8 728.2
741(25) 0.001600 689.7 725.3
711(24) 0.001736 689.5 722.8
716(24) 0.001736 689.4 720.7
717(24) 0.001736 689.3 719.0
706(24) 0.001736 689.1 717.7
721(24) 0.001736 689.0 716.9
680(24) 0.001736 688.9 716.5
700(24) 0.001736 688.7 716.5
729(25) 0.001600 688.6 717.0
725(24) 0.001736 688.5 718.0
707(33) 0.000918 688.3 719.7
693(23) 0.001890 688.2 722.0
726(24) 0.001736 688.1 725.0
746(24) 0.001736 687.9 728.8
812(25) 0.001600 687.8 733.5
768(24) 0.001736 687.7 738.9
781(25) 0.001600 687.6 745.0
762(24) 0.001736 687.4 751.5
725(24) 0.001736 687.3 757.8
745(24) 0.001736 687.2 763.7
753(24) 0.001736 687.0 768.9
769(24) 0.001736 686.9 773.9
766(24) 0.001736 686.8 779.2
781(25) 0.001600 686.7 785.0
775(25) 0.001600 686.5 791.2
788(25) 0.001600 686.4 797.0
771(24) 0.001736 686.3 801.5
824(25) 0.001600 686.2 803.7
789(25) 0.001600 686.0 802.8
793(25) 0.001600 685.9 799.0
778(25) 0.001600 685.8 793.0
798(25) 0.001600 685.7 785.8
792(25) 0.001600 685.5 778.5
789(25) 0.001600 685.4 772.0
755(24) 0.001736 685.3 766.8
765(24) 0.001736 685.2 763.2
796(25) 0.001600 685.0 761.5
780(25) 0.001600 684.9 761.9
758(24) 0.001736 684.8 764.4
766(24) 0.001736 684.7 769.0
808(25) 0.001600 684.5 775.2
809(25) 0.001600 684.4 782.6
797(25) 0.001600 684.3 790.3
825(25) 0.001600 684.2 797.6
814(25) 0.001600 684.1 804.1
811(25) 0.001600 683.9 809.9
863(26) 0.001479 683.8 815.2
798(25) 0.001600 683.7 820.1
800(25) 0.001600 683.6 824.0
815(25) 0.001600 683.5 826.4
877(26) 0.001479 683.4 827.2
848(26) 0.001479 683.2 827.0
860(26) 0.001479 683.1 826.7
821(25) 0.001600 683.0 827.0
829(25) 0.001600 682.9 827.8
828(25) 0.001600 682.8 828.3
842(26) 0.001479 682.7 827.7
867(26) 0.001479 682.5 825.0
845(26) 0.001479 682.4 819.8
798(25) 0.001600 682.3 812.9
827(25) 0.001600 682.2 805.4
805(25) 0.001600 682.1 798.5
761(24) 0.001736 682.0 793.1
787(25) 0.001600 681.8 789.9
806(25) 0.001600 681.7 788.9
793(25) 0.001600 681.6 789.7
796(25) 0.001600 681.5 791.8
794(25) 0.001600 681.4 794.1
810(25) 0.001600 681.3 795.6
825(25) 0.001600 681.2 795.8
807(25) 0.001600 681.1 794.5
811(25) 0.001600 680.9 792.1
835(25) 0.001600 680.8 788.9
764(24) 0.001736 680.7 785.2
803(25) 0.001600 680.6 781.1
773(24) 0.001736 680.5 777.1
775(25) 0.001600 680.4 773.7
768(24) 0.001736 680.3 771.2
757(24) 0.001736 680.2 769.7
760(24) 0.001736 680.1 769.1
765(24) 0.001736 680.0 769.3
757(24) 0.001736 679.9 770.4
777(25) 0.001600 679.7 772.3
773(24) 0.001736 679.6 774.6
768(24) 0.001736 679.5 776.7
787(25) 0.001600 679.4 777.6
784(25) 0.001600 679.3 776.5
764(24) 0.001736 679.2 773.2
806(25) 0.001600 679.1 767.9
770(24) 0.001736 679.0 761.8
739(24) 0.001736 678.9 755.6
712(24) 0.001736 678.8 750.1
744(24) 0.001736 678.7 745.7
778(25) 0.001600 678.6 742.5
749(24) 0.001736 678.5 740.5
725(24) 0.001736 678.4 739.5
713(24) 0.001736 678.3 739.2
728(24) 0.001736 678.2 739.1
746(24) 0.001736 678.1 738.9
773(24) 0.001736 678.0 738.4
773(24) 0.001736 677.9 737.5
717(24) 0.001736 677.8 736.6
771(24) 0.001736 677.7 735.8
754(24) 0.001736 677.6 735.6
740(24) 0.001736 677.5 736.3
708(23) 0.001890 677.4 738.2
733(24) 0.001736 677.3 741.5
720(24) 0.001736 677.2 746.5
723(24) 0.001736 677.1 753.2
769(24) 0.001736 677.0 761.6
737(24) 0.001736 676.9 771.8
783(25) 0.001600 676.8 783.6
831(25) 0.001600 676.7 796.4
814(25) 0.001600 676.6 809.5
865(26) 0.001479 676.5 821.6
855(26) 0.001479 676.4 831.0
836(25) 0.001600 676.3 836.1
874(26) 0.001479 676.2 836.3
845(26) 0.001479 676.1 831.7
843(26) 0.001479 676.0 823.5
874(26) 0.001479 675.9 813.5
848(26) 0.001479 675.8 803.3
843(26) 0.001479 675.7 794.3
848(26) 0.001479 675.6 787.5
849(26) 0.001479 675.5 783.4
829(25) 0.001600 675.4 782.4
842(26) 0.001479 675.4 784.4
770(24) 0.001736 675.3 789.3
813(25) 0.001600 675.2 796.6
838(26) 0.001479 675.1 805.4
835(25) 0.001600 675.0 814.7
808(25) 0.001600 674.9 823.1
786(25) 0.001600 674.8 828.9
814(25) 0.001600 674.7 831.5
832(25) 0.001600 674.6 830.8
831(25) 0.001600 674.5 827.9
873(26) 0.001479 674.4 823.6
787(25) 0.001600 674.4 818.7
820(25) 0.001600 674.3 813.7
797(25) 0.001600 674.2 808.8
810(25) 0.001600 674.1 804.3
809(25) 0.001600 674.0 800.8
773(25) 0.001600 673.9 798.5
778(25) 0.001600 673.8 797.2
806(25) 0.001600 673.7 796.8
786(25) 0.001600 673.6 796.7
766(24) 0.001736 673.6 796.7
823(25) 0.001600 673.5 796.7
769(24) 0.001736 673.4 797.3
788(25) 0.001600 673.3 799.0
801(25) 0.001600 673.2 802.3
832(25) 0.001600 673.1 807.3
818(25) 0.001600 673.0 814.0
771(24) 0.001736 673.0 822.3
781(25) 0.001600 672.9 831.9
863(26) 0.001479 672.8 842.6
855(26) 0.001479 672.7 854.3
821(25) 0.001600 672.6 866.3
860(26) 0.001479 672.5 878.0
882(26) 0.001479 672.5 888.4
869(26) 0.001479 672.4 896.2
881(26) 0.001479 672.3 899.4
880(26) 0.001479 672.2 896.6
873(26) 0.001479 672.1 887.3
846(26) 0.001479 672.1 872.2
866(26) 0.001479 672.0 853.4
859(26) 0.001479 671.9 833.0
810(25) 0.001600 671.8 812.8
810(25) 0.001600 671.7 794.0
765(24) 0.001736 671.7 777.2
757(24) 0.001736 671.6 762.7
757(24) 0.001736 671.5 750.5
733(24) 0.001736 671.4 740.6
737(24) 0.001736 671.3 732.6
713(24) 0.001736 671.3 726.4
679(23) 0.001890 671.2 721.7
652(23) 0.001890 671.1 718.2
693(23) 0.001890 671.0 715.7
722(24) 0.001736 671.0 714.1
703(23) 0.001890 670.9 713.3
663(23) 0.001890 670.8 713.3
682(23) 0.001890 670.7 713.9
695(23) 0.001890 670.7 715.3
722(24) 0.001736 670.6 717.3
700(23) 0.001890 670.5 720.2
741(24) 0.001736 670.4 723.8
736(24) 0.001736 670.4 728.1
724(24) 0.001736 670.3 733.2
673(23) 0.001890 670.2 738.7
703(23) 0.001890 670.1 744.5
714(24) 0.001736 670.1 750.2
739(24) 0.001736 670.0 755.2
743(24) 0.001736 669.9 759.3
744(24) 0.001736 669.8 762.3
818(25) 0.001600 669.8 764.5
757(24) 0.001736 669.7 765.9
747(24) 0.001736 669.6 766.8
695(23) 0.001890 669.6 767.1
762(24) 0.001736 669.5 766.9
737(24) 0.001736 669.4 766.3
754(24) 0.001736 669.3 765.7
738(24) 0.001736 669.3 765.3
769(24) 0.001736 669.2 765.6
750(24) 0.001736 669.1 766.4
721(24) 0.001736 669.1 767.9
736(24) 0.001736 669.0 769.8
783(25) 0.001600 668.9 772.2
695(23) 0.001890 668.9 775.3
723(24) 0.001736 668.8 779.4
742(24) 0.001736 668.7 785.1
768(24) 0.001736 668.6 793.0
789(25) 0.001600 668.6 803.7
804(26) 0.001479 668.5 817.7
786(25) 0.001600 668.4 835.1
841(26) 0.001479 668.4 855.9
860(27) 0.001372 668.3 879.7
927(28) 0.001276 668.2 905.7
923(28) 0.001276 668.2 932.2
993(29) 0.001189 668.1 957.1
947(28) 0.001276 668.0 977.5
986(28) 0.001276 668.0 990.7
1028(29) 0.001189 667.9 994.9
977(28) 0.001276 667.9 989.8
996(29) 0.001189 667.8 977.0
980(28) 0.001276 667.7 959.1
1020(29) 0.001189 667.7 938.7
938(28) 0.001276 667.6 918.1
914(27) 0.001372 667.5 898.6
868(27) 0.001372 667.5 881.1
859(27) 0.001372 667.4 865.8
888(27) 0.001372 667.3 852.4
857(27) 0.001372 667.3 840.8
832(26) 0.001479 667.2 830.4
820(26) 0.001479 667.2 821.0
786(25) 0.001600 667.1 812.1
805(26) 0.001479 667.0 804.0
792(26) 0.001479 667.0 796.6
780(25) 0.001600 666.9 790.4
840(26) 0.001479 666.8 785.7
789(25) 0.001600 666.8 782.7
799(26) 0.001479 666.7 781.6
830(26) 0.001479 666.7 782.0
821(26) 0.001479 666.6 783.9
807(26) 0.001479 666.5 786.8
763(25) 0.001600 666.5 789.8
841(26) 0.001479 666.4 792.1
799(26) 0.001479 666.4 793.1
799(26) 0.001479 666.3 792.3
813(26) 0.001479 666.2 789.8
829(26) 0.001479 666.2 786.3
810(26) 0.001479 666.1 782.6
797(26) 0.001479 666.1 779.1
791(26) 0.001479 666.0 776.2
812(26) 0.001479 666.0 774.0
781(25) 0.001600 665.9 772.3
745(25) 0.001600 665.8 770.6
737(25) 0.001600 665.8 768.5
767(25) 0.001600 665.7 765.4
780(25) 0.001600 665.7 761.2
711(24) 0.001736 665.6 756.0
725(24) 0.001736 665.6 750.3
735(25) 0.001600 665.5 744.6
725(24) 0.001736 665.4 739.2
693(24) 0.001736 665.4 734.5
690(24) 0.001736 665.3 730.7
682(24) 0.001736 665.3 727.8
709(24) 0.001736 665.2 726.0
702(24) 0.001736 665.2 725.3
675(24) 0.001736 665.1 725.7
698(24) 0.001736 665.1 727.5
735(25) 0.001600 665.0 730.4
735(25) 0.001600 665.0 734.6
778(25) 0.001600 664.9 740.2
704(24) 0.001736 664.8 747.2
747(25) 0.001600 664.8 755.6
744(25) 0.001600 664.7 765.6
790(26) 0.001479 664.7 777.0
786(25) 0.001600 664.6 789.5
778(25) 0.001600 664.6 802.9
816(26) 0.001479 664.5 816.7
848(26) 0.001479 664.5 830.2
870(27) 0.001372 664.4 843.1
914(27) 0.001372 664.4 854.9
864(27) 0.001372 664.3 865.6
920(28) 0.001276 664.3 875.0
906(27) 0.001372 664.2 882.9
912(27) 0.001372 664.2 889.1
919(28) 0.001276 664.1 892.9
909(27) 0.001372 664.1 894.1
896(27) 0.001372 664.0 892.5
893(27) 0.001372 664.0 888.2
874(27) 0.001372 663.9 881.1
835(26) 0.001479 663.9 871.5
836(26) 0.001479 663.8 859.9
877(27) 0.001372 663.8 846.7
819(26) 0.001479 663.7 832.7
795(26) 0.001479 663.7 818.2
803(26) 0.001479 663.6 804.0
759(25) 0.001600 663.6 790.6
786(25) 0.001600 663.5 778.3
750(25) 0.001600 663.5 767.6
752(25) 0.001600 663.4 758.7
737(25) 0.001600 663.4 751.6
772(25) 0.001600 663.3 746.2
714(24) 0.001736 663.3 742.4
727(24) 0.001736 663.2 740.1
689(24) 0.001736 663.2 738.8
719(24) 0.001736 663.1 738.4
724(24) 0.001736 663.1 738.3
715(24) 0.001736 663.0 738.1
737(25) 0.001600 663.0 737.4
717(24) 0.001736 662.9 735.9
718(24) 0.001736 662.9 733.6
710(24) 0.001736 662.8 730.6
725(25) 0.001600 662.8 727.2
732(25) 0.001600 662.7 723.7
744(25) 0.001600 662.7 720.4
760(25) 0.001600 662.6 717.5
728(25) 0.001600 662.6 714.9
736(25) 0.001600 662.6 712.9
708(24) 0.001736 662.5 711.3
707(24) 0.001736 662.5 710.0
710(24) 0.001736 662.4 708.9
700(24) 0.001736 662.4 708.0
684(24) 0.001736 662.3 707.0
692(24) 0.001736 662.3 706.1
738(25) 0.001600 662.2 705.1
709(24) 0.001736 662.2 704.2
697(24) 0.001736 662.1 703.6
710(24) 0.001736 662.1 703.2
690(24) 0.001736 662.0 703.3
719(25) 0.001600 662.0 703.8
717(24) 0.001736 662.0 704.8
663(24) 0.001736 661.9 706.5
698(24) 0.001736 661.9 708.8
707(24) 0.001736 661.8 712.0
737(25) 0.001600 661.8 716.0
704(24) 0.001736 661.7 720.9
735(25) 0.001600 661.7 726.8
741(25) 0.001600 661.6 733.6
750(25) 0.001600 661.6 741.2
724(25) 0.001600 661.6 749.6
753(25) 0.001600 661.5 758.5
784(26) 0.001479 661.5 767.4
832(26) 0.001479 661.4 775.8
745(25) 0.001600 661.4 783.0
753(25) 0.001600 661.3 788.4
763(25) 0.001600 661.3 791.7
805(26) 0.001479 661.2 793.0
809(26) 0.001479 661.2 792.6
808(26) 0.001479 661.2 791.0
768(25) 0.001600 661.1 788.6
768(25) 0.001600 661.1 785.6
742(25) 0.001600 661.0 782.1
710(24) 0.001736 661.0 778.2
763(25) 0.001600 660.9 774.1
732(25) 0.001600 660.9 769.8
741(25) 0.001600 660.9 765.8
751(25) 0.001600 660.8 762.5
727(25) 0.001600 660.8 760.1
765(25) 0.001600 660.7 758.9
794(26) 0.001479 660.7 759.1
772(25) 0.001600 660.6 760.6
805(26) 0.001479 660.6 763.4
785(26) 0.001479 660.6 767.3
760(25) 0.001600 660.5 772.1
803(26) 0.001479 660.5 777.5
780(26) 0.001479 660.4 783.1
775(25) 0.001600 660.4 788.5
796(26) 0.001479 660.4 793.3
816(26) 0.001479 660.3 797.1
806(26) 0.001479 660.3 799.7
782(26) 0.001479 660.2 801.3
800(26) 0.001479 660.2 802.4
856(27) 0.001372 660.1 803.6
831(26) 0.001479 660.1 805.5
824(26) 0.001479 660.1 808.6
789(26) 0.001479 660.0 813.2
785(26) 0.001479 660.0 819.6
843(27) 0.001372 659.9 827.6
846(27) 0.001372 659.9 837.3
926(28) 0.001276 659.9 848.1
915(28) 0.001276 659.8 859.4
883(27) 0.001372 659.8 870.7
910(28) 0.001276 659.7 881.1
912(28) 0.001276 659.7 890.2
952(28) 0.001276 659.6 897.6
954(28) 0.001276 659.6 903.3
941(28) 0.001276 659.6 907.3
977(29) 0.001189 659.5 909.4
947(28) 0.001276 659.5 909.7
961(28) 0.001276 659.4 907.8
1017(29) 0.001189 659.4 904.0
945(28) 0.001276 659.4 898.8
941(28) 0.001276 659.3 893.0
948(28) 0.001276 659.3 887.6
909(28) 0.001276 659.2 883.7
923(28) 0.001276 659.2 882.0
942(28) 0.001276 659.2 883.1
923(28) 0.001276 659.1 886.9
937(28) 0.001276 659.1 893.5
970(28) 0.001276 659.0 902.3
959(28) 0.001276 659.0 912.6
924(28) 0.001276 658.9 923.3
952(28) 0.001276 658.9 933.0
995(29) 0.001189 658.9 940.0
980(29) 0.001189 658.8 942.9
935(28) 0.001276 658.8 940.8
975(29) 0.001189 658.7 933.8
970(28) 0.001276 658.7 922.5
993(29) 0.001189 658.7 908.3
954(27) 0.001372 658.6 892.7
866(26) 0.001479 658.6 876.6
866(26) 0.001479 658.5 861.1
877(26) 0.001479 658.5 846.3
840(25) 0.001600 658.5 832.7
810(25) 0.001600 658.4 820.2
840(25) 0.001600 658.4 808.8
779(24) 0.001736 658.3 798.8
774(24) 0.001736 658.3 790.1
770(24) 0.001736 658.3 783.0
765(24) 0.001736 658.2 777.4
791(25) 0.001600 658.2 773.5
716(23) 0.001890 658.1 771.1
751(24) 0.001736 658.1 770.1
766(24) 0.001736 658.0 770.4
736(24) 0.001736 658.0 771.8
747(24) 0.001736 658.0 774.0
765(24) 0.001736 657.9 776.8
786(25) 0.001600 657.9 780.1
761(24) 0.001736 657.8 783.4
713(23) 0.001890 657.8 786.8
802(25) 0.001600 657.8 789.9
783(24) 0.001736 657.7 792.9
787(25) 0.001600 657.7 795.8
827(25) 0.001600 657.6 798.4
806(25) 0.001600 657.6 800.9
795(25) 0.001600 657.6 803.2
828(25) 0.001600 657.5 805.3
843(25) 0.001600 657.5 807.6
835(25) 0.001600 657.4 810.0
827(25) 0.001600 657.4 812.9
876(26) 0.001479 657.4 816.1
861(26) 0.001479 657.3 819.7
864(26) 0.001479 657.3 823.4
845(25) 0.001600 657.2 827.2
834(25) 0.001600 657.2 830.8
841(25) 0.001600 657.1 834.3
878(26) 0.001479 657.1 837.6
872(26) 0.001479 657.1 840.4
909(26) 0.001479 657.0 842.4
874(26) 0.001479 657.0 843.1
862(26) 0.001479 656.9 842.3
891(26) 0.001479 656.9 839.7
855(26) 0.001479 656.9 835.5
862(26) 0.001479 656.8 829.8
889(26) 0.001479 656.8 823.1
842(25) 0.001600 656.7 815.7
827(25) 0.001600 656.7 807.9
800(25) 0.001600 656.6 800.0
789(25) 0.001600 656.6 792.1
776(24) 0.001736 656.6 784.2
790(25) 0.001600 656.5 776.5
747(24) 0.001736 656.5 769.2
749(24) 0.001736 656.4 762.3
748(24) 0.001736 656.4 756.0
773(24) 0.001736 656.4 750.5
745(24) 0.001736 656.3 745.7
713(23) 0.001890 656.3 741.8
699(23) 0.001890 656.2 738.5
688(23) 0.001890 656.2 735.9
746(24) 0.001736 656.1 733.7
713(23) 0.001890 656.1 731.8
757(24) 0.001736 656.1 730.1
735(24) 0.001736 656.0 728.3
717(23) 0.001890 656.0 726.5
723(23) 0.001890 655.9 724.6
757(24) 0.001736 655.9 722.5
709(23) 0.001890 655.8 720.5
681(23) 0.001890 655.8 718.5
689(23) 0.001890 655.8 716.6
719(23) 0.001890 655.7 715.0
716(23) 0.001890 655.7 713.7
720(23) 0.001890 655.6 712.8
707(23) 0.001890 655.6 712.3
711(23) 0.001890 655.5 712.3
706(23) 0.001890 655.5 712.7
706(23) 0.001890 655.5 713.5
704(23) 0.001890 655.4 714.6
690(23) 0.001890 655.4 716.0
700(23) 0.001890 655.3 717.5
661(22) 0.002066 655.3 719.2
624(22) 0.002066 655.2 720.9
705(23) 0.001890 655.2 722.5
739(24) 0.001736 655.2 724.3
706(23) 0.001890 655.1 726.1
720(23) 0.001890 655.1 728.2
670(23) 0.001890 655.0 730.6
721(23) 0.001890 655.0 733.4
729(24) 0.001736 654.9 736.6
691(23) 0.001890 654.9 740.5
702(23) 0.001890 654.8 745.0
718(23) 0.001890 654.8 750.2
743(24) 0.001736 654.8 756.1
744(24) 0.001736 654.7 762.7
765(24) 0.001736 654.7 769.9
737(24) 0.001736 654.6 777.5
734(24) 0.001736 654.6 785.5
784(24) 0.001736 654.5 793.7
803(25) 0.001600 654.5 802.0
732(33) 0.000918 654.4 810.6
798(25) 0.001600 654.4 819.4
860(26) 0.001479 654.4 828.6
872(26) 0.001479 654.3 838.0
925(27) 0.001372 654.3 847.6
892(26) 0.001479 654.2 857.1
877(26) 0.001479 654.2 866.0
909(26) 0.001479 654.1 874.0
913(26) 0.001479 654.1 880.4
904(26) 0.001479 654.0 885.0
915(26) 0.001479 654.0 887.5
925(27) 0.001372 653.9 887.6
930(27) 0.001372 653.9 885.3
881(26) 0.001479 653.9 880.7
869(26) 0.001479 653.8 874.1
836(25) 0.001600 653.8 866.0
866(26) 0.001479 653.7 857.0
843(25) 0.001600 653.7 847.7
862(26) 0.001479 653.6 838.6
846(25) 0.001600 653.6 830.1
853(25) 0.001600 653.5 822.5
808(25) 0.001600 653.5 815.9
801(25) 0.001600 653.4 810.3
787(24) 0.001736 653.4 805.5
776(24) 0.001736 653.3 801.3
775(24) 0.001736 653.3 797.4
781(24) 0.001736 653.2 793.4
765(24) 0.001736 653.2 789.1
761(24) 0.001736 653.1 784.2
754(24) 0.001736 653.1 778.7
720(23) 0.001890 653.1 772.9
716(23) 0.001890 653.0 766.8
733(24) 0.001736 653.0 760.8
740(24) 0.001736 652.9 755.1
736(24) 0.001736 652.9 750.0
706(23) 0.001890 652.8 745.6
714(23) 0.001890 652.8 742.1
749(24) 0.001736 652.7 739.5
715(23) 0.001890 652.7 737.9
710(23) 0.001890 652.6 737.3
713(23) 0.001890 652.6 737.8
705(23) 0.001890 652.5 739.2
692(23) 0.001890 652.5 741.7
734(24) 0.001736 652.4 745.0
724(23) 0.001890 652.4 749.1
699(23) 0.001890 652.3 753.8
731(24) 0.001736 652.3 758.9
778(24) 0.001736 652.2 764.1
758(24) 0.001736 652.2 769.2
779(24) 0.001736 652.1 773.9
796(25) 0.001600 652.1 777.9
792(25) 0.001600 652.0 781.1
776(24) 0.001736 652.0 783.5
788(24) 0.001736 651.9 785.4
802(25) 0.001600 651.9 786.8
812(25) 0.001600 651.8 787.9
793(25) 0.001600 651.8 788.9
786(24) 0.001736 651.7 789.7
817(25) 0.001600 651.7 790.2
795(25) 0.001600 651.6 790.2
771(24) 0.001736 651.6 789.6
795(25) 0.001600 651.5 788.5
785(24) 0.001736 651.5 786.8
791(24) 0.001736 651.4 784.9
797(25) 0.001600 651.4 783.1
768(24) 0.001736 651.3 781.5
752(24) 0.001736 651.3 780.5
775(24) 0.001736 651.2 780.2
789(24) 0.001736 651.2 780.6
817(25) 0.001600 651.1 781.8
807(25) 0.001600 651.1 783.5
815(25) 0.001600 651.0 785.6
810(25) 0.001600 651.0 787.8
816(25) 0.001600 650.9 789.8
816(25) 0.001600 650.9 791.3
803(25) 0.001600 650.8 792.1
787(24) 0.001736 650.8 792.1
789(24) 0.001736 650.7 791.3
787(24) 0.001736 650.6 789.7
813(25) 0.001600 650.6 787.7
772(24) 0.001736 650.5 785.1
772(24) 0.001736 650.5 782.2
801(25) 0.001600 650.4 779.0
778(24) 0.001736 650.4 775.7
786(24) 0.001736 650.3 772.4
773(24) 0.001736 650.3 769.1
758(24) 0.001736 650.2 766.1
746(24) 0.001736 650.2 763.2
767(24) 0.001736 650.1 760.5
778(24) 0.001736 650.1 757.9
755(24) 0.001736 650.0 755.4
739(24) 0.001736 650.0 752.8
702(23) 0.001890 649.9 750.1
740(24) 0.001736 649.8 747.4
753(24) 0.001736 649.8 744.7
738(24) 0.001736 649.7 742.0
714(23) 0.001890 649.7 739.6
734(24) 0.001736 649.6 737.4
743(24) 0.001736 649.6 735.4
720(23) 0.001890 649.5 733.7
712(23) 0.001890 649.5 732.1
738(24) 0.001736 649.4 730.7
703(23) 0.001890 649.4 729.2
703(23) 0.001890 649.3 727.8
696(23) 0.001890 649.2 726.3
693(23) 0.001890 649.2 724.8
716(23) 0.001890 649.1 723.3
722(23) 0.001890 649.1 721.7
707(23) 0.001890 649.0 720.2
723(23) 0.001890 649.0 718.9
737(24) 0.001736 648.9 717.7
729(24) 0.001736 648.9 716.7
717(23) 0.001890 648.8 716.2
708(23) 0.001890 648.7 715.9
714(23) 0.001890 648.7 716.1
728(24) 0.001736 648.6 716.7
697(23) 0.001890 648.6 717.8
717(23) 0.001890 648.5 719.2
688(23) 0.001890 648.5 720.9
711(23) 0.001890 648.4 722.9
745(24) 0.001736 648.3 725.1
740(24) 0.001736 648.3 727.3
745(24) 0.001736 648.2 729.4
739(24) 0.001736 648.2 731.5
728(24) 0.001736 648.1 733.4
745(24) 0.001736 648.1 735.3
730(24) 0.001736 648.0 737.0
725(23) 0.001890 647.9 738.8
722(23) 0.001890 647.9 740.7
738(24) 0.001736 647.8 742.8
721(23) 0.001890 647.8 745.3
742(24) 0.001736 647.7 748.2
783(24) 0.001736 647.7 751.5
763(24) 0.001736 647.6 755.3
752(24) 0.001736 647.5 759.6
760(24) 0.001736 647.5 764.5
776(24) 0.001736 647.4 769.8
808(25) 0.001600 647.4 775.6
787(24) 0.001736 647.3 781.7
791(25) 0.001600 647.2 788.0
774(24) 0.001736 647.2 794.3
808(25) 0.001600 647.1 800.4
815(25) 0.001600 647.1 806.1
820(25) 0.001600 647.0 811.1
844(25) 0.001600 647.0 815.0
820(25) 0.001600 646.9 817.5
819(25) 0.001600 646.8 818.6
843(25) 0.001600 646.8 818.2
860(26) 0.001479 646.7 816.4
858(26) 0.001479 646.7 813.3
809(25) 0.001600 646.6 809.2
795(25) 0.001600 646.5 804.3
784(24) 0.001736 646.5 798.9
784(24) 0.001736 646.4 793.1
798(25) 0.001600 646.4 786.9
804(25) 0.001600 646.3 780.5
766(24) 0.001736 646.2 773.9
762(24) 0.001736 646.2 767.2
762(24) 0.001736 646.1 760.6
763(24) 0.001736 646.1 754.1
779(24) 0.001736 646.0 747.9
792(25) 0.001600 645.9 742.1
782(24) 0.001736 645.9 736.9
775(24) 0.001736 645.8 732.2
750(24) 0.001736 645.7 728.2
773(24) 0.001736 645.7 724.9
797(25) 0.001600 645.6 722.4
767(24) 0.001736 645.6 720.6
740(24) 0.001736 645.5 719.5
727(24) 0.001736 645.4 719.3
757(24) 0.001736 645.4 719.8
738(24) 0.001736 645.3 721.1
725(23) 0.001890 645.3 723.3
738(24) 0.001736 645.2 726.3
764(24) 0.001736 645.1 730.2
760(24) 0.001736 645.1 734.9
751(24) 0.001736 645.0 740.5
739(24) 0.001736 644.9 747.0
749(24) 0.001736 644.9 754.4
761(24) 0.001736 644.8 762.6
778(24) 0.001736 644.8 771.5
794(25) 0.001600 644.7 781.1
795(25) 0.001600 644.6 791.2
815(25) 0.001600 644.6 801.6
844(25) 0.001600 644.5 812.1
853(25) 0.001600 644.5 822.3
834(25) 0.001600 644.4 831.8
850(25) 0.001600 644.3 840.2
890(26) 0.001479 644.3 847.3
869(26) 0.001479 644.2 852.9
876(26) 0.001479 644.1 856.9
902(26) 0.001479 644.1 859.4
894(26) 0.001479 644.0 860.7
888(26) 0.001479 643.9 861.2
916(26) 0.001479 643.9 861.0
910(26) 0.001479 643.8 860.5
891(26) 0.001479 643.8 859.8
890(26) 0.001479 643.7 858.9
899(26) 0.001479 643.6 857.6
889(26) 0.001479 643.6 856.0
863(26) 0.001479 643.5 853.9
835(26) 0.001479 643.4 851.2
852(26) 0.001479 643.4 847.7
853(26) 0.001479 643.3 843.4
832(26) 0.001479 643.2 838.4
879(27) 0.001372 643.2 832.8
809(26) 0.001479 643.1 826.6
810(26) 0.001479 643.1 820.2
820(26) 0.001479 643.0 813.7
834(26) 0.001479 642.9 807.3
802(25) 0.001600 642.9 801.3
806(26) 0.001479 642.8 795.9
779(25) 0.001600 642.7 791.2
769(25) 0.001600 642.7 787.2
781(25) 0.001600 642.6 784.1
764(25) 0.001600 642.5 781.8
739(24) 0.001736 642.5 780.2
781(25) 0.001600 642.4 779.2
785(25) 0.001600 642.3 778.8
781(25) 0.001600 642.3 778.7
801(25) 0.001600 642.2 778.8
771(25) 0.001600 642.2 779.0
761(25) 0.001600 642.1 779.0
787(25) 0.001600 642.0 778.9
796(25) 0.001600 642.0 778.7
745(25) 0.001600 641.9 778.5
751(25) 0.001600 641.8 778.2
771(25) 0.001600 641.8 778.1
755(25) 0.001600 641.7 778.1
775(25) 0.001600 641.6 778.3
796(25) 0.001600 641.6 778.8
802(25) 0.001600 641.5 779.4
800(25) 0.001600 641.4 780.2
762(25) 0.001600 641.4 781.0
775(25) 0.001600 641.3 781.9
749(25) 0.001600 641.2 782.8
776(25) 0.001600 641.2 783.6
773(25) 0.001600 641.1 784.4
775(25) 0.001600 641.0 785.1
829(26) 0.001479 641.0 785.8
781(25) 0.001600 640.9 786.4
743(25) 0.001600 640.8 786.9
798(25) 0.001600 640.8 787.5
772(25) 0.001600 640.7 788.1
773(25) 0.001600 640.6 788.8
791(25) 0.001600 640.6 789.5
791(25) 0.001600 640.5 790.5
824(26) 0.001479 640.4 791.8
841(26) 0.001479 640.4 793.5
799(25) 0.001600 640.3 795.7
779(25) 0.001600 640.2 798.6
797(25) 0.001600 640.2 802.2
803(25) 0.001600 640.1 806.6
825(26) 0.001479 640.0 811.8
833(26) 0.001479 640.0 817.7
850(26) 0.001479 639.9 824.4
841(26) 0.001479 639.8 831.5
790(25) 0.001600 639.8 839.0
846(26) 0.001479 639.7 846.5
869(27) 0.001372 639.6 853.9
888(27) 0.001372 639.6 860.8
895(27) 0.001372 639.5 866.9
904(27) 0.001372 639.4 872.3
885(27) 0.001372 639.4 876.7
891(27) 0.001372 639.3 880.3
884(27) 0.001372 639.2 883.1
889(27) 0.001372 639.2 885.3
912(27) 0.001372 639.1 887.0
876(27) 0.001372 639.0 888.4
867(26) 0.001479 639.0 889.4
905(27) 0.001372 638.9 889.9
897(27) 0.001372 638.8 890.0
877(27) 0.001372 638.8 889.5
881(27) 0.001372 638.7 888.6
888(27) 0.001372 638.6 887.1
899(27) 0.001372 638.6 885.4
847(26) 0.001479 638.5 883.6
886(27) 0.001372 638.4 881.9
906(27) 0.001372 638.4 880.4
912(27) 0.001372 638.3 879.5
915(27) 0.001372 638.2 879.0
867(26) 0.001479 638.2 879.0
949(28) 0.001276 638.1 879.5
886(27) 0.001372 638.0 880.3
906(27) 0.001372 638.0 881.2
920(27) 0.001372 637.9 881.9
912(27) 0.001372 637.8 882.3
921(27) 0.001372 637.8 882.0
901(27) 0.001372 637.7 880.7
892(27) 0.001372 637.6 878.4
923(27) 0.001372 637.6 874.9
883(27) 0.001372 637.5 870.1
880(27) 0.001372 637.4 864.3
898(27) 0.001372 637.4 857.7
864(26) 0.001479 637.3 850.6
878(27) 0.001372 637.2 843.2
901(27) 0.001372 637.2 835.9
829(26) 0.001479 637.1 828.9
830(26) 0.001479 637.0 822.4
829(26) 0.001479 637.0 816.5
842(21) 0.002268 636.9 811.4
845(27) 0.001372 636.8 807.1
783(26) 0.001479 636.8 803.5
842(27) 0.001372 636.7 800.7
768(26) 0.001479 636.6 798.4
788(26) 0.001479 636.6 796.7
804(26) 0.001479 636.5 795.3
772(26) 0.001479 636.4 794.2
817(26) 0.001479 636.4 793.2
784(26) 0.001479 636.3 792.1
763(26) 0.001479 636.2 790.8
711(25) 0.001600 636.2 789.3
754(25) 0.001600 636.1 787.3
737(25) 0.001600 636.0 784.8
738(25) 0.001600 636.0 781.7
733(25) 0.001600 635.9 778.2
798(26) 0.001479 635.8 774.1
800(26) 0.001479 635.8 769.7
747(25) 0.001600 635.7 765.1
711(25) 0.001600 635.6 760.4
722(25) 0.001600 635.6 755.7
694(24) 0.001736 635.5 751.1
698(25) 0.001600 635.4 746.8
697(25) 0.001600 635.4 742.7
739(25) 0.001600 635.3 739.1
704(25) 0.001600 635.2 735.8
713(25) 0.001600 635.2 733.1
692(24) 0.001736 635.1 730.7
727(25) 0.001600 635.0 728.9
688(24) 0.001736 635.0 727.6
691(24) 0.001736 634.9 726.8
730(25) 0.001600 634.8 726.4
688(24) 0.001736 634.8 726.5
701(25) 0.001600 634.7 726.9
734(25) 0.001600 634.6 727.8
727(25) 0.001600 634.6 728.8
699(25) 0.001600 634.5 730.1
695(24) 0.001736 634.4 731.6
737(25) 0.001600 634.4 733.0
699(25) 0.001600 634.3 734.5
719(25) 0.001600 634.2 735.9
678(24) 0.001736 634.2 737.2
726(25) 0.001600 634.1 738.4
737(25) 0.001600 634.0 739.6
716(25) 0.001600 634.0 740.7
725(25) 0.001600 633.9 742.0
745(25) 0.001600 633.8 743.3
753(25) 0.001600 633.8 744.8
724(25) 0.001600 633.7 746.5
755(25) 0.001600 633.6 748.5
774(26) 0.001479 633.6 750.8
825(27) 0.001372 633.5 753.2
760(26) 0.001479 633.4 755.9
745(25) 0.001600 633.4 758.7
772(26) 0.001479 633.3 761.6
749(25) 0.001600 633.2 764.3
747(25) 0.001600 633.2 766.8
812(26) 0.001479 633.1 768.9
792(26) 0.001479 633.0 770.4
787(26) 0.001479 633.0 771.2
777(26) 0.001479 632.9 771.3
790(26) 0.001479 632.8 770.4
714(25) 0.001600 632.8 768.8
762(26) 0.001479 632.7 766.5
772(26) 0.001479 632.6 763.5
771(26) 0.001479 632.6 760.1
702(25) 0.001600 632.5 756.5
736(25) 0.001600 632.4 752.7
726(25) 0.001600 632.4 748.9
722(25) 0.001600 632.3 745.4
742(25) 0.001600 632.2 742.0
737(25) 0.001600 632.2 739.1
699(25) 0.001600 632.1 736.6
713(25) 0.001600 632.0 734.6
709(25) 0.001600 632.0 733.1
700(25) 0.001600 631.9 732.2
713(25) 0.001600 631.8 731.9
706(25) 0.001600 631.8 732.3
709(25) 0.001600 631.7 733.4
695(24) 0.001736 631.6 735.1
715(25) 0.001600 631.6 737.6
713(25) 0.001600 631.5 740.8
680(24) 0.001736 631.5 744.8
731(25) 0.001600 631.4 749.5
711(25) 0.001600 631.3 755.0
729(25) 0.001600 631.3 761.2
776(26) 0.001479 631.2 768.2
794(26) 0.001479 631.1 775.8
800(26) 0.001479 631.1 784.2
782(26) 0.001479 631.0 793.3
869(27) 0.001372 630.9 802.9
804(26) 0.001479 630.9 813.1
762(26) 0.001479 630.8 823.7
808(26) 0.001479 630.7 834.6
850(27) 0.001372 630.7 845.7
834(27) 0.001372 630.6 856.9
879(27) 0.001372 630.5 868.0
939(28) 0.001276 630.5 879.0
903(28) 0.001276 630.4 889.7
939(28) 0.001276 630.4 900.0
929(28) 0.001276 630.3 909.8
918(27) 0.001372 630.2 919.1
940(28) 0.001276 630.2 927.7
948(28) 0.001276 630.1 935.7
982(28) 0.001276 630.0 942.9
989(28) 0.001276 630.0 949.4
964(28) 0.001276 629.9 955.2
984(28) 0.001276 629.8 960.3
944(28) 0.001276 629.8 964.7
990(28) 0.001276 629.7 968.4
968(28) 0.001276 629.7 971.2
982(28) 0.001276 629.6 973.2
973(28) 0.001276 629.5 974.2
975(28) 0.001276 629.5 974.2
997(28) 0.001276 629.4 973.1
980(28) 0.001276 629.3 970.9
1002(28) 0.001276 629.3 967.7
970(28) 0.001276 629.2 963.6
947(28) 0.001276 629.1 958.8
996(28) 0.001276 629.1 953.6
990(28) 0.001276 629.0 948.1
952(28) 0.001276 629.0 942.7
964(28) 0.001276 628.9 937.4
987(28) 0.001276 628.8 932.6
902(27) 0.001372 628.8 928.2
927(27) 0.001372 628.7 924.4
899(27) 0.001372 628.6 921.0
899(27) 0.001372 628.6 918.0
942(28) 0.001276 628.5 915.2
871(27) 0.001372 628.5 912.5
924(27) 0.001372 628.4 909.7
864(27) 0.001372 628.3 906.4
900(27) 0.001372 628.3 902.6
889(27) 0.001372 628.2 898.0
847(26) 0.001479 628.2 892.5
880(27) 0.001372 628.1 886.1
878(27) 0.001372 628.0 878.9
895(27) 0.001372 628.0 870.9
834(26) 0.001479 627.9 862.3
877(27) 0.001372 627.8 853.3
805(26) 0.001479 627.8 844.1
783(25) 0.001600 627.7 834.7
814(26) 0.001479 627.7 825.4
818(26) 0.001479 627.6 816.3
748(25) 0.001600 627.5 807.4
761(25) 0.001600 627.5 798.9
799(26) 0.001479 627.4 790.7
789(25) 0.001600 627.4 783.0
752(25) 0.001600 627.3 775.7
770(25) 0.001600 627.2 769.0
700(24) 0.001736 627.2 762.7
718(24) 0.001736 627.1 757.0
700(24) 0.001736 627.1 751.8
696(24) 0.001736 627.0 747.2
701(24) 0.001736 626.9 743.1
684(24) 0.001736 626.9 739.6
713(24) 0.001736 626.8 736.7
698(24) 0.001736 626.8 734.2
682(24) 0.001736 626.7 732.3
702(24) 0.001736 626.6 730.8
727(24) 0.001736 626.6 729.8
719(24) 0.001736 626.5 729.2
744(25) 0.001600 626.5 728.9
732(24) 0.001736 626.4 729.0
733(24) 0.001736 626.4 729.3
717(24) 0.001736 626.3 729.9
728(24) 0.001736 626.2 730.6
728(24) 0.001736 626.2 731.5
727(24) 0.001736 626.1 732.4
681(24) 0.001736 626.1 733.4
697(24) 0.001736 626.0 734.4
760(25) 0.001600 625.9 735.3
725(24) 0.001736 625.9 736.3
720(24) 0.001736 625.8 737.3
719(24) 0.001736 625.8 738.3
758(25) 0.001600 625.7 739.3
737(25) 0.001600 625.7 740.5
740(25) 0.001600 625.6 741.8
755(25) 0.001600 625.5 743.2
745(25) 0.001600 625.5 744.8
711(24) 0.001736 625.4 746.6
722(24) 0.001736 625.4 748.6
776(25) 0.001600 625.3 750.8
781(25) 0.001600 625.3 753.1
769(25) 0.001600 625.2 755.6
711(24) 0.001736 625.2 758.2
721(24) 0.001736 625.1 760.9
757(25) 0.001600 625.0 763.5
762(25) 0.001600 625.0 766.1
791(25) 0.001600 624.9 768.6
766(25) 0.001600 624.9 770.8
741(25) 0.001600 624.8 772.9
744(25) 0.001600 624.8 774.7
775(25) 0.001600 624.7 776.3
822(26) 0.001479 624.7 777.7
765(25) 0.001600 624.6 778.8
789(25) 0.001600 624.6 779.9
747(25) 0.001600 624.5 780.9
811(26) 0.001479 624.4 781.8
826(26) 0.001479 624.4 782.8
792(36) 0.000772 624. 784.
800(25) 0.001600 624.3 784.9
789(25) 0.001600 624.2 786.2
778(25) 0.001600 624.2 787.5
771(25) 0.001600 624.1 788.9
776(25) 0.001600 624.1 790.4
805(25) 0.001600 624.0 792.0
816(25) 0.001600 624.0 793.6
804(25) 0.001600 623.9 795.2
796(25) 0.001600 623.9 796.9
781(25) 0.001600 623.8 798.5
791(25) 0.001600 623.8 800.2
773(25) 0.001600 623.7 801.9
760(24) 0.001736 623.7 803.7
779(25) 0.001600 623.6 805.5
811(25) 0.001600 623.6 807.4
856(26) 0.001479 623.5 809.4
811(25) 0.001600 623.5 811.5
838(26) 0.001479 623.4 813.6
856(26) 0.001479 623.4 815.8
843(26) 0.001479 623.3 817.9
835(26) 0.001479 623.3 819.9
838(26) 0.001479 623.2 821.8
812(25) 0.001600 623.2 823.4
795(25) 0.001600 623.1 824.8
844(26) 0.001479 623.1 826.0
839(26) 0.001479 623.0 826.8
837(26) 0.001479 623.0 827.3
827(26) 0.001479 622.9 827.6
836(26) 0.001479 622.9 827.6
835(26) 0.001479 622.8 827.4
880(26) 0.001479 622.8 827.0
865(26) 0.001479 622.7 826.5
860(26) 0.001479 622.7 825.8
866(26) 0.001479 622.6 825.0
829(26) 0.001479 622.6 824.2
852(26) 0.001479 622.6 823.4
838(26) 0.001479 622.5 822.4
870(26) 0.001479 622.5 821.5
853(26) 0.001479 622.4 820.5
833(26) 0.001479 622.4 819.6
837(26) 0.001479 622.3 818.6
853(26) 0.001479 622.3 817.6
872(26) 0.001479 622.2 816.7
807(25) 0.001600 622.2 815.9
838(26) 0.001479 622.2 815.0
842(26) 0.001479 622.1 814.2
816(25) 0.001600 622.1 813.5
822(25) 0.001600 622.0 812.8
823(25) 0.001600 622.0 812.1
836(26) 0.001479 621.9 811.4
812(25) 0.001600 621.9 810.8
840(26) 0.001479 621.9 810.2
801(25) 0.001600 621.8 809.7
809(25) 0.001600 621.8 809.2
865(26) 0.001479 621.7 808.9
834(26) 0.001479 621.7 808.7
831(26) 0.001479 621.7 808.8
846(26) 0.001479 621.6 809.2
849(26) 0.001479 621.6 809.8
832(26) 0.001479 621.5 810.8
819(25) 0.001600 621.5 812.2
865(26) 0.001479 621.5 813.9
864(26) 0.001479 621.4 816.0
851(26) 0.001479 621.4 818.3
822(25) 0.001600 621.4 821.0
862(26) 0.001479 621.3 823.9
859(26) 0.001479 621.3 827.0
832(26) 0.001479 621.3 830.1
889(26) 0.001479 621.2 833.3
848(26) 0.001479 621.2 836.5
881(26) 0.001479 621.1 839.6
857(26) 0.001479 621.1 842.6
858(26) 0.001479 621.1 845.4
874(26) 0.001479 621.0 848.0
889(26) 0.001479 621.0 850.4
903(27) 0.001372 621.0 852.6
883(26) 0.001479 621.0 854.7
862(26) 0.001479 620.9 856.6
875(26) 0.001479 620.9 858.4
912(27) 0.001372 620.9 860.0
888(26) 0.001479 620.8 861.5
897(27) 0.001372 620.8 862.8
859(26) 0.001479 620.8 863.9
869(26) 0.001479 620.7 864.7
904(27) 0.001372 620.7 865.3
893(26) 0.001479 620.7 865.4
885(26) 0.001479 620.7 865.2
863(26) 0.001479 620.6 864.6
852(26) 0.001479 620.6 863.5
876(26) 0.001479 620.6 861.8
882(26) 0.001479 620.6 859.7
865(26) 0.001479 620.5 857.0
861(26) 0.001479 620.5 853.9
868(26) 0.001479 620.5 850.3
848(26) 0.001479 620.5 846.2
824(25) 0.001600 620.4 841.7
835(26) 0.001479 620.4 837.0
829(26) 0.001479 620.4 832.0
780(25) 0.001600 620.4 826.9
795(21) 0.002268 620.4 821.7
830(26) 0.001479 620.3 816.5
803(25) 0.001600 620.3 811.4
798(25) 0.001600 620.3 806.5
803(25) 0.001600 620.3 801.7
804(25) 0.001600 620.3 797.2
799(25) 0.001600 620.2 793.0
848(26) 0.001479 620.2 789.0
788(25) 0.001600 620.2 785.4
736(24) 0.001736 620.2 782.2
795(25) 0.001600 620.2 779.4
789(25) 0.001600 620.2 776.9
748(24) 0.001736 620.2 774.8
753(24) 0.001736 620.1 773.2
787(25) 0.001600 620.1 771.9
755(24) 0.001736 620.1 771.0
771(25) 0.001600 620.1 770.4
744(24) 0.001736 620.1 770.1
747(24) 0.001736 620.1 770.2
764(25) 0.001600 620.1 770.5
766(25) 0.001600 620.1 771.0
760(25) 0.001600 620.1 771.7
779(25) 0.001600 620.1 772.5
790(25) 0.001600 620.1 773.4
749(24) 0.001736 620.1 774.4
809(25) 0.001600 620.0 775.4
800(25) 0.001600 620.0 776.4
801(25) 0.001600 620.0 777.4
788(25) 0.001600 620.0 778.4
800(25) 0.001600 620.0 779.2
774(25) 0.001600 620.0 780.0
801(25) 0.001600 620.0 780.7
809(25) 0.001600 620.0 781.2
772(25) 0.001600 620.0 781.6
789(25) 0.001600 620.1 781.8
787(25) 0.001600 620.1 781.9
798(25) 0.001600 620.1 781.8
797(25) 0.001600 620.1 781.6
787(25) 0.001600 620.1 781.3
783(25) 0.001600 620.1 780.9
809(25) 0.001600 620.1 780.4
820(25) 0.001600 620.1 779.9
789(25) 0.001600 620.1 779.4
767(25) 0.001600 620.1 778.9
789(25) 0.001600 620.1 778.3
772(25) 0.001600 620.1 777.9
724(24) 0.001736 620.2 777.4
731(24) 0.001736 620.2 777.0
762(25) 0.001600 620.2 776.7
794(25) 0.001600 620.2 776.3
757(25) 0.001600 620.2 775.9
798(25) 0.001600 620.3 775.5
805(25) 0.001600 620.3 775.0
810(25) 0.001600 620.3 774.5
792(25) 0.001600 620.3 773.9
774(25) 0.001600 620.3 773.1
790(25) 0.001600 620.4 772.3
748(24) 0.001736 620.4 771.4
766(25) 0.001600 620.4 770.3
774(25) 0.001600 620.4 769.1
753(24) 0.001736 620.5 767.9
789(25) 0.001600 620.5 766.7
778(25) 0.001600 620.5 765.4
721(24) 0.001736 620.6 764.1
744(24) 0.001736 620.6 762.8
752(24) 0.001736 620.6 761.6
778(25) 0.001600 620.7 760.6
782(25) 0.001600 620.7 759.6
724(24) 0.001736 620.8 758.8
754(24) 0.001736 620.8 758.1
735(24) 0.001736 620.8 757.6
733(24) 0.001736 620.9 757.2
779(25) 0.001600 620.9 757.0
765(25) 0.001600 621.0 756.9
742(24) 0.001736 621.0 757.0
739(24) 0.001736 621.1 757.1
740(24) 0.001736 621.1 757.4
736(24) 0.001736 621.2 757.7
723(24) 0.001736 621.2 758.0
732(24) 0.001736 621.3 758.4
749(24) 0.001736 621.3 758.8
709(24) 0.001736 621.4 759.1
763(25) 0.001600 621.4 759.4
738(24) 0.001736 621.5 759.6
756(24) 0.001736 621.6 759.8
760(25) 0.001600 621.6 760.0
724(24) 0.001736 621.7 760.1
728(24) 0.001736 621.8 760.2
736(24) 0.001736 621.8 760.2
729(24) 0.001736 621.9 760.2
767(25) 0.001600 622.0 760.2
746(24) 0.001736 622.0 760.1
724(24) 0.001736 622.1 760.0
739(24) 0.001736 622.2 759.9
760(25) 0.001600 622.3 759.7
755(24) 0.001736 622.4 759.5
754(24) 0.001736 622.4 759.2
729(24) 0.001736 622.5 758.9
756(24) 0.001736 622.6 758.5
765(25) 0.001600 622.7 758.0
735(24) 0.001736 622.8 757.5
785(25) 0.001600 622.9 756.8
755(25) 0.001600 623.0 756.1
736(25) 0.001600 623.1 755.2
740(25) 0.001600 623.1 754.3
734(25) 0.001600 623.2 753.3
761(25) 0.001600 623.3 752.2
728(24) 0.001736 623.4 751.1
759(25) 0.001600 623.5 749.9
717(24) 0.001736 623.7 748.7
688(24) 0.001736 623.8 747.4
710(24) 0.001736 623.9 746.2
752(25) 0.001600 624.0 745.1
718(24) 0.001736 624.1 743.9
739(25) 0.001600 624.2 742.9
779(25) 0.001600 624.3 742.0
728(24) 0.001736 624.5 741.2
697(24) 0.001736 624.6 740.5
729(24) 0.001736 624.7 740.0
691(24) 0.001736 624.8 739.6
713(24) 0.001736 625.0 739.4
719(24) 0.001736 625.1 739.3
720(24) 0.001736 625.2 739.4
747(25) 0.001600 625.4 739.6
724(24) 0.001736 625.5 740.1
744(25) 0.001600 625.6 740.6
738(25) 0.001600 625.8 741.3
762(25) 0.001600 625.9 742.1
766(25) 0.001600 626.1 743.1
744(25) 0.001600 626.2 744.1
752(25) 0.001600 626.4 745.3
728(24) 0.001736 626.5 746.5
736(25) 0.001600 626.7 747.9
765(25) 0.001600 626.9 749.3
742(25) 0.001600 627.0 750.7
731(24) 0.001736 627.2 752.2
748(25) 0.001600 627.3 753.8
762(25) 0.001600 627.5 755.4
775(25) 0.001600 627.7 757.1
781(25) 0.001600 627.9 758.8
785(25) 0.001600 628.1 760.5
818(26) 0.001479 628.2 762.2
800(26) 0.001479 628.4 763.9
785(25) 0.001600 628.6 765.7
814(26) 0.001479 628.8 767.4
804(26) 0.001479 629.0 769.2
793(25) 0.001600 629.2 770.9
783(25) 0.001600 629.4 772.7
772(25) 0.001600 629.6 774.5
788(25) 0.001600 629.8 776.3
780(25) 0.001600 630.0 778.1
806(26) 0.001479 630.2 780.0
788(25) 0.001600 630.4 781.9
798(26) 0.001479 630.7 783.8
802(26) 0.001479 630.9 785.7
801(26) 0.001479 631.1 787.7
818(26) 0.001479 631.3 789.7
841(26) 0.001479 631.6 791.6
826(26) 0.001479 631.8 793.6
814(26) 0.001479 632.0 795.5
772(25) 0.001600 632.3 797.4
777(25) 0.001600 632.5 799.3
821(26) 0.001479 632.8 801.0
819(26) 0.001479 633.0 802.7
798(26) 0.001479 633.3 804.3
846(26) 0.001479 633.5 805.7
864(27) 0.001372 633.8 807.0
836(26) 0.001479 634.1 808.1
825(26) 0.001479 634.3 809.1
842(26) 0.001479 634.6 809.9
816(26) 0.001479 634.9 810.6
827(26) 0.001479 635.2 811.0
817(26) 0.001479 635.5 811.3
805(26) 0.001479 635.8 811.4
789(25) 0.001600 636.1 811.2
811(26) 0.001479 636.3 810.8
791(25) 0.001600 636.7 810.2
794(25) 0.001600 637.0 809.4
792(25) 0.001600 637.3 808.4
804(26) 0.001479 637.6 807.1
820(26) 0.001479 637.9 805.6
809(26) 0.001479 638.2 803.9
829(26) 0.001479 638.5 802.0
801(26) 0.001479 638.9 799.9
774(25) 0.001600 639.2 797.7
734(25) 0.001600 639.6 795.4
758(25) 0.001600 639.9 792.9
792(25) 0.001600 640.2 790.4
778(25) 0.001600 640.6 787.9
813(26) 0.001479 641.0 785.4
772(25) 0.001600 641.3 782.8
749(25) 0.001600 641.7 780.3
756(25) 0.001600 642.1 777.9
765(25) 0.001600 642.4 775.6
734(25) 0.001600 642.8 773.3
764(25) 0.001600 643.2 771.2
739(25) 0.001600 643.6 769.2
732(25) 0.001600 644.0 767.3
750(25) 0.001600 644.4 765.6
756(25) 0.001600 644.8 764.0
749(25) 0.001600 645.2 762.5
777(25) 0.001600 645.6 761.3
788(26) 0.001479 646.1 760.2
768(25) 0.001600 646.5 759.2
765(25) 0.001600 646.9 758.5
778(25) 0.001600 647.4 757.9
752(25) 0.001600 647.8 757.5
750(25) 0.001600 648.2 757.2
768(25) 0.001600 648.7 757.1
747(25) 0.001600 649.2 757.2
741(25) 0.001600 649.6 757.4
759(25) 0.001600 650.1 757.8
761(25) 0.001600 650.6 758.3
772(25) 0.001600 651.1 759.0
788(26) 0.001479 651.5 759.8
792(26) 0.001479 652.0 760.7
764(25) 0.001600 652.5 761.7
761(25) 0.001600 653.0 762.8
765(25) 0.001600 653.6 763.9
763(25) 0.001600 654.1 765.2
782(26) 0.001479 654.6 766.5
795(26) 0.001479 655.1 767.8
784(26) 0.001479 655.7 769.3
780(25) 0.001600 656.2 770.7
783(26) 0.001479 656.8 772.2
756(25) 0.001600 657.3 773.7
738(25) 0.001600 657.9 775.3
735(25) 0.001600 658.4 776.9
751(25) 0.001600 659.0 778.6
809(26) 0.001479 659.6 780.3
790(26) 0.001479 660.2 782.1
794(26) 0.001479 660.8 783.9
792(26) 0.001479 661.4 785.9
772(25) 0.001600 662.0 787.8
808(26) 0.001479 662.6 789.9
793(26) 0.001479 663.2 792.1
850(27) 0.001372 663.9 794.3
848(27) 0.001372 664.5 796.6
809(26) 0.001479 665.1 799.0
782(26) 0.001479 665.8 801.4
828(26) 0.001479 666.5 803.9
837(26) 0.001479 667.1 806.5
785(26) 0.001479 667.8 809.1
792(26) 0.001479 668.5 811.7
794(26) 0.001479 669.2 814.4
800(26) 0.001479 669.9 817.1
823(26) 0.001479 670.6 819.7
853(27) 0.001372 671.3 822.3
852(27) 0.001372 672.0 824.9
830(26) 0.001479 672.7 827.4
834(26) 0.001479 673.5 829.8
798(26) 0.001479 674.2 832.2
780(25) 0.001600 675.0 834.4
829(26) 0.001479 675.7 836.5
874(27) 0.001372 676.5 838.5
876(27) 0.001372 677.3 840.4
876(27) 0.001372 678.1 842.1
853(27) 0.001372 678.9 843.7
841(26) 0.001479 679.7 845.1
841(26) 0.001479 680.5 846.4
864(27) 0.001372 681.3 847.6
841(26) 0.001479 682.1 848.6
853(27) 0.001372 683.0 849.6
869(27) 0.001372 683.8 850.4
845(26) 0.001479 684.7 851.1
850(27) 0.001372 685.6 851.6
881(27) 0.001372 686.4 852.1
867(27) 0.001372 687.3 852.5
864(27) 0.001372 688.2 852.9
869(27) 0.001372 689.1 853.1
863(27) 0.001372 690.0 853.3
861(27) 0.001372 691.0 853.4
865(27) 0.001372 691.9 853.5
857(27) 0.001372 692.8 853.5
842(26) 0.001479 693.8 853.4
844(26) 0.001479 694.8 853.3
847(27) 0.001372 695.7 853.1
828(26) 0.001479 696.7 852.9
806(26) 0.001479 697.7 852.6
820(26) 0.001479 698.7 852.2
814(26) 0.001479 699.7 851.8
819(26) 0.001479 700.8 851.4
825(26) 0.001479 701.8 850.9
827(26) 0.001479 702.8 850.3
844(26) 0.001479 703.9 849.7
839(26) 0.001479 705.0 849.0
822(26) 0.001479 706.1 848.3
833(26) 0.001479 707.1 847.6
831(26) 0.001479 708.2 846.8
840(26) 0.001479 709.4 846.0
858(27) 0.001372 710.5 845.2
856(27) 0.001372 711.6 844.4
863(27) 0.001372 712.8 843.5
840(26) 0.001479 713.9 842.7
856(27) 0.001372 715.1 841.8
845(26) 0.001479 716.3 841.0
874(27) 0.001372 717.5 840.2
857(27) 0.001372 718.7 839.4
847(26) 0.001479 719.9 838.7
816(26) 0.001479 721.1 838.0
805(21) 0.002268 722.4 837.4
796(26) 0.001479 723.7 836.8
838(27) 0.001372 724.9 836.3
839(27) 0.001372 726.2 835.9
795(26) 0.001479 727.5 835.6
797(26) 0.001479 728.8 835.3
842(27) 0.001372 730.1 835.2
827(27) 0.001372 731.5 835.1
803(26) 0.001479 732.8 835.1
807(26) 0.001479 734.2 835.3
814(27) 0.001372 735.6 835.5
828(27) 0.001372 736.9 835.8
841(27) 0.001372 738.3 836.3
834(27) 0.001372 739.8 836.8
817(27) 0.001372 741.2 837.5
828(27) 0.001372 742.6 838.2
846(27) 0.001372 744.1 839.1
828(27) 0.001372 745.6 840.1
832(27) 0.001372 747.1 841.1
850(27) 0.001372 748.6 842.3
849(27) 0.001372 750.1 843.5
842(27) 0.001372 751.6 844.8
816(27) 0.001372 753.1 846.3
832(27) 0.001372 754.7 847.8
848(27) 0.001372 756.3 849.4
841(27) 0.001372 757.9 851.1
865(27) 0.001372 759.5 852.9
859(27) 0.001372 761.1 854.8
845(27) 0.001372 762.7 856.8
854(27) 0.001372 764.4 858.8
856(27) 0.001372 766.1 861.0
820(27) 0.001372 767.7 863.2
866(27) 0.001372 769.4 865.5
872(27) 0.001372 771.2 868.0
848(27) 0.001372 772.9 870.5
889(28) 0.001276 774.7 873.1
895(28) 0.001276 776.4 875.8
865(27) 0.001372 778.2 878.6
862(27) 0.001372 780.0 881.5
840(27) 0.001372 781.8 884.5
873(27) 0.001372 783.7 887.6
892(28) 0.001276 785.5 890.8
905(28) 0.001276 787.4 894.1
898(28) 0.001276 789.3 897.4
882(28) 0.001276 791.2 900.9
882(27) 0.001372 793.1 904.4
901(28) 0.001276 795.0 908.1
931(28) 0.001276 797.0 911.8
937(28) 0.001276 799.0 915.6
939(28) 0.001276 801.0 919.4
939(28) 0.001276 803.0 923.3
914(28) 0.001276 805.0 927.3
912(28) 0.001276 807.1 931.3
929(28) 0.001276 809.1 935.4
977(29) 0.001189 811.2 939.6
979(29) 0.001189 813.3 943.8
951(28) 0.001276 815.5 948.0
962(29) 0.001189 817.6 952.3
983(29) 0.001189 819.8 956.6
967(29) 0.001189 822.0 960.9
979(29) 0.001189 824.2 965.3
1000(29) 0.001189 826.4 969.7
1020(29) 0.001189 828.6 974.1
1013(29) 0.001189 830.9 978.6
1014(29) 0.001189 833.2 983.1
1024(29) 0.001189 835.5 987.6
1009(29) 0.001189 837.8 992.1
1018(29) 0.001189 840.2 996.7
1001(29) 0.001189 842.6 1001.3
1019(29) 0.001189 845.0 1005.8
1050(30) 0.001111 847.4 1010.5
1029(29) 0.001189 849.8 1015.1
1013(29) 0.001189 852.3 1019.7
1062(30) 0.001111 854.8 1024.3
1074(30) 0.001111 857.3 1028.9
1055(30) 0.001111 859.8 1033.5
1083(30) 0.001111 862.3 1038.1
1073(30) 0.001111 864.9 1042.6
1035(30) 0.001111 867.5 1047.1
1076(30) 0.001111 870.1 1051.5
1081(30) 0.001111 872.8 1055.9
1049(30) 0.001111 875.4 1060.2
1077(30) 0.001111 878.1 1064.5
1073(30) 0.001111 880.8 1068.6
1082(30) 0.001111 883.6 1072.6
1113(31) 0.001041 886.3 1076.5
1088(30) 0.001111 889.1 1080.3
1083(30) 0.001111 891.9 1084.0
1095(30) 0.001111 894.8 1087.5
1083(30) 0.001111 897.6 1090.9
1098(30) 0.001111 900.5 1094.1
1101(30) 0.001111 903.4 1097.2
1100(30) 0.001111 906.4 1100.1
1104(30) 0.001111 909.3 1102.9
1089(30) 0.001111 912.3 1105.5
1109(31) 0.001041 915.3 1108.0
1106(30) 0.001111 918.4 1110.4
1086(30) 0.001111 921.4 1112.6
1086(30) 0.001111 924.5 1114.7
1115(31) 0.001041 927.7 1116.8
1169(32) 0.000977 930.8 1118.7
1141(32) 0.000977 934.0 1120.5
1123(31) 0.001041 937.2 1122.3
1127(31) 0.001041 940.4 1124.0
1180(32) 0.000977 943.7 1125.7
1148(32) 0.000977 946.9 1127.3
1153(32) 0.000977 950.3 1128.9
1163(32) 0.000977 953.6 1130.5
1114(31) 0.001041 957.0 1132.1
1158(32) 0.000977 960.4 1133.7
1118(31) 0.001041 963.8 1135.3
1099(31) 0.001041 967.3 1137.0
1110(31) 0.001041 970.7 1138.7
1130(32) 0.000977 974.3 1140.4
1053(31) 0.001041 977.8 1142.2
1154(32) 0.000977 981.4 1144.0
1146(32) 0.000977 985.0 1145.9
1162(32) 0.000977 988.6 1147.9
1169(32) 0.000977 992.3 1149.9
1191(32) 0.000977 996.0 1152.1
1138(32) 0.000977 999.7 1154.2
1177(32) 0.000977 1003.5 1156.5
1133(32) 0.000977 1007.3 1158.9
1136(32) 0.000977 1011.1 1161.3
1135(32) 0.000977 1015.0 1163.8
1162(32) 0.000977 1018.9 1166.4
1185(32) 0.000977 1022.8 1169.1
1159(32) 0.000977 1026.7 1171.9
1133(32) 0.000977 1030.7 1174.7
1194(32) 0.000977 1034.8 1177.6
1150(32) 0.000977 1038.8 1180.7
1150(32) 0.000977 1042.9 1183.7
1156(32) 0.000977 1047.0 1186.9
1154(32) 0.000977 1051.2 1190.1
1177(32) . . .
1192(32) . . .
1202(32) . . .
1158(32) . . .
1189(32) . . .
1161(32) . . .
1194(32) . . .
1232(33) . . .
1193(32) . . .
1200(32) . . .
1208(32) . . .
1180(32) . . .
1177(32) . . .
1181(32) . . .
1215(33) . . .
1212(33) . . .
1206(32) . . .
1208(32) . . .
1216(33) . . .
1189(32) . . .
1215(33) . . .
1217(33) . . .
1244(33) . . .
1216(33) . . .
1251(33) . . .
1243(33) . . .
1304(34) . . .
1275(33) . . .
1241(33) . . .
1270(33) . . .
1261(33) . . .
1295(33) . . .
1304(34) . . .
1276(33) . . .
1256(33) . . .
1320(34) . . .
1298(34) . . .
1307(34) . . .
1333(34) . . .
1336(34) . . .
1306(34) . . .
1318(34) . . .
1333(34) . . .
1337(34) . . .
1358(34) . . .
1334(34) . . .
1389(35) . . .
1385(35) . . .
1355(34) . . .
1363(34) . . .
1398(35) . . .
1410(35) . . .
1389(35) . . .
1377(34) . . .
1392(35) . . .
1438(35) . . .
1451(35) . . .
1420(35) . . .
1399(35) . . .
1364(34) . . .
1372(34) . . .
1389(35) . . .
1419(35) . . .
1443(35) . . .
1458(35) . . .
1478(36) . . .
1473(51) . . .
1474(51) . . .
1424(50) . . .
1386(50) . . .
1461(51) . . .
1481(51) . . .
1455(51) . . .
1503(51) . . .
1490(51) . . .
1574(52) . . .
1514(52) . . .
1603(53) . . .
1622(53) . . .
1531(52) . . .
1532(52) . . .
1533(52) . . .
1550(52) . . .
1552(52) . . .
1586(53) . . .
1559(52) . . .
1581(53) . . .
1599(53) . . .
1575(52) . . .
1634(53) . . .
1607(53) . . .
1584(53) . . .
1593(53) . . .
1700(54) . . .
1699(54) . . .
1671(54) . . .
1680(54) . . .
1643(53) . . .
1641(53) . . .
1784(55) . . .
1746(55) . . .
1645(53) . . .
1687(54) . . .
1684(54) . . .
1745(55) . . .
1665(54) . . .
1743(55) . . .
1795(56) . . .
1773(55) . . .
1830(56) . . .
1799(56) . . .
1760(55) . . .
1748(55) . . .
1757(55) . . .
1767(55) . . .
1766(55) . . .
1797(56) . . .
1750(55) . . .
1782(55) . . .
1801(56) . . .
1826(56) . . .
1907(57) . . .
1888(57) . . .
1861(57) . . .
1800(56) . . .
1914(57) . . .
1881(57) . . .
1909(57) . . .
1811(56) . . .
1809(56) . . .
1900(57) . . .
1775(55) . . .
1860(56) . . .
1889(57) . . .
1952(58) . . .
1882(57) . . .
1890(57) . . .
1924(57) . . .
1935(58) . . .
1949(58) . . .
1906(57) . . .
1886(57) . . .
1918(57) . . .
1932(57) . . .
2035(59) . . .
1890(57) . . .
1953(58) . . .
1977(58) . . .
1987(58) . . .
1991(58) . . .
2028(59) . . .
2021(59) . . .
2066(59) . . .
2031(59) . . .
2010(59) . . .
1987(58) . . .
2015(59) . . .
1975(58) . . .
2005(58) . . .
1951(58) . . .
2040(59) . . .
2107(60) . . .
2075(59) . . .
2027(59) . . .
2055(59) . . .
2072(59) . . .
loop_
_refln_index_h
_refln_index_k
_refln_index_l
_refln_observed_status
_refln_F_squared_meas
_refln_F_squared_calc
_refln_phase_calc
_refln_d_spacing
_gsas_i100_meas
1 1 0 o 1036.642 1056.401 -180.00 12.92641 100.00
3 0 0 o 257.504 245.012 -16.65 7.46307 8.33
1 0 1 o 174.877 147.776 40.06 6.49605 4.30
2 2 0 o 16.346 13.320 0.00 6.46321 0.40
2 0 -1 o 638.335 651.172 134.89 5.80433 12.58
2 1 1 o 31.966 33.926 58.14 5.29502 1.05
4 1 0 o 84.058 97.526 78.57 4.88572 2.36
3 1 -1 o 56.262 56.672 -47.70 4.58174 1.40
4 0 1 o 299.169 306.870 -126.30 4.31849 3.31
3 3 0 o 395.004 397.386 180.00 4.30880 4.35
3 2 1 o 35.544 39.630 -167.59 4.09596 0.71
5 0 -1 o 464.025 458.158 23.78 3.73782 3.88
6 0 0 o 479.302 484.301 -65.71 3.73153 4.00
4 2 -1 o 148.474 147.861 -149.95 3.59072 2.30
5 2 0 o 129.897 130.143 -31.10 3.58514 2.01
5 1 1 o 571.765 580.646 24.39 3.45972 8.26
1 0 -2 o 132.124 108.734 -9.70 3.35568 0.90
4 3 1 o 69.079 64.598 -96.58 3.23568 0.88
4 4 0 o 3.758 3.487 -180.00 3.23160 0.02
2 0 2 o 71.549 63.683 -102.84 3.24802 0.46
2 1 -2 o 159.580 139.539 -168.11 3.15010 1.93
6 1 -1 o 8.808 6.234 -139.98 3.05020 0.10
3 1 2 o 43.844 43.861 84.22 2.97820 0.48
7 1 0 o 628.660 618.910 129.44 2.96552 6.79
4 0 -2 o 355.260 349.947 1.99 2.90217 1.84
7 0 1 o 666.968 661.358 167.84 2.89335 3.44
5 3 -1 o 18.439 18.284 134.90 2.89335 0.19
3 2 -2 o 126.033 131.560 117.34 2.83167 1.25
6 2 1 o 385.427 404.325 -153.82 2.82349 3.80
6 3 0 o 52.326 55.341 -107.41 2.82077 0.52
5 0 2 o 306.354 286.200 -1.13 2.70485 1.40
4 2 2 o 2.088 1.935 -134.08 2.64751 0.02
5 4 1 o 293.700 258.746 41.22 2.64081 2.56
5 1 -2 o 105.959 111.855 -86.28 2.59367 0.90
8 0 -1 o 73.737 75.456 32.22 2.58737 0.31
5 5 0 o 179.013 182.192 0.00 2.58528 0.75
7 2 -1 o 211.648 210.530 -176.27 2.53705 1.72
4 3 -2 o 14.181 12.584 -44.92 2.49516 0.11
9 0 0 o 598.210 513.894 -29.18 2.48769 2.34
8 1 1 o 429.121 409.312 -15.61 2.44462 3.26
8 2 0 o 82.982 77.675 -86.11 2.44286 0.63
6 1 2 o 4.539 5.415 -167.21 2.40708 0.03
6 4 -1 o 315.321 345.441 3.19 2.40205 2.32
7 3 1 o 24.476 36.804 66.84 2.36162 0.17
7 0 -2 o 827.185 860.377 82.26 2.32772 2.88
5 3 2 o 278.606 289.785 -152.23 2.32772 1.94
7 4 0 o 30.317 30.828 108.43 2.32165 0.21
6 2 -2 o 45.470 53.098 -159.90 2.29087 0.31
0 0 3 o 2241.704 2305.799 85.76 2.26268 2.48
1 1 3 o 246.542 237.971 -79.24 2.22879 1.59
6 5 1 o 129.766 130.612 -133.43 2.21818 0.83
9 1 -1 o 125.010 125.825 -14.73 2.21818 0.80
5 4 -2 o 214.095 208.325 -44.01 2.19002 1.34
3 0 -3 o 21.522 19.072 175.02 2.16535 0.07
3 0 3 o 37.448 33.184 84.61 2.16535 0.12
8 0 2 o 5.947 5.215 -155.89 2.15925 0.02
8 3 -1 o 57.555 53.699 176.07 2.15561 0.35
6 6 0 o 4.440 4.213 180.00 2.15440 0.01
2 2 3 o 431.033 361.559 142.58 2.13559 2.59
7 2 2 o 126.193 111.277 90.67 2.12974 0.75
10 0 1 o 653.200 592.974 94.96 2.12625 1.95
10 1 0 o 40.187 36.846 84.33 2.12509 0.24
9 2 1 o 532.401 503.477 -144.28 2.09805 3.10
8 1 -2 o 314.170 308.321 -103.85 2.07418 1.80
9 3 0 o 13.060 13.337 144.57 2.06988 0.07
4 1 3 o 137.767 140.874 -34.54 2.05318 0.77
4 1 -3 o 326.957 334.328 10.04 2.05318 1.84
6 4 2 o 474.627 485.138 -24.85 2.04798 2.66
7 5 -1 o 74.401 77.271 179.52 2.04488 0.42
7 3 -2 o 323.646 324.471 106.23 2.02275 1.78
8 4 1 o 171.285 172.669 75.45 2.01976 0.94
3 3 3 o 55.861 62.564 -138.71 2.00327 0.30
8 5 0 o 45.147 41.537 130.63 1.97126 0.24
11 0 -1 o 24.543 25.115 29.49 1.94962 0.06
6 0 3 o 147.230 155.814 93.40 1.93478 0.38
6 0 -3 o 183.749 194.462 -111.45 1.93478 0.47
6 5 -2 o 88.926 94.210 -102.32 1.93042 0.45
9 1 2 o 75.208 79.677 -29.15 1.93042 0.38
10 2 -1 o 77.977 85.380 -173.81 1.92782 0.40
5 2 -3 o 131.621 148.821 178.66 1.91346 0.66
5 2 3 o 13.642 15.424 67.15 1.91346 0.07
7 6 1 o 3.652 4.177 -158.63 1.90673 0.02
8 3 2 o 309.119 323.943 -178.14 1.88876 1.52
10 0 -2 o 935.175 915.099 61.66 1.86891 2.26
9 4 -1 o 20.027 19.488 -64.53 1.86655 0.10
11 1 1 o 238.553 232.126 -27.28 1.86655 1.15
12 0 0 o 159.204 154.755 -176.06 1.86577 0.38
4 4 3 o 0.941 0.936 46.57 1.85351 0.00
9 2 -2 o 180.833 184.787 -62.95 1.84968 0.86
7 7 0 o 17.506 18.276 180.00 1.84663 0.04
11 2 0 o 31.645 33.038 -84.91 1.84663 0.15
10 3 1 o 10.744 11.131 -113.06 1.82881 0.05
7 5 2 o 95.853 106.174 167.24 1.81293 0.44
8 4 -2 o 57.740 62.826 86.27 1.79536 0.26
10 4 0 o 87.185 92.776 -43.92 1.79257 0.40
7 1 -3 o 56.017 61.645 72.03 1.79886 0.26
7 1 3 o 125.270 137.857 -134.94 1.79886 0.57
8 6 -1 o 165.780 144.538 38.36 1.77626 0.74
6 3 -3 o 48.530 44.098 7.83 1.76501 0.22
6 3 3 o 60.194 54.697 -56.28 1.76501 0.27
9 5 1 o 40.925 41.819 -37.67 1.75972 0.18
11 0 2 o 497.389 485.405 110.28 1.74556 1.09
10 2 2 o 400.920 363.264 -45.83 1.72986 1.73
12 1 -1 o 55.544 50.169 144.96 1.72799 0.24
5 5 3 o 176.724 179.417 67.55 1.70266 0.74
7 6 -2 o 5.899 5.824 -154.44 1.71457 0.03
9 6 0 o 125.689 130.248 -9.38 1.71214 0.53
11 3 -1 o 108.899 100.539 5.74 1.69791 0.46
1 0 4 o 7.583 6.736 -13.54 1.69216 0.02
9 4 2 o 87.768 78.292 46.72 1.68518 0.36
11 1 -2 o 151.063 134.753 -146.36 1.68518 0.63
2 0 -4 o 94.428 89.290 22.21 1.67784 0.19
9 0 -3 o 85.483 82.404 62.42 1.67386 0.18
9 0 3 o 311.741 300.513 49.82 1.67386 0.64
13 0 1 o 223.069 214.979 164.64 1.66935 0.46
8 7 1 o 90.971 87.672 119.41 1.66935 0.37
2 1 4 o 141.055 136.477 150.45 1.66388 0.58
8 2 -3 o 212.740 201.995 -113.41 1.66000 0.87
8 2 3 o 32.472 30.832 111.29 1.66000 0.13
10 3 -2 o 61.462 57.780 -173.45 1.65725 0.25
12 2 1 o 415.792 391.092 132.67 1.65561 1.68
13 1 0 o 84.004 79.134 43.89 1.65506 0.34
10 5 -1 o 37.540 45.444 -13.95 1.64219 0.15
12 3 0 o 45.428 52.398 177.78 1.62857 0.18
3 1 -4 o 10.540 14.688 152.87 1.63698 0.04
4 0 4 o 278.973 284.553 -45.57 1.62401 0.55
7 4 -3 o 197.146 191.569 113.40 1.62040 0.78
7 4 3 o 68.017 66.093 -115.40 1.62040 0.27
8 6 2 o 51.765 50.150 -62.65 1.61784 0.20
11 4 1 o 208.421 203.387 -16.73 1.61631 0.82
8 8 0 o 154.119 150.901 -180.00 1.61580 0.30
3 2 4 o 31.503 32.459 -30.19 1.61134 0.12
9 5 -2 o 27.352 31.500 18.95 1.60532 0.11
5 0 -4 o 199.047 192.846 -28.36 1.58687 0.38
12 1 2 o 121.932 124.289 -173.22 1.58112 0.47
11 5 0 o 131.182 131.044 103.89 1.57921 0.50
5 1 4 o 221.819 206.695 94.93 1.56349 0.84
4 2 -4 o 24.996 23.546 -167.27 1.57505 0.09
6 6 3 o 6.162 5.754 60.30 1.56027 0.02
11 3 2 o 162.950 152.778 176.09 1.55798 0.61
14 0 -1 o 227.644 214.412 1.95 1.55661 0.43
10 6 1 o 13.270 12.499 -143.12 1.55661 0.05
9 7 -1 o 149.992 137.183 -142.22 1.56802 0.57
10 1 3 o 130.273 122.245 -71.23 1.54902 0.49
10 1 -3 o 48.408 45.425 -19.36 1.54902 0.18
13 2 -1 o 103.508 98.289 -128.92 1.54545 0.38
4 3 4 o 59.118 58.748 -127.72 1.54110 0.22
8 7 -2 o 0.012 0.012 4.29 1.53583 0.00
13 0 -2 o 393.969 389.943 27.61 1.53583 0.73
9 3 -3 o 27.005 25.820 -155.77 1.52725 0.10
9 3 3 o 38.928 37.219 137.22 1.52725 0.14
12 2 -2 o 23.639 22.475 135.26 1.52510 0.09
6 1 -4 o 15.132 15.101 79.06 1.51966 0.06
10 5 2 o 293.510 263.112 24.13 1.51460 1.07
14 1 1 o 344.101 327.839 -26.76 1.50307 1.24
12 4 -1 o 123.939 108.074 -178.53 1.51334 0.45
10 7 0 o 77.652 67.142 -70.36 1.51292 0.28
7 0 4 o 172.139 173.207 -98.24 1.49908 0.31
5 3 -4 o 37.630 37.863 -104.56 1.49908 0.14
11 4 -2 o 142.804 149.481 -9.09 1.49422 0.51
15 0 0 o 25.619 27.020 -34.62 1.49261 0.05
6 2 4 o 95.363 102.414 -103.58 1.48910 0.34
8 5 -3 o 60.153 65.187 40.10 1.48632 0.21
8 5 3 o 52.163 56.529 77.82 1.48632 0.19
9 8 1 o 174.982 189.664 -65.75 1.48315 0.62
13 3 1 o 286.128 310.135 -100.37 1.48315 1.02
14 2 0 o 82.805 89.782 -97.83 1.48276 0.29
9 7 2 o 47.790 60.525 176.27 1.45582 0.17
13 4 0 o 53.048 66.665 64.54 1.45433 0.18
11 6 -1 o 106.670 136.577 80.76 1.46401 0.37
8 0 -4 o 2.509 2.919 -148.34 1.45108 0.00
5 4 4 o 95.206 118.913 13.57 1.46031 0.33
14 0 2 o 478.241 493.619 -12.50 1.44668 0.83
10 6 -2 o 129.465 133.628 -109.56 1.44668 0.45
12 5 1 o 668.768 677.026 115.47 1.44558 2.31
7 2 -4 o 71.870 70.404 137.80 1.44203 0.25
12 0 3 o 194.279 188.857 101.22 1.43950 0.33
12 0 -3 o 66.971 65.102 -161.94 1.43950 0.12
13 2 2 o 123.973 119.180 26.61 1.43770 0.43
9 9 0 o 0.415 0.392 0.00 1.43627 0.00
7 7 3 o 104.382 96.402 -171.01 1.43065 0.36
11 2 -3 o 174.509 161.168 104.39 1.43065 0.60
11 2 3 o 30.784 28.431 176.44 1.43065 0.11
6 4 -4 o 7.210 8.393 -44.56 1.41584 0.02
8 1 4 o 186.159 204.195 59.62 1.42441 0.64
12 4 2 o 60.503 62.225 -100.64 1.41174 0.20
15 1 -1 o 2.167 2.185 2.28 1.41073 0.01
12 6 0 o 230.925 231.708 -127.64 1.41039 0.78
7 3 4 o 340.440 338.567 166.70 1.40742 1.15
10 4 -3 o 211.113 215.469 -67.09 1.40507 0.71
10 4 3 o 108.565 110.806 -42.23 1.40507 0.37
14 1 -2 o 61.338 64.068 -136.88 1.40340 0.21
10 8 -1 o 108.696 115.095 -117.38 1.40240 0.37
11 7 1 o 82.430 88.865 -86.60 1.39422 0.28
14 3 -1 o 64.400 69.428 64.93 1.39422 0.22
9 8 -2 o 34.639 34.435 84.98 1.38714 0.12
13 3 -2 o 13.144 13.066 -142.37 1.38714 0.04
9 1 -4 o 89.636 94.029 -54.98 1.37519 0.30
6 5 4 o 242.475 254.358 -1.08 1.37519 0.81
11 6 2 o 138.642 149.817 -164.30 1.37144 0.46
16 0 1 o 80.188 86.071 128.44 1.37051 0.13
9 6 3 o 42.933 41.662 -69.94 1.36532 0.14
9 6 -3 o 0.567 0.550 16.75 1.36532 0.00
15 2 1 o 304.437 290.313 122.29 1.36287 1.01
13 5 -1 o 18.695 17.828 -60.71 1.36287 0.06
8 3 -4 o 23.564 21.960 63.14 1.35989 0.08
12 5 -2 o 310.157 276.597 114.71 1.35626 1.02
1 0 -5 o 8.635 7.606 -98.79 1.35512 0.01
11 8 0 o 152.652 134.378 106.68 1.35506 0.50
16 1 0 o 87.695 77.197 115.91 1.35506 0.29
9 2 4 o 1095.301 991.562 -15.35 1.34508 3.59
10 0 4 o 1258.530 1088.739 -155.84 1.35242 2.07
2 1 -5 o 69.398 68.070 99.71 1.34047 0.23
14 4 1 o 56.909 55.522 -35.48 1.34070 0.19
15 3 0 o 34.251 33.644 -88.59 1.34041 0.11
2 0 5 o 70.996 62.632 37.09 1.34773 0.12
13 1 -3 o 16.847 17.802 -13.96 1.33584 0.06
13 1 3 o 20.408 21.565 -106.81 1.33584 0.07
10 9 1 o 161.804 166.993 69.60 1.33354 0.53
7 5 -4 o 213.982 206.107 -178.20 1.33075 0.70
15 1 2 o 213.268 193.975 167.12 1.32735 0.69
3 1 5 o 60.665 54.881 175.80 1.32628 0.20
8 4 4 o 488.124 444.661 178.92 1.32375 1.59
8 8 3 o 42.168 45.575 69.67 1.31494 0.14
12 3 -3 o 46.273 43.429 -142.56 1.32180 0.15
12 3 3 o 52.704 49.464 -9.64 1.32180 0.17
14 3 2 o 46.845 51.148 -141.91 1.31357 0.15
11 7 -2 o 7.180 7.839 -82.14 1.31357 0.02
3 2 -5 o 17.082 18.899 -5.75 1.31254 0.06
14 5 0 o 17.589 19.479 26.46 1.31248 0.06
10 8 2 o 40.630 39.447 -12.24 1.32041 0.13
4 0 -5 o 138.620 138.465 -110.82 1.31936 0.23
12 7 -1 o 51.965 51.602 -44.59 1.31957 0.17
13 6 1 o 62.109 83.127 -33.49 1.30603 0.20
11 0 -4 o 58.489 77.274 55.72 1.30341 0.09
10 5 5 o 133.216 135.986 84.45 1.05900 0.89
5 0 5 o 382.892 436.809 26.90 1.29921 0.62
14 10 1 o 69.606 70.982 -38.37 1.05912 0.46
7 6 4 o 38.747 40.599 -90.26 1.29036 0.13
10 2 -4 o 69.003 71.838 166.29 1.29683 0.22
15 2 -2 o 27.932 31.914 154.25 1.28725 0.09
13 5 2 o 175.606 200.638 71.34 1.28725 0.57
11 5 3 o 230.201 231.162 120.99 1.29499 0.74
11 5 -3 o 133.194 133.750 68.17 1.29499 0.43
5 1 -5 o 55.230 64.756 17.41 1.28628 0.18
16 2 -1 o 60.662 70.771 -92.82 1.28648 0.20
16 0 -2 o 365.159 365.428 8.61 1.29369 0.59
4 2 5 o 65.181 65.685 -118.44 1.29270 0.21
17 0 -1 o 262.466 263.964 144.58 1.29290 0.42
10 10 0 o 462.461 466.304 0.00 1.29264 0.75
14 9 2 o 4.201 4.266 87.27 1.05955 0.03
19 2 2 o 4.222 4.287 -138.06 1.05955 0.03
11 1 4 o 273.032 292.128 84.78 1.27769 0.88
9 4 -4 o 39.770 42.551 -20.46 1.27769 0.13
14 4 -2 o 153.230 148.357 -46.96 1.26852 0.49
11 9 -1 o 239.206 232.408 93.97 1.26778 0.77
15 4 -1 o 10.813 10.506 -57.18 1.26778 0.03
4 3 -5 o 79.761 79.542 -145.24 1.27373 0.26
13 7 0 o 277.323 276.438 31.83 1.27368 0.90
10 3 4 o 183.294 182.260 -124.96 1.26538 0.59
10 9 4 o 88.759 88.145 -82.88 1.06127 0.56
10 9 -2 o 29.409 30.535 -61.89 1.26246 0.09
6 1 5 o 27.096 28.547 -175.02 1.26154 0.09
12 8 1 o 143.866 151.122 -175.03 1.26173 0.46
10 7 -3 o 2.620 2.852 -127.74 1.25768 0.01
10 7 3 o 97.219 105.855 -25.04 1.25768 0.31
12 2 -5 o 378.245 369.306 52.23 1.06258 2.35
13 11 -1 o 85.299 83.171 44.28 1.06269 0.53
17 1 1 o 68.867 73.700 -76.64 1.25576 0.22
20 2 0 o 233.497 228.063 76.05 1.06254 1.45
8 6 -4 o 45.952 45.733 -6.20 1.24758 0.15
15 0 3 o 101.948 99.763 29.77 1.24594 0.17
15 0 -3 o 1.810 1.771 131.10 1.24594 0.00
6 2 -5 o 10.598 10.138 91.61 1.24389 0.03
16 3 1 o 55.371 53.072 -77.32 1.24408 0.18
18 0 0 o 72.648 69.454 9.67 1.24384 0.12
12 7 2 o 29.608 30.028 -3.29 1.25059 0.10
5 3 5 o 86.902 87.655 -6.25 1.24969 0.28
7 0 -5 o 115.155 116.153 179.32 1.24969 0.19
9 5 4 o 602.828 563.059 39.98 1.24181 1.95
14 2 -3 o 87.995 80.398 -43.80 1.24019 0.29
14 2 3 o 0.118 0.108 104.49 1.24019 0.00
13 6 -2 o 5.778 5.165 134.09 1.23904 0.02
14 6 -1 o 136.445 119.972 132.97 1.23835 0.44
17 2 0 o 111.329 97.306 -135.11 1.23813 0.36
12 1 -4 o 6.944 6.077 -150.97 1.23050 0.02
20 0 2 o 1114.557 1081.580 -33.46 1.06312 3.42
17 0 2 o 45.193 40.659 -47.19 1.22781 0.07
5 4 -5 o 64.580 58.311 157.83 1.22697 0.21
12 9 0 o 796.452 719.279 -148.14 1.22692 2.59
14 4 4 o 30.348 29.177 -135.63 1.06487 0.18
13 4 -3 o 133.198 123.945 127.34 1.22342 0.43
13 4 3 o 186.965 173.977 -173.58 1.22342 0.61
16 2 2 o 215.673 204.063 -8.62 1.22231 0.70
8 0 5 o 103.338 99.050 34.96 1.22148 0.17
15 5 1 o 9.502 9.083 106.68 1.22165 0.03
16 4 0 o 230.130 220.741 51.30 1.22143 0.75
11 3 -4 o 7.751 7.644 -77.63 1.21950 0.03
9 9 3 o 158.990 161.054 -163.38 1.21260 0.52
12 11 -2 o 16.363 16.025 -38.70 1.06674 0.09
8 7 -5 o 53.154 51.605 115.33 1.06618 0.31
13 0 -5 o 143.261 139.085 169.67 1.06618 0.42
11 10 1 o 178.075 179.414 6.54 1.21088 0.59
15 9 0 o 83.654 81.182 -32.98 1.06615 0.49
21 0 0 o 208.458 202.297 -108.39 1.06615 0.61
7 2 5 o 333.834 337.739 -157.38 1.21606 1.09
13 0 4 o 400.177 397.884 -15.10 1.20879 0.66
8 7 4 o 42.173 41.932 -171.33 1.20879 0.14
15 4 2 o 7.665 7.514 -149.17 1.20624 0.03
11 9 2 o 10.457 10.252 -134.63 1.20624 0.03
8 1 -5 o 1.651 1.615 -79.23 1.20544 0.01
4 4 6 o 10.859 10.859 -19.21 1.06780 0.06
10 5 -4 o 2.809 2.694 86.76 1.19836 0.01
12 2 4 o 761.981 743.118 -143.42 1.20354 2.52
12 6 3 o 37.851 35.982 -63.37 1.19691 0.13
12 6 -3 o 136.896 130.138 -118.63 1.19691 0.45
17 1 -2 o 55.828 52.957 173.62 1.19587 0.19
7 3 -5 o 274.689 261.044 -23.78 1.19509 0.91
15 6 0 o 634.281 602.898 -135.91 1.19505 2.11
12 8 -2 o 0.397 0.386 128.31 1.20102 0.00
6 4 5 o 609.635 592.045 35.03 1.20023 2.02
19 3 1 o 52.068 54.098 -110.83 1.06995 0.29
17 6 -1 o 89.044 92.515 2.48 1.06995 0.49
13 8 -1 o 111.085 107.958 -67.80 1.20040 0.37
16 3 -2 o 32.675 39.118 138.95 1.18577 0.11
18 1 -1 o 141.399 149.385 15.92 1.19018 0.47
14 7 1 o 26.832 28.347 34.45 1.19018 0.09
11 4 4 o 399.989 452.640 49.66 1.18819 1.34
11 11 0 o 103.887 111.024 0.00 1.17513 0.18
14 6 2 o 127.743 146.408 -91.74 1.18081 0.43
17 3 -1 o 112.892 127.347 -178.73 1.18021 0.38
11 3 5 o 204.035 213.438 -69.80 1.07351 1.08
14 0 -4 o 97.820 98.152 42.91 1.16386 0.17
10 6 4 o 619.019 621.121 -121.61 1.16386 2.14
6 5 -5 o 377.154 402.805 153.77 1.17517 1.28
9 1 5 o 143.338 153.087 27.02 1.17517 0.49
9 7 -4 o 10.933 12.111 -125.55 1.16861 0.04
15 2 4 o 143.326 146.579 -144.69 1.07588 0.74
13 5 -4 o 10.475 10.713 -5.95 1.07588 0.05
16 1 -3 o 58.801 58.641 129.16 1.16253 0.20
11 8 3 o 43.357 43.240 -163.33 1.16253 0.15
11 8 -3 o 40.539 40.428 31.96 1.16253 0.14
16 1 3 o 35.215 35.119 169.07 1.16253 0.12
10 0 -5 o 983.892 983.257 18.86 1.16087 1.71
5 2 6 o 39.537 39.203 37.39 1.07890 0.20
5 2 -6 o 22.416 22.226 -38.54 1.07890 0.11
19 0 1 o 90.436 90.327 86.07 1.16101 0.16
16 5 -1 o 375.158 374.703 -4.98 1.16101 1.30
14 8 0 o 339.930 339.768 21.71 1.16083 1.18
16 4 -3 o 4.073 4.215 108.64 1.07483 0.02
16 4 3 o 319.154 330.304 156.26 1.07483 1.66
15 5 -2 o 41.517 43.274 -14.29 1.16630 0.14
12 9 3 o 165.116 164.089 -14.94 1.07856 0.82
12 9 -3 o 280.647 278.901 103.97 1.07856 1.40
8 3 5 o 364.805 374.529 -124.50 1.16558 1.26
13 2 -4 o 21.040 21.295 -99.32 1.15917 0.07
15 3 -3 o 17.258 19.517 -119.16 1.15324 0.06
15 3 3 o 86.891 98.265 -48.22 1.15324 0.31
16 6 -2 o 126.433 126.432 126.17 1.07781 0.64
20 1 1 o 34.015 34.170 -77.43 1.07735 0.17
13 9 1 o 10.052 11.604 -133.25 1.15176 0.04
12 12 0 o 304.351 306.251 0.00 1.07720 0.77
12 1 5 o 5.332 5.248 -132.52 1.08099 0.03
11 10 -2 o 1.654 1.731 161.84 1.15692 0.01
12 4 -4 o 17.577 18.604 75.98 1.14544 0.06
9 2 -5 o 893.892 948.279 -174.29 1.15621 3.13
18 2 1 o 18.358 19.419 92.57 1.15636 0.06
12 10 -1 o 190.574 201.589 157.72 1.15636 0.67
16 0 4 o 86.223 85.168 -38.15 1.07962 0.21
8 4 -5 o 430.559 440.705 16.35 1.14258 1.55
17 4 1 o 26.344 27.008 79.63 1.14272 0.10
13 8 2 o 123.319 135.483 126.18 1.14776 0.44
6 0 6 o 260.575 257.082 -120.24 1.08267 0.63
6 0 -6 o 399.656 394.300 -129.28 1.08267 0.96
7 5 5 o 96.280 104.500 46.05 1.14707 0.34
19 1 0 o 22.858 24.793 34.50 1.14703 0.08
14 1 4 o 76.023 76.564 91.22 1.14097 0.28
17 3 2 o 55.472 50.883 -105.58 1.13008 0.21
14 5 3 o 397.452 379.170 24.67 1.13531 1.46
14 5 -3 o 187.694 179.060 -0.42 1.13531 0.69
11 0 5 o 936.115 857.040 -123.40 1.12942 1.75
17 2 -3 o 82.517 83.316 -97.24 1.08615 0.38
17 2 3 o 0.099 0.100 -93.66 1.08615 0.00
3 3 6 o 296.078 283.990 -157.58 1.09425 1.30
11 6 -4 o 5.828 5.450 -104.94 1.12359 0.02
18 0 3 o 6.113 6.000 10.83 1.09000 0.01
18 0 -3 o 102.783 100.878 37.71 1.09000 0.23
15 7 -1 o 233.991 219.508 -172.19 1.13390 0.86
14 7 -2 o 38.386 38.065 -84.48 1.13882 0.14
18 1 2 o 252.628 250.514 138.16 1.13882 0.92
15 7 2 o 175.278 174.122 -69.71 1.08922 0.80
10 10 3 o 535.126 508.238 41.93 1.12240 2.05
18 3 0 o 140.077 138.079 -130.90 1.13811 0.51
1 1 6 o 29.853 27.250 -108.10 1.12703 0.11
4 1 -6 o 103.236 111.526 30.99 1.10218 0.43
4 1 6 o 98.936 106.881 47.78 1.10218 0.41
9 5 -5 o 37.884 37.938 -31.41 1.08863 0.17
9 8 4 o 71.813 66.400 45.82 1.13218 0.27
13 3 4 o 250.056 231.208 18.88 1.13218 0.93
18 4 -1 o 491.703 491.642 158.98 1.08876 2.24
8 6 5 o 74.902 71.466 14.33 1.09251 0.33
0 0 6 o 488.130 449.541 52.40 1.13134 0.30
15 8 1 o 4.495 4.287 -121.78 1.09264 0.02
17 4 -2 o 15.616 15.848 178.86 1.09704 0.07
7 6 -5 o 143.478 139.057 -170.94 1.12090 0.55
16 6 1 o 50.005 48.382 -160.79 1.12103 0.19
17 5 0 o 292.089 283.216 58.03 1.12086 1.13
13 10 0 o 280.888 272.354 133.15 1.12086 1.08
16 7 0 o 163.056 162.911 -160.13 1.09640 0.71
12 5 4 o 254.978 251.523 -147.45 1.11520 1.00
10 2 5 o 760.960 700.733 71.59 1.12514 2.89
19 2 -1 o 167.680 179.974 0.53 1.10053 0.71
14 9 -1 o 166.696 178.918 -1.94 1.10053 0.70
13 7 3 o 178.712 179.416 176.91 1.10991 0.72
13 7 -3 o 5.174 5.195 175.67 1.10991 0.02
13 9 -2 o 67.590 72.468 107.85 1.10503 0.28
2 2 6 o 54.413 53.498 20.17 1.11440 0.22
11 7 4 o 378.456 365.552 58.00 1.09110 1.70
14 3 -4 o 66.732 64.456 141.69 1.09110 0.30
10 3 -5 o 5.527 5.955 -170.61 1.10441 0.02
20 0 -1 o 621.484 669.006 -150.35 1.10454 1.29
12 10 2 o 5.067 5.135 -34.84 1.10909 0.02
18 2 -2 o 165.311 167.547 -13.63 1.10909 0.67
3 0 -6 o 147.676 146.092 -145.98 1.11856 0.29
3 0 6 o 112.933 111.722 -146.51 1.11856 0.22
10 8 -4 o 56.540 54.816 136.03 1.09501 0.25
12 11 1 o 248.974 254.007 124.18 1.10860 1.01
15 1 -4 o 11.825 12.490 -97.12 1.09896 0.05
16 5 2 o 291.988 286.742 79.86 1.11319 1.16
19 0 -2 o 23.988 23.557 -122.56 1.11319 0.05
9 4 5 o 147.423 145.031 -134.00 1.11256 0.59
11 1 -5 o 50.208 49.393 -80.96 1.11256 0.20
