#------------------------------------------------------------------------------
#$Date: 2016-02-16 22:30:59 +0200 (Tue, 16 Feb 2016) $
#$Revision: 176467 $
#$URL: svn://www.crystallography.net/cod/cif/4/12/24/4122452.cif $
#------------------------------------------------------------------------------
#
# This file is available in the Crystallography Open Database (COD),
# http://www.crystallography.net/
#
# All data on this site have been placed in the public domain by the
# contributors.
#
data_4122452
loop_
_publ_author_name
'Kapelewski, Matthew T.'
'Geier, Stephen J.'
'Hudson, Matthew R.'
'St\"uck, David'
'Mason, Jarad A.'
'Nelson, Jocienne N.'
'Xiao, Dianne J.'
'Hulvey, Zeric'
'Gilmour, Elizabeth'
'FitzGerald, Stephen A.'
'Head-Gordon, Martin'
'Brown, Craig M.'
'Long, Jeffrey R.'
_publ_section_title
;
 M2(m-dobdc) (M = Mg, Mn, Fe, Co, Ni) Metal-Organic Frameworks Exhibiting
 Increased Charge Density and Enhanced H2 Binding at the Open Metal Sites.
;
_journal_issue                   34
_journal_name_full               'Journal of the American Chemical Society'
_journal_page_first              12119
_journal_paper_doi               10.1021/ja506230r
_journal_volume                  136
_journal_year                    2014
_chemical_formula_sum            'C4 H Co D1.59 O3'
_chemical_formula_weight         159.18
_chemical_name_systematic        ' ?'
_space_group_IT_number           148
_symmetry_cell_setting           trigonal
_symmetry_space_group_name_Hall  '-R 3'
_symmetry_space_group_name_H-M   'R -3 :H'
_audit_creation_date             2013-05-16T12:13
_audit_creation_method           'from EXP file using GSAS2CIF'
_audit_update_record
' 2013-05-16T12:13  Initial CIF as created by GSAS2CIF'
_cell_angle_alpha                90.0
_cell_angle_beta                 90.0
_cell_angle_gamma                120.0
_cell_formula_units_Z            18
_cell_length_a                   25.8707(10)
_cell_length_b                   25.8707
_cell_length_c                   6.8687(4)
_cell_volume                     3981.3(3)
_computing_structure_refinement  GSAS
_diffrn_radiation_probe          neutron
_diffrn_radiation_wavelength     2.078
_exptl_absorpt_correction_T_max  1.00000
_exptl_absorpt_correction_T_min  1.00000
_exptl_absorpt_process_details
;   GSAS Absorption/surface roughness correction: function number 0
 No correction is applied.
;
_pd_block_id                     2013-05-16T12:13|CO_0P75_D2_R||BT1
_pd_calc_method                  'Rietveld Refinement'
_pd_instr_location               ' ?'
_pd_meas_2theta_range_inc        0.05
_pd_meas_2theta_range_max        166.25
_pd_meas_2theta_range_min        1.5
_pd_meas_number_of_points        3296
_pd_phase_name                   'Co_dobdc_0.75 D2 per Co'
_pd_proc_2theta_range_inc        0.05
_pd_proc_2theta_range_max        166.28
_pd_proc_2theta_range_min        1.53
_pd_proc_info_datetime           2013-05-16T12:13:23
_pd_proc_info_excluded_regions   ' ?'
_pd_proc_ls_background_function
;   GSAS Background function number 1 with 12 terms.
 Shifted Chebyshev function of 1st kind
      1:    1575.40     2:   -270.863     3:    246.497     4:    102.912    
      5:    110.153     6:    43.7049     7:    61.4817     8:    21.1818    
      9:    25.9276    10:    17.3866    11:   0.664722    12:    12.8597    
;
_pd_proc_ls_peak_cutoff          0.00010
_pd_proc_ls_profile_function
;
 CW Profile function number 3 with  19 terms
 Pseudovoigt profile coefficients as parameterized in
 P. Thompson, D.E. Cox & J.B. Hastings (1987). J. Appl. Cryst.,20,79-83.
 Asymmetry correction of L.W. Finger, D.E. Cox & A. P. Jephcoat (1994).
 J. Appl. Cryst.,27,892-900.
 Peak tails are ignored  where the intensity is below 0.0001 times the peak
   Aniso. broadening axis   0.0   0.0   1.0
;
_pd_proc_ls_prof_R_factor        0.0229
_pd_proc_ls_prof_wR_expected     0.0242
_pd_proc_ls_prof_wR_factor       0.0279
_pd_proc_number_of_points        3296
_pd_spec_mounting                ' ?'
_refine_ls_goodness_of_fit_all   1.16
_refine_ls_matrix_type           full
_refine_ls_number_parameters     57
_refine_ls_number_restraints     1
_refine_ls_R_Fsqd_factor         0.08687
_refine_ls_shift/su_max          4.90
_refine_ls_shift/su_mean         0.32
_reflns_d_resolution_high        1.052
_reflns_d_resolution_low         12.935
_reflns_limit_h_max              24
_reflns_limit_h_min              0
_reflns_limit_k_max              12
_reflns_limit_k_min              -11
_reflns_limit_l_max              6
_reflns_limit_l_min              -6
_reflns_number_total             803
_cod_data_source_file            CO_regular_0P75_D2_R.cif
_cod_data_source_block           CO_0P75_D2_R_publ
_cod_depositor_comments
;
The following automatic conversions were performed:

'_geom_bond_publ_flag' value 'N' changed to 'n' according to
/usr/data/users/saulius/crontab/automatic-downloads/rss-feeds/ACS/lib/dictionaries/cif_core.dic
dictionary named 'cif_core.dic' version 2.4.2 from 2011-04-26 (67
times).

'_geom_angle_publ_flag' value 'N' changed to 'n' according
to
/usr/data/users/saulius/crontab/automatic-downloads/rss-feeds/ACS/lib/dictionaries/cif_core.dic
dictionary named 'cif_core.dic' version 2.4.2 from 2011-04-26 (47
times).

Automatic conversion script
Id: cif_fix_values 2281 2013-09-26 08:29:07Z andrius 

 Adding full bibliography for 4122440--4122455.cif.
;
_cod_original_cell_volume        3981.26(28)
_cod_original_sg_symbol_H-M      'R -3'
_cod_original_formula_sum        'C4 H D1.59 Co O3'
_cod_database_code               4122452
#BEGIN Tags that were not found in dictionaries:
_gsas_exptl_extinct_corr_t_min   1.00000
_gsas_exptl_extinct_corr_t_max   1.00000
#END Tags that were not found in dictionaries
loop_
_symmetry_equiv_pos_site_id
_symmetry_equiv_pos_as_xyz
1 +x,+y,+z
2 -y,x-y,+z
3 y-x,-x,+z
-1 -x,-y,-z
-2 +y,y-x,-z
-3 x-y,+x,-z
101 +x+1/3,+y+2/3,+z+2/3
102 -y+1/3,x-y+2/3,+z+2/3
103 y-x+1/3,-x+2/3,+z+2/3
-101 -x+2/3,-y+1/3,-z+1/3
-102 +y+2/3,y-x+1/3,-z+1/3
-103 x-y+2/3,+x+1/3,-z+1/3
201 +x+2/3,+y+1/3,+z+1/3
202 -y+2/3,x-y+1/3,+z+1/3
203 y-x+2/3,-x+1/3,+z+1/3
-201 -x+1/3,-y+2/3,-z+2/3
-202 +y+1/3,y-x+2/3,-z+2/3
-203 x-y+1/3,+x+2/3,-z+2/3
loop_
_atom_site_type_symbol
_atom_site_label
_atom_site_fract_x
_atom_site_fract_y
_atom_site_fract_z
_atom_site_occupancy
_atom_site_thermal_displace_type
_atom_site_U_iso_or_equiv
_atom_site_symmetry_multiplicity
Co Co 0.3857(10) 0.3549(11) 0.1342(33) 1.0 Uiso 0.004(6) 18
O O1 0.3229(5) 0.2946(5) 0.3716(17) 1.0 Uiso 0.0169(32) 18
O O2 0.3040(5) 0.2292(5) 0.6005(13) 1.0 Uiso 0.0048(25) 18
O O3 0.3577(5) 0.2742(5) 0.0017(18) 1.0 Uiso 0.0052(29) 18
C C1 0.3147(5) 0.2463(5) 0.4283(14) 1.0 Uiso 0.0303(32) 18
C C2 0.3300(4) 0.2086(4) 0.2811(13) 1.0 Uiso 0.0180(28) 18
C C3 0.3491(4) 0.2278(4) 0.0895(12) 1.0 Uiso 0.0103(26) 18
C C4 0.3525(4) 0.1839(5) -0.0347(12) 1.0 Uiso 0.0038(29) 18
H H 0.3601(7) 0.1925(6) -0.1593(25) 1.0 Uiso 0.001(4) 18
D D1 0.4659(4) 0.3498(4) 0.2648(13) 1.589(26) Uiso 0.089(5) 18
loop_
_atom_type_symbol
_atom_type_number_in_cell
_atom_type_scat_length_neutron
_atom_type_scat_source
Co 18.0 0.2490 International_Tables_Vol_C
O 54.0 0.5803 International_Tables_Vol_C
C 72.0 0.6646 International_Tables_Vol_C
H 18.0 -0.3739 International_Tables_Vol_C
D 28.61 0.6671 International_Tables_Vol_C
loop_
_geom_angle_atom_site_label_1
_geom_angle_atom_site_label_2
_geom_angle_atom_site_label_3
_geom_angle
_geom_angle_site_symmetry_1
_geom_angle_site_symmetry_3
_geom_angle_publ_flag
Co Co Co 109.6(9) 103_554 202_555 n
Co Co O1 94.0(10) 103_554 1_555 n
Co Co O1 48.0(6) 103_554 103_554 n
Co Co O2 86.2(6) 103_554 202_554 n
Co Co O3 41.6(8) 103_554 1_555 n
Co Co O3 138.3(14) 103_554 202_555 n
Co Co D1 128.3(14) 103_554 1_555 n
Co Co O1 42.3(4) 202_555 1_555 n
Co Co O1 67.9(10) 202_555 103_554 n
Co Co O2 135.5(16) 202_555 202_554 n
Co Co O3 119.6(12) 202_555 1_555 n
Co Co O3 41.6(8) 202_555 202_555 n
Co Co D1 109.0(7) 202_555 1_555 n
O1 Co O1 78.9(8) 1_555 103_554 n
O1 Co O2 177.6(16) 1_555 202_554 n
O1 Co O3 81.5(10) 1_555 1_555 n
O1 Co O3 78.9(9) 1_555 202_555 n
O1 Co D1 92.1(10) 1_555 1_555 n
O1 Co O2 99.5(12) 103_554 202_554 n
O1 Co O3 84.2(9) 103_554 1_555 n
O1 Co O3 90.5(11) 103_554 202_555 n
O1 Co D1 169.4(14) 103_554 1_555 n
O2 Co O3 100.1(11) 202_554 1_555 n
O2 Co O3 99.5(12) 202_554 202_555 n
O2 Co D1 89.7(10) 202_554 1_555 n
O3 Co O3 160.3(14) 1_555 202_555 n
O3 Co D1 89.1(11) 1_555 1_555 n
O3 Co D1 93.1(10) 202_555 1_555 n
Co O1 Co 89.7(5) 1_555 202_555 n
Co O1 C1 128.8(12) 1_555 1_555 n
Co O1 C1 139.5(12) 202_555 1_555 n
Co O2 C1 120.6(12) 103_555 1_555 n
Co O3 Co 96.8(11) 1_555 103_554 n
Co O3 C3 124.2(12) 1_555 1_555 n
Co O3 C3 127.1(11) 103_554 1_555 n
O1 C1 O2 124.0(13) 1_555 1_555 n
O1 C1 C2 117.2(10) 1_555 1_555 n
O2 C1 C2 117.9(10) 1_555 1_555 n
C1 C2 C3 122.1(9) 1_555 1_555 n
C1 C2 C4 110.5(8) 1_555 -201_555 n
C3 C2 C4 127.0(10) 1_555 -201_555 n
O3 C3 C2 130.4(10) 1_555 1_555 n
O3 C3 C4 114.3(10) 1_555 1_555 n
C2 C3 C4 114.8(9) 1_555 1_555 n
C2 C4 C3 118.1(8) -201_555 1_555 n
C2 C4 H 123.8(12) -201_555 1_555 n
C3 C4 H 117.8(12) 1_555 1_555 n
loop_
_geom_bond_atom_site_label_1
_geom_bond_atom_site_label_2
_geom_bond_distance
_geom_bond_site_symmetry_2
_geom_bond_publ_flag
Co Co 3.069(27) 103_554 n
Co Co 3.069(27) 202_555 n
Co O1 2.280(25) 1_555 n
Co O1 2.067(24) 103_554 n
Co O1 2.985(25) 202_554 n
Co O2 1.933(25) 202_554 n
Co O3 2.050(25) 1_555 n
Co O3 2.054(25) 202_555 n
Co C1 3.192(25) 1_555 n
Co C1 3.099(26) 103_554 n
Co C1 2.781(27) 202_554 n
Co C3 2.949(27) 1_555 n
Co C3 2.987(27) 202_555 n
Co D1 2.324(25) 1_555 n
O1 Co 2.280(25) 1_555 n
O1 Co 2.985(25) 103_555 n
O1 Co 2.067(24) 202_555 n
O1 O2 2.179(16) 1_555 n
O1 C1 1.222(13) 1_555 n
O1 C2 2.404(15) 1_555 n
O2 Co 1.933(25) 103_555 n
O2 O1 2.179(16) 1_555 n
O2 C1 1.245(11) 1_555 n
O2 C2 2.430(14) 1_555 n
O3 Co 2.050(25) 1_555 n
O3 Co 2.054(25) 103_554 n
O3 C2 2.421(14) 1_555 n
O3 C3 1.260(14) 1_555 n
O3 C4 2.285(16) 1_555 n
C1 Co 3.192(25) 1_555 n
C1 Co 2.781(27) 103_555 n
C1 Co 3.099(26) 202_555 n
C1 O1 1.222(13) 1_555 n
C1 O2 1.245(11) 1_555 n
C1 C2 1.585(13) 1_555 n
C1 C3 2.619(13) 1_555 n
C1 C4 2.533(15) -201_444 n
C2 O1 2.404(15) 1_555 n
C2 O2 2.430(14) 1_555 n
C2 O3 2.421(14) 1_555 n
C2 C1 1.585(13) 1_555 n
C2 C2 2.755(21) -201_444 n
C2 C3 1.406(11) 1_555 n
C2 C3 2.534(13) -201_444 n
C2 C4 2.413(11) 1_555 n
C2 C4 1.497(13) -201_444 n
C2 H 2.119(19) -201_444 n
C3 Co 2.949(27) 1_555 n
C3 Co 2.987(27) 103_554 n
C3 O3 1.260(14) 1_555 n
C3 C1 2.619(13) 1_555 n
C3 C2 1.406(11) 1_555 n
C3 C2 2.534(13) -201_444 n
C3 C4 1.457(12) 1_555 n
C3 C4 2.599(12) -201_444 n
C3 H 2.025(17) 1_555 n
C4 O3 2.285(16) 1_555 n
C4 C1 2.533(15) -201_444 n
C4 C2 2.413(11) 1_555 n
C4 C2 1.497(13) -201_444 n
C4 C3 1.457(12) 1_555 n
C4 C3 2.599(12) -201_444 n
C4 H 0.882(21) 1_555 n
H C2 2.119(19) -201_444 n
H C3 2.025(17) 1_555 n
H C4 0.882(21) 1_555 n
D1 Co 2.324(25) 1_555 n
loop_
_pd_meas_intensity_total
_pd_proc_ls_weight
_pd_proc_intensity_bkg_calc
_pd_calc_intensity_total
6600(170) 0.0 1933. .
5830(160) 0.0 1938. .
5250(160) 0.0 1943. .
4480(140) 0.0 1948. .
3920(130) 0.0 1952. .
3650(130) 0.0 1957. .
3460(130) 0.0 1961. .
3320(120) 0.0 1966. .
3330(120) 0.0 1970. .
2740(110) 0.0 1974. .
2660(110) 0.0 1978. .
2520(110) 0.0 1982. .
2530(110) 0.0 1986. .
2610(110) 0.0 1990. .
2540(110) 0.0 1994. .
2590(110) 0.0 1997. .
2660(110) 0.0 2001. .
2560(110) 0.0 2005. .
2660(110) 0.0 2008. .
2540(110) 0.0 2011. .
2690(110) 0.0 2015. .
2570(110) 0.0 2018. .
2480(110) 0.0 2021. .
2540(110) 0.0 2024. .
2860(120) 0.0 2027. .
2730(110) 0.0 2030. .
2570(110) 0.0 2033. .
2710(110) 0.0 2035. .
2780(110) 0.0 2038. .
2920(120) 0.0 2041. .
2790(110) 0.0 2043. .
2540(110) 0.0 2046. .
2440(110) 0.0 2048. .
2570(110) 0.0 2050. .
2770(110) 0.0 2053. .
2620(110) 0.0 2055. .
2420(110) 0.0 2057. .
2620(110) 0.0 2059. .
2480(110) 0.0 2061. .
2490(110) 0.0 2063. .
2410(110) 0.0 2065. .
2340(100) 0.0 2067. .
2540(110) 0.0 2069. .
2300(100) 0.0 2070. .
2410(110) 0.0 2072. .
2420(110) 0.0 2074. .
2460(110) 0.0 2075. .
2290(100) 0.0 2077. .
2180(100) 0.0 2078. .
2160(100) 0.0 2080. .
2104(99) 0.0 2081. .
2540(110) 0.0 2082. .
2320(100) 0.0 2083. .
2490(110) 0.0 2085. .
2380(110) 0.0 2086. .
2400(110) 0.0 2087. .
2320(100) 0.0 2088. .
2510(110) 0.0 2089. .
2310(100) 0.0 2090. .
2300(100) 0.0 2091. .
2320(100) 0.0 2092. .
2300(100) 0.0 2092. .
2310(100) 0.0 2093. .
2270(100) 0.0 2094. .
2290(100) 0.0 2095. .
2113(99) 0.0 2095. .
2220(100) 0.0 2096. .
2270(100) 0.0 2096. .
2260(100) 0.0 2097. .
2170(100) 0.0 2097. .
2059(98) 0.0 2098. .
1943(95) 0.0 2098. .
2130(100) 0.0 2098. .
2450(110) 0.0 2099. .
2063(98) 0.0 2099. .
2280(100) 0.0 2099. .
2310(100) 0.0 2099. .
2140(100) 0.0 2100. .
2210(100) 0.0 2100. .
2130(100) 0.0 2100. .
2086(99) 0.0 2100. .
2130(100) 0.0 2100. .
2113(99) 0.0 2100. .
2170(100) 0.0 2100. .
2210(100) 0.0 2100. .
2108(99) 0.0 2100. .
2230(100) 0.0 2100. .
2113(99) 0.0 2099. .
1871(94) 0.0 2099. .
2055(98) 0.0 2099. .
2086(99) 0.0 2099. .
2117(99) 0.0 2098. .
2250(100) 0.0 2098. .
2059(98) 0.0 2098. .
2180(100) 0.0 2097. .
1983(96) 0.0 2097. .
2059(98) 0.0 2097. .
2037(98) 0.0 2096. .
2130(100) 0.0 2096. .
2041(98) 0.0 2095. .
2291(70) 0.0 2095. .
2225(69) 0.0 2094. .
2117(68) 0.0 2094. .
2014(66) 0.0002296 2093. 2097.
2278(70) 0.0002041 2092. 2097.
2117(68) 0.0002163 2092. 2096.
2147(68) 0.0002163 2091. 2096.
2220(69) 0.0002100 2090. 2095.
2158(68) 0.0002163 2090. 2095.
2089(67) 0.0002228 2089. 2095.
2165(68) 0.0002163 2088. 2094.
2070(67) 0.0002228 2087. 2094.
2137(68) 0.0002163 2087. 2093.
2117(68) 0.0002163 2086. 2093.
2087(67) 0.0002228 2085. 2092.
2131(68) 0.0002163 2084. 2092.
2115(68) 0.0002163 2083. 2091.
2017(66) 0.0002296 2082. 2091.
2019(66) 0.0002296 2082. 2091.
2084(67) 0.0002228 2081. 2090.
1961(65) 0.0002367 2080. 2090.
2050(67) 0.0002228 2079. 2090.
2011(66) 0.0002296 2078. 2089.
2011(66) 0.0002296 2077. 2089.
2132(68) 0.0002163 2076. 2089.
1977(65) 0.0002367 2075. 2089.
2139(68) 0.0002163 2074. 2089.
1901(64) 0.0002441 2073. 2090.
2193(69) 0.0002100 2072. 2090.
2094(67) 0.0002228 2071. 2091.
2102(67) 0.0002228 2070. 2092.
1986(66) 0.0002296 2069. 2093.
2004(66) 0.0002296 2067. 2094.
1986(66) 0.0002296 2066. 2096.
2144(68) 0.0002163 2065. 2099.
2103(67) 0.0002228 2064. 2102.
2172(69) 0.0002100 2063. 2107.
2095(67) 0.0002228 2062. 2115.
2294(70) 0.0002041 2061. 2131.
2354(71) 0.0001984 2059. 2171.
2691(76) 0.0001731 2058. 2263.
2711(76) 0.0001731 2057. 2454.
3180(83) 0.0001452 2056. 2804.
3586(88) 0.0001291 2055. 3368.
4219(95) 0.0001108 2053. 4189.
5230(110) 0.0000890 2052. 5303.
6420(120) 0.0000731 2051. 6775.
8290(130) 0.0000565 2050. 8742.
11080(150) 0.0000422 2048. 11462.
15140(180) 0.0000309 2047. 15250.
20240(210) 0.0000231 2046. 20194.
26520(240) 0.0000175 2045. 25610.
30280(260) 0.0000154 2043. 29730.
31270(260) 0.0000149 2042. 30370.
26740(240) 0.0000175 2041. 26557.
20750(210) 0.0000227 2039. 19684.
12510(160) 0.0000376 2038. 12537.
7460(130) 0.0000630 2037. 7208.
4216(95) 0.0001108 2035. 4179.
2754(77) 0.0001687 2034. 2828.
2322(71) 0.0001984 2033. 2340.
2157(68) 0.0002163 2031. 2186.
2079(67) 0.0002228 2030. 2136.
1928(65) 0.0002367 2029. 2113.
2046(66) 0.0002296 2027. 2097.
2041(66) 0.0002296 2026. 2086.
2003(66) 0.0002296 2025. 2076.
2006(66) 0.0002296 2023. 2068.
1966(65) 0.0002367 2022. 2061.
1881(64) 0.0002441 2020. 2055.
1987(65) 0.0002367 2019. 2050.
2040(66) 0.0002296 2018. 2046.
2023(66) 0.0002296 2016. 2041.
2067(67) 0.0002228 2015. 2038.
1868(64) 0.0002441 2014. 2034.
2010(66) 0.0002296 2012. 2031.
1990(66) 0.0002296 2011. 2028.
1927(65) 0.0002367 2009. 2025.
1934(65) 0.0002367 2008. 2023.
1900(64) 0.0002441 2007. 2020.
1864(64) 0.0002441 2005. 2018.
1978(65) 0.0002367 2004. 2016.
1936(65) 0.0002367 2002. 2014.
1992(66) 0.0002296 2001. 2011.
1986(65) 0.0002367 2000. 2009.
1949(65) 0.0002367 1998. 2007.
1996(66) 0.0002296 1997. 2005.
2115(68) 0.0002163 1995. 2004.
2053(67) 0.0002228 1994. 2002.
2022(66) 0.0002296 1993. 2000.
2047(66) 0.0002296 1991. 1998.
1971(65) 0.0002367 1990. 1996.
2025(66) 0.0002296 1988. 1995.
2001(66) 0.0002296 1987. 1993.
1982(66) 0.0002296 1985. 1991.
1917(64) 0.0002441 1984. 1990.
2024(90) 0.0001235 1983. 1988.
1969(89) 0.0001262 1981. 1986.
2138(93) 0.0001156 1980. 1985.
1952(89) 0.0001262 1978. 1983.
2026(66) 0.0002296 1977. 1982.
1951(64) 0.0002441 1976. 1980.
2071(66) 0.0002296 1974. 1979.
2004(65) 0.0002367 1973. 1977.
1980(65) 0.0002367 1971. 1975.
1973(65) 0.0002367 1970. 1974.
1960(64) 0.0002441 1969. 1972.
1905(64) 0.0002441 1967. 1971.
1947(64) 0.0002441 1966. 1969.
2039(66) 0.0002296 1965. 1968.
1929(64) 0.0002441 1963. 1966.
1990(65) 0.0002367 1962. 1965.
2008(65) 0.0002367 1960. 1964.
1877(63) 0.0002520 1959. 1962.
2036(66) 0.0002296 1958. 1961.
2032(66) 0.0002296 1956. 1959.
1983(65) 0.0002367 1955. 1958.
2037(66) 0.0002296 1954. 1956.
1943(64) 0.0002441 1952. 1955.
1868(63) 0.0002520 1951. 1953.
1924(64) 0.0002441 1950. 1952.
1920(64) 0.0002441 1948. 1951.
1913(64) 0.0002441 1947. 1949.
1943(64) 0.0002441 1946. 1948.
1898(63) 0.0002520 1944. 1947.
1979(65) 0.0002367 1943. 1945.
1939(64) 0.0002441 1942. 1944.
1985(65) 0.0002367 1940. 1942.
1974(65) 0.0002367 1939. 1941.
1899(63) 0.0002520 1938. 1940.
1948(64) 0.0002441 1936. 1938.
2010(65) 0.0002367 1935. 1937.
1899(63) 0.0002520 1934. 1936.
1971(65) 0.0002367 1932. 1934.
1997(65) 0.0002367 1931. 1933.
2097(67) 0.0002228 1930. 1932.
1935(64) 0.0002441 1929. 1931.
1933(64) 0.0002441 1927. 1929.
1918(64) 0.0002441 1926. 1928.
1951(64) 0.0002441 1925. 1927.
1853(63) 0.0002520 1924. 1926.
1862(63) 0.0002520 1922. 1924.
1939(64) 0.0002441 1921. 1923.
1976(65) 0.0002367 1920. 1922.
2055(66) 0.0002296 1919. 1921.
2110(67) 0.0002228 1917. 1919.
1991(65) 0.0002367 1916. 1918.
1934(64) 0.0002441 1915. 1917.
1959(64) 0.0002441 1914. 1916.
2024(66) 0.0002296 1912. 1915.
1935(64) 0.0002441 1911. 1913.
1936(64) 0.0002441 1910. 1912.
1917(64) 0.0002441 1909. 1911.
1865(63) 0.0002520 1908. 1910.
1944(64) 0.0002441 1907. 1909.
1928(64) 0.0002441 1905. 1908.
1901(63) 0.0002520 1904. 1907.
1824(62) 0.0002601 1903. 1906.
1930(64) 0.0002441 1902. 1904.
1882(63) 0.0002520 1901. 1903.
1892(63) 0.0002520 1900. 1902.
1879(63) 0.0002520 1898. 1901.
1925(64) 0.0002441 1897. 1900.
1907(64) 0.0002441 1896. 1899.
1899(63) 0.0002520 1895. 1898.
1935(64) 0.0002441 1894. 1898.
1982(65) 0.0002367 1893. 1897.
2013(65) 0.0002367 1892. 1896.
1940(64) 0.0002441 1891. 1895.
1874(63) 0.0002520 1889. 1894.
1919(64) 0.0002441 1888. 1894.
1899(63) 0.0002520 1887. 1893.
1937(64) 0.0002441 1886. 1893.
1981(65) 0.0002367 1885. 1892.
1956(64) 0.0002441 1884. 1892.
1882(63) 0.0002520 1883. 1892.
1886(63) 0.0002520 1882. 1893.
1917(64) 0.0002441 1881. 1894.
1975(65) 0.0002367 1880. 1896.
1941(64) 0.0002441 1879. 1902.
2028(66) 0.0002296 1878. 1920.
2025(66) 0.0002296 1877. 1962.
2102(67) 0.0002228 1876. 2054.
2280(70) 0.0002041 1875. 2236.
2695(76) 0.0001731 1874. 2557.
3079(81) 0.0001524 1873. 3063.
3811(90) 0.0001235 1872. 3745.
4300(96) 0.0001085 1871. 4468.
4710(100) 0.0001000 1870. 4959.
4570(99) 0.0001020 1869. 4943.
4048(93) 0.0001156 1868. 4379.
3326(84) 0.0001417 1867. 3542.
2683(76) 0.0001731 1866. 2781.
2269(69) 0.0002100 1865. 2281.
2045(66) 0.0002296 1864. 2029.
1948(64) 0.0002441 1863. 1928.
1911(93) 0.0001156 1862. 1894.
1953(63) 0.0002520 1861. 1882.
1884(62) 0.0002601 1860. 1877.
1882(62) 0.0002601 1860. 1873.
1815(61) 0.0002687 1859. 1870.
1861(62) 0.0002601 1858. 1868.
1903(62) 0.0002601 1857. 1866.
1842(61) 0.0002687 1856. 1864.
1895(62) 0.0002601 1855. 1863.
1921(63) 0.0002520 1854. 1861.
1862(62) 0.0002601 1853. 1860.
1928(63) 0.0002520 1853. 1859.
1920(63) 0.0002520 1852. 1857.
1914(63) 0.0002520 1851. 1856.
1868(62) 0.0002601 1850. 1855.
1861(62) 0.0002601 1849. 1854.
1787(60) 0.0002778 1848. 1854.
1816(61) 0.0002687 1847. 1853.
1942(63) 0.0002520 1847. 1852.
1819(61) 0.0002687 1846. 1851.
2033(65) 0.0002367 1845. 1851.
1912(63) 0.0002520 1844. 1850.
1888(62) 0.0002601 1844. 1850.
1889(62) 0.0002601 1843. 1849.
1866(62) 0.0002601 1842. 1849.
1917(63) 0.0002520 1841. 1849.
1976(64) 0.0002441 1840. 1849.
1927(63) 0.0002520 1840. 1850.
1907(62) 0.0002601 1839. 1853.
1929(63) 0.0002520 1838. 1861.
2029(64) 0.0002441 1837. 1881.
1935(63) 0.0002520 1837. 1927.
2025(64) 0.0002441 1836. 2019.
1991(64) 0.0002441 1835. 2180.
2182(67) 0.0002228 1835. 2420.
2474(71) 0.0001984 1834. 2706.
2664(74) 0.0001826 1833. 2954.
2658(74) 0.0001826 1832. 3062.
2519(72) 0.0001929 1832. 2997.
2497(72) 0.0001929 1831. 2852.
2588(73) 0.0001877 1830. 2761.
2561(72) 0.0001929 1830. 2768.
2624(73) 0.0001877 1829. 2799.
2597(73) 0.0001877 1828. 2740.
2451(71) 0.0001984 1828. 2551.
2167(67) 0.0002228 1827. 2300.
2068(65) 0.0002367 1826. 2083.
1950(63) 0.0002520 1826. 1944.
1905(62) 0.0002601 1825. 1875.
1880(62) 0.0002601 1825. 1848.
1894(62) 0.0002601 1824. 1838.
1831(61) 0.0002687 1823. 1834.
1925(63) 0.0002520 1823. 1832.
1839(61) 0.0002687 1822. 1831.
1813(61) 0.0002687 1821. 1829.
1852(62) 0.0002601 1821. 1828.
1867(62) 0.0002601 1820. 1827.
1890(62) 0.0002601 1820. 1826.
1890(62) 0.0002601 1819. 1826.
1937(63) 0.0002520 1819. 1825.
1836(61) 0.0002687 1818. 1824.
1785(60) 0.0002778 1817. 1824.
1867(62) 0.0002601 1817. 1824.
1864(62) 0.0002601 1816. 1823.
1859(62) 0.0002601 1816. 1823.
1922(63) 0.0002520 1815. 1823.
1793(61) 0.0002687 1815. 1823.
1889(62) 0.0002601 1814. 1824.
1851(62) 0.0002601 1814. 1824.
1804(61) 0.0002687 1813. 1825.
1819(61) 0.0002687 1813. 1826.
1837(61) 0.0002687 1812. 1828.
1877(62) 0.0002601 1812. 1831.
1803(61) 0.0002687 1811. 1839.
1854(62) 0.0002601 1811. 1860.
1917(63) 0.0002520 1810. 1913.
2208(67) 0.0002228 1810. 2039.
2306(69) 0.0002100 1809. 2300.
2756(75) 0.0001778 1809. 2762.
3501(85) 0.0001384 1808. 3429.
4398(95) 0.0001108 1808. 4165.
4639(98) 0.0001041 1807. 4686.
4515(96) 0.0001085 1807. 4702.
3921(90) 0.0001235 1806. 4171.
3269(82) 0.0001487 1806. 3375.
2577(73) 0.0001877 1806. 2658.
2159(66) 0.0002296 1805. 2191.
1991(64) 0.0002441 1805. 1960.
1894(62) 0.0002601 1804. 1868.
1911(63) 0.0002520 1804. 1836.
1832(61) 0.0002687 1803. 1826.
1770(60) 0.0002778 1803. 1820.
1892(62) 0.0002601 1803. 1817.
1907(62) 0.0002601 1802. 1814.
1841(61) 0.0002687 1802. 1812.
1823(61) 0.0002687 1801. 1811.
1887(62) 0.0002601 1801. 1809.
1799(61) 0.0002687 1801. 1808.
1944(63) 0.0002520 1800. 1807.
1722(59) 0.0002873 1800. 1806.
1825(58) 0.0002973 1799. 1805.
1835(58) 0.0002973 1799. 1804.
1846(58) 0.0002973 1799. 1804.
1833(58) 0.0002973 1798. 1803.
1832(58) 0.0002973 1798. 1802.
1861(59) 0.0002873 1798. 1802.
1894(59) 0.0002873 1797. 1801.
1897(59) 0.0002873 1797. 1801.
1761(57) 0.0003078 1797. 1801.
1821(58) 0.0002973 1796. 1800.
1881(59) 0.0002873 1796. 1800.
1831(58) 0.0002973 1796. 1800.
1774(57) 0.0003078 1795. 1800.
1813(58) 0.0002973 1795. 1800.
1838(58) 0.0002973 1795. 1801.
1826(58) 0.0002973 1794. 1805.
1841(58) 0.0002973 1794. 1814.
1822(58) 0.0002973 1794. 1837.
1860(58) 0.0002973 1793. 1883.
1943(60) 0.0002778 1793. 1958.
1999(61) 0.0002687 1793. 2055.
2027(61) 0.0002687 1792. 2143.
1991(61) 0.0002687 1792. 2180.
1908(59) 0.0002873 1792. 2142.
1920(59) 0.0002873 1792. 2047.
1871(59) 0.0002873 1791. 1944.
1773(57) 0.0003078 1791. 1867.
1971(60) 0.0002778 1791. 1824.
1768(57) 0.0003078 1790. 1805.
1856(58) 0.0002973 1790. 1798.
1827(58) 0.0002973 1790. 1795.
1833(58) 0.0002973 1790. 1794.
1845(58) 0.0002973 1789. 1793.
1943(60) 0.0002778 1789. 1792.
1831(58) 0.0002973 1789. 1792.
1772(57) 0.0003078 1789. 1792.
1837(58) 0.0002973 1788. 1791.
1716(56) 0.0003189 1788. 1791.
1816(58) 0.0002973 1788. 1790.
1833(58) 0.0002973 1788. 1790.
1813(58) 0.0002973 1787. 1790.
1776(57) 0.0003078 1787. 1790.
1762(57) 0.0003078 1787. 1789.
1812(58) 0.0002973 1787. 1789.
1883(59) 0.0002873 1786. 1789.
1887(59) 0.0002873 1786. 1789.
1865(59) 0.0002873 1786. 1789.
1783(57) 0.0003078 1786. 1789.
1790(57) 0.0003078 1785. 1789.
1835(58) 0.0002973 1785. 1789.
1787(57) 0.0003078 1785. 1789.
1872(59) 0.0002873 1785. 1789.
1812(58) 0.0002973 1785. 1789.
1841(58) 0.0002973 1784. 1789.
1820(58) 0.0002973 1784. 1790.
1802(58) 0.0002973 1784. 1791.
1806(58) 0.0002973 1784. 1795.
1926(60) 0.0002778 1784. 1804.
1852(58) 0.0002973 1783. 1827.
1924(59) 0.0002873 1783. 1879.
1858(58) 0.0002973 1783. 1979.
1991(61) 0.0002687 1783. 2130.
2139(63) 0.0002520 1783. 2302.
2118(62) 0.0002601 1782. 2428.
2168(63) 0.0002520 1782. 2438.
2106(62) 0.0002601 1782. 2322.
1988(60) 0.0002778 1782. 2143.
1848(58) 0.0002973 1782. 1980.
1855(58) 0.0002973 1781. 1874.
1822(58) 0.0002973 1781. 1820.
1792(57) 0.0003078 1781. 1799.
1795(57) 0.0003078 1781. 1792.
1808(58) 0.0002973 1781. 1789.
1795(57) 0.0003078 1781. 1788.
1781(57) 0.0003078 1780. 1787.
1751(57) 0.0003078 1780. 1786.
1814(58) 0.0002973 1780. 1786.
1843(58) 0.0002973 1780. 1786.
1809(58) 0.0002973 1780. 1786.
1840(58) 0.0002973 1780. 1786.
1828(58) 0.0002973 1779. 1786.
1817(58) 0.0002973 1779. 1786.
1800(58) 0.0002973 1779. 1787.
1805(58) 0.0002973 1779. 1787.
1784(57) 0.0003078 1779. 1788.
1773(57) 0.0003078 1779. 1790.
1748(57) 0.0003078 1778. 1794.
1825(58) 0.0002973 1778. 1804.
1831(58) 0.0002973 1778. 1831.
1845(58) 0.0002973 1778. 1896.
2076(62) 0.0002601 1778. 2034.
2257(64) 0.0002441 1778. 2269.
2423(67) 0.0002228 1778. 2581.
2759(71) 0.0001984 1777. 2873.
2783(72) 0.0001929 1777. 3006.
2700(71) 0.0001984 1777. 2894.
2491(68) 0.0002163 1777. 2599.
2162(63) 0.0002520 1777. 2272.
1935(60) 0.0002778 1777. 2025.
1962(60) 0.0002778 1777. 1885.
1929(60) 0.0002778 1776. 1823.
1855(58) 0.0002973 1776. 1799.
1773(56) 0.0003189 1776. 1791.
1782(56) 0.0003189 1776. 1788.
1802(57) 0.0003078 1776. 1786.
1806(57) 0.0003078 1776. 1785.
1848(58) 0.0002973 1776. 1784.
1765(56) 0.0003189 1775. 1784.
1860(58) 0.0002973 1775. 1783.
1791(57) 0.0003078 1775. 1783.
1767(56) 0.0003189 1775. 1783.
1782(56) 0.0003189 1775. 1783.
1839(57) 0.0003078 1775. 1783.
1767(56) 0.0003189 1775. 1783.
1804(57) 0.0003078 1775. 1784.
1685(55) 0.0003306 1774. 1785.
1742(56) 0.0003189 1774. 1786.
1798(57) 0.0003078 1774. 1787.
1852(58) 0.0002973 1774. 1789.
1743(56) 0.0003189 1774. 1793.
1779(56) 0.0003189 1774. 1802.
1843(57) 0.0003078 1774. 1823.
1893(58) 0.0002973 1773. 1873.
2025(60) 0.0002778 1773. 1974.
2238(63) 0.0002520 1773. 2144.
2450(66) 0.0002296 1773. 2381.
2823(71) 0.0001984 1773. 2658.
3120(75) 0.0001778 1773. 2939.
3295(77) 0.0001687 1773. 3210.
3467(79) 0.0001602 1773. 3455.
3702(82) 0.0001487 1772. 3593.
3587(81) 0.0001524 1772. 3499.
3237(76) 0.0001731 1772. 3151.
2744(70) 0.0002041 1772. 2686.
2336(65) 0.0002367 1772. 2278.
2111(62) 0.0002601 1772. 2011.
1967(59) 0.0002873 1772. 1876.
1824(57) 0.0003078 1772. 1820.
1756(56) 0.0003189 1771. 1799.
1806(57) 0.0003078 1771. 1791.
1769(56) 0.0003189 1771. 1788.
1672(55) 0.0003306 1771. 1785.
1741(56) 0.0003189 1771. 1783.
1769(56) 0.0003189 1771. 1782.
1819(57) 0.0003078 1771. 1781.
1738(56) 0.0003189 1770. 1780.
1813(57) 0.0003078 1770. 1779.
1781(56) 0.0003189 1770. 1779.
1845(58) 0.0002973 1770. 1779.
1831(57) 0.0003078 1770. 1779.
1804(57) 0.0003078 1770. 1780.
1812(57) 0.0003078 1770. 1784.
1791(57) 0.0003078 1770. 1796.
1820(57) 0.0003078 1769. 1824.
1796(57) 0.0003078 1769. 1881.
1959(59) 0.0002873 1769. 1973.
2078(61) 0.0002687 1769. 2089.
2129(62) 0.0002601 1769. 2186.
2198(63) 0.0002520 1769. 2214.
2163(62) 0.0002601 1769. 2155.
2066(61) 0.0002687 1768. 2041.
1903(58) 0.0002973 1768. 1928.
1876(58) 0.0002973 1768. 1847.
1860(58) 0.0002973 1768. 1804.
1844(57) 0.0003078 1768. 1784.
1849(58) 0.0002973 1768. 1777.
1776(56) 0.0003189 1768. 1775.
1801(57) 0.0003078 1767. 1773.
1805(57) 0.0003078 1767. 1772.
1785(57) 0.0003078 1767. 1772.
1766(56) 0.0003189 1767. 1771.
1779(56) 0.0003189 1767. 1771.
1731(56) 0.0003189 1767. 1770.
1781(56) 0.0003189 1767. 1770.
1790(57) 0.0003078 1766. 1770.
1719(55) 0.0003306 1766. 1770.
1778(56) 0.0003189 1766. 1769.
1787(57) 0.0003078 1766. 1769.
1747(56) 0.0003189 1766. 1769.
1743(56) 0.0003189 1766. 1769.
1844(57) 0.0003078 1766. 1768.
1793(57) 0.0003078 1765. 1768.
1776(56) 0.0003189 1765. 1768.
1766(56) 0.0003189 1765. 1768.
1795(57) 0.0003078 1765. 1768.
1748(56) 0.0003189 1765. 1768.
1759(56) 0.0003189 1765. 1767.
1824(57) 0.0003078 1764. 1767.
1765(56) 0.0003189 1764. 1767.
1743(56) 0.0003189 1764. 1767.
1870(58) 0.0002973 1764. 1767.
1771(56) 0.0003189 1764. 1767.
1746(56) 0.0003189 1764. 1767.
1769(56) 0.0003189 1763. 1767.
1810(57) 0.0003078 1763. 1767.
1695(55) 0.0003306 1763. 1767.
1695(55) 0.0003306 1763. 1767.
1695(55) 0.0003306 1763. 1767.
1675(55) 0.0003306 1763. 1767.
1729(56) 0.0003189 1762. 1767.
1774(54) 0.0003429 1762. 1767.
1801(55) 0.0003306 1762. 1767.
1775(54) 0.0003429 1762. 1768.
1820(55) 0.0003306 1762. 1768.
1741(54) 0.0003429 1762. 1768.
1768(54) 0.0003429 1761. 1769.
1780(54) 0.0003429 1761. 1770.
1813(55) 0.0003306 1761. 1771.
1732(54) 0.0003429 1761. 1774.
1805(55) 0.0003306 1761. 1782.
1789(55) 0.0003306 1761. 1801.
1827(55) 0.0003306 1760. 1846.
1883(56) 0.0003189 1760. 1936.
1995(58) 0.0002973 1760. 2082.
2106(59) 0.0002873 1760. 2265.
2234(61) 0.0002687 1760. 2427.
2335(63) 0.0002520 1759. 2496.
2338(63) 0.0002520 1759. 2444.
2315(62) 0.0002601 1759. 2311.
2215(61) 0.0002687 1759. 2160.
2201(61) 0.0002687 1759. 2027.
2041(58) 0.0002973 1758. 1925.
1871(56) 0.0003189 1758. 1855.
1841(55) 0.0003306 1758. 1812.
1834(55) 0.0003306 1758. 1788.
1638(52) 0.000370 1758. 1778.
1705(53) 0.000356 1757. 1774.
1807(55) 0.0003306 1757. 1772.
1820(55) 0.0003306 1757. 1772.
1775(54) 0.0003429 1757. 1772.
1733(54) 0.0003429 1757. 1772.
1790(55) 0.0003306 1756. 1773.
1770(54) 0.0003429 1756. 1775.
1781(54) 0.0003429 1756. 1777.
1794(55) 0.0003306 1756. 1780.
1801(55) 0.0003306 1756. 1785.
1727(54) 0.0003429 1755. 1796.
1815(55) 0.0003306 1755. 1822.
1927(57) 0.0003078 1755. 1885.
2031(58) 0.0002973 1755. 2017.
2311(62) 0.0002601 1754. 2254.
2800(69) 0.0002100 1754. 2606.
3294(75) 0.0001778 1754. 3037.
3675(79) 0.0001602 1754. 3469.
3951(82) 0.0001487 1753. 3816.
3882(81) 0.0001524 1753. 4017.
3925(81) 0.0001524 1753. 4001.
3695(79) 0.0001602 1753. 3710.
3149(73) 0.0001877 1753. 3210.
2681(67) 0.0002228 1752. 2677.
2311(62) 0.0002601 1752. 2256.
2032(58) 0.0002973 1752. 1997.
1915(56) 0.0003189 1752. 1867.
1904(56) 0.0003189 1751. 1814.
1820(55) 0.0003306 1751. 1793.
1782(54) 0.0003429 1751. 1786.
1763(54) 0.0003429 1751. 1782.
1788(55) 0.0003306 1750. 1780.
1736(54) 0.0003429 1750. 1779.
1723(53) 0.000356 1750. 1780.
1797(55) 0.0003306 1750. 1782.
1802(55) 0.0003306 1749. 1787.
1802(55) 0.0003306 1749. 1800.
1793(55) 0.0003306 1749. 1835.
1860(56) 0.0003189 1749. 1926.
2094(59) 0.0002873 1748. 2127.
2427(64) 0.0002441 1748. 2495.
2937(70) 0.0002041 1748. 3027.
3537(77) 0.0001687 1748. 3599.
3904(81) 0.0001524 1747. 3977.
4046(83) 0.0001452 1747. 3950.
3493(77) 0.0001687 1747. 3529.
2888(70) 0.0002041 1746. 2941.
2339(62) 0.0002601 1746. 2421.
1968(57) 0.0003078 1746. 2075.
1856(56) 0.0003189 1746. 1894.
1752(54) 0.0003429 1745. 1816.
1732(54) 0.0003429 1745. 1786.
1741(54) 0.0003429 1745. 1775.
1751(54) 0.0003429 1745. 1770.
1733(54) 0.0003429 1744. 1768.
1689(53) 0.000356 1744. 1770.
1691(53) 0.000356 1744. 1777.
1791(55) 0.0003306 1743. 1790.
1874(56) 0.0003189 1743. 1807.
1813(55) 0.0003306 1743. 1821.
1844(55) 0.0003306 1743. 1824.
1740(54) 0.0003429 1742. 1814.
1731(54) 0.0003429 1742. 1796.
1763(54) 0.0003429 1742. 1777.
1773(54) 0.0003429 1741. 1763.
1754(54) 0.0003429 1741. 1755.
1740(54) 0.0003429 1741. 1750.
1756(54) 0.0003429 1740. 1748.
1653(52) 0.000370 1740. 1747.
1726(54) 0.0003429 1740. 1747.
1754(54) 0.0003429 1740. 1746.
1770(54) 0.0003429 1739. 1746.
1701(53) 0.000356 1739. 1745.
1710(53) 0.000356 1739. 1745.
1702(42) 0.000567 1738. 1745.
1685(49) 0.000416 1738. 1745.
1728(50) 0.000400 1738. 1745.
1740(50) 0.000400 1737. 1745.
1711(50) 0.000400 1737. 1747.
1704(50) 0.000400 1737. 1752.
1681(49) 0.000416 1736. 1764.
1759(50) 0.000400 1736. 1788.
1882(52) 0.000370 1736. 1825.
1908(52) 0.000370 1735. 1870.
1913(53) 0.000356 1735. 1908.
1954(53) 0.000356 1735. 1920.
1865(52) 0.000370 1734. 1901.
1783(51) 0.000384 1734. 1865.
1847(52) 0.000370 1734. 1836.
1906(52) 0.000370 1733. 1837.
1892(52) 0.000370 1733. 1881.
1937(53) 0.000356 1733. 1969.
2186(56) 0.0003189 1732. 2082.
2269(57) 0.0003078 1732. 2178.
2227(57) 0.0003078 1732. 2214.
2277(57) 0.0003078 1731. 2176.
2166(56) 0.0003189 1731. 2088.
2019(54) 0.0003429 1731. 1986.
1941(53) 0.000356 1730. 1895.
1803(51) 0.000384 1730. 1828.
1832(51) 0.000384 1730. 1784.
1803(51) 0.000384 1729. 1759.
1822(51) 0.000384 1729. 1746.
1741(50) 0.000400 1729. 1741.
1737(50) 0.000400 1728. 1740.
1707(50) 0.000400 1728. 1742.
1778(51) 0.000384 1728. 1747.
1807(51) 0.000384 1727. 1754.
1835(51) 0.000384 1727. 1760.
1839(52) 0.000370 1726. 1763.
1880(52) 0.000370 1726. 1761.
1826(51) 0.000384 1726. 1753.
1732(50) 0.000400 1725. 1745.
1770(51) 0.000384 1725. 1737.
1734(50) 0.000400 1725. 1733.
1691(49) 0.000416 1724. 1730.
1759(50) 0.000400 1724. 1728.
1767(50) 0.000400 1723. 1728.
1719(50) 0.000400 1723. 1727.
1723(50) 0.000400 1723. 1727.
1726(50) 0.000400 1722. 1726.
1787(51) 0.000384 1722. 1726.
1662(49) 0.000416 1722. 1725.
1642(49) 0.000416 1721. 1725.
1628(48) 0.000434 1721. 1725.
1728(50) 0.000400 1720. 1724.
1766(50) 0.000400 1720. 1724.
1797(51) 0.000384 1720. 1724.
1742(50) 0.000400 1719. 1724.
1766(51) 0.000384 1719. 1723.
1749(50) 0.000400 1719. 1723.
1665(49) 0.000416 1718. 1723.
1676(49) 0.000416 1718. 1723.
1696(49) 0.000416 1717. 1723.
1709(50) 0.000400 1717. 1723.
1727(50) 0.000400 1717. 1724.
1743(50) 0.000400 1716. 1726.
1669(49) 0.000416 1716. 1731.
1694(49) 0.000416 1715. 1739.
1751(50) 0.000400 1715. 1749.
1718(50) 0.000400 1715. 1758.
1769(51) 0.000384 1714. 1764.
1788(51) 0.000384 1714. 1762.
1721(50) 0.000400 1713. 1754.
1761(50) 0.000400 1713. 1744.
1684(49) 0.000416 1713. 1736.
1684(49) 0.000416 1712. 1732.
1679(49) 0.000416 1712. 1732.
1735(50) 0.000400 1711. 1735.
1792(51) 0.000384 1711. 1747.
1746(50) 0.000400 1711. 1777.
1834(51) 0.000384 1710. 1844.
2038(54) 0.0003429 1710. 1968.
2310(58) 0.0002973 1709. 2157.
2610(61) 0.0002687 1709. 2383.
2818(64) 0.0002441 1708. 2573.
2839(64) 0.0002441 1708. 2638.
2615(61) 0.0002687 1708. 2542.
2350(58) 0.0002973 1707. 2339.
2098(55) 0.0003306 1707. 2123.
1924(53) 0.000356 1706. 1966.
1941(53) 0.000356 1706. 1903.
1999(54) 0.0003429 1706. 1945.
2179(56) 0.0003189 1705. 2099.
2567(61) 0.0002687 1705. 2352.
2819(64) 0.0002441 1704. 2652.
3020(66) 0.0002296 1704. 2890.
3069(67) 0.0002228 1703. 2952.
2867(64) 0.0002441 1703. 2799.
2615(61) 0.0002687 1703. 2513.
2305(58) 0.0002973 1702. 2215.
2015(54) 0.0003429 1702. 1986.
1879(52) 0.000370 1701. 1847.
1820(51) 0.000384 1701. 1779.
1804(48) 0.000434 1700. 1755.
1784(48) 0.000434 1700. 1754.
1777(48) 0.000434 1700. 1763.
1771(48) 0.000434 1699. 1776.
1770(48) 0.000434 1699. 1786.
1752(47) 0.000453 1698. 1789.
1803(48) 0.000434 1698. 1790.
1814(48) 0.000434 1697. 1804.
1869(49) 0.000416 1697. 1849.
1878(49) 0.000416 1696. 1940.
2066(52) 0.000370 1696. 2071.
2267(54) 0.0003429 1696. 2209.
2395(56) 0.0003189 1695. 2299.
2360(55) 0.0003306 1695. 2292.
2274(54) 0.0003429 1694. 2191.
2021(51) 0.000384 1694. 2047.
1955(50) 0.000400 1693. 1913.
1858(49) 0.000416 1693. 1818.
1806(48) 0.000434 1692. 1765.
1732(47) 0.000453 1692. 1744.
1775(48) 0.000434 1692. 1748.
1792(48) 0.000434 1691. 1777.
1795(48) 0.000434 1691. 1842.
1861(49) 0.000416 1690. 1954.
1991(51) 0.000384 1690. 2108.
2163(53) 0.000356 1689. 2270.
2279(54) 0.0003429 1689. 2381.
2263(54) 0.0003429 1688. 2394.
2198(53) 0.000356 1688. 2320.
2129(52) 0.000370 1688. 2233.
2129(52) 0.000370 1687. 2223.
2304(55) 0.0003306 1687. 2344.
2644(58) 0.0002973 1686. 2586.
2869(61) 0.0002687 1686. 2864.
3018(62) 0.0002601 1685. 3053.
3022(62) 0.0002601 1685. 3048.
2726(59) 0.0002873 1684. 2855.
2491(57) 0.0003078 1684. 2562.
2212(53) 0.000356 1683. 2267.
2025(51) 0.000384 1683. 2033.
1838(49) 0.000416 1682. 1877.
1721(47) 0.000453 1682. 1787.
1700(47) 0.000453 1682. 1740.
1722(47) 0.000453 1681. 1717.
1663(46) 0.000473 1681. 1706.
1620(46) 0.000473 1680. 1700.
1696(47) 0.000453 1680. 1697.
1682(47) 0.000453 1679. 1694.
1648(46) 0.000473 1679. 1692.
1666(46) 0.000473 1678. 1690.
1735(47) 0.000453 1678. 1689.
1675(46) 0.000473 1677. 1687.
1694(47) 0.000453 1677. 1686.
1697(47) 0.000453 1676. 1685.
1633(46) 0.000473 1676. 1684.
1679(46) 0.000473 1676. 1683.
1655(46) 0.000473 1675. 1682.
1623(46) 0.000473 1675. 1682.
1684(47) 0.000453 1674. 1681.
1645(46) 0.000473 1674. 1680.
1647(46) 0.000473 1673. 1680.
1703(47) 0.000453 1673. 1680.
1625(46) 0.000473 1672. 1680.
1661(46) 0.000473 1672. 1680.
1647(46) 0.000473 1671. 1683.
1605(45) 0.000494 1671. 1688.
1655(46) 0.000473 1670. 1696.
1691(47) 0.000453 1670. 1707.
1674(46) 0.000473 1669. 1717.
1688(47) 0.000453 1669. 1722.
1668(46) 0.000473 1668. 1720.
1642(46) 0.000473 1668. 1711.
1653(46) 0.000473 1668. 1700.
1769(48) 0.000434 1667. 1689.
1646(46) 0.000473 1667. 1682.
1630(46) 0.000473 1666. 1677.
1716(47) 0.000453 1666. 1675.
1678(46) 0.000473 1665. 1674.
1658(46) 0.000473 1665. 1673.
1642(46) 0.000473 1664. 1673.
1695(47) 0.000453 1664. 1674.
1708(47) 0.000453 1663. 1674.
1622(46) 0.000473 1663. 1675.
1674(46) 0.000473 1662. 1678.
1704(47) 0.000453 1662. 1685.
1701(47) 0.000453 1661. 1697.
1705(47) 0.000453 1661. 1720.
1788(48) 0.000434 1660. 1753.
1795(48) 0.000434 1660. 1793.
1829(49) 0.000416 1660. 1831.
1903(50) 0.000400 1659. 1859.
1828(49) 0.000416 1659. 1878.
1892(49) 0.000416 1658. 1911.
2018(51) 0.000384 1658. 1996.
2253(54) 0.0003429 1657. 2157.
2469(56) 0.0003189 1657. 2387.
2707(59) 0.0002873 1656. 2628.
2962(62) 0.0002601 1656. 2786.
2889(61) 0.0002687 1655. 2780.
2723(59) 0.0002873 1655. 2608.
2348(52) 0.000370 1654. 2351.
2063(49) 0.000416 1654. 2099.
1908(47) 0.000453 1653. 1909.
1823(46) 0.000473 1653. 1793.
1730(45) 0.000494 1652. 1738.
1824(46) 0.000473 1652. 1728.
1802(45) 0.000494 1651. 1750.
1814(46) 0.000473 1651. 1799.
1911(47) 0.000453 1650. 1868.
1986(48) 0.000434 1650. 1939.
2030(48) 0.000434 1650. 1987.
1998(48) 0.000434 1649. 1989.
1951(47) 0.000453 1649. 1948.
1861(46) 0.000473 1648. 1887.
1790(45) 0.000494 1648. 1839.
1898(47) 0.000453 1647. 1825.
1936(47) 0.000453 1647. 1851.
1930(47) 0.000453 1646. 1910.
2076(49) 0.000416 1646. 1981.
2142(50) 0.000400 1645. 2037.
2212(50) 0.000400 1645. 2053.
2132(49) 0.000416 1644. 2016.
1979(48) 0.000434 1644. 1939.
1911(47) 0.000453 1643. 1850.
1829(46) 0.000473 1643. 1773.
1740(45) 0.000494 1642. 1717.
1665(44) 0.000517 1642. 1684.
1681(44) 0.000517 1641. 1667.
1650(44) 0.000517 1641. 1659.
1631(43) 0.000541 1641. 1656.
1624(43) 0.000541 1640. 1656.
1644(43) 0.000541 1640. 1658.
1663(44) 0.000517 1639. 1666.
1675(44) 0.000517 1639. 1683.
1742(45) 0.000494 1638. 1710.
1769(45) 0.000494 1638. 1747.
1831(46) 0.000473 1637. 1788.
1809(46) 0.000473 1637. 1818.
1874(46) 0.000473 1636. 1826.
1812(46) 0.000473 1636. 1806.
1787(45) 0.000494 1635. 1769.
1786(45) 0.000494 1635. 1728.
1670(44) 0.000517 1634. 1694.
1620(43) 0.000541 1634. 1671.
1632(43) 0.000541 1634. 1661.
1637(43) 0.000541 1633. 1660.
1697(44) 0.000517 1633. 1667.
1774(45) 0.000494 1632. 1681.
1840(46) 0.000473 1632. 1699.
1881(46) 0.000473 1631. 1717.
1915(47) 0.000453 1631. 1729.
1926(47) 0.000453 1630. 1730.
1881(46) 0.000473 1630. 1723.
1819(46) 0.000473 1629. 1720.
1825(46) 0.000473 1629. 1735.
1838(46) 0.000473 1628. 1783.
1844(46) 0.000473 1628. 1872.
2006(48) 0.000434 1627. 1997.
2115(49) 0.000416 1627. 2133.
2144(50) 0.000400 1627. 2235.
2163(50) 0.000400 1626. 2260.
2111(49) 0.000416 1626. 2194.
1988(48) 0.000434 1625. 2067.
1898(47) 0.000453 1625. 1928.
1787(45) 0.000494 1624. 1810.
1792(45) 0.000494 1624. 1730.
1706(44) 0.000517 1623. 1683.
1609(43) 0.000541 1623. 1660.
1595(43) 0.000541 1622. 1652.
1655(44) 0.000517 1622. 1653.
1654(44) 0.000517 1621. 1663.
1642(43) 0.000541 1621. 1689.
1689(44) 0.000517 1621. 1739.
1819(46) 0.000473 1620. 1819.
1941(47) 0.000453 1620. 1927.
1969(48) 0.000434 1619. 2045.
2064(49) 0.000416 1619. 2137.
2099(49) 0.000416 1618. 2169.
2057(49) 0.000416 1618. 2126.
1995(48) 0.000434 1617. 2028.
1846(46) 0.000473 1617. 1912.
1807(45) 0.000494 1616. 1808.
1678(44) 0.000517 1616. 1732.
1653(44) 0.000517 1616. 1686.
1657(44) 0.000517 1615. 1665.
1633(43) 0.000541 1615. 1661.
1676(44) 0.000517 1614. 1667.
1627(43) 0.000541 1614. 1680.
1663(44) 0.000517 1613. 1693.
1647(43) 0.000541 1613. 1705.
1669(44) 0.000517 1612. 1716.
1767(45) 0.000494 1612. 1733.
1778(45) 0.000494 1612. 1764.
1812(46) 0.000473 1611. 1812.
1860(46) 0.000473 1611. 1869.
1839(46) 0.000473 1610. 1916.
1901(47) 0.000453 1610. 1932.
1863(46) 0.000473 1609. 1906.
1813(46) 0.000473 1609. 1848.
1692(44) 0.000517 1608. 1780.
1718(42) 0.000567 1608. 1719.
1658(41) 0.000595 1608. 1674.
1718(42) 0.000567 1607. 1646.
1598(41) 0.000595 1607. 1631.
1627(41) 0.000595 1606. 1624.
1676(42) 0.000567 1606. 1622.
1606(41) 0.000595 1605. 1622.
1667(42) 0.000567 1605. 1625.
1689(42) 0.000567 1604. 1634.
1616(41) 0.000595 1604. 1652.
1647(41) 0.000595 1604. 1685.
1706(42) 0.000567 1603. 1736.
1870(44) 0.000517 1603. 1803.
1866(44) 0.000517 1602. 1873.
1887(44) 0.000517 1602. 1926.
1939(45) 0.000494 1601. 1941.
1857(44) 0.000517 1601. 1911.
1812(43) 0.000541 1601. 1850.
1769(43) 0.000541 1600. 1780.
1689(42) 0.000567 1600. 1721.
1647(41) 0.000595 1599. 1685.
1683(42) 0.000567 1599. 1675.
1683(42) 0.000567 1598. 1693.
1711(42) 0.000567 1598. 1734.
1802(43) 0.000541 1598. 1793.
1917(44) 0.000517 1597. 1855.
2000(45) 0.000494 1597. 1901.
1985(45) 0.000494 1596. 1912.
1903(44) 0.000517 1596. 1882.
1898(44) 0.000517 1595. 1824.
1802(43) 0.000541 1595. 1759.
1645(41) 0.000595 1595. 1702.
1697(42) 0.000567 1594. 1661.
1632(41) 0.000595 1594. 1636.
1651(41) 0.000595 1593. 1624.
1733(42) 0.000567 1593. 1618.
1620(41) 0.000595 1592. 1617.
1651(41) 0.000595 1592. 1619.
1608(41) 0.000595 1592. 1626.
1680(42) 0.000567 1591. 1641.
1721(42) 0.000567 1591. 1672.
1653(41) 0.000595 1590. 1721.
1748(42) 0.000567 1590. 1790.
1829(43) 0.000541 1590. 1870.
1942(45) 0.000494 1589. 1942.
1924(45) 0.000494 1589. 1986.
1911(44) 0.000517 1588. 1991.
1936(45) 0.000494 1588. 1968.
1974(45) 0.000494 1587. 1945.
1977(45) 0.000494 1587. 1947.
2057(46) 0.000473 1587. 1979.
2091(46) 0.000473 1586. 2029.
2092(46) 0.000473 1586. 2064.
2089(46) 0.000473 1585. 2057.
1947(45) 0.000494 1585. 2000.
1911(44) 0.000517 1585. 1909.
1875(44) 0.000517 1584. 1813.
1767(43) 0.000541 1584. 1731.
1702(42) 0.000567 1583. 1673.
1602(41) 0.000595 1583. 1637.
1552(40) 0.000625 1583. 1617.
1622(41) 0.000595 1582. 1609.
1550(40) 0.000625 1582. 1606.
1654(41) 0.000595 1581. 1610.
1612(41) 0.000595 1581. 1620.
1632(41) 0.000595 1581. 1641.
1698(42) 0.000567 1580. 1677.
1763(43) 0.000541 1580. 1731.
1816(43) 0.000541 1579. 1797.
1946(45) 0.000494 1579. 1865.
2041(46) 0.000473 1579. 1914.
2040(46) 0.000473 1578. 1926.
1966(45) 0.000494 1578. 1895.
1821(43) 0.000541 1577. 1835.
1793(43) 0.000541 1577. 1766.
1749(43) 0.000541 1577. 1703.
1595(41) 0.000595 1576. 1657.
1586(41) 0.000595 1576. 1628.
1613(41) 0.000595 1576. 1613.
1663(41) 0.000595 1575. 1609.
1631(41) 0.000595 1575. 1614.
1698(42) 0.000567 1574. 1631.
1694(42) 0.000567 1574. 1666.
1813(43) 0.000541 1574. 1727.
1863(44) 0.000517 1573. 1820.
2010(46) 0.000473 1573. 1939.
2071(46) 0.000473 1572. 2067.
2149(47) 0.000453 1572. 2171.
2244(48) 0.000434 1572. 2215.
2179(47) 0.000453 1571. 2182.
2025(46) 0.000473 1571. 2086.
1885(44) 0.000517 1571. 1964.
1859(44) 0.000517 1570. 1851.
1765(43) 0.000541 1570. 1774.
1749(43) 0.000541 1569. 1744.
1797(43) 0.000541 1569. 1760.
1875(44) 0.000517 1569. 1816.
2011(46) 0.000473 1568. 1893.
2107(47) 0.000453 1568. 1969.
2089(46) 0.000473 1568. 2017.
2096(45) 0.000494 1567. 2015.
2026(44) 0.000517 1567. 1964.
1947(43) 0.000541 1566. 1885.
1891(43) 0.000541 1566. 1800.
1762(41) 0.000595 1566. 1729.
1680(40) 0.000625 1565. 1679.
1680(40) 0.000625 1565. 1647.
1709(41) 0.000595 1565. 1630.
1661(40) 0.000625 1564. 1620.
1608(39) 0.000657 1564. 1616.
1544(39) 0.000657 1563. 1620.
1644(40) 0.000625 1563. 1635.
1670(40) 0.000625 1563. 1665.
1662(40) 0.000625 1562. 1713.
1707(41) 0.000595 1562. 1777.
1880(43) 0.000541 1562. 1850.
1900(43) 0.000541 1561. 1919.
1974(44) 0.000517 1561. 1974.
2008(44) 0.000517 1561. 2013.
2025(44) 0.000517 1560. 2053.
1985(44) 0.000517 1560. 2113.
2124(45) 0.000494 1560. 2204.
2228(46) 0.000473 1559. 2310.
2277(47) 0.000453 1559. 2397.
2341(48) 0.000434 1558. 2423.
2285(47) 0.000453 1558. 2365.
2166(46) 0.000473 1558. 2244.
2030(44) 0.000517 1557. 2104.
1899(43) 0.000541 1557. 1992.
1837(42) 0.000567 1557. 1940.
1941(43) 0.000541 1556. 1966.
1926(43) 0.000541 1556. 2062.
2240(46) 0.000473 1556. 2202.
2462(49) 0.000416 1555. 2342.
2606(50) 0.000400 1555. 2429.
2676(51) 0.000384 1555. 2425.
2485(49) 0.000416 1554. 2330.
2295(47) 0.000453 1554. 2181.
2096(45) 0.000494 1554. 2022.
1964(44) 0.000517 1553. 1889.
1850(42) 0.000567 1553. 1796.
1745(41) 0.000595 1553. 1741.
1733(41) 0.000595 1552. 1712.
1729(41) 0.000595 1552. 1693.
1566(39) 0.000657 1552. 1674.
1604(39) 0.000657 1551. 1654.
1647(40) 0.000625 1551. 1633.
1647(40) 0.000625 1551. 1615.
1545(39) 0.000657 1550. 1603.
1567(39) 0.000657 1550. 1598.
1598(39) 0.000657 1550. 1603.
1675(40) 0.000625 1549. 1623.
1634(40) 0.000625 1549. 1663.
1658(40) 0.000625 1549. 1729.
1811(42) 0.000567 1548. 1824.
1925(43) 0.000541 1548. 1941.
1972(44) 0.000517 1548. 2062.
2099(45) 0.000494 1547. 2157.
2176(46) 0.000473 1547. 2198.
2103(45) 0.000494 1547. 2168.
2016(44) 0.000517 1546. 2083.
1906(43) 0.000541 1546. 1975.
1862(42) 0.000567 1546. 1879.
1782(41) 0.000595 1545. 1821.
1741(41) 0.000595 1545. 1816.
1849(42) 0.000567 1545. 1862.
2052(44) 0.000517 1544. 1948.
2113(45) 0.000494 1544. 2049.
2209(46) 0.000473 1544. 2137.
2158(46) 0.000473 1543. 2181.
2144(45) 0.000494 1543. 2170.
2135(45) 0.000494 1543. 2118.
2084(45) 0.000494 1542. 2053.
2026(44) 0.000517 1542. 2000.
1991(44) 0.000517 1542. 1966.
1952(43) 0.000541 1541. 1946.
1921(43) 0.000541 1541. 1925.
1946(43) 0.000541 1541. 1889.
1791(42) 0.000567 1540. 1838.
1791(42) 0.000567 1540. 1782.
1732(41) 0.000595 1540. 1734.
1658(40) 0.000625 1539. 1703.
1697(40) 0.000625 1539. 1694.
1739(41) 0.000595 1539. 1705.
1702(41) 0.000595 1539. 1728.
1747(41) 0.000595 1538. 1753.
1644(40) 0.000625 1538. 1769.
1731(41) 0.000595 1538. 1771.
1740(41) 0.000595 1537. 1762.
1664(40) 0.000625 1537. 1749.
1737(41) 0.000595 1537. 1737.
1712(41) 0.000595 1536. 1726.
1639(40) 0.000625 1536. 1714.
1580(39) 0.000657 1536. 1696.
1702(40) 0.000625 1535. 1672.
1606(39) 0.000657 1535. 1648.
1555(39) 0.000657 1535. 1629.
1588(39) 0.000657 1535. 1620.
1630(40) 0.000625 1534. 1623.
1606(39) 0.000657 1534. 1640.
1707(39) 0.000657 1534. 1668.
1634(38) 0.000693 1533. 1704.
1665(38) 0.000693 1533. 1743.
1742(39) 0.000657 1533. 1782.
1810(40) 0.000625 1532. 1822.
1781(40) 0.000625 1532. 1869.
1919(41) 0.000595 1532. 1924.
2004(42) 0.000567 1531. 1984.
2068(43) 0.000541 1531. 2033.
2096(43) 0.000541 1531. 2053.
2079(43) 0.000541 1531. 2030.
1971(42) 0.000567 1530. 1966.
1907(41) 0.000595 1530. 1877.
1835(40) 0.000625 1530. 1784.
1802(40) 0.000625 1529. 1702.
1647(38) 0.000693 1529. 1639.
1625(38) 0.000693 1529. 1596.
1629(38) 0.000693 1529. 1570.
1584(38) 0.000693 1528. 1555.
1559(37) 0.000730 1528. 1547.
1505(37) 0.000730 1528. 1542.
1543(37) 0.000730 1527. 1540.
1547(37) 0.000730 1527. 1538.
1599(38) 0.000693 1527. 1537.
1529(37) 0.000730 1526. 1536.
1541(37) 0.000730 1526. 1535.
1544(37) 0.000730 1526. 1534.
1539(37) 0.000730 1526. 1533.
1533(37) 0.000730 1525. 1532.
1558(37) 0.000730 1525. 1532.
1544(37) 0.000730 1525. 1531.
1548(37) 0.000730 1524. 1531.
1506(37) 0.000730 1524. 1531.
1486(36) 0.000772 1524. 1530.
1551(37) 0.000730 1524. 1530.
1548(37) 0.000730 1523. 1530.
1510(37) 0.000730 1523. 1530.
1559(37) 0.000730 1523. 1530.
1528(37) 0.000730 1522. 1531.
1535(37) 0.000730 1522. 1533.
1564(37) 0.000730 1522. 1535.
1546(37) 0.000730 1522. 1538.
1547(37) 0.000730 1521. 1541.
1526(37) 0.000730 1521. 1544.
1626(38) 0.000693 1521. 1545.
1550(37) 0.000730 1520. 1545.
1505(37) 0.000730 1520. 1543.
1573(37) 0.000730 1520. 1541.
1610(38) 0.000693 1520. 1539.
1533(37) 0.000730 1519. 1537.
1525(37) 0.000730 1519. 1539.
1550(37) 0.000730 1519. 1544.
1554(37) 0.000730 1518. 1555.
1580(37) 0.000730 1518. 1574.
1616(38) 0.000693 1518. 1605.
1650(38) 0.000693 1518. 1647.
1729(39) 0.000657 1517. 1699.
1752(40) 0.000625 1517. 1754.
1764(40) 0.000625 1517. 1800.
1812(40) 0.000625 1517. 1828.
1801(40) 0.000625 1516. 1829.
1761(40) 0.000625 1516. 1804.
1745(39) 0.000657 1516. 1765.
1713(39) 0.000657 1515. 1726.
1683(39) 0.000657 1515. 1697.
1724(39) 0.000657 1515. 1687.
1748(39) 0.000657 1515. 1695.
1773(40) 0.000625 1514. 1715.
1744(39) 0.000657 1514. 1738.
1751(39) 0.000657 1514. 1753.
1799(40) 0.000625 1513. 1755.
1785(40) 0.000625 1513. 1744.
1729(39) 0.000657 1513. 1724.
1710(39) 0.000657 1513. 1703.
1692(39) 0.000657 1512. 1684.
1619(38) 0.000693 1512. 1667.
1634(38) 0.000693 1512. 1650.
1642(38) 0.000693 1512. 1630.
1569(37) 0.000730 1511. 1609.
1552(37) 0.000730 1511. 1587.
1543(37) 0.000730 1511. 1567.
1529(37) 0.000730 1510. 1551.
1487(36) 0.000772 1510. 1539.
1529(37) 0.000730 1510. 1532.
1529(37) 0.000730 1510. 1528.
1467(36) 0.000772 1509. 1528.
1564(37) 0.000730 1509. 1530.
1573(37) 0.000730 1509. 1534.
1575(37) 0.000730 1509. 1540.
1611(38) 0.000693 1508. 1547.
1592(38) 0.000693 1508. 1553.
1616(38) 0.000693 1508. 1557.
1572(37) 0.000730 1508. 1558.
1636(38) 0.000693 1507. 1558.
1618(38) 0.000693 1507. 1559.
1577(37) 0.000730 1507. 1563.
1571(37) 0.000730 1506. 1573.
1640(38) 0.000693 1506. 1591.
1681(39) 0.000657 1506. 1616.
1692(39) 0.000657 1506. 1645.
1704(54) 0.0003429 1505. 1673.
1698(37) 0.000730 1505. 1693.
1666(37) 0.000730 1505. 1698.
1704(37) 0.000730 1505. 1687.
1646(37) 0.000730 1504. 1662.
1658(37) 0.000730 1504. 1631.
1606(36) 0.000772 1504. 1600.
1572(36) 0.000772 1504. 1574.
1531(36) 0.000772 1503. 1554.
1532(36) 0.000772 1503. 1543.
1559(36) 0.000772 1503. 1539.
1517(35) 0.000816 1502.5 1543.7
1555(36) 0.000772 1502. 1556.
1577(36) 0.000772 1502. 1576.
1593(36) 0.000772 1502. 1604.
1649(37) 0.000730 1501. 1639.
1705(37) 0.000730 1501. 1678.
1787(38) 0.000693 1501. 1718.
1795(38) 0.000693 1501. 1759.
1885(39) 0.000657 1500. 1798.
1884(39) 0.000657 1500. 1836.
1921(40) 0.000625 1500. 1873.
1919(40) 0.000625 1500. 1903.
1898(40) 0.000625 1499. 1918.
1909(40) 0.000625 1499. 1911.
1871(39) 0.000657 1499. 1879.
1848(39) 0.000657 1499. 1829.
1803(39) 0.000657 1498. 1772.
1742(38) 0.000693 1498. 1720.
1694(37) 0.000730 1498. 1682.
1677(37) 0.000730 1497. 1660.
1704(37) 0.000730 1497. 1653.
1673(37) 0.000730 1497. 1656.
1705(37) 0.000730 1497. 1661.
1707(38) 0.000693 1496. 1661.
1686(37) 0.000730 1496. 1654.
1663(37) 0.000730 1496. 1639.
1635(37) 0.000730 1496. 1622.
1602(36) 0.000772 1495. 1605.
1622(37) 0.000730 1495. 1590.
1582(36) 0.000772 1495. 1580.
1574(36) 0.000772 1495. 1571.
1573(36) 0.000772 1494. 1563.
1540(36) 0.000772 1494. 1554.
1535(36) 0.000772 1494. 1544.
1540(36) 0.000772 1494. 1535.
1533(36) 0.000772 1493. 1527.
1547(36) 0.000772 1493. 1521.
1539(36) 0.000772 1493. 1518.
1561(36) 0.000772 1492. 1519.
1539(36) 0.000772 1492. 1523.
1549(36) 0.000772 1492. 1531.
1582(36) 0.000772 1492. 1541.
1625(37) 0.000730 1491. 1551.
1611(36) 0.000772 1491. 1560.
1596(36) 0.000772 1491. 1566.
1580(36) 0.000772 1491. 1567.
1566(36) 0.000772 1490. 1562.
1547(36) 0.000772 1490. 1555.
1518(35) 0.000816 1489.9 1547.3
1574(36) 0.000772 1490. 1541.
1586(36) 0.000772 1489. 1538.
1552(36) 0.000772 1489. 1540.
1567(36) 0.000772 1489. 1547.
1613(36) 0.000772 1489. 1559.
1634(37) 0.000730 1488. 1577.
1659(37) 0.000730 1488. 1599.
1662(37) 0.000730 1488. 1628.
1672(37) 0.000730 1488. 1661.
1698(37) 0.000730 1487. 1696.
1702(37) 0.000730 1487. 1727.
1751(38) 0.000693 1487. 1749.
1751(38) 0.000693 1486. 1755.
1722(38) 0.000693 1486. 1743.
1702(37) 0.000730 1486. 1715.
1658(37) 0.000730 1486. 1679.
1617(37) 0.000730 1485. 1643.
1580(36) 0.000772 1485. 1612.
1591(36) 0.000772 1485. 1590.
1558(36) 0.000772 1485. 1576.
1546(36) 0.000772 1484. 1569.
1566(36) 0.000772 1484. 1566.
1543(36) 0.000772 1484. 1565.
1543(36) 0.000772 1484. 1566.
1529(36) 0.000772 1483. 1568.
1551(36) 0.000772 1483. 1572.
1572(36) 0.000772 1483. 1577.
1607(36) 0.000772 1483. 1582.
1630(37) 0.000730 1482. 1586.
1565(36) 0.000772 1482. 1584.
1541(36) 0.000772 1482. 1578.
1564(36) 0.000772 1481. 1567.
1568(36) 0.000772 1481. 1553.
1493(35) 0.000816 1480.9 1539.1
1527(36) 0.000772 1481. 1528.
1580(36) 0.000772 1480. 1521.
1565(36) 0.000772 1480. 1519.
1556(36) 0.000772 1480. 1524.
1550(36) 0.000772 1480. 1533.
1589(36) 0.000772 1479. 1547.
1536(36) 0.000772 1479. 1563.
1590(36) 0.000772 1479. 1579.
1586(36) 0.000772 1479. 1591.
1585(36) 0.000772 1478. 1596.
1614(37) 0.000730 1478. 1592.
1586(36) 0.000772 1478. 1582.
1618(37) 0.000730 1477. 1566.
1573(36) 0.000772 1477. 1549.
1573(36) 0.000772 1477. 1533.
1545(36) 0.000772 1477. 1520.
1486(35) 0.000816 1476.4 1512.6
1491(35) 0.000816 1476.2 1510.4
1457(35) 0.000816 1475.9 1513.6
1479(35) 0.000816 1475.6 1521.7
1466(35) 0.000816 1475.4 1533.6
1505(35) 0.000816 1475.1 1547.6
1511(35) 0.000816 1474.8 1561.6
1528(36) 0.000772 1475. 1573.
1534(36) 0.000772 1474. 1578.
1544(36) 0.000772 1474. 1577.
1520(36) 0.000772 1474. 1570.
1457(35) 0.000816 1473.5 1559.2
1521(36) 0.000772 1473. 1547.
1559(36) 0.000772 1473. 1537.
1525(36) 0.000772 1473. 1529.
1502(35) 0.000816 1472.4 1525.2
1466(35) 0.000816 1472.2 1523.4
1496(35) 0.000816 1471.9 1522.7
1541(36) 0.000772 1472. 1521.
1522(36) 0.000772 1471. 1519.
1544(36) 0.000772 1471. 1514.
1491(35) 0.000816 1470.8 1508.5
1473(35) 0.000816 1470.5 1502.6
1513(35) 0.000816 1470.3 1497.6
1530(36) 0.000772 1470. 1494.
1489(35) 0.000816 1469.7 1493.7
1517(36) 0.000772 1469. 1496.
1530(36) 0.000772 1469. 1503.
1488(35) 0.000816 1468.9 1513.4
1543(36) 0.000772 1469. 1528.
1503(35) 0.000816 1468.4 1544.7
1574(36) 0.000772 1468. 1563.
1508(35) 0.000816 1467.8 1581.0
1537(36) 0.000772 1468. 1596.
1475(35) 0.000816 1467.3 1605.2
1511(35) 0.000816 1467.0 1609.0
1595(36) 0.000772 1467. 1608.
1553(36) 0.000772 1466. 1603.
1512(35) 0.000816 1466.2 1594.3
1553(36) 0.000772 1466. 1583.
1495(35) 0.000816 1465.6 1570.4
1485(35) 0.000816 1465.4 1556.1
1528(36) 0.000772 1465. 1542.
1522(36) 0.000772 1465. 1530.
1525(36) 0.000772 1465. 1520.
1525(36) 0.000772 1464. 1514.
1546(36) 0.000772 1464. 1512.
1532(36) 0.000772 1464. 1513.
1531(36) 0.000772 1463. 1519.
1586(36) 0.000772 1463. 1528.
1606(37) 0.000730 1463. 1541.
1660(37) 0.000730 1463. 1557.
1604(37) 0.000730 1462. 1576.
1608(37) 0.000730 1462. 1597.
1515(35) 0.000816 1461.8 1615.6
1585(36) 0.000772 1462. 1630.
1672(37) 0.000730 1461. 1636.
1548(36) 0.000772 1461. 1631.
1584(36) 0.000772 1461. 1617.
1619(37) 0.000730 1460. 1596.
1564(36) 0.000772 1460. 1572.
1554(36) 0.000772 1460. 1548.
1529(36) 0.000772 1460. 1527.
1486(35) 0.000816 1459.3 1510.7
1495(35) 0.000816 1459.0 1499.2
1460(35) 0.000816 1458.7 1492.2
1471(35) 0.000816 1458.4 1489.1
1484(35) 0.000816 1458.2 1488.9
1464(35) 0.000816 1457.9 1491.0
1454(35) 0.000816 1457.6 1495.4
1522(36) 0.000772 1457. 1502.
1526(36) 0.000772 1457. 1513.
1520(36) 0.000772 1457. 1529.
1593(36) 0.000772 1456. 1551.
1635(37) 0.000730 1456. 1582.
1661(37) 0.000730 1456. 1619.
1754(38) 0.000693 1456. 1661.
1846(39) 0.000657 1455. 1704.
1878(39) 0.000657 1455. 1742.
1839(39) 0.000657 1455. 1769.
1901(40) 0.000625 1454. 1780.
1953(40) 0.000625 1454. 1775.
1852(39) 0.000657 1454. 1756.
1801(39) 0.000657 1454. 1729.
1764(38) 0.000693 1453. 1699.
1727(38) 0.000693 1453. 1670.
1652(37) 0.000730 1453. 1643.
1633(37) 0.000730 1453. 1621.
1579(36) 0.000772 1452. 1602.
1573(36) 0.000772 1452. 1588.
1571(29) 0.001189 1451.6 1581.3
1533(36) 0.000772 1451. 1585.
1542(36) 0.000772 1451. 1602.
1596(36) 0.000772 1451. 1638.
1740(38) 0.000693 1450. 1695.
1775(38) 0.000693 1450. 1774.
1922(40) 0.000625 1450. 1872.
2046(41) 0.000595 1450. 1981.
2191(42) 0.000567 1449. 2088.
2369(44) 0.000517 1449. 2177.
2313(44) 0.000517 1449. 2231.
2306(43) 0.000541 1448. 2238.
2254(43) 0.000541 1448. 2196.
2156(42) 0.000567 1448. 2115.
2118(42) 0.000567 1448. 2010.
1931(40) 0.000625 1447. 1898.
1868(39) 0.000657 1447. 1793.
1719(38) 0.000693 1447. 1705.
1668(37) 0.000730 1446. 1637.
1575(36) 0.000772 1446. 1593.
1558(36) 0.000772 1446. 1569.
1644(37) 0.000730 1446. 1561.
1621(37) 0.000730 1445. 1567.
1553(36) 0.000772 1445. 1581.
1562(36) 0.000772 1445. 1599.
1621(37) 0.000730 1444. 1617.
1602(36) 0.000772 1444. 1630.
1621(37) 0.000730 1444. 1636.
1636(37) 0.000730 1444. 1633.
1574(36) 0.000772 1443. 1621.
1574(36) 0.000772 1443. 1603.
1577(36) 0.000772 1443. 1582.
1570(36) 0.000772 1442. 1561.
1536(36) 0.000772 1442. 1543.
1536(36) 0.000772 1442. 1531.
1592(36) 0.000772 1441. 1525.
1605(36) 0.000772 1441. 1525.
1574(36) 0.000772 1441. 1530.
1585(36) 0.000772 1441. 1539.
1595(36) 0.000772 1440. 1548.
1589(36) 0.000772 1440. 1556.
1571(36) 0.000772 1440. 1561.
1621(37) 0.000730 1439. 1560.
1582(36) 0.000772 1439. 1554.
1603(36) 0.000772 1439. 1545.
1543(36) 0.000772 1438. 1533.
1516(35) 0.000816 1438.2 1521.6
1569(36) 0.000772 1438. 1512.
1568(36) 0.000772 1438. 1507.
1558(36) 0.000772 1437. 1506.
1560(36) 0.000772 1437. 1513.
1544(36) 0.000772 1437. 1526.
1526(35) 0.000816 1436.4 1544.6
1585(36) 0.000772 1436. 1568.
1651(37) 0.000730 1436. 1593.
1667(37) 0.000730 1436. 1618.
1643(37) 0.000730 1435. 1640.
1682(37) 0.000730 1435. 1655.
1674(37) 0.000730 1435. 1665.
1720(38) 0.000693 1434. 1668.
1715(38) 0.000693 1434. 1669.
1674(37) 0.000730 1434. 1670.
1695(37) 0.000730 1433. 1671.
1684(37) 0.000730 1433. 1673.
1740(38) 0.000693 1433. 1676.
1717(38) 0.000693 1432. 1677.
1679(37) 0.000730 1432. 1673.
1684(37) 0.000730 1432. 1664.
1663(37) 0.000730 1432. 1650.
1684(37) 0.000730 1431. 1632.
1646(37) 0.000730 1431. 1611.
1614(36) 0.000772 1431. 1589.
1518(35) 0.000816 1430.4 1565.4
1599(36) 0.000772 1430. 1542.
1550(36) 0.000772 1430. 1521.
1574(36) 0.000772 1429. 1502.
1465(35) 0.000816 1429.1 1485.5
1448(35) 0.000816 1428.8 1472.5
1458(35) 0.000816 1428.5 1462.5
1443(34) 0.000865 1428.2 1455.0
1445(35) 0.000816 1427.9 1449.6
1427(34) 0.000865 1427.6 1445.8
1441(34) 0.000865 1427.3 1443.0
1453(35) 0.000816 1427.0 1441.1
1422(34) 0.000865 1426.7 1439.6
1400(34) 0.000865 1426.4 1438.5
1429(34) 0.000865 1426.1 1437.6
1433(34) 0.000865 1425.8 1436.9
1426(34) 0.000865 1425.5 1436.3
1405(34) 0.000865 1425.1 1435.7
1437(34) 0.000865 1424.8 1435.2
1427(34) 0.000865 1424.5 1434.9
1443(34) 0.000865 1424.2 1434.7
1468(35) 0.000816 1423.9 1435.0
1421(34) 0.000865 1423.6 1435.8
1447(35) 0.000816 1423.3 1437.3
1460(35) 0.000816 1423.0 1439.9
1439(34) 0.000865 1422.7 1443.6
1439(34) 0.000865 1422.4 1448.5
1472(35) 0.000816 1422.0 1454.8
1517(49) 0.000416 1422. 1462.
1476(34) 0.000865 1421.4 1470.9
1448(34) 0.000865 1421.1 1480.2
1520(34) 0.000865 1420.8 1489.9
1547(35) 0.000816 1420.5 1499.5
1544(35) 0.000816 1420.2 1508.9
1542(35) 0.000816 1419.9 1517.9
1511(34) 0.000865 1419.6 1526.6
1535(35) 0.000816 1419.2 1534.5
1497(34) 0.000865 1418.9 1541.2
1557(35) 0.000816 1418.6 1546.1
1589(35) 0.000816 1418.3 1549.0
1535(35) 0.000816 1418.0 1550.0
1543(35) 0.000816 1417.7 1549.9
1517(34) 0.000865 1417.4 1549.5
1571(35) 0.000816 1417.1 1549.0
1552(35) 0.000816 1416.7 1548.1
1515(34) 0.000865 1416.4 1546.1
1538(35) 0.000816 1416.1 1541.9
1538(35) 0.000816 1415.8 1535.0
1513(34) 0.000865 1415.5 1525.3
1518(34) 0.000865 1415.2 1513.6
1465(34) 0.000865 1414.9 1501.3
1418(33) 0.000918 1414.6 1489.7
1470(34) 0.000865 1414.2 1479.8
1442(33) 0.000918 1413.9 1472.6
1470(34) 0.000865 1413.6 1468.2
1484(34) 0.000865 1413.3 1466.3
1474(34) 0.000865 1413.0 1466.4
1507(34) 0.000865 1412.7 1467.6
1423(33) 0.000918 1412.3 1468.9
1385(33) 0.000918 1412.0 1469.6
1419(33) 0.000918 1411.7 1469.4
1434(33) 0.000918 1411.4 1468.6
1440(33) 0.000918 1411.1 1468.1
1505(34) 0.000865 1410.8 1469.2
1490(34) 0.000865 1410.5 1473.2
1459(34) 0.000865 1410.1 1481.4
1487(34) 0.000865 1409.8 1494.9
1555(35) 0.000816 1409.5 1514.0
1525(34) 0.000865 1409.2 1538.3
1566(35) 0.000816 1408.9 1566.5
1643(36) 0.000772 1409. 1596.
1638(36) 0.000772 1408. 1625.
1706(36) 0.000772 1408. 1648.
1706(36) 0.000772 1408. 1662.
1709(36) 0.000772 1407. 1665.
1692(36) 0.000772 1407. 1656.
1648(36) 0.000772 1407. 1636.
1589(35) 0.000816 1406.3 1609.7
1603(35) 0.000816 1406.0 1580.0
1627(36) 0.000772 1406. 1551.
1545(35) 0.000816 1405.4 1525.3
1521(34) 0.000865 1405.1 1505.1
1531(34) 0.000865 1404.7 1491.1
1492(34) 0.000865 1404.4 1483.3
1464(34) 0.000865 1404.1 1480.9
1447(34) 0.000865 1403.8 1482.5
1481(34) 0.000865 1403.5 1486.6
1497(34) 0.000865 1403.2 1491.8
1435(33) 0.000918 1402.8 1496.8
1503(34) 0.000865 1402.5 1501.1
1537(35) 0.000816 1402.2 1504.7
1521(34) 0.000865 1401.9 1508.5
1542(35) 0.000816 1401.6 1513.4
1480(34) 0.000865 1401.2 1520.5
1452(34) 0.000865 1400.9 1530.3
1493(34) 0.000865 1400.6 1543.0
1516(34) 0.000865 1400.3 1558.3
1513(34) 0.000865 1400.0 1575.1
1553(35) 0.000816 1399.7 1592.3
1580(35) 0.000816 1399.3 1609.0
1633(36) 0.000772 1399. 1625.
1655(36) 0.000772 1399. 1638.
1651(36) 0.000772 1398. 1650.
1618(35) 0.000816 1398.1 1657.7
1614(35) 0.000816 1397.7 1662.1
1609(35) 0.000816 1397.4 1662.8
1650(36) 0.000772 1397. 1660.
1665(36) 0.000772 1397. 1656.
1722(37) 0.000730 1396. 1651.
1678(36) 0.000772 1396. 1646.
1669(36) 0.000772 1396. 1641.
1672(36) 0.000772 1396. 1635.
1607(35) 0.000816 1395.2 1626.3
1628(36) 0.000772 1395. 1614.
1676(36) 0.000772 1395. 1597.
1622(35) 0.000816 1394.2 1577.2
1524(34) 0.000865 1393.9 1554.9
1550(35) 0.000816 1393.6 1532.4
1501(34) 0.000865 1393.3 1511.8
1465(34) 0.000865 1393.0 1494.5
1431(33) 0.000918 1392.6 1481.9
1477(34) 0.000865 1392.3 1474.7
1486(34) 0.000865 1392.0 1473.1
1470(34) 0.000865 1391.7 1477.2
1549(35) 0.000816 1391.4 1486.6
1506(34) 0.000865 1391.0 1500.7
1562(35) 0.000816 1390.7 1519.0
1539(35) 0.000816 1390.4 1540.4
1538(35) 0.000816 1390.1 1564.3
1580(35) 0.000816 1389.8 1589.6
1634(36) 0.000772 1389. 1615.
1644(36) 0.000772 1389. 1640.
1686(36) 0.000772 1389. 1662.
1630(36) 0.000772 1388. 1678.
1687(36) 0.000772 1388. 1689.
1712(36) 0.000772 1388. 1692.
1707(36) 0.000772 1388. 1688.
1715(37) 0.000730 1387. 1680.
1711(36) 0.000772 1387. 1669.
1641(36) 0.000772 1387. 1661.
1698(36) 0.000772 1386. 1658.
1694(36) 0.000772 1386. 1663.
1767(37) 0.000730 1386. 1678.
1753(37) 0.000730 1385. 1701.
1742(37) 0.000730 1385. 1729.
1793(37) 0.000730 1385. 1759.
1818(38) 0.000693 1384. 1785.
1783(37) 0.000730 1384. 1802.
1820(38) 0.000693 1384. 1805.
1784(37) 0.000730 1383. 1793.
1733(37) 0.000730 1383. 1768.
1783(37) 0.000730 1383. 1734.
1722(37) 0.000730 1382. 1694.
1689(36) 0.000772 1382. 1655.
1575(35) 0.000816 1381.8 1619.6
1677(36) 0.000772 1381. 1592.
1573(35) 0.000816 1381.2 1572.2
1569(35) 0.000816 1380.9 1561.8
1531(35) 0.000816 1380.5 1559.2
1573(35) 0.000816 1380.2 1562.5
1533(35) 0.000816 1379.9 1569.1
1521(34) 0.000865 1379.6 1576.1
1570(35) 0.000816 1379.3 1580.7
1626(36) 0.000772 1379. 1581.
1528(34) 0.000865 1378.6 1574.3
1540(35) 0.000816 1378.3 1562.2
1549(35) 0.000816 1378.0 1545.6
1495(34) 0.000865 1377.7 1526.3
1446(34) 0.000865 1377.4 1506.7
1436(33) 0.000918 1377.1 1488.4
1446(34) 0.000865 1376.7 1473.0
1466(34) 0.000865 1376.4 1461.2
1445(34) 0.000865 1376.1 1453.2
1462(34) 0.000865 1375.8 1448.8
1451(34) 0.000865 1375.5 1447.1
1443(34) 0.000865 1375.2 1447.1
1490(34) 0.000865 1374.9 1447.6
1483(34) 0.000865 1374.5 1447.5
1422(33) 0.000918 1374.2 1446.0
1482(34) 0.000865 1373.9 1442.7
1379(33) 0.000918 1373.6 1437.6
1504(34) 0.000865 1373.3 1431.3
1437(33) 0.000918 1373.0 1424.3
1371(33) 0.000918 1372.7 1417.2
1400(33) 0.000918 1372.3 1410.8
1455(34) 0.000865 1372.0 1405.3
1415(33) 0.000918 1371.7 1401.2
1363(33) 0.000918 1371.4 1398.5
1430(33) 0.000918 1371.1 1397.3
1319(32) 0.000977 1370.8 1397.4
1391(33) 0.000918 1370.5 1398.5
1399(33) 0.000918 1370.2 1400.3
1377(33) 0.000918 1369.8 1402.4
1380(33) 0.000918 1369.5 1404.3
1361(33) 0.000918 1369.2 1405.7
1363(33) 0.000918 1368.9 1406.2
1334(32) 0.000977 1368.6 1405.9
1376(33) 0.000918 1368.3 1404.7
1320(32) 0.000977 1368.0 1403.0
1391(33) 0.000918 1367.7 1401.2
1396(33) 0.000918 1367.4 1399.7
1396(33) 0.000918 1367.1 1398.9
1386(33) 0.000918 1366.7 1399.2
1376(33) 0.000918 1366.4 1400.6
1398(33) 0.000918 1366.1 1403.3
1406(33) 0.000918 1365.8 1407.0
1450(34) 0.000865 1365.5 1411.5
1395(33) 0.000918 1365.2 1416.5
1451(34) 0.000865 1364.9 1421.5
1387(33) 0.000918 1364.6 1426.1
1450(34) 0.000865 1364.3 1429.9
1482(34) 0.000865 1364.0 1432.8
1454(34) 0.000865 1363.7 1434.9
1438(33) 0.000918 1363.4 1436.4
1383(33) 0.000918 1363.0 1437.8
1450(34) 0.000865 1362.7 1439.2
1477(34) 0.000865 1362.4 1441.0
1457(34) 0.000865 1362.1 1443.3
1404(33) 0.000918 1361.8 1446.1
1457(34) 0.000865 1361.5 1449.5
1428(33) 0.000918 1361.2 1453.3
1387(33) 0.000918 1360.9 1457.4
1404(33) 0.000918 1360.6 1461.4
1440(33) 0.000918 1360.3 1464.8
1438(33) 0.000918 1360.0 1467.3
1467(34) 0.000865 1359.7 1468.8
1420(33) 0.000918 1359.4 1469.5
1451(34) 0.000865 1359.1 1469.5
1431(33) 0.000918 1358.8 1469.1
1473(35) 0.000816 1358.5 1468.3
1501(35) 0.000816 1358.2 1467.1
1409(34) 0.000865 1357.9 1465.3
1424(34) 0.000865 1357.6 1463.0
1508(35) 0.000816 1357.3 1460.2
1485(35) 0.000816 1357.0 1457.1
1407(34) 0.000865 1356.7 1454.0
1438(34) 0.000865 1356.4 1451.2
1474(35) 0.000816 1356.1 1449.2
1474(35) 0.000816 1355.8 1448.2
1466(35) 0.000816 1355.5 1448.7
1466(35) 0.000816 1355.2 1451.0
1472(35) 0.000816 1354.9 1455.6
1483(35) 0.000816 1354.6 1462.3
1487(35) 0.000816 1354.3 1471.1
1497(35) 0.000816 1354.0 1481.5
1526(35) 0.000816 1353.7 1492.9
1528(35) 0.000816 1353.4 1504.4
1491(35) 0.000816 1353.1 1515.2
1599(36) 0.000772 1353. 1525.
1565(36) 0.000772 1352. 1532.
1594(36) 0.000772 1352. 1536.
1540(36) 0.000772 1352. 1537.
1567(36) 0.000772 1352. 1534.
1571(36) 0.000772 1351. 1527.
1597(36) 0.000772 1351. 1516.
1579(36) 0.000772 1351. 1501.
1572(36) 0.000772 1350. 1484.
1510(35) 0.000816 1350.1 1466.1
1476(35) 0.000816 1349.8 1448.1
1463(35) 0.000816 1349.5 1431.1
1417(34) 0.000865 1349.2 1415.7
1415(34) 0.000865 1348.9 1402.4
1404(34) 0.000865 1348.6 1391.4
1428(34) 0.000865 1348.4 1382.6
1364(34) 0.000865 1348.1 1375.9
1332(33) 0.000918 1347.8 1370.9
1317(33) 0.000918 1347.5 1367.4
1415(34) 0.000865 1347.2 1365.0
1367(34) 0.000865 1346.9 1363.3
1386(34) 0.000865 1346.6 1362.3
1375(34) 0.000865 1346.3 1361.8
1385(34) 0.000865 1346.0 1361.6
1381(34) 0.000865 1345.7 1361.8
1340(33) 0.000918 1345.4 1362.5
1360(33) 0.000918 1345.2 1363.7
1387(34) 0.000865 1344.9 1365.6
1426(34) 0.000865 1344.6 1368.2
1341(33) 0.000918 1344.3 1371.5
1301(33) 0.000918 1344.0 1375.6
1375(34) 0.000865 1343.7 1380.3
1413(34) 0.000865 1343.4 1385.7
1458(35) 0.000816 1343.1 1391.4
1441(34) 0.000865 1342.9 1397.4
1390(34) 0.000865 1342.6 1403.4
1391(34) 0.000865 1342.3 1409.4
1474(35) 0.000816 1342.0 1415.1
1444(34) 0.000865 1341.7 1420.7
1407(34) 0.000865 1341.4 1426.4
1489(35) 0.000816 1341.2 1432.1
1529(35) 0.000816 1340.9 1437.9
1514(35) 0.000816 1340.6 1443.9
1486(35) 0.000816 1340.3 1450.0
1535(36) 0.000772 1340. 1456.
1471(35) 0.000816 1339.7 1462.6
1510(35) 0.000816 1339.5 1469.0
1480(35) 0.000816 1339.2 1475.5
1521(35) 0.000816 1338.9 1482.1
1501(35) 0.000816 1338.6 1488.8
1537(36) 0.000772 1338. 1496.
1546(36) 0.000772 1338. 1503.
1500(35) 0.000816 1337.8 1509.9
1507(35) 0.000816 1337.5 1516.9
1550(36) 0.000772 1337. 1523.
1475(35) 0.000816 1337.0 1527.9
1532(36) 0.000772 1337. 1530.
1507(35) 0.000816 1336.4 1528.5
1505(35) 0.000816 1336.1 1523.1
1503(35) 0.000816 1335.8 1513.6
1477(35) 0.000816 1335.6 1500.9
1533(36) 0.000772 1335. 1486.
1461(35) 0.000816 1335.0 1469.8
1462(35) 0.000816 1334.7 1454.0
1431(34) 0.000865 1334.5 1439.8
1367(34) 0.000865 1334.2 1428.1
1426(34) 0.000865 1333.9 1419.7
1407(34) 0.000865 1333.7 1415.4
1406(34) 0.000865 1333.4 1415.4
1483(35) 0.000816 1333.1 1419.7
1415(34) 0.000865 1332.8 1428.0
1444(34) 0.000865 1332.6 1440.0
1413(34) 0.000865 1332.3 1454.7
1408(34) 0.000865 1332.0 1471.2
1459(35) 0.000816 1331.8 1488.3
1491(35) 0.000816 1331.5 1505.0
1429(34) 0.000865 1331.2 1519.8
1454(35) 0.000816 1331.0 1531.8
1511(35) 0.000816 1330.7 1540.3
1504(35) 0.000816 1330.4 1545.2
1505(35) 0.000816 1330.1 1547.1
1467(35) 0.000816 1329.9 1546.6
1487(35) 0.000816 1329.6 1544.8
1502(35) 0.000816 1329.4 1542.3
1542(36) 0.000772 1329. 1540.
1506(35) 0.000816 1328.8 1537.2
1605(37) 0.000730 1329. 1535.
1511(36) 0.000772 1328. 1532.
1527(36) 0.000772 1328. 1529.
1525(36) 0.000772 1328. 1525.
1507(35) 0.000816 1327.5 1520.0
1524(36) 0.000772 1327. 1515.
1573(36) 0.000772 1327. 1509.
1480(35) 0.000816 1326.7 1502.4
1518(36) 0.000772 1326. 1495.
1556(36) 0.000772 1326. 1486.
1496(35) 0.000816 1325.9 1474.9
1536(36) 0.000772 1326. 1463.
1454(35) 0.000816 1325.4 1449.7
1487(35) 0.000816 1325.2 1436.0
1491(35) 0.000816 1324.9 1422.3
1408(34) 0.000865 1324.6 1409.2
1451(35) 0.000816 1324.4 1397.2
1397(34) 0.000865 1324.1 1386.6
1448(35) 0.000816 1323.9 1377.8
1414(34) 0.000865 1323.6 1371.1
1363(34) 0.000865 1323.4 1366.6
1390(34) 0.000865 1323.1 1364.7
1403(34) 0.000865 1322.8 1365.6
1382(34) 0.000865 1322.6 1369.4
1390(34) 0.000865 1322.3 1376.6
1348(34) 0.000865 1322.1 1387.3
1386(34) 0.000865 1321.8 1401.9
1433(35) 0.000816 1321.6 1420.5
1451(35) 0.000816 1321.3 1443.0
1494(35) 0.000816 1321.1 1469.0
1525(36) 0.000772 1321. 1498.
1517(36) 0.000772 1321. 1528.
1541(36) 0.000772 1320. 1559.
1608(37) 0.000730 1320. 1588.
1636(37) 0.000730 1320. 1614.
1684(38) 0.000693 1320. 1633.
1662(37) 0.000730 1319. 1646.
1706(38) 0.000693 1319. 1649.
1695(38) 0.000693 1319. 1644.
1644(37) 0.000730 1319. 1631.
1709(38) 0.000693 1318. 1612.
1685(38) 0.000693 1318. 1589.
1625(37) 0.000730 1318. 1564.
1572(36) 0.000772 1318. 1539.
1478(35) 0.000816 1317.3 1516.3
1453(35) 0.000816 1317.1 1496.9
1458(35) 0.000816 1316.8 1481.5
1493(35) 0.000816 1316.6 1470.4
1508(35) 0.000816 1316.4 1463.5
1493(35) 0.000816 1316.1 1460.3
1445(35) 0.000816 1315.9 1460.2
1469(35) 0.000816 1315.6 1462.4
1458(35) 0.000816 1315.4 1466.5
1586(36) 0.000772 1315. 1472.
1525(36) 0.000772 1315. 1480.
1454(35) 0.000816 1314.7 1488.7
1504(35) 0.000816 1314.4 1500.4
1502(35) 0.000816 1314.2 1515.2
1577(36) 0.000772 1314. 1534.
1590(36) 0.000772 1314. 1556.
1547(36) 0.000772 1313. 1583.
1673(37) 0.000730 1313. 1613.
1716(38) 0.000693 1313. 1647.
1769(38) 0.000693 1313. 1682.
1768(38) 0.000693 1313. 1717.
1789(39) 0.000657 1312. 1749.
1830(39) 0.000657 1312. 1777.
1777(39) 0.000657 1312. 1798.
1856(39) 0.000657 1312. 1809.
1819(39) 0.000657 1311. 1808.
1795(39) 0.000657 1311. 1795.
1892(40) 0.000625 1311. 1771.
1800(39) 0.000657 1311. 1738.
1798(39) 0.000657 1310. 1698.
1799(39) 0.000657 1310. 1654.
1628(37) 0.000730 1310. 1609.
1611(37) 0.000730 1310. 1564.
1604(37) 0.000730 1309. 1523.
1519(36) 0.000772 1309. 1487.
1521(36) 0.000772 1309. 1456.
1478(35) 0.000816 1308.8 1430.6
1385(34) 0.000865 1308.6 1411.8
1430(35) 0.000816 1308.3 1399.3
1351(34) 0.000865 1308.1 1393.0
1369(34) 0.000865 1307.9 1392.7
1389(34) 0.000865 1307.6 1398.4
1359(34) 0.000865 1307.4 1410.0
1445(35) 0.000816 1307.2 1427.5
1549(36) 0.000772 1307. 1451.
1476(35) 0.000816 1306.7 1479.3
1478(35) 0.000816 1306.5 1512.9
1507(35) 0.000816 1306.3 1550.4
1545(36) 0.000772 1306. 1591.
1636(37) 0.000730 1306. 1632.
1686(38) 0.000693 1306. 1673.
1687(36) 0.000772 1305. 1710.
1726(36) 0.000772 1305. 1743.
1774(37) 0.000730 1305. 1768.
1787(37) 0.000730 1305. 1784.
1755(37) 0.000730 1304. 1791.
1763(37) 0.000730 1304. 1789.
1803(37) 0.000730 1304. 1781.
1807(37) 0.000730 1304. 1767.
1845(38) 0.000693 1304. 1751.
1734(37) 0.000730 1303. 1736.
1761(37) 0.000730 1303. 1723.
1814(37) 0.000730 1303. 1714.
1790(37) 0.000730 1303. 1710.
1784(37) 0.000730 1303. 1711.
1796(37) 0.000730 1302. 1715.
1761(37) 0.000730 1302. 1721.
1792(37) 0.000730 1302. 1728.
1812(37) 0.000730 1302. 1734.
1804(37) 0.000730 1301. 1736.
1716(36) 0.000772 1301. 1735.
1828(37) 0.000730 1301. 1728.
1772(37) 0.000730 1301. 1717.
1797(37) 0.000730 1301. 1701.
1720(36) 0.000772 1300. 1683.
1738(37) 0.000730 1300. 1663.
1698(36) 0.000772 1300. 1644.
1708(36) 0.000772 1300. 1625.
1608(35) 0.000816 1299.5 1607.3
1655(36) 0.000772 1299. 1592.
1572(35) 0.000816 1299.1 1577.8
1611(35) 0.000816 1298.8 1565.1
1558(35) 0.000816 1298.6 1553.1
1580(35) 0.000816 1298.4 1541.1
1585(35) 0.000816 1298.2 1528.5
1500(34) 0.000865 1298.0 1515.1
1471(34) 0.000865 1297.8 1501.0
1500(34) 0.000865 1297.6 1486.4
1536(34) 0.000865 1297.4 1471.7
1562(35) 0.000816 1297.2 1457.5
1454(33) 0.000918 1297.0 1444.2
1455(33) 0.000918 1296.7 1432.2
1419(33) 0.000918 1296.5 1421.8
1450(33) 0.000918 1296.3 1413.2
1431(33) 0.000918 1296.1 1406.4
1471(34) 0.000865 1295.9 1401.4
1442(33) 0.000918 1295.7 1398.1
1465(34) 0.000865 1295.5 1396.4
1469(34) 0.000865 1295.3 1396.0
1439(33) 0.000918 1295.1 1396.8
1411(33) 0.000918 1294.9 1398.6
1457(33) 0.000918 1294.7 1401.1
1408(33) 0.000918 1294.5 1404.3
1465(34) 0.000865 1294.3 1408.0
1434(33) 0.000918 1294.1 1412.0
1498(34) 0.000865 1293.9 1416.0
1467(34) 0.000865 1293.7 1419.8
1474(34) 0.000865 1293.5 1423.1
1493(34) 0.000865 1293.3 1425.7
1482(34) 0.000865 1293.1 1427.4
1437(33) 0.000918 1292.9 1428.1
1369(32) 0.000977 1292.7 1428.0
1443(33) 0.000918 1292.5 1427.1
1463(33) 0.000918 1292.3 1425.5
1439(33) 0.000918 1292.1 1423.4
1387(33) 0.000918 1291.9 1420.9
1430(33) 0.000918 1291.7 1418.2
1462(33) 0.000918 1291.5 1415.6
1391(33) 0.000918 1291.3 1413.4
1381(33) 0.000918 1291.1 1412.0
1401(33) 0.000918 1290.9 1411.6
1405(33) 0.000918 1290.7 1412.5
1421(33) 0.000918 1290.5 1414.6
1390(33) 0.000918 1290.3 1418.1
1400(33) 0.000918 1290.1 1422.6
1475(34) 0.000865 1289.9 1428.0
1446(33) 0.000918 1289.7 1433.8
1442(33) 0.000918 1289.5 1439.6
1445(33) 0.000918 1289.3 1445.0
1489(34) 0.000865 1289.1 1449.8
1459(33) 0.000918 1288.9 1453.8
1493(34) 0.000865 1288.7 1457.2
1434(33) 0.000918 1288.5 1460.4
1528(34) 0.000865 1288.3 1463.9
1481(34) 0.000865 1288.1 1468.6
1494(34) 0.000865 1287.9 1475.0
1499(34) 0.000865 1287.7 1483.7
1500(34) 0.000865 1287.5 1495.3
1565(35) 0.000816 1287.3 1509.6
1586(35) 0.000816 1287.1 1526.6
1565(35) 0.000816 1286.9 1545.6
1578(35) 0.000816 1286.8 1565.8
1555(35) 0.000816 1286.6 1585.9
1622(35) 0.000816 1286.4 1604.6
1653(36) 0.000772 1286. 1620.
1605(35) 0.000816 1286.0 1631.8
1591(35) 0.000816 1285.8 1637.5
1603(35) 0.000816 1285.6 1636.9
1630(35) 0.000816 1285.4 1629.6
1588(35) 0.000816 1285.2 1616.2
1515(47) 0.000453 1285. 1598.
1585(35) 0.000816 1284.8 1575.1
1582(35) 0.000816 1284.7 1550.1
1572(35) 0.000816 1284.5 1524.1
1543(34) 0.000865 1284.3 1498.3
1477(34) 0.000865 1284.1 1473.9
1454(33) 0.000918 1283.9 1451.8
1443(33) 0.000918 1283.7 1432.8
1425(33) 0.000918 1283.5 1417.1
1394(33) 0.000918 1283.3 1405.1
1407(33) 0.000918 1283.2 1396.7
1388(33) 0.000918 1283.0 1391.8
1380(33) 0.000918 1282.8 1390.1
1371(32) 0.000977 1282.6 1391.3
1350(32) 0.000977 1282.4 1395.0
1395(33) 0.000918 1282.2 1400.7
1398(33) 0.000918 1282.0 1408.1
1394(33) 0.000918 1281.9 1416.5
1397(33) 0.000918 1281.7 1425.5
1470(34) 0.000865 1281.5 1434.6
1448(33) 0.000918 1281.3 1443.4
1438(33) 0.000918 1281.1 1451.4
1489(34) 0.000865 1280.9 1458.3
1497(34) 0.000865 1280.7 1463.7
1474(34) 0.000865 1280.6 1467.4
1485(34) 0.000865 1280.4 1468.9
1471(34) 0.000865 1280.2 1468.1
1473(34) 0.000865 1280.0 1464.8
1483(34) 0.000865 1279.8 1459.0
1469(34) 0.000865 1279.6 1450.7
1465(34) 0.000865 1279.5 1440.4
1423(33) 0.000918 1279.3 1428.6
1443(33) 0.000918 1279.1 1415.8
1394(33) 0.000918 1278.9 1402.5
1428(33) 0.000918 1278.7 1389.3
1445(33) 0.000918 1278.6 1376.8
1400(33) 0.000918 1278.4 1365.3
1345(32) 0.000977 1278.2 1355.2
1375(32) 0.000977 1278.0 1346.9
1379(33) 0.000918 1277.8 1340.5
1352(32) 0.000977 1277.6 1336.4
1315(32) 0.000977 1277.5 1334.6
1341(32) 0.000977 1277.3 1335.4
1375(32) 0.000977 1277.1 1338.9
1319(32) 0.000977 1276.9 1345.2
1338(32) 0.000977 1276.7 1354.4
1360(32) 0.000977 1276.6 1366.5
1368(32) 0.000977 1276.4 1381.5
1436(33) 0.000918 1276.2 1399.2
1462(34) 0.000865 1276.0 1419.4
1464(34) 0.000865 1275.9 1441.7
1475(34) 0.000865 1275.7 1465.5
1490(34) 0.000865 1275.5 1490.2
1583(35) 0.000816 1275.3 1515.1
1554(35) 0.000816 1275.1 1539.1
1566(35) 0.000816 1275.0 1561.3
1617(35) 0.000816 1274.8 1580.7
1587(35) 0.000816 1274.6 1596.5
1620(35) 0.000816 1274.4 1608.1
1629(35) 0.000816 1274.2 1615.0
1626(35) 0.000816 1274.1 1617.4
1650(36) 0.000772 1274. 1616.
1658(36) 0.000772 1274. 1610.
1643(36) 0.000772 1274. 1603.
1614(35) 0.000816 1273.4 1592.8
1592(35) 0.000816 1273.2 1582.0
1581(35) 0.000816 1273.0 1570.7
1590(35) 0.000816 1272.8 1559.4
1557(35) 0.000816 1272.7 1548.4
1612(35) 0.000816 1272.5 1537.8
1531(34) 0.000865 1272.3 1527.7
1511(34) 0.000865 1272.1 1518.3
1557(35) 0.000816 1272.0 1509.5
1493(34) 0.000865 1271.8 1501.4
1507(34) 0.000865 1271.6 1494.4
1510(34) 0.000865 1271.4 1488.7
1502(34) 0.000865 1271.3 1484.7
1519(34) 0.000865 1271.1 1482.7
1532(34) 0.000865 1270.9 1483.0
1518(34) 0.000865 1270.7 1485.6
1500(34) 0.000865 1270.6 1490.5
1526(34) 0.000865 1270.4 1497.4
1539(34) 0.000865 1270.2 1506.0
1519(34) 0.000865 1270.0 1515.8
1589(35) 0.000816 1269.9 1525.9
1573(35) 0.000816 1269.7 1535.5
1535(34) 0.000865 1269.5 1543.9
1478(34) 0.000865 1269.3 1550.1
1522(34) 0.000865 1269.2 1553.5
1573(35) 0.000816 1269.0 1553.6
1548(34) 0.000865 1268.8 1550.2
1543(34) 0.000865 1268.7 1543.5
1542(34) 0.000865 1268.5 1533.8
1580(35) 0.000816 1268.3 1521.9
1558(35) 0.000816 1268.1 1508.5
1563(35) 0.000816 1268.0 1494.3
1532(34) 0.000865 1267.8 1479.9
1480(34) 0.000865 1267.6 1465.9
1520(34) 0.000865 1267.4 1452.7
1523(34) 0.000865 1267.3 1440.6
1482(34) 0.000865 1267.1 1429.6
1469(34) 0.000865 1266.9 1419.8
1444(33) 0.000918 1266.8 1411.0
1429(33) 0.000918 1266.6 1402.9
1397(33) 0.000918 1266.4 1395.3
1412(33) 0.000918 1266.2 1388.1
1397(33) 0.000918 1266.1 1381.0
1364(33) 0.000918 1265.9 1373.9
1391(33) 0.000918 1265.7 1366.7
1381(33) 0.000918 1265.6 1359.7
1335(32) 0.000977 1265.4 1352.7
1332(32) 0.000977 1265.2 1346.0
1331(32) 0.000977 1265.0 1339.7
1317(32) 0.000977 1264.9 1333.8
1330(32) 0.000977 1264.7 1328.5
1303(32) 0.000977 1264.5 1323.8
1319(32) 0.000977 1264.4 1319.9
1361(33) 0.000918 1264.2 1316.7
1327(32) 0.000977 1264.0 1314.2
1323(32) 0.000977 1263.9 1312.5
1301(32) 0.000977 1263.7 1311.4
1280(32) 0.000977 1263.5 1311.0
1296(32) 0.000977 1263.3 1311.2
1294(32) 0.000977 1263.2 1311.9
1337(32) 0.000977 1263.0 1313.1
1301(32) 0.000977 1262.8 1314.7
1313(32) 0.000977 1262.7 1316.8
1295(32) 0.000977 1262.5 1319.2
1325(32) 0.000977 1262.3 1321.9
1328(32) 0.000977 1262.2 1324.9
1285(32) 0.000977 1262.0 1328.0
1300(32) 0.000977 1261.8 1331.2
1312(32) 0.000977 1261.6 1334.5
1305(32) 0.000977 1261.5 1337.8
1337(32) 0.000977 1261.3 1341.0
1349(32) 0.000977 1261.1 1344.2
1328(32) 0.000977 1261.0 1347.4
1363(33) 0.000918 1260.8 1350.8
1341(32) 0.000977 1260.6 1354.4
1297(32) 0.000977 1260.5 1358.5
1367(33) 0.000918 1260.3 1363.3
1360(33) 0.000918 1260.1 1368.9
1363(33) 0.000918 1260.0 1375.4
1390(33) 0.000918 1259.8 1382.9
1347(32) 0.000977 1259.6 1391.3
1351(32) 0.000977 1259.5 1400.6
1354(32) 0.000977 1259.3 1410.5
1409(33) 0.000918 1259.1 1420.8
1415(33) 0.000918 1258.9 1431.2
1427(33) 0.000918 1258.8 1441.2
1424(33) 0.000918 1258.6 1450.5
1412(33) 0.000918 1258.4 1458.7
1409(33) 0.000918 1258.3 1465.4
1461(34) 0.000865 1258.1 1470.4
1447(34) 0.000865 1257.9 1473.7
1442(33) 0.000918 1257.8 1475.2
1462(34) 0.000865 1257.6 1475.2
1491(34) 0.000865 1257.4 1473.9
1507(34) 0.000865 1257.3 1471.9
1487(34) 0.000865 1257.1 1469.4
1490(34) 0.000865 1256.9 1466.9
1461(34) 0.000865 1256.8 1464.8
1447(34) 0.000865 1256.6 1463.2
1461(34) 0.000865 1256.4 1462.5
1438(33) 0.000918 1256.3 1462.7
1449(34) 0.000865 1256.1 1463.7
1473(34) 0.000865 1255.9 1465.7
1488(34) 0.000865 1255.8 1468.4
1472(34) 0.000865 1255.6 1471.8
1445(33) 0.000918 1255.4 1475.8
1455(34) 0.000865 1255.2 1480.4
1513(34) 0.000865 1255.1 1485.5
1522(34) 0.000865 1254.9 1491.4
1468(34) 0.000865 1254.7 1498.2
1489(34) 0.000865 1254.6 1506.2
1527(34) 0.000865 1254.4 1515.3
1533(34) 0.000865 1254.2 1525.8
1522(34) 0.000865 1254.1 1537.5
1541(35) 0.000816 1253.9 1550.4
1539(35) 0.000816 1253.7 1564.2
1555(35) 0.000816 1253.6 1578.4
1605(35) 0.000816 1253.4 1592.6
1624(35) 0.000816 1253.2 1606.2
1567(35) 0.000816 1253.1 1618.5
1577(35) 0.000816 1252.9 1628.8
1617(35) 0.000816 1252.7 1636.7
1625(35) 0.000816 1252.6 1641.7
1617(35) 0.000816 1252.4 1643.5
1655(36) 0.000772 1252. 1642.
1688(36) 0.000772 1252. 1638.
1670(36) 0.000772 1252. 1631.
1633(36) 0.000772 1252. 1622.
1589(35) 0.000816 1251.6 1611.6
1559(35) 0.000816 1251.4 1600.1
1556(35) 0.000816 1251.2 1587.9
1555(35) 0.000816 1251.1 1575.7
1579(35) 0.000816 1250.9 1563.6
1587(35) 0.000816 1250.7 1552.1
1575(35) 0.000816 1250.6 1541.4
1503(34) 0.000865 1250.4 1531.7
1541(35) 0.000816 1250.2 1523.3
1533(36) 0.000772 1250. 1516.
1455(35) 0.000816 1249.9 1510.4
1521(35) 0.000816 1249.7 1506.3
1530(36) 0.000772 1250. 1504.
1445(35) 0.000816 1249.4 1503.7
1465(35) 0.000816 1249.2 1505.4
1528(36) 0.000772 1249. 1509.
1499(35) 0.000816 1248.9 1515.7
1477(35) 0.000816 1248.7 1524.2
1529(36) 0.000772 1249. 1535.
1577(36) 0.000772 1248. 1547.
1651(37) 0.000730 1248. 1561.
1578(36) 0.000772 1248. 1576.
1621(37) 0.000730 1248. 1591.
1636(37) 0.000730 1248. 1605.
1661(37) 0.000730 1248. 1619.
1650(37) 0.000730 1247. 1630.
1591(36) 0.000772 1247. 1640.
1636(37) 0.000730 1247. 1646.
1611(36) 0.000772 1247. 1649.
1639(37) 0.000730 1247. 1648.
1661(37) 0.000730 1247. 1644.
1637(37) 0.000730 1246. 1638.
1641(37) 0.000730 1246. 1629.
1635(37) 0.000730 1246. 1618.
1659(37) 0.000730 1246. 1607.
1630(37) 0.000730 1246. 1595.
1567(36) 0.000772 1246. 1583.
1624(37) 0.000730 1245. 1571.
1554(36) 0.000772 1245. 1560.
1548(36) 0.000772 1245. 1550.
1502(35) 0.000816 1244.9 1541.1
1492(35) 0.000816 1244.8 1532.9
1481(35) 0.000816 1244.6 1525.3
1466(35) 0.000816 1244.4 1518.3
1496(35) 0.000816 1244.3 1511.5
1505(35) 0.000816 1244.1 1504.7
1466(35) 0.000816 1244.0 1497.8
1502(35) 0.000816 1243.8 1490.7
1505(35) 0.000816 1243.6 1483.4
1496(35) 0.000816 1243.5 1475.8
1452(35) 0.000816 1243.3 1468.0
1421(34) 0.000865 1243.1 1460.1
1468(35) 0.000816 1243.0 1452.2
1470(35) 0.000816 1242.8 1444.3
1465(35) 0.000816 1242.6 1436.7
1435(34) 0.000865 1242.5 1429.4
1421(34) 0.000865 1242.3 1422.6
1373(34) 0.000865 1242.2 1416.4
1431(34) 0.000865 1242.0 1410.8
1448(35) 0.000816 1241.8 1406.0
1418(34) 0.000865 1241.7 1402.0
1376(34) 0.000865 1241.5 1398.8
1451(35) 0.000816 1241.3 1396.4
1383(34) 0.000865 1241.2 1395.0
1393(34) 0.000865 1241.0 1394.3
1427(34) 0.000865 1240.8 1394.5
1376(34) 0.000865 1240.7 1395.5
1375(34) 0.000865 1240.5 1397.2
1371(34) 0.000865 1240.4 1399.5
1410(34) 0.000865 1240.2 1402.2
1449(35) 0.000816 1240.0 1405.3
1378(34) 0.000865 1239.9 1408.5
1415(34) 0.000865 1239.7 1411.7
1441(35) 0.000816 1239.5 1414.7
1417(34) 0.000865 1239.4 1417.4
1387(34) 0.000865 1239.2 1419.6
1381(34) 0.000865 1239.1 1421.4
1368(34) 0.000865 1238.9 1422.6
1404(34) 0.000865 1238.7 1423.5
1386(34) 0.000865 1238.6 1424.0
1419(34) 0.000865 1238.4 1424.3
1379(34) 0.000865 1238.3 1424.6
1385(34) 0.000865 1238.1 1425.0
1469(35) 0.000816 1237.9 1425.6
1390(34) 0.000865 1237.8 1426.5
1359(34) 0.000865 1237.6 1427.8
1426(34) 0.000865 1237.5 1429.5
1456(35) 0.000816 1237.3 1431.5
1439(34) 0.000865 1237.1 1433.8
1458(35) 0.000816 1237.0 1436.2
1443(35) 0.000816 1236.8 1438.6
1405(34) 0.000865 1236.7 1441.0
1430(34) 0.000865 1236.5 1443.0
1422(34) 0.000865 1236.3 1444.5
1437(34) 0.000865 1236.2 1445.3
1461(35) 0.000816 1236.0 1445.3
1480(35) 0.000816 1235.9 1444.2
1476(35) 0.000816 1235.7 1442.2
1445(35) 0.000816 1235.5 1439.1
1419(34) 0.000865 1235.4 1435.1
1434(34) 0.000865 1235.2 1430.3
1480(35) 0.000816 1235.1 1424.8
1499(35) 0.000816 1234.9 1418.9
1447(35) 0.000816 1234.8 1412.7
1481(35) 0.000816 1234.6 1406.3
1450(35) 0.000816 1234.4 1400.0
1416(34) 0.000865 1234.3 1393.8
1368(34) 0.000865 1234.1 1387.8
1372(27) 0.001372 1234.0 1382.1
1374(34) 0.000865 1233.8 1376.8
1349(34) 0.000865 1233.7 1371.9
1323(34) 0.000865 1233.5 1367.4
1389(35) 0.000816 1233.3 1363.5
1404(35) 0.000816 1233.2 1360.1
1343(34) 0.000865 1233.0 1357.4
1333(34) 0.000865 1232.9 1355.3
1332(34) 0.000865 1232.7 1353.9
1347(34) 0.000865 1232.6 1353.3
1362(34) 0.000865 1232.4 1353.4
1421(35) 0.000816 1232.3 1354.2
1382(35) 0.000816 1232.1 1355.6
1395(35) 0.000816 1232.0 1357.6
1361(34) 0.000865 1231.8 1360.2
1404(35) 0.000816 1231.6 1363.3
1429(35) 0.000816 1231.5 1366.7
1445(35) 0.000816 1231.3 1370.3
1429(35) 0.000816 1231.2 1374.1
1450(35) 0.000816 1231.0 1377.8
1440(35) 0.000816 1230.9 1381.4
1431(35) 0.000816 1230.7 1384.7
1452(35) 0.000816 1230.6 1387.7
1475(36) 0.000772 1230. 1390.
1452(35) 0.000816 1230.3 1392.2
1425(35) 0.000816 1230.1 1393.6
1384(35) 0.000816 1230.0 1394.4
1407(35) 0.000816 1229.8 1394.7
1524(36) 0.000772 1230. 1394.
1438(35) 0.000816 1229.5 1393.2
1443(35) 0.000816 1229.4 1391.6
1430(35) 0.000816 1229.2 1389.4
1447(35) 0.000816 1229.1 1386.6
1401(35) 0.000816 1228.9 1383.4
1352(34) 0.000865 1228.8 1379.8
1382(35) 0.000816 1228.6 1375.9
1450(35) 0.000816 1228.5 1371.8
1411(35) 0.000816 1228.3 1367.7
1364(34) 0.000865 1228.2 1363.7
1375(34) 0.000865 1228.0 1359.8
1367(34) 0.000865 1227.9 1356.3
1358(34) 0.000865 1227.7 1353.2
1390(35) 0.000816 1227.6 1350.7
1339(34) 0.000865 1227.4 1348.8
1303(34) 0.000865 1227.3 1347.6
1345(34) 0.000865 1227.2 1347.1
1324(34) 0.000865 1227.0 1347.3
1401(35) 0.000816 1226.9 1348.1
1415(35) 0.000816 1226.7 1349.5
1369(34) 0.000865 1226.6 1351.3
1390(35) 0.000816 1226.4 1353.5
1437(35) 0.000816 1226.3 1355.8
1386(35) 0.000816 1226.2 1358.2
1375(34) 0.000865 1226.0 1360.4
1394(35) 0.000816 1225.9 1362.2
1361(34) 0.000865 1225.7 1363.6
1368(34) 0.000865 1225.6 1364.4
1445(35) 0.000816 1225.4 1364.5
1432(35) 0.000816 1225.3 1363.9
1454(35) 0.000816 1225.2 1362.6
1370(34) 0.000865 1225.0 1360.6
1433(35) 0.000816 1224.9 1358.2
1373(34) 0.000865 1224.7 1355.4
1426(35) 0.000816 1224.6 1352.4
1365(34) 0.000865 1224.5 1349.3
1397(35) 0.000816 1224.3 1346.4
1381(35) 0.000816 1224.2 1343.8
1382(35) 0.000816 1224.1 1341.7
1316(34) 0.000865 1223.9 1340.1
1386(35) 0.000816 1223.8 1339.4
1374(34) 0.000865 1223.6 1339.4
1395(35) 0.000816 1223.5 1340.4
1402(35) 0.000816 1223.4 1342.4
1283(33) 0.000918 1223.2 1345.4
1372(34) 0.000865 1223.1 1349.5
1329(34) 0.000865 1223.0 1354.5
1322(34) 0.000865 1222.8 1360.5
1385(35) 0.000816 1222.7 1367.5
1421(35) 0.000816 1222.6 1375.3
1391(35) 0.000816 1222.4 1383.9
1356(34) 0.000865 1222.3 1393.1
1394(35) 0.000816 1222.2 1402.9
1364(34) 0.000865 1222.0 1412.9
1388(35) 0.000816 1221.9 1423.1
1445(35) 0.000816 1221.8 1433.3
1457(35) 0.000816 1221.7 1443.2
1417(35) 0.000816 1221.5 1452.6
1441(35) 0.000816 1221.4 1461.2
1486(36) 0.000772 1221. 1469.
1448(35) 0.000816 1221.1 1475.2
1430(35) 0.000816 1221.0 1480.2
1489(36) 0.000772 1221. 1484.
1425(35) 0.000816 1220.8 1485.3
1396(35) 0.000816 1220.6 1485.2
1436(35) 0.000816 1220.5 1483.5
1464(36) 0.000772 1220. 1480.
1457(35) 0.000816 1220.3 1475.6
1476(36) 0.000772 1220. 1470.
1527(36) 0.000772 1220. 1463.
1504(36) 0.000772 1220. 1456.
1436(35) 0.000816 1219.8 1447.8
1450(34) 0.000865 1219.6 1439.8
1421(34) 0.000865 1219.5 1431.8
1397(34) 0.000865 1219.4 1423.9
1461(34) 0.000865 1219.3 1416.5
1443(34) 0.000865 1219.2 1409.4
1393(33) 0.000918 1219.0 1402.9
1414(34) 0.000865 1218.9 1397.0
1402(34) 0.000865 1218.8 1391.7
1407(34) 0.000865 1218.7 1386.9
1399(34) 0.000865 1218.6 1382.8
1353(33) 0.000918 1218.5 1379.2
1365(33) 0.000918 1218.3 1376.1
1382(33) 0.000918 1218.2 1373.4
1365(33) 0.000918 1218.1 1371.2
1381(33) 0.000918 1218.0 1369.3
1374(33) 0.000918 1217.9 1367.8
1366(33) 0.000918 1217.8 1366.5
1389(33) 0.000918 1217.7 1365.4
1379(33) 0.000918 1217.5 1364.5
1424(34) 0.000865 1217.4 1363.8
1403(34) 0.000865 1217.3 1363.1
1347(33) 0.000918 1217.2 1362.4
1353(33) 0.000918 1217.1 1361.6
1349(33) 0.000918 1217.0 1360.9
1398(34) 0.000865 1216.9 1360.1
1436(34) 0.000865 1216.8 1359.2
1373(33) 0.000918 1216.7 1358.2
1401(34) 0.000865 1216.6 1357.2
1421(34) 0.000865 1216.5 1356.1
1364(33) 0.000918 1216.4 1355.1
1352(33) 0.000918 1216.2 1354.2
1311(33) 0.000918 1216.1 1353.5
1360(33) 0.000918 1216.0 1353.0
1406(34) 0.000865 1215.9 1352.8
1392(33) 0.000918 1215.8 1353.0
1396(34) 0.000865 1215.7 1353.6
1353(33) 0.000918 1215.6 1354.7
1401(34) 0.000865 1215.5 1356.3
1393(33) 0.000918 1215.4 1358.4
1386(33) 0.000918 1215.3 1361.1
1414(34) 0.000865 1215.2 1364.2
1384(33) 0.000918 1215.1 1367.8
1433(34) 0.000865 1215.0 1371.7
1443(34) 0.000865 1214.9 1376.0
1436(34) 0.000865 1214.9 1380.6
1397(34) 0.000865 1214.8 1385.3
1410(34) 0.000865 1214.7 1390.2
1353(33) 0.000918 1214.6 1395.0
1437(34) 0.000865 1214.5 1399.8
1394(34) 0.000865 1214.4 1404.5
1513(35) 0.000816 1214.3 1409.1
1470(34) 0.000865 1214.2 1413.4
1458(34) 0.000865 1214.1 1417.5
1422(34) 0.000865 1214.0 1421.2
1435(34) 0.000865 1213.9 1424.7
1473(34) 0.000865 1213.8 1427.8
1495(35) 0.000816 1213.8 1430.5
1452(34) 0.000865 1213.7 1432.7
1471(34) 0.000865 1213.6 1434.4
1502(35) 0.000816 1213.5 1435.7
1474(34) 0.000865 1213.4 1436.3
1498(35) 0.000816 1213.3 1436.5
1499(35) 0.000816 1213.3 1436.0
1431(34) 0.000865 1213.2 1435.0
1454(34) 0.000865 1213.1 1433.3
1440(34) 0.000865 1213.0 1431.1
1427(34) 0.000865 1212.9 1428.3
1441(34) 0.000865 1212.9 1425.0
1426(34) 0.000865 1212.8 1421.1
1455(34) 0.000865 1212.7 1416.7
1452(34) 0.000865 1212.6 1411.9
1481(35) 0.000816 1212.5 1406.8
1411(34) 0.000865 1212.5 1401.5
1408(34) 0.000865 1212.4 1396.1
1374(33) 0.000918 1212.3 1390.8
1386(33) 0.000918 1212.2 1385.6
1444(34) 0.000865 1212.2 1380.7
1412(34) 0.000865 1212.1 1376.2
1419(34) 0.000865 1212.0 1372.2
1398(34) 0.000865 1212.0 1368.8
1430(34) 0.000865 1211.9 1366.0
1344(33) 0.000918 1211.8 1364.1
1355(33) 0.000918 1211.8 1362.9
1402(34) 0.000865 1211.7 1362.6
1414(34) 0.000865 1211.6 1363.1
1350(33) 0.000918 1211.6 1364.6
1283(32) 0.000977 1211.5 1366.9
1372(33) 0.000918 1211.4 1370.0
1348(33) 0.000918 1211.4 1373.9
1376(33) 0.000918 1211.3 1378.5
1376(33) 0.000918 1211.3 1383.7
1384(33) 0.000918 1211.2 1389.5
1387(33) 0.000918 1211.1 1395.6
1387(33) 0.000918 1211.1 1401.9
1408(34) 0.000865 1211.0 1408.4
1391(33) 0.000918 1211.0 1414.8
1440(34) 0.000865 1210.9 1421.1
1468(34) 0.000865 1210.9 1427.0
1475(34) 0.000865 1210.8 1432.5
1361(47) 0.000453 1211. 1438.
1435(34) 0.000865 1210.7 1441.9
1402(33) 0.000918 1210.6 1445.5
1419(33) 0.000918 1210.6 1448.4
1453(34) 0.000865 1210.5 1450.5
1513(34) 0.000865 1210.5 1451.8
1452(34) 0.000865 1210.4 1452.2
1429(33) 0.000918 1210.4 1451.8
1444(34) 0.000865 1210.4 1450.7
1467(34) 0.000865 1210.3 1448.9
1466(34) 0.000865 1210.3 1446.5
1433(34) 0.000865 1210.2 1443.6
1446(34) 0.000865 1210.2 1440.2
1471(34) 0.000865 1210.1 1436.5
1435(34) 0.000865 1210.1 1432.6
1447(34) 0.000865 1210.1 1428.6
1449(34) 0.000865 1210.0 1424.6
1414(33) 0.000918 1210.0 1420.5
1432(33) 0.000918 1209.9 1416.6
1422(33) 0.000918 1209.9 1412.8
1392(33) 0.000918 1209.9 1409.1
1415(33) 0.000918 1209.8 1405.5
1453(34) 0.000865 1209.8 1402.1
1394(33) 0.000918 1209.8 1398.8
1401(33) 0.000918 1209.7 1395.6
1420(33) 0.000918 1209.7 1392.5
1373(33) 0.000918 1209.7 1389.4
1408(33) 0.000918 1209.6 1386.5
1422(33) 0.000918 1209.6 1383.5
1376(33) 0.000918 1209.6 1380.6
1458(34) 0.000865 1209.6 1377.7
1372(33) 0.000918 1209.5 1374.9
1374(33) 0.000918 1209.5 1372.1
1406(33) 0.000918 1209.5 1369.4
1345(32) 0.000977 1209.5 1366.8
1382(33) 0.000918 1209.4 1364.3
1369(33) 0.000918 1209.4 1361.8
1377(33) 0.000918 1209.4 1359.4
1406(33) 0.000918 1209.4 1357.1
1407(33) 0.000918 1209.4 1354.9
1374(33) 0.000918 1209.3 1352.8
1402(33) 0.000918 1209.3 1350.9
1403(33) 0.000918 1209.3 1349.0
1379(33) 0.000918 1209.3 1347.2
1384(33) 0.000918 1209.3 1345.6
1404(33) 0.000918 1209.3 1344.0
1333(32) 0.000977 1209.3 1342.6
1384(33) 0.000918 1209.3 1341.3
1364(33) 0.000918 1209.2 1340.0
1340(32) 0.000977 1209.2 1338.9
1396(33) 0.000918 1209.2 1337.8
1348(33) 0.000918 1209.2 1336.8
1368(33) 0.000918 1209.2 1336.0
1289(32) 0.000977 1209.2 1335.2
1344(32) 0.000977 1209.2 1334.5
1310(32) 0.000977 1209.2 1334.0
1283(32) 0.000977 1209.2 1333.6
1301(32) 0.000977 1209.2 1333.4
1296(32) 0.000977 1209.2 1333.2
1268(32) 0.000977 1209.2 1333.3
1324(32) 0.000977 1209.2 1333.5
1385(33) 0.000918 1209.2 1333.9
1397(33) 0.000918 1209.2 1334.6
1311(32) 0.000977 1209.2 1335.4
1331(32) 0.000977 1209.2 1336.6
1332(32) 0.000977 1209.2 1338.0
1348(33) 0.000918 1209.2 1339.7
1370(33) 0.000918 1209.2 1341.8
1326(32) 0.000977 1209.2 1344.3
1348(33) 0.000918 1209.3 1347.2
1341(32) 0.000977 1209.3 1350.4
1365(33) 0.000918 1209.3 1354.1
1402(33) 0.000918 1209.3 1358.2
1381(33) 0.000918 1209.3 1362.7
1368(33) 0.000918 1209.3 1367.6
1384(33) 0.000918 1209.3 1372.8
1372(33) 0.000918 1209.4 1378.3
1391(33) 0.000918 1209.4 1384.0
1388(33) 0.000918 1209.4 1389.9
1405(33) 0.000918 1209.4 1395.8
1432(33) 0.000918 1209.4 1401.7
1440(34) 0.000865 1209.5 1407.4
1422(33) 0.000918 1209.5 1412.9
1399(33) 0.000918 1209.5 1418.1
1437(34) 0.000865 1209.5 1422.8
1424(33) 0.000918 1209.6 1426.9
1414(33) 0.000918 1209.6 1430.4
1428(33) 0.000918 1209.6 1433.1
1428(33) 0.000918 1209.6 1435.0
1462(34) 0.000865 1209.7 1436.1
1372(33) 0.000918 1209.7 1436.4
1384(33) 0.000918 1209.7 1435.9
1438(34) 0.000865 1209.8 1434.6
1444(34) 0.000865 1209.8 1432.7
1419(33) 0.000918 1209.8 1430.2
1422(33) 0.000918 1209.9 1427.3
1481(34) 0.000865 1209.9 1424.1
1469(34) 0.000865 1209.9 1420.7
1414(33) 0.000918 1210.0 1417.3
1405(33) 0.000918 1210.0 1414.1
1419(27) 0.001372 1210.1 1411.0
1434(34) 0.000865 1210.1 1408.4
1445(34) 0.000865 1210.2 1406.3
1412(33) 0.000918 1210.2 1404.8
1441(34) 0.000865 1210.2 1404.0
1438(34) 0.000865 1210.3 1404.0
1449(34) 0.000865 1210.3 1404.8
1398(33) 0.000918 1210.4 1406.4
1426(34) 0.000865 1210.4 1408.9
1422(33) 0.000918 1210.5 1412.2
1414(33) 0.000918 1210.5 1416.4
1424(33) 0.000918 1210.6 1421.3
1413(33) 0.000918 1210.6 1426.9
1405(33) 0.000918 1210.7 1433.1
1439(34) 0.000865 1210.7 1439.8
1459(34) 0.000865 1210.8 1446.9
1443(34) 0.000865 1210.9 1454.3
1438(34) 0.000865 1210.9 1461.7
1474(34) 0.000865 1211.0 1469.1
1507(34) 0.000865 1211.0 1476.4
1526(35) 0.000816 1211.1 1483.3
1487(34) 0.000865 1211.2 1489.7
1482(34) 0.000865 1211.2 1495.6
1503(34) 0.000865 1211.3 1500.8
1518(35) 0.000816 1211.3 1505.2
1531(35) 0.000816 1211.4 1508.7
1492(34) 0.000865 1211.5 1511.3
1495(34) 0.000865 1211.5 1513.0
1479(34) 0.000865 1211.6 1513.6
1515(35) 0.000816 1211.7 1513.4
1528(35) 0.000816 1211.8 1512.1
1531(35) 0.000816 1211.8 1510.0
1515(35) 0.000816 1211.9 1507.1
1556(35) 0.000816 1212.0 1503.3
1520(35) 0.000816 1212.0 1498.9
1478(34) 0.000865 1212.1 1493.9
1509(34) 0.000865 1212.2 1488.3
1531(35) 0.000816 1212.3 1482.3
1506(34) 0.000865 1212.4 1475.9
1534(35) 0.000816 1212.4 1469.3
1489(34) 0.000865 1212.5 1462.6
1477(34) 0.000865 1212.6 1455.7
1476(34) 0.000865 1212.7 1448.9
1476(34) 0.000865 1212.8 1442.1
1517(35) 0.000816 1212.8 1435.4
1477(34) 0.000865 1212.9 1428.9
1492(34) 0.000865 1213.0 1422.6
1448(34) 0.000865 1213.1 1416.6
1395(33) 0.000918 1213.2 1410.9
1375(33) 0.000918 1213.3 1405.6
1401(33) 0.000918 1213.4 1400.6
1462(34) 0.000865 1213.5 1396.1
1444(34) 0.000865 1213.6 1392.0
1410(33) 0.000918 1213.7 1388.3
1409(33) 0.000918 1213.7 1385.1
1434(34) 0.000865 1213.8 1382.3
1376(33) 0.000918 1213.9 1379.9
1371(33) 0.000918 1214.0 1377.9
1387(33) 0.000918 1214.1 1376.3
1406(33) 0.000918 1214.2 1375.0
1374(33) 0.000918 1214.3 1374.1
1372(33) 0.000918 1214.4 1373.5
1391(33) 0.000918 1214.5 1373.2
1347(33) 0.000918 1214.6 1373.1
1392(33) 0.000918 1214.7 1373.2
1407(33) 0.000918 1214.9 1373.5
1346(33) 0.000918 1215.0 1373.9
1361(33) 0.000918 1215.1 1374.5
1383(33) 0.000918 1215.2 1375.1
1373(33) 0.000918 1215.3 1375.9
1409(33) 0.000918 1215.4 1376.7
1365(33) 0.000918 1215.5 1377.6
1428(34) 0.000865 1215.6 1378.6
1391(33) 0.000918 1215.7 1379.6
1374(33) 0.000918 1215.8 1380.8
1400(33) 0.000918 1216.0 1382.0
1350(33) 0.000918 1216.1 1383.4
1376(33) 0.000918 1216.2 1384.9
1427(34) 0.000865 1216.3 1386.5
1409(33) 0.000918 1216.4 1388.3
1429(34) 0.000865 1216.6 1390.3
1413(33) 0.000918 1216.7 1392.4
1427(34) 0.000865 1216.8 1394.8
1428(34) 0.000865 1216.9 1397.3
1455(34) 0.000865 1217.0 1399.9
1480(34) 0.000865 1217.2 1402.7
1438(34) 0.000865 1217.3 1405.6
1421(33) 0.000918 1217.4 1408.7
1410(33) 0.000918 1217.6 1411.8
1441(34) 0.000865 1217.7 1414.9
1435(34) 0.000865 1217.8 1418.0
1444(34) 0.000865 1217.9 1421.0
1482(34) 0.000865 1218.1 1423.9
1487(34) 0.000865 1218.2 1426.7
1463(34) 0.000865 1218.4 1429.3
1431(34) 0.000865 1218.5 1431.5
1410(33) 0.000918 1218.6 1433.5
1426(34) 0.000865 1218.8 1435.1
1465(34) 0.000865 1218.9 1436.3
1434(34) 0.000865 1219.0 1437.1
1468(34) 0.000865 1219.2 1437.5
1487(35) 0.000816 1219.3 1437.4
1463(34) 0.000865 1219.5 1436.8
1471(34) 0.000865 1219.6 1435.9
1393(33) 0.000918 1219.8 1434.5
1435(34) 0.000865 1219.9 1432.8
1451(34) 0.000865 1220.1 1430.7
1461(34) 0.000865 1220.2 1428.2
1457(34) 0.000865 1220.3 1425.5
1438(34) 0.000865 1220.5 1422.6
1426(34) 0.000865 1220.7 1419.5
1457(34) 0.000865 1220.8 1416.2
1471(34) 0.000865 1221.0 1412.7
1436(34) 0.000865 1221.1 1409.2
1412(34) 0.000865 1221.3 1405.6
1404(34) 0.000865 1221.4 1402.0
1441(34) 0.000865 1221.6 1398.3
1413(34) 0.000865 1221.7 1394.7
1403(34) 0.000865 1221.9 1391.0
1359(33) 0.000918 1222.1 1387.4
1387(33) 0.000918 1222.2 1383.9
1430(34) 0.000865 1222.4 1380.3
1407(34) 0.000865 1222.6 1376.9
1372(33) 0.000918 1222.7 1373.4
1339(33) 0.000918 1222.9 1370.1
1401(34) 0.000865 1223.1 1366.8
1346(33) 0.000918 1223.2 1363.6
1365(33) 0.000918 1223.4 1360.4
1381(33) 0.000918 1223.6 1357.3
1351(33) 0.000918 1223.7 1354.3
1358(33) 0.000918 1223.9 1351.5
1334(33) 0.000918 1224.1 1348.7
1377(33) 0.000918 1224.3 1346.0
1334(33) 0.000918 1224.5 1343.5
1349(33) 0.000918 1224.6 1341.2
1346(33) 0.000918 1224.8 1339.0
1331(33) 0.000918 1225.0 1336.9
1395(33) 0.000918 1225.2 1335.1
1357(33) 0.000918 1225.4 1333.4
1341(33) 0.000918 1225.5 1332.0
1350(33) 0.000918 1225.7 1330.7
1377(33) 0.000918 1225.9 1329.7
1357(33) 0.000918 1226.1 1328.8
1379(33) 0.000918 1226.3 1328.2
1348(33) 0.000918 1226.5 1327.9
1308(32) 0.000977 1226.7 1327.7
1338(33) 0.000918 1226.9 1327.7
1317(33) 0.000918 1227.1 1328.0
1284(32) 0.000977 1227.3 1328.4
1371(33) 0.000918 1227.5 1329.0
1381(33) 0.000918 1227.7 1329.8
1337(33) 0.000918 1227.9 1330.8
1356(33) 0.000918 1228.1 1331.9
1361(33) 0.000918 1228.3 1333.1
1391(33) 0.000918 1228.5 1334.4
1371(33) 0.000918 1228.7 1335.8
1345(33) 0.000918 1228.9 1337.2
1363(33) 0.000918 1229.1 1338.7
1363(33) 0.000918 1229.3 1340.2
1354(33) 0.000918 1229.5 1341.6
1356(33) 0.000918 1229.7 1342.9
1365(33) 0.000918 1230.0 1344.2
1365(33) 0.000918 1230.2 1345.3
1329(33) 0.000918 1230.4 1346.3
1341(33) 0.000918 1230.6 1347.2
1335(33) 0.000918 1230.8 1347.8
1340(33) 0.000918 1231.1 1348.2
1328(33) 0.000918 1231.3 1348.4
1315(33) 0.000918 1231.5 1348.4
1337(33) 0.000918 1231.7 1348.2
1305(32) 0.000977 1232.0 1347.7
1351(33) 0.000918 1232.2 1346.9
1374(33) 0.000918 1232.4 1346.0
1357(33) 0.000918 1232.7 1344.8
1353(33) 0.000918 1232.9 1343.5
1366(33) 0.000918 1233.1 1341.9
1391(33) 0.000918 1233.4 1340.2
1363(33) 0.000918 1233.6 1338.4
1393(33) 0.000918 1233.9 1336.5
1370(33) 0.000918 1234.1 1334.6
1320(33) 0.000918 1234.3 1332.6
1332(33) 0.000918 1234.6 1330.6
1342(33) 0.000918 1234.8 1328.6
1385(33) 0.000918 1235.1 1326.7
1362(33) 0.000918 1235.3 1324.9
1322(33) 0.000918 1235.6 1323.2
1318(33) 0.000918 1235.9 1321.7
1352(33) 0.000918 1236.1 1320.4
1332(33) 0.000918 1236.4 1319.3
1320(33) 0.000918 1236.6 1318.4
1305(32) 0.000977 1236.9 1317.8
1316(33) 0.000918 1237.2 1317.4
1297(32) 0.000977 1237.4 1317.4
1301(32) 0.000977 1237.7 1317.7
1316(33) 0.000918 1238.0 1318.3
1354(33) 0.000918 1238.3 1319.3
1352(33) 0.000918 1238.5 1320.6
1288(32) 0.000977 1238.8 1322.3
1334(33) 0.000918 1239.1 1324.4
1272(32) 0.000977 1239.4 1326.8
1322(33) 0.000918 1239.7 1329.6
1323(33) 0.000918 1239.9 1332.7
1292(32) 0.000977 1240.2 1336.2
1335(33) 0.000918 1240.5 1340.1
1343(33) 0.000918 1240.8 1344.3
1375(33) 0.000918 1241.1 1348.8
1358(33) 0.000918 1241.4 1353.6
1314(33) 0.000918 1241.7 1358.6
1333(33) 0.000918 1242.0 1364.0
1335(33) 0.000918 1242.3 1369.5
1400(34) 0.000865 1242.6 1375.3
1358(33) 0.000918 1243.0 1381.2
1355(33) 0.000918 1243.3 1387.3
1373(33) 0.000918 1243.6 1393.5
1403(34) 0.000865 1243.9 1399.8
1385(33) 0.000918 1244.2 1406.1
1384(33) 0.000918 1244.5 1412.5
1407(34) 0.000865 1244.9 1418.8
1437(34) 0.000865 1245.2 1425.0
1446(34) 0.000865 1245.5 1431.1
1422(34) 0.000865 1245.9 1437.1
1438(34) 0.000865 1246.2 1442.9
1451(34) 0.000865 1246.6 1448.5
1441(34) 0.000865 1246.9 1453.8
1467(34) 0.000865 1247.2 1458.9
1471(34) 0.000865 1247.6 1463.7
1442(34) 0.000865 1247.9 1468.1
1476(34) 0.000865 1248.3 1472.2
1507(35) 0.000816 1248.7 1475.9
1520(35) 0.000816 1249.0 1479.2
1532(35) 0.000816 1249.4 1482.1
1565(35) 0.000816 1249.8 1484.7
1548(35) 0.000816 1250.1 1486.9
1537(35) 0.000816 1250.5 1488.7
1546(35) 0.000816 1250.9 1490.1
1525(35) 0.000816 1251.3 1491.1
1471(34) 0.000865 1251.7 1491.9
1527(35) 0.000816 1252.0 1492.2
1586(36) 0.000772 1252. 1492.
1575(36) 0.000772 1253. 1492.
1504(35) 0.000816 1253.2 1491.6
1496(35) 0.000816 1253.6 1490.8
1542(35) 0.000816 1254.0 1489.8
1519(35) 0.000816 1254.4 1488.6
1500(35) 0.000816 1254.9 1487.2
1524(35) 0.000816 1255.3 1485.6
1512(35) 0.000816 1255.7 1483.9
1502(35) 0.000816 1256.1 1482.0
1508(35) 0.000816 1256.6 1480.1
1465(34) 0.000865 1257.0 1478.0
1464(34) 0.000865 1257.4 1475.8
1483(35) 0.000816 1257.9 1473.7
1496(35) 0.000816 1258.3 1471.4
1507(35) 0.000816 1258.8 1469.2
1482(35) 0.000816 1259.2 1467.0
1453(34) 0.000865 1259.7 1464.8
1428(34) 0.000865 1260.2 1462.7
1422(34) 0.000865 1260.6 1460.6
1433(34) 0.000865 1261.1 1458.6
1446(34) 0.000865 1261.6 1456.7
1426(34) 0.000865 1262.1 1455.0
1485(35) 0.000816 1262.6 1453.4
1462(34) 0.000865 1263.0 1451.9
1409(34) 0.000865 1263.5 1450.5
1410(34) 0.000865 1264.0 1449.4
1433(34) 0.000865 1264.6 1448.4
1470(34) 0.000865 1265.1 1447.5
1437(34) 0.000865 1265.6 1446.9
1435(34) 0.000865 1266.1 1446.4
1460(34) 0.000865 1266.6 1446.2
1402(34) 0.000865 1267.2 1446.1
1437(34) 0.000865 1267.7 1446.1
1470(34) 0.000865 1268.3 1446.4
1459(34) 0.000865 1268.8 1446.8
1489(35) 0.000816 1269.4 1447.3
1458(34) 0.000865 1269.9 1448.0
1464(34) 0.000865 1270.5 1448.9
1457(34) 0.000865 1271.1 1449.8
1420(34) 0.000865 1271.6 1450.9
1428(34) 0.000865 1272.2 1452.0
1446(34) 0.000865 1272.8 1453.3
1440(34) 0.000865 1273.4 1454.6
1448(34) 0.000865 1274.0 1456.0
1421(34) 0.000865 1274.6 1457.4
1414(34) 0.000865 1275.3 1458.9
1415(34) 0.000865 1275.9 1460.4
1475(34) 0.000865 1276.5 1461.9
1491(35) 0.000816 1277.1 1463.4
1450(34) 0.000865 1277.8 1465.0
1380(33) 0.000918 1278.4 1466.6
1402(34) 0.000865 1279.1 1468.2
1493(35) 0.000816 1279.8 1469.9
1470(34) 0.000865 1280.4 1471.6
1475(34) 0.000865 1281.1 1473.3
1451(34) 0.000865 1281.8 1475.0
1477(35) 0.000816 1282.5 1476.8
1485(35) 0.000816 1283.2 1478.7
1549(35) 0.000816 1283.9 1480.6
1567(35) 0.000816 1284.6 1482.5
1514(35) 0.000816 1285.4 1484.6
1512(28) 0.001276 1286.1 1486.7
1500(35) 0.000816 1286.8 1488.9
1545(35) 0.000816 1287.6 1491.3
1541(35) 0.000816 1288.3 1493.7
1489(35) 0.000816 1289.1 1496.2
1518(35) 0.000816 1289.9 1498.8
1549(35) 0.000816 1290.7 1501.6
1526(35) 0.000816 1291.5 1504.4
1530(35) 0.000816 1292.3 1507.4
1538(35) 0.000816 1293.1 1510.4
1518(35) 0.000816 1293.9 1513.6
1519(35) 0.000816 1294.7 1516.9
1541(35) 0.000816 1295.5 1520.3
1574(36) 0.000772 1296. 1524.
1577(36) 0.000772 1297. 1527.
1542(35) 0.000816 1298.1 1530.9
1540(35) 0.000816 1299.0 1534.6
1531(35) 0.000816 1299.9 1538.4
1559(36) 0.000772 1301. 1542.
1568(36) 0.000772 1302. 1546.
1555(35) 0.000816 1302.6 1550.1
1579(36) 0.000772 1304. 1554.
1573(36) 0.000772 1304. 1558.
1556(35) 0.000816 1305.4 1562.1
1586(36) 0.000772 1306. 1566.
1618(36) 0.000772 1307. 1570.
1650(36) 0.000772 1308. 1574.
1632(36) 0.000772 1309. 1578.
1638(36) 0.000772 1310. 1582.
1635(36) 0.000772 1311. 1586.
1679(37) 0.000730 1312. 1589.
1687(37) 0.000730 1313. 1593.
1628(36) 0.000772 1314. 1596.
1623(36) 0.000772 1315. 1600.
1666(37) 0.000730 1317. 1603.
1651(37) 0.000730 1318. 1606.
1640(36) 0.000772 1319. 1609.
1654(37) 0.000730 1320. 1612.
1629(36) 0.000772 1321. 1614.
1619(36) 0.000772 1322. 1617.
1626(36) 0.000772 1323. 1619.
1612(36) 0.000772 1324. 1621.
1623(36) 0.000772 1326. 1622.
1653(37) 0.000730 1327. 1624.
1643(36) 0.000772 1328. 1625.
1670(37) 0.000730 1329. 1626.
1658(37) 0.000730 1330. 1626.
1658(37) 0.000730 1332. 1627.
1651(37) 0.000730 1333. 1627.
1666(37) 0.000730 1334. 1627.
1690(37) 0.000730 1336. 1627.
1649(36) 0.000772 1337. 1626.
1645(36) 0.000772 1338. 1625.
1703(37) 0.000730 1339. 1624.
1711(37) 0.000730 1341. 1623.
1659(37) 0.000730 1342. 1622.
1643(36) 0.000772 1344. 1621.
1645(36) 0.000772 1345. 1619.
1631(36) 0.000772 1346. 1618.
1642(36) 0.000772 1348. 1616.
1650(36) 0.000772 1349. 1615.
1642(36) 0.000772 1351. 1613.
1653(37) 0.000730 1352. 1611.
1651(37) 0.000730 1354. 1609.
1668(37) 0.000730 1355. 1608.
1653(37) 0.000730 1357. 1606.
1643(36) 0.000772 1358. 1604.
1616(36) 0.000772 1360. 1603.
1566(36) 0.000772 1361. 1602.
1581(36) 0.000772 1363. 1600.
1620(36) 0.000772 1365. 1599.
1633(36) 0.000772 1366. 1598.
1599(36) 0.000772 1368. 1598.
1612(36) 0.000772 1370. 1597.
1669(37) 0.000730 1371. 1597.
1647(36) 0.000772 1373. 1596.
1634(36) 0.000772 1375. 1596.
1613(36) 0.000772 1377. 1597.
1631(36) 0.000772 1378. 1597.
1649(36) 0.000772 1380. 1598.
1664(37) 0.000730 1382. 1599.
1638(36) 0.000772 1384. 1600.
1607(36) 0.000772 1386. 1601.
1630(36) 0.000772 1388. 1602.
1643(36) 0.000772 1390. 1604.
1683(37) 0.000730 1392. 1606.
1675(37) 0.000730 1393. 1608.
1667(37) 0.000730 1395. 1610.
1660(37) 0.000730 1397. 1613.
1659(37) 0.000730 1399. 1615.
1651(37) 0.000730 1402. 1618.
1656(37) 0.000730 1404. 1621.
1628(36) 0.000772 1406. 1624.
1635(36) 0.000772 1408. 1627.
1662(37) 0.000730 1410. 1630.
1653(37) 0.000730 1412. 1634.
1645(36) 0.000772 1414. 1637.
1640(36) 0.000772 1417. 1640.
1634(36) 0.000772 1419. 1644.
1650(36) 0.000772 1421. 1647.
1662(37) 0.000730 1423. 1651.
1615(37) 0.000730 1426. 1654.
1698(38) 0.000693 1428. 1658.
1725(38) 0.000693 1430. 1661.
1686(37) 0.000730 1433. 1664.
1675(37) 0.000730 1435. 1668.
1701(38) 0.000693 1438. 1671.
1699(38) 0.000693 1440. 1674.
1712(38) 0.000693 1443. 1677.
1674(37) 0.000730 1445. 1680.
1697(38) 0.000693 1448. 1683.
1719(38) 0.000693 1451. 1686.
1698(38) 0.000693 1453. 1688.
1669(37) 0.000730 1456. 1691.
1697(38) 0.000693 1459. 1693.
1686(37) 0.000730 1461. 1695.
1660(37) 0.000730 1464. 1697.
1688(38) 0.000693 1467. 1699.
1781(38) 0.000693 1470. 1701.
1698(38) 0.000693 1473. 1702.
1743(38) 0.000693 1475. 1704.
1710(38) 0.000693 1478. 1705.
1713(38) 0.000693 1481. 1706.
1721(38) 0.000693 1484. 1707.
1707(38) 0.000693 1487. 1708.
1698(38) 0.000693 1490. 1709.
1711(38) 0.000693 1493. 1710.
1702(38) 0.000693 1497. 1710.
1726(38) 0.000693 1500. 1711.
1712(38) 0.000693 1503. 1712.
1673(37) 0.000730 1506. 1712.
1675(37) 0.000730 1509. 1712.
1738(38) 0.000693 1513. 1713.
1744(38) 0.000693 1516. 1713.
1701(38) 0.000693 1520. 1713.
1713(38) 0.000693 1523. 1714.
1727(38) 0.000693 1526. 1714.
1693(38) 0.000693 1530. 1714.
1699(38) 0.000693 1533. 1715.
1701(38) 0.000693 1537. 1715.
1701(38) 0.000693 1541. 1715.
1732(38) 0.000693 1544. 1716.
1727(38) 0.000693 1548. 1716.
1710(38) 0.000693 1552. 1717.
1712(38) 0.000693 1556. 1718.
1766(38) 0.000693 1559. 1718.
1718(38) 0.000693 1563. 1719.
1677(37) 0.000730 1567. 1720.
1752(38) 0.000693 1571. 1721.
1716(38) 0.000693 1575. 1722.
1673(37) 0.000730 1579. 1724.
1660(37) 0.000730 1583. 1725.
1704(38) 0.000693 1587. 1727.
1730(38) 0.000693 1592. 1728.
1735(38) 0.000693 1596. 1730.
1749(38) 0.000693 1600. 1732.
1743(38) 0.000693 1604. 1734.
1714(38) 0.000693 1609. 1737.
1729(38) 0.000693 1613. 1739.
1804(39) 0.000657 1618. 1742.
1748(38) 0.000693 1622. 1744.
1719(38) 0.000693 1627. 1747.
1756(38) 0.000693 1631. 1750.
1788(39) 0.000657 1636. 1753.
1817(39) 0.000657 1641. 1757.
1819(39) 0.000657 1646. 1760.
1842(39) 0.000657 1650. 1764.
1770(38) 0.000693 1655. 1768.
1732(38) 0.000693 1660. 1772.
1793(39) 0.000657 1665. 1776.
1785(39) 0.000657 1670. 1780.
1838(39) 0.000657 1675. 1785.
1800(39) 0.000657 1681. 1789.
1769(38) 0.000693 1686. 1794.
1812(39) 0.000657 1691. 1799.
1814(39) 0.000657 1696. 1804.
1802(39) 0.000657 1702. 1809.
1892(40) 0.000625 1707. 1814.
1875(39) 0.000657 1713. 1820.
1894(40) 0.000625 1718. 1826.
1879(39) 0.000657 1724. 1831.
1867(39) 0.000657 1730. 1837.
1880(39) 0.000657 1735. 1843.
1856(39) 0.000657 1741. 1849.
1883(39) 0.000657 1747. 1856.
1892(40) 0.000625 1753. 1862.
1899(40) 0.000625 1759. 1869.
1870(39) 0.000657 1765. 1875.
1883(39) 0.000657 1771. 1882.
1875(39) 0.000657 1777. 1889.
1923(40) 0.000625 1784. 1896.
1920(40) 0.000625 1790. 1903.
1925(40) 0.000625 1796. 1910.
1947(40) 0.000625 1803. 1918.
1987(41) 0.000595 1809. 1925.
1984(40) 0.000625 1816. 1933.
1889(40) 0.000625 1823. 1940.
1975(40) 0.000625 1829. 1948.
1967(40) 0.000625 1836. 1956.
1938(40) 0.000625 1843. 1964.
2000(59) 0.0002873 1850. 1972.
1971(58) 0.0002973 1857. 1980.
2001(59) 0.0002873 1864. 1988.
2041(59) 0.0002873 1871. 1996.
1937(58) 0.0002973 1878. 2004.
2001(59) 0.0002873 1886. 2013.
2028(59) 0.0002873 1893. 2021.
1962(58) 0.0002973 1901. 2030.
2032(59) 0.0002873 1908. 2038.
2064(59) 0.0002873 1916. 2047.
2094(60) 0.0002778 1924. 2056.
2075(60) 0.0002778 1931. 2065.
2063(59) 0.0002873 1939. 2073.
2126(60) 0.0002778 1947. 2082.
2090(60) . . .
2085(60) . . .
2028(59) . . .
2114(60) . . .
2084(60) . . .
2089(60) . . .
2042(59) . . .
2094(60) . . .
2145(60) . . .
2114(60) . . .
2109(60) . . .
2145(60) . . .
2202(61) . . .
2162(61) . . .
2199(61) . . .
2100(60) . . .
2159(61) . . .
2244(62) . . .
2069(59) . . .
2091(60) . . .
2144(60) . . .
2201(61) . . .
2217(61) . . .
2260(62) . . .
2251(62) . . .
2279(62) . . .
2305(62) . . .
2355(63) . . .
2362(63) . . .
2212(61) . . .
2193(61) . . .
2222(61) . . .
2275(62) . . .
2286(62) . . .
2316(63) . . .
2329(63) . . .
2280(62) . . .
2307(62) . . .
2348(63) . . .
2471(64) . . .
2342(63) . . .
2242(62) . . .
2304(62) . . .
2291(62) . . .
2405(64) . . .
2416(64) . . .
2440(64) . . .
2233(62) . . .
2413(64) . . .
2444(64) . . .
2346(63) . . .
2290(62) . . .
2348(63) . . .
2344(63) . . .
2383(63) . . .
2434(64) . . .
2454(64) . . .
2479(65) . . .
2465(64) . . .
2432(64) . . .
2333(63) . . .
2404(64) . . .
2412(64) . . .
2447(64) . . .
2450(64) . . .
2419(64) . . .
2550(65) . . .
2410(64) . . .
2354(63) . . .
2372(63) . . .
2474(65) . . .
2494(65) . . .
2484(65) . . .
2448(64) . . .
2529(65) . . .
2477(65) . . .
2408(64) . . .
2498(65) . . .
2522(65) . . .
2508(65) . . .
2537(65) . . .
2525(65) . . .
2711(67) . . .
2581(66) . . .
2573(66) . . .
2524(65) . . .
loop_
_refln_index_h
_refln_index_k
_refln_index_l
_refln_observed_status
_refln_F_squared_meas
_refln_F_squared_calc
_refln_phase_calc
_refln_d_spacing
_gsas_i100_meas
1 1 0 o 1096.776 1079.559 180.00 12.93536 100.00
3 0 0 o 310.072 305.419 0.00 7.46823 9.49
1 0 1 o 112.362 139.791 0.00 6.56700 2.67
2 2 0 o 101.414 113.767 0.00 6.46768 2.33
2 0 -1 o 469.843 445.038 180.00 5.85561 8.89
2 1 1 o 3.177 3.807 180.00 5.33449 0.05
3 -1 1 o 54.566 65.377 0.00 5.33449 0.86
4 1 0 o 104.323 137.231 180.00 4.88910 1.39
5 -1 0 o 2.821 3.711 0.00 4.88910 0.04
3 1 -1 o 232.197 251.106 0.00 4.60805 2.75
4 -1 -1 o 36.906 39.912 180.00 4.60805 0.44
4 0 1 o 211.962 187.961 180.00 4.34084 2.23
3 3 0 o 478.596 443.261 180.00 4.31179 4.98
3 2 1 o 22.477 21.454 0.00 4.11530 0.21
5 -2 1 o 115.780 110.512 180.00 4.11530 1.10
5 0 -1 o 204.836 243.260 0.00 3.75294 1.63
6 0 0 o 64.665 56.011 0.00 3.73412 0.51
6 -2 -1 o 20.147 18.639 0.00 3.60431 0.15
4 2 -1 o 438.209 405.430 180.00 3.60431 3.23
5 2 0 o 448.272 442.527 0.00 3.58762 3.27
7 -2 0 o 270.146 266.683 0.00 3.58762 1.97
5 1 1 o 216.433 234.158 0.00 3.47204 1.49
6 -1 1 o 673.295 728.443 0.00 3.47204 4.62
1 0 -2 o 19.631 32.124 0.00 3.39469 0.13
2 0 2 o 74.769 85.018 180.00 3.28350 0.46
4 3 1 o 194.342 169.540 180.00 3.24604 1.17
7 -3 1 o 48.105 41.966 0.00 3.24604 0.29
4 4 0 o 61.775 49.133 180.00 3.23384 0.37
2 1 -2 o 38.765 14.072 0.00 3.18257 0.23
3 -1 -2 o 6.954 2.525 180.00 3.18257 0.04
7 -1 -1 o 10.824 22.749 180.00 3.05911 0.06
6 1 -1 o 0.317 0.667 180.00 3.05911 0.00
3 1 2 o 253.106 221.069 180.00 3.00581 1.32
4 -1 2 o 361.777 315.990 0.00 3.00581 1.89
8 -1 0 o 139.152 122.406 180.00 2.96757 0.71
7 1 0 o 712.111 626.422 180.00 2.96757 3.64
4 0 -2 o 39.983 39.469 0.00 2.92781 0.20
5 3 -1 o 9.511 8.801 0.00 2.90116 0.05
7 0 1 o 363.322 336.210 180.00 2.90116 1.78
8 -3 -1 o 39.588 36.633 180.00 2.90116 0.19
5 -2 -2 o 13.943 17.132 180.00 2.85557 0.07
3 2 -2 o 349.617 429.583 180.00 2.85557 1.66
6 2 1 o 249.682 269.835 180.00 2.83083 1.17
8 -2 1 o 539.693 583.251 180.00 2.83083 2.53
9 -3 0 o 107.632 125.256 180.00 2.82273 0.50
6 3 0 o 0.051 0.059 180.00 2.82273 0.00
5 0 2 o 0.000 35.249 0.00 2.72582 0.00
6 -2 2 o 1.311 1.287 0.00 2.66724 0.01
4 2 2 o 126.773 124.392 0.00 2.66724 0.53
5 4 1 o 970.205 898.020 0.00 2.64705 4.01
9 -4 1 o 4.316 3.995 180.00 2.64705 0.02
6 -1 -2 o 2.076 1.886 0.00 2.61229 0.01
5 1 -2 o 291.755 265.147 0.00 2.61229 1.18
8 0 -1 o 90.757 74.126 0.00 2.59331 0.36
5 5 0 o 352.445 282.702 0.00 2.58707 1.40
9 -2 -1 o 150.005 137.210 180.00 2.54271 0.58
7 2 -1 o 24.560 22.465 180.00 2.54271 0.09
9 0 0 o 554.486 579.646 0.00 2.48941 2.05
7 -3 -2 o 170.201 69.978 0.00 2.51185 0.64
4 3 -2 o 15.084 6.202 180.00 2.51185 0.06
9 -1 1 o 375.550 438.906 0.00 2.44981 1.35
8 1 1 o 49.977 58.409 0.00 2.44981 0.18
10 -2 0 o 13.773 16.660 0.00 2.44455 0.05
8 2 0 o 15.107 18.272 0.00 2.44455 0.05
7 -1 2 o 2.885 3.973 0.00 2.42218 0.01
6 1 2 o 44.161 60.818 180.00 2.42218 0.16
6 4 -1 o 279.798 312.607 0.00 2.40702 0.98
10 -4 -1 o 0.417 0.465 180.00 2.40702 0.00
10 -3 1 o 316.964 337.032 0.00 2.36640 1.07
7 3 1 o 9.493 10.094 0.00 2.36640 0.03
8 -3 2 o 226.405 194.892 180.00 2.34147 0.75
5 3 2 o 97.685 84.089 180.00 2.34147 0.32
7 0 -2 o 60.795 52.333 180.00 2.34147 0.20
6 2 -2 o 243.467 255.678 180.00 2.30403 0.79
8 -2 -2 o 154.973 162.744 180.00 2.30403 0.50
7 4 0 o 1.838 0.985 0.00 2.32326 0.01
11 -4 0 o 7.614 4.081 180.00 2.32326 0.02
0 0 3 o 1648.994 1559.539 0.00 2.28956 1.76
1 1 -3 o 355.444 303.405 180.00 2.25452 1.11
1 1 3 o 114.842 98.028 180.00 2.25452 0.36
9 1 -1 o 77.859 74.611 180.00 2.22232 0.24
6 5 1 o 517.226 495.655 180.00 2.22232 1.57
11 -5 1 o 92.739 88.871 180.00 2.22232 0.28
10 -1 -1 o 123.873 118.707 0.00 2.22232 0.38
9 -4 -2 o 2.678 2.199 180.00 2.20163 0.01
5 4 -2 o 669.602 549.697 0.00 2.20163 2.00
3 0 -3 o 29.200 23.417 0.00 2.18900 0.09
3 0 3 o 6.592 5.287 180.00 2.18900 0.02
8 0 2 o 404.427 438.632 180.00 2.17042 1.18
7 2 2 o 118.544 106.665 0.00 2.14050 0.34
9 -2 2 o 1176.762 1058.831 0.00 2.14050 3.35
8 3 -1 o 49.942 56.345 180.00 2.15950 0.14
11 -3 -1 o 9.239 10.424 0.00 2.15950 0.03
2 2 3 o 0.002 0.002 0.00 2.15832 0.00
2 2 -3 o 870.158 984.750 0.00 2.15831 2.51
6 6 0 o 31.319 35.659 180.00 2.15589 0.09
10 0 1 o 6.388 6.102 0.00 2.13002 0.02
10 1 0 o 119.715 127.581 180.00 2.12656 0.34
11 -1 0 o 0.422 0.450 180.00 2.12656 0.00
11 -2 1 o 542.985 602.964 180.00 2.10172 1.50
9 2 1 o 268.314 297.952 180.00 2.10172 0.74
9 -1 -2 o 3.853 3.735 0.00 2.08419 0.01
8 1 -2 o 886.326 859.214 0.00 2.08419 2.41
5 -1 -3 o 13.595 13.446 180.00 2.07346 0.04
4 1 -3 o 202.610 200.389 180.00 2.07346 0.55
4 1 3 o 15.911 15.737 0.00 2.07346 0.04
5 -1 3 o 160.312 158.554 180.00 2.07346 0.43
9 3 0 o 83.397 83.655 180.00 2.07131 0.22
12 -3 0 o 1.821 1.826 180.00 2.07131 0.00
6 4 2 o 34.305 40.620 0.00 2.05765 0.09
10 -4 2 o 211.150 250.020 180.00 2.05765 0.56
7 5 -1 o 28.765 38.686 180.00 2.04834 0.08
12 -5 -1 o 119.140 160.231 0.00 2.04834 0.32
10 -3 -2 o 1.590 1.821 0.00 2.03210 0.00
7 3 -2 o 223.361 255.739 180.00 2.03210 0.58
12 -4 1 o 116.852 108.552 180.00 2.02313 0.30
8 4 1 o 410.659 381.490 0.00 2.02313 1.06
3 3 -3 o 306.861 278.059 180.00 2.02216 0.79
3 3 3 o 13.445 12.183 0.00 2.02216 0.03
13 -5 0 o 41.749 24.790 180.00 1.97262 0.10
8 5 0 o 8.596 5.104 180.00 1.97262 0.02
11 0 -1 o 56.754 57.100 0.00 1.95274 0.14
6 0 3 o 54.173 54.793 0.00 1.95187 0.13
6 0 -3 o 418.386 423.174 0.00 1.95187 1.02
11 -5 -2 o 87.361 80.378 0.00 1.93866 0.21
10 -1 2 o 32.316 29.734 180.00 1.93866 0.08
9 1 2 o 135.478 124.650 0.00 1.93866 0.33
6 5 -2 o 158.818 146.125 0.00 1.93866 0.38
10 2 -1 o 1.470 1.671 0.00 1.93087 0.00
12 -2 -1 o 2.760 3.138 180.00 1.93087 0.01
5 2 -3 o 9.276 11.013 180.00 1.93002 0.02
7 -2 3 o 107.264 127.340 0.00 1.93002 0.26
5 2 3 o 13.478 16.001 180.00 1.93002 0.03
7 -2 -3 o 18.025 21.399 180.00 1.93002 0.04
13 -6 1 o 59.172 32.808 0.00 1.90971 0.14
7 6 1 o 72.133 39.994 180.00 1.90971 0.17
8 3 2 o 74.240 65.892 180.00 1.89653 0.17
11 -3 2 o 322.411 286.155 180.00 1.89653 0.75
13 6 4 o 102.706 93.120 180.00 1.05239 0.39
19 -6 4 o 114.720 104.013 180.00 1.05239 0.43
10 0 -2 o 345.204 309.414 180.00 1.87647 0.79
9 4 -1 o 7.609 7.076 0.00 1.86940 0.02
12 -1 1 o 398.579 370.639 0.00 1.86940 0.91
13 -4 -1 o 243.045 226.009 180.00 1.86940 0.55
11 1 1 o 5.884 5.471 0.00 1.86940 0.01
4 4 -3 o 64.363 59.945 0.00 1.86863 0.15
4 4 3 o 53.577 49.900 0.00 1.86863 0.12
12 0 0 o 11.348 10.528 180.00 1.86706 0.03
9 2 -2 o 237.023 202.410 180.00 1.85703 0.54
11 -2 -2 o 98.874 84.435 0.00 1.85703 0.22
11 2 0 o 109.487 96.306 0.00 1.84791 0.25
13 -2 0 o 2.586 2.275 180.00 1.84791 0.01
7 7 0 o 1.078 0.948 0.00 1.84791 0.00
19 4 0 o 14.520 13.152 180.00 1.05266 0.05
23 -4 0 o 152.840 138.442 180.00 1.05266 0.57
10 3 1 o 2.735 1.926 0.00 1.83154 0.01
13 -3 1 o 197.842 139.299 0.00 1.83154 0.44
8 -1 3 o 1.833 1.827 180.00 1.81275 0.00
8 -1 -3 o 310.517 309.577 180.00 1.81275 0.68
7 1 -3 o 43.463 43.332 0.00 1.81275 0.09
7 1 3 o 191.006 190.428 180.00 1.81275 0.42
12 -5 2 o 7.135 5.414 180.00 1.81990 0.02
7 5 2 o 100.929 76.586 180.00 1.81990 0.22
12 -4 -2 o 80.762 94.931 180.00 1.80215 0.17
8 4 -2 o 16.617 19.533 0.00 1.80215 0.04
10 4 0 o 191.947 192.702 0.00 1.79381 0.41
14 -4 0 o 5.039 5.059 0.00 1.79381 0.01
8 6 -1 o 58.980 50.598 0.00 1.77882 0.12
14 -6 -1 o 26.451 22.692 0.00 1.77882 0.06
9 -3 3 o 78.963 68.446 180.00 1.77816 0.17
9 -3 -3 o 73.056 63.326 180.00 1.77816 0.15
6 3 -3 o 39.509 34.247 180.00 1.77816 0.08
6 3 3 o 18.237 15.808 0.00 1.77816 0.04
9 5 1 o 81.296 166.533 180.00 1.76224 0.17
14 -5 1 o 30.061 61.579 0.00 1.76224 0.06
12 -2 2 o 62.390 96.875 0.00 1.73602 0.13
10 2 2 o 102.406 159.008 180.00 1.73602 0.21
11 0 2 o 83.077 93.978 0.00 1.75187 0.17
23 -8 -2 o 91.851 83.163 0.00 1.05434 0.33
15 8 -2 o 41.386 37.471 0.00 1.05434 0.15
13 -1 -1 o 102.610 153.129 180.00 1.73042 0.21
12 1 -1 o 14.699 21.936 180.00 1.73042 0.03
13 -6 -2 o 4.248 3.214 0.00 1.72059 0.01
7 6 -2 o 72.347 54.744 180.00 1.72059 0.15
5 5 -3 o 57.600 56.495 0.00 1.71454 0.12
5 5 3 o 9.777 9.589 0.00 1.71454 0.02
9 6 0 o 31.764 32.991 180.00 1.71333 0.06
15 -6 0 o 299.466 311.045 0.00 1.71333 0.60
1 0 4 o 5.687 6.175 180.00 1.71215 0.01
14 -3 -1 o 4.082 4.594 0.00 1.70026 0.01
11 3 -1 o 28.078 31.599 0.00 1.70026 0.06
2 0 -4 o 2.582 2.306 180.00 1.69735 0.01
9 4 2 o 501.262 383.052 0.00 1.69094 0.99
11 1 -2 o 328.754 251.226 0.00 1.69094 0.65
12 -1 -2 o 56.126 42.890 0.00 1.69094 0.11
13 -4 2 o 119.291 91.159 0.00 1.69094 0.23
9 0 3 o 63.644 57.545 0.00 1.68519 0.12
9 0 -3 o 88.620 80.127 180.00 1.68519 0.17
2 1 4 o 1.341 1.332 0.00 1.68292 0.00
3 -1 4 o 115.336 114.582 0.00 1.68292 0.23
10 3 -2 o 1.948 1.783 0.00 1.66276 0.00
13 -3 -2 o 0.377 0.345 180.00 1.66276 0.00
14 -2 1 o 23.686 23.576 180.00 1.65784 0.05
12 2 1 o 158.342 157.605 0.00 1.65784 0.30
8 7 1 o 0.000 0.000 0.00 1.67162 0.00
15 -7 1 o 75.144 68.129 180.00 1.67162 0.15
13 0 1 o 1310.047 1187.742 180.00 1.67162 2.54
13 1 0 o 23.773 23.808 180.00 1.65620 0.05
14 -1 0 o 98.693 98.838 0.00 1.65620 0.19
10 -2 -3 o 830.857 751.157 0.00 1.67107 1.61
10 -2 3 o 42.985 38.862 0.00 1.67107 0.08
8 2 3 o 0.851 0.770 180.00 1.67107 0.00
8 2 -3 o 104.970 94.901 0.00 1.67107 0.20
4 -1 -4 o 122.501 121.016 180.00 1.65514 0.23
3 1 -4 o 96.834 95.660 0.00 1.65514 0.19
15 -5 -1 o 278.081 203.963 0.00 1.64438 0.53
10 5 -1 o 34.126 25.030 180.00 1.64438 0.06
4 0 4 o 135.928 99.558 180.00 1.64175 0.26
11 -4 -3 o 122.414 104.525 180.00 1.63075 0.23
7 4 -3 o 93.738 80.039 180.00 1.63075 0.18
7 4 3 o 26.766 22.855 180.00 1.63075 0.05
11 -4 3 o 69.540 59.377 180.00 1.63075 0.13
12 3 0 o 153.195 132.867 180.00 1.62970 0.29
15 -3 0 o 72.327 62.730 180.00 1.62970 0.14
3 2 4 o 0.010 0.009 0.00 1.62869 0.00
5 -2 4 o 110.344 96.771 180.00 1.62869 0.21
8 6 2 o 497.737 445.013 180.00 1.62302 0.93
14 -6 2 o 70.450 62.987 0.00 1.62302 0.13
23 -5 1 o 97.962 90.952 0.00 1.05659 0.33
18 5 1 o 229.700 213.263 180.00 1.05659 0.77
15 -4 1 o 246.284 222.887 180.00 1.61844 0.46
11 4 1 o 7.448 6.740 0.00 1.61844 0.01
5 0 -4 o 3.978 7.685 0.00 1.60346 0.01
8 8 0 o 1.734 1.619 180.00 1.61692 0.00
14 -5 -2 o 2.164 3.731 0.00 1.61039 0.00
9 5 -2 o 4.468 7.705 0.00 1.61039 0.01
4 2 -4 o 47.530 39.820 180.00 1.59128 0.09
6 -2 -4 o 105.478 88.369 0.00 1.59128 0.19
12 1 2 o 41.241 40.393 180.00 1.58600 0.07
13 -1 2 o 250.284 245.136 180.00 1.58600 0.45
11 5 0 o 36.606 40.617 0.00 1.58031 0.07
16 -5 0 o 54.609 60.592 180.00 1.58031 0.10
5 1 4 o 72.602 82.606 0.00 1.57938 0.13
6 -1 4 o 117.386 133.561 0.00 1.57938 0.21
9 7 -1 o 26.477 35.569 180.00 1.57003 0.05
16 -7 -1 o 8.722 11.717 180.00 1.57003 0.02
6 6 3 o 31.743 42.553 0.00 1.56957 0.06
6 6 -3 o 37.932 50.848 0.00 1.56957 0.07
14 -3 2 o 15.480 15.026 180.00 1.56268 0.03
11 3 2 o 5.147 4.996 0.00 1.56268 0.01
13 2 -1 o 58.274 63.098 180.00 1.54740 0.10
15 -2 -1 o 156.832 169.814 0.00 1.54740 0.28
10 6 1 o 306.550 276.065 0.00 1.55859 0.54
16 -6 1 o 160.238 144.303 0.00 1.55859 0.28
14 0 -1 o 169.947 153.047 0.00 1.55859 0.30
11 -1 -3 o 25.429 22.834 180.00 1.55815 0.04
10 1 -3 o 4.518 4.057 0.00 1.55815 0.01
11 -1 3 o 222.703 199.976 180.00 1.55815 0.39
10 1 3 o 29.694 26.663 0.00 1.55815 0.05
7 -3 4 o 3.689 3.298 0.00 1.55635 0.01
4 3 4 o 0.851 0.761 0.00 1.55635 0.00
13 0 -2 o 0.546 0.635 180.00 1.54036 0.00
15 -7 -2 o 278.431 323.646 0.00 1.54036 0.49
8 7 -2 o 15.543 18.068 180.00 1.54036 0.03
9 3 -3 o 136.715 143.017 180.00 1.53602 0.24
9 3 3 o 139.588 146.023 0.00 1.53602 0.24
12 -3 3 o 117.093 122.491 0.00 1.53602 0.20
12 -3 -3 o 95.417 99.816 180.00 1.53602 0.17
7 -1 -4 o 142.386 142.597 180.00 1.53429 0.25
6 1 -4 o 2.960 2.965 0.00 1.53429 0.01
14 -2 -2 o 536.938 512.654 180.00 1.52956 0.93
12 2 -2 o 86.975 83.041 180.00 1.52956 0.15
10 5 2 o 41.971 40.113 0.00 1.51897 0.07
15 -5 2 o 179.062 171.137 180.00 1.51897 0.31
6 2 4 o 2.668 2.573 180.00 1.50291 0.00
8 -2 4 o 45.473 43.849 0.00 1.50291 0.08
12 4 -1 o 88.093 84.773 0.00 1.51522 0.15
16 -4 -1 o 227.089 218.529 180.00 1.51522 0.39
10 7 0 o 45.116 43.105 180.00 1.51397 0.08
17 -7 0 o 137.499 131.371 180.00 1.51397 0.24
7 0 4 o 533.707 506.445 180.00 1.51315 0.91
5 3 -4 o 2.058 1.953 0.00 1.51315 0.00
8 -3 -4 o 0.052 0.049 0.00 1.51315 0.00
15 -4 -2 o 64.528 65.635 0.00 1.49845 0.11
11 4 -2 o 7.089 7.211 0.00 1.49845 0.01
13 -5 -3 o 189.063 208.767 0.00 1.49445 0.32
13 -5 3 o 272.010 300.359 180.00 1.49445 0.46
8 5 3 o 68.587 75.735 180.00 1.49445 0.12
8 5 -3 o 70.480 77.825 0.00 1.49445 0.12
15 0 0 o 0.995 1.112 180.00 1.49365 0.00
15 -1 1 o 1444.365 1374.585 0.00 1.50493 2.46
14 1 1 o 63.297 60.239 0.00 1.50493 0.11
14 10 1 o 61.769 58.484 0.00 1.06013 0.19
24 -10 1 o 24.161 22.876 0.00 1.06013 0.07
17 -8 1 o 3.020 2.864 0.00 1.48496 0.01
9 8 1 o 13.478 12.781 180.00 1.48496 0.02
16 -3 1 o 23.561 22.343 180.00 1.48496 0.04
13 3 1 o 161.838 153.474 180.00 1.48496 0.27
15 6 3 o 0.003 0.003 0.00 1.05999 0.00
21 -6 -3 o 0.083 0.079 180.00 1.05999 0.00
15 6 -3 o 431.090 408.726 180.00 1.05999 1.33
21 -6 3 o 20.576 19.508 180.00 1.05999 0.06
16 -2 0 o 5.980 5.713 180.00 1.48379 0.01
14 2 0 o 39.730 37.961 0.00 1.48379 0.07
11 4 -5 o 262.027 248.997 0.00 1.05971 0.81
15 -4 -5 o 244.190 232.047 0.00 1.05971 0.76
12 7 -4 o 82.060 78.103 180.00 1.05943 0.26
19 -7 -4 o 288.443 274.531 180.00 1.05943 0.90
5 4 4 o 2.072 8.268 180.00 1.47337 0.00
9 -4 4 o 26.846 107.111 180.00 1.47337 0.04
9 7 2 o 13.122 14.308 0.00 1.45979 0.02
16 -7 2 o 89.432 97.516 0.00 1.45979 0.15
17 -4 0 o 194.339 241.719 0.00 1.45534 0.32
13 4 0 o 4.190 5.212 180.00 1.45534 0.01
7 2 -4 o 11.563 14.270 0.00 1.45462 0.02
9 -2 -4 o 13.376 16.508 180.00 1.45462 0.02
11 6 -1 o 1.303 1.428 0.00 1.46577 0.00
17 -6 -1 o 1.403 1.537 180.00 1.46577 0.00
9 -3 6 o 103.213 96.828 180.00 1.06086 0.31
9 -3 -6 o 101.799 95.501 0.00 1.06086 0.31
6 3 6 o 59.532 55.849 180.00 1.06086 0.18
6 3 -6 o 3.732 3.501 0.00 1.06086 0.01
8 0 -4 o 172.526 174.125 0.00 1.46390 0.29
10 6 -2 o 32.713 35.089 0.00 1.45058 0.05
16 -6 -2 o 131.702 141.268 180.00 1.45058 0.22
14 0 2 o 52.439 56.248 0.00 1.45058 0.09
12 5 1 o 11.387 10.821 180.00 1.44730 0.02
17 -5 1 o 28.508 27.090 0.00 1.44730 0.05
12 0 3 o 15.119 14.213 180.00 1.44695 0.02
12 0 -3 o 91.325 85.852 0.00 1.44695 0.15
15 -2 2 o 308.003 261.412 0.00 1.44154 0.50
13 2 2 o 41.111 34.892 0.00 1.44154 0.07
7 7 3 o 256.460 204.569 180.00 1.43798 0.42
13 -2 -3 o 76.510 61.030 180.00 1.43798 0.12
11 2 3 o 66.888 53.354 180.00 1.43798 0.11
11 2 -3 o 1.965 1.567 180.00 1.43798 0.00
7 7 -3 o 86.480 68.982 0.00 1.43798 0.14
13 -2 3 o 64.765 51.661 0.00 1.43798 0.11
9 9 0 o 16.025 12.665 0.00 1.43726 0.03
8 1 4 o 166.942 131.232 0.00 1.43656 0.27
9 -1 4 o 32.369 25.446 0.00 1.43656 0.05
23 -9 2 o 33.365 31.030 0.00 1.06142 0.10
19 2 2 o 83.796 77.933 0.00 1.06142 0.25
21 -2 2 o 701.442 652.358 0.00 1.06142 2.10
14 9 2 o 2.632 2.448 180.00 1.06142 0.01
7 3 4 o 31.592 24.555 0.00 1.41917 0.05
10 -3 4 o 167.930 130.524 0.00 1.41917 0.27
6 4 -4 o 4.615 3.434 0.00 1.42779 0.01
10 -4 -4 o 17.725 13.189 0.00 1.42779 0.03
12 4 2 o 152.044 115.484 180.00 1.41542 0.24
16 -4 2 o 54.377 41.302 0.00 1.41542 0.09
15 1 -1 o 1.422 1.181 180.00 1.41237 0.00
16 -1 -1 o 137.764 114.380 180.00 1.41237 0.22
14 -4 3 o 0.427 0.359 0.00 1.41204 0.00
10 4 -3 o 90.510 76.159 0.00 1.41204 0.14
14 -4 -3 o 36.729 30.905 0.00 1.41204 0.06
10 4 3 o 107.608 90.546 180.00 1.41204 0.17
18 -6 0 o 0.434 0.376 180.00 1.41136 0.00
12 6 0 o 14.992 12.975 180.00 1.41136 0.02
13 11 -1 o 14.265 12.855 180.00 1.06371 0.04
24 -11 -1 o 13.469 12.138 0.00 1.06371 0.04
20 2 0 o 47.725 43.195 0.00 1.06328 0.14
22 -2 0 o 168.992 152.952 0.00 1.06328 0.49
14 1 -2 o 96.747 96.899 180.00 1.40702 0.15
15 -1 -2 o 623.784 624.763 0.00 1.40702 0.99
10 8 -1 o 0.145 0.151 180.00 1.40403 0.00
18 -8 -1 o 19.561 20.381 180.00 1.40403 0.03
6 5 4 o 248.492 201.463 180.00 1.38619 0.39
10 -1 -4 o 4.944 4.008 0.00 1.38619 0.01
11 -5 4 o 2.467 2.000 0.00 1.38619 0.00
9 1 -4 o 335.540 272.036 180.00 1.38619 0.53
18 -7 1 o 261.472 311.289 180.00 1.39583 0.41
14 3 -1 o 50.971 60.682 180.00 1.39583 0.08
11 7 1 o 337.387 401.667 180.00 1.39583 0.53
17 -3 -1 o 0.104 0.124 180.00 1.39583 0.00
13 3 -2 o 139.686 139.422 0.00 1.39066 0.22
17 -8 -2 o 91.071 90.899 180.00 1.39066 0.14
9 8 -2 o 293.916 293.363 180.00 1.39066 0.46
16 -3 -2 o 30.904 30.846 0.00 1.39066 0.05
11 6 2 o 16.580 15.020 180.00 1.37486 0.03
17 -6 2 o 1.486 1.346 180.00 1.37486 0.00
16 0 1 o 800.507 724.544 180.00 1.37207 1.25
9 6 3 o 375.449 339.466 0.00 1.37177 0.59
9 6 -3 o 276.355 249.869 180.00 1.37177 0.43
15 -6 3 o 115.896 104.789 0.00 1.37177 0.18
15 -6 -3 o 82.687 74.762 180.00 1.37177 0.13
1 0 -5 o 11.496 10.379 0.00 1.37116 0.02
8 3 -4 o 0.138 0.125 180.00 1.37054 0.00
11 -3 -4 o 52.522 47.409 180.00 1.37054 0.08
17 -5 -2 o 21.975 19.855 0.00 1.35959 0.03
12 5 -2 o 289.145 261.240 180.00 1.35959 0.45
2 1 -5 o 8.014 7.102 180.00 1.35601 0.01
3 -1 -5 o 7.520 6.664 0.00 1.35601 0.01
19 -8 0 o 73.338 64.981 0.00 1.35599 0.11
16 1 0 o 325.710 288.597 180.00 1.35599 0.51
17 -1 0 o 404.418 358.336 0.00 1.35599 0.63
11 8 0 o 156.276 138.470 0.00 1.35599 0.24
9 2 4 o 1049.204 924.982 180.00 1.35541 1.63
11 -2 4 o 642.547 566.472 180.00 1.35541 1.00
20 0 2 o 4.459 3.990 180.00 1.06501 0.01
18 -5 -1 o 55.567 50.509 0.00 1.36442 0.09
17 -2 1 o 118.782 107.970 180.00 1.36442 0.19
13 5 -1 o 61.529 55.929 180.00 1.36442 0.10
15 2 1 o 46.867 42.601 0.00 1.36442 0.07
2 0 5 o 71.583 64.947 180.00 1.36352 0.11
10 0 4 o 148.688 134.804 0.00 1.36291 0.23
10 5 5 o 4.370 3.912 0.00 1.06690 0.01
15 -5 5 o 41.303 36.979 180.00 1.06690 0.11
15 9 0 o 235.434 210.785 0.00 1.06689 0.64
21 0 0 o 526.682 471.540 180.00 1.06689 1.43
24 -9 0 o 169.038 151.340 0.00 1.06689 0.46
10 9 4 o 753.967 674.617 0.00 1.06660 2.06
19 -9 4 o 175.827 157.323 0.00 1.06660 0.48
18 -4 1 o 8.182 8.062 180.00 1.34220 0.01
14 4 1 o 28.757 28.334 0.00 1.34220 0.04
13 1 3 o 157.293 154.299 180.00 1.34192 0.24
14 -1 3 o 328.955 322.694 0.00 1.34192 0.51
13 1 -3 o 57.884 56.783 180.00 1.34192 0.09
14 -1 -3 o 106.311 104.288 0.00 1.34192 0.16
3 1 5 o 55.880 54.284 180.00 1.34135 0.09
4 -1 5 o 332.106 322.618 0.00 1.34135 0.51
18 -3 0 o 307.097 298.239 180.00 1.34133 0.47
15 3 0 o 152.338 147.944 0.00 1.34133 0.24
12 -5 -4 o 892.131 857.052 0.00 1.34077 1.38
7 5 -4 o 11.214 10.773 180.00 1.34077 0.02
16 -1 2 o 121.875 107.095 180.00 1.33051 0.19
15 1 2 o 8.072 7.093 180.00 1.33051 0.01
12 3 3 o 437.059 378.572 0.00 1.32770 0.67
12 3 -3 o 9.776 8.467 0.00 1.32770 0.02
15 -3 3 o 469.394 406.581 180.00 1.32770 0.72
15 -3 -3 o 58.794 50.926 180.00 1.32770 0.09
3 2 -5 o 12.834 11.022 0.00 1.32715 0.02
5 -2 -5 o 13.066 11.221 0.00 1.32715 0.02
19 -9 1 o 251.595 221.562 0.00 1.33503 0.39
10 9 1 o 511.106 450.094 0.00 1.33503 0.79
12 11 -2 o 68.491 61.730 180.00 1.06864 0.18
23 -11 -2 o 167.976 151.394 0.00 1.06864 0.45
4 0 -5 o 0.964 0.847 0.00 1.33420 0.00
12 -4 4 o 67.168 58.899 180.00 1.33362 0.10
8 4 4 o 1461.134 1281.245 0.00 1.33362 2.25
18 -8 2 o 71.264 55.767 0.00 1.32352 0.11
10 8 2 o 30.552 23.908 0.00 1.32352 0.05
8 -1 6 o 7.033 6.321 0.00 1.06806 0.02
8 -1 -6 o 140.508 126.281 180.00 1.06806 0.38
7 1 -6 o 628.392 564.767 0.00 1.06806 1.68
7 1 6 o 132.917 119.459 0.00 1.06806 0.36
12 7 -1 o 82.661 61.950 0.00 1.32104 0.13
19 -7 -1 o 19.756 14.806 0.00 1.32104 0.03
8 8 3 o 118.170 88.471 0.00 1.32076 0.18
8 8 -3 o 40.012 29.956 180.00 1.32076 0.06
19 -6 1 o 170.290 160.332 0.00 1.30747 0.26
13 6 1 o 28.174 26.527 0.00 1.30747 0.04
18 -7 -2 o 16.073 13.026 0.00 1.31665 0.02
14 3 2 o 17.472 14.160 0.00 1.31665 0.03
17 -3 2 o 281.738 228.337 180.00 1.31665 0.43
11 7 -2 o 183.482 148.704 0.00 1.31665 0.28
6 -2 5 o 470.152 439.010 180.00 1.30668 0.72
4 2 5 o 91.069 85.037 0.00 1.30668 0.14
12 2 -5 o 18.988 17.416 180.00 1.07055 0.05
14 -2 -5 o 182.108 167.029 180.00 1.07055 0.47
10 2 -4 o 5.856 5.446 180.00 1.30614 0.01
12 -2 -4 o 0.839 0.780 0.00 1.30614 0.00
14 4 4 o 126.202 115.320 180.00 1.07025 0.33
18 -4 4 o 102.484 93.647 0.00 1.07025 0.27
5 0 5 o 77.844 71.796 180.00 1.31340 0.12
19 -5 0 o 81.626 75.320 180.00 1.31339 0.13
14 5 0 o 48.119 44.402 180.00 1.31339 0.07
11 0 -4 o 180.080 168.873 0.00 1.31285 0.28
16 -5 -3 o 12.731 12.388 0.00 1.30058 0.02
16 -5 3 o 168.782 164.245 0.00 1.30058 0.26
11 5 3 o 12.603 12.264 180.00 1.30058 0.02
11 5 -3 o 4.287 4.172 0.00 1.30058 0.01
5 1 -5 o 177.365 173.558 180.00 1.30007 0.27
6 -1 -5 o 25.845 25.290 180.00 1.30007 0.04
13 -6 4 o 27.236 26.769 0.00 1.29954 0.04
7 6 4 o 1555.380 1528.722 180.00 1.29954 2.38
16 0 -2 o 14.738 14.645 180.00 1.29665 0.02
13 -4 -4 o 273.350 247.745 180.00 1.28662 0.42
11 1 4 o 204.499 185.343 0.00 1.28662 0.31
9 4 -4 o 81.071 73.476 0.00 1.28662 0.12
12 -1 4 o 0.036 0.033 180.00 1.28662 0.00
17 0 -1 o 38.445 38.946 0.00 1.29431 0.06
10 10 0 o 31.776 32.393 180.00 1.29354 0.05
22 -3 1 o 127.565 117.730 180.00 1.07098 0.33
23 -6 -1 o 73.519 67.851 0.00 1.07098 0.19
17 6 -1 o 164.956 152.238 0.00 1.07098 0.42
19 3 1 o 128.711 118.787 0.00 1.07098 0.33
18 -5 2 o 57.104 56.648 180.00 1.29019 0.09
15 2 -2 o 63.670 63.161 180.00 1.29019 0.10
13 5 2 o 24.333 24.139 0.00 1.29019 0.04
17 -2 -2 o 245.372 243.410 180.00 1.29019 0.37
13 0 -5 o 902.328 885.981 0.00 1.07423 2.23
15 -7 -5 o 282.239 277.126 0.00 1.07423 0.70
8 7 -5 o 2.796 2.746 0.00 1.07423 0.01
18 -2 -1 o 6.408 5.996 0.00 1.28788 0.01
16 2 -1 o 6.353 5.945 0.00 1.28788 0.01
4 3 -5 o 333.447 306.023 0.00 1.28713 0.51
7 -3 -5 o 6.621 6.076 180.00 1.28713 0.01
7 -1 5 o 945.500 878.714 0.00 1.27457 1.44
6 1 5 o 88.097 81.874 180.00 1.27457 0.13
13 7 0 o 12.914 12.002 0.00 1.27456 0.02
20 -7 0 o 96.914 90.069 0.00 1.27456 0.15
13 -3 4 o 768.079 713.909 0.00 1.27407 1.17
10 3 4 o 22.447 20.864 180.00 1.27407 0.03
10 9 -2 o 0.459 0.423 0.00 1.26526 0.00
19 -9 -2 o 7.715 7.120 0.00 1.26526 0.01
12 8 1 o 92.115 84.449 0.00 1.26308 0.14
20 -8 1 o 92.766 85.046 180.00 1.26308 0.14
18 -4 -2 o 40.670 37.669 180.00 1.27136 0.06
14 4 -2 o 79.087 73.251 0.00 1.27136 0.12
17 -7 3 o 296.896 271.510 180.00 1.26285 0.45
10 7 3 o 199.131 182.105 180.00 1.26285 0.30
17 -7 -3 o 13.377 12.233 0.00 1.26285 0.02
10 7 -3 o 23.600 21.582 0.00 1.26285 0.04
7 0 -5 o 681.489 619.449 0.00 1.26237 1.04
8 -3 5 o 367.232 333.801 180.00 1.26237 0.56
5 3 5 o 7.029 6.389 0.00 1.26237 0.01
15 4 -1 o 387.982 357.348 0.00 1.26915 0.59
11 9 -1 o 236.946 218.237 180.00 1.26915 0.36
19 -4 -1 o 1.602 1.476 0.00 1.26915 0.00
20 -9 -1 o 313.721 288.950 180.00 1.26915 0.48
18 -1 1 o 61.967 55.205 0.00 1.25711 0.09
17 1 1 o 204.862 182.508 0.00 1.25710 0.31
8 -2 -5 o 16.765 15.201 180.00 1.25641 0.03
6 2 -5 o 226.297 205.188 180.00 1.25641 0.35
21 -1 1 o 525.860 510.767 0.00 1.07840 1.24
20 1 1 o 52.664 51.153 180.00 1.07840 0.12
14 -6 -4 o 78.410 72.089 0.00 1.25593 0.12
8 6 -4 o 5.406 4.970 180.00 1.25593 0.01
16 4 -3 o 75.612 73.601 0.00 1.07825 0.18
20 -4 -3 o 2.040 1.986 0.00 1.07825 0.00
20 -4 3 o 10.042 9.775 0.00 1.07825 0.02
16 4 3 o 26.392 25.690 180.00 1.07825 0.06
12 12 0 o 23.734 23.206 180.00 1.07795 0.06
19 -3 1 o 179.473 214.928 0.00 1.24540 0.27
16 3 1 o 52.572 62.957 180.00 1.24540 0.08
14 2 -3 o 2.327 2.785 180.00 1.24517 0.00
16 -2 3 o 12.131 14.518 180.00 1.24517 0.02
14 2 3 o 20.751 24.835 0.00 1.24517 0.03
16 -2 -3 o 13.403 16.040 180.00 1.24517 0.02
19 -7 2 o 1.293 1.289 0.00 1.25332 0.00
12 7 2 o 1.188 1.184 0.00 1.25332 0.00
18 0 0 o 10.054 12.009 180.00 1.24471 0.02
15 0 3 o 11.541 12.382 180.00 1.25098 0.02
15 0 -3 o 16.822 18.049 180.00 1.25098 0.03
14 -5 4 o 64.902 71.833 180.00 1.25005 0.10
9 5 4 o 0.766 0.848 0.00 1.25005 0.00
13 6 -2 o 0.000 0.000 0.00 1.24172 0.00
19 -6 -2 o 0.149 0.173 180.00 1.24172 0.00
20 -6 -1 o 56.670 63.012 180.00 1.23967 0.09
14 6 -1 o 227.161 252.582 180.00 1.23967 0.35
16 6 -2 o 166.020 158.730 0.00 1.07975 0.39
22 -6 -2 o 137.079 131.060 180.00 1.07975 0.32
9 -4 -5 o 12.683 13.869 0.00 1.23899 0.02
5 4 -5 o 234.064 255.961 0.00 1.23899 0.36
17 2 0 o 8.877 9.705 0.00 1.23898 0.01
19 -2 0 o 114.861 125.568 180.00 1.23898 0.18
12 1 -4 o 81.406 88.018 0.00 1.23854 0.12
13 -1 -4 o 379.492 410.318 180.00 1.23854 0.58
17 0 2 o 25.086 25.662 0.00 1.23043 0.04
4 4 -6 o 64.157 61.679 180.00 1.07916 0.15
4 4 6 o 140.146 134.735 0.00 1.07916 0.33
17 -4 -3 o 120.615 123.095 0.00 1.22822 0.19
13 4 3 o 197.485 201.546 180.00 1.22822 0.30
13 4 -3 o 24.844 25.355 180.00 1.22822 0.04
17 -4 3 o 36.639 37.392 0.00 1.22822 0.06
9 -2 5 o 435.192 443.544 0.00 1.22778 0.67
7 2 5 o 241.114 245.741 0.00 1.22778 0.37
21 -9 0 o 417.551 425.547 180.00 1.22777 0.64
12 9 0 o 154.647 157.609 180.00 1.22777 0.24
11 3 -4 o 73.983 75.288 180.00 1.22733 0.11
14 -3 -4 o 402.221 409.315 0.00 1.22733 0.62
8 0 5 o 917.728 935.657 180.00 1.23335 1.41
21 -9 -3 o 0.951 0.921 180.00 1.08201 0.00
12 9 -3 o 110.983 107.479 0.00 1.08201 0.25
12 9 3 o 305.715 296.063 180.00 1.08201 0.70
21 -9 3 o 692.547 670.680 180.00 1.08201 1.58
9 9 -3 o 210.165 207.484 0.00 1.21729 0.32
9 9 3 o 23.721 23.418 180.00 1.21729 0.04
16 2 2 o 84.666 85.572 180.00 1.22491 0.13
18 -2 2 o 241.405 243.990 0.00 1.22491 0.37
8 1 -5 o 129.548 127.961 0.00 1.21687 0.20
9 -1 -5 o 614.729 607.198 180.00 1.21687 0.95
11 3 5 o 27.433 26.444 0.00 1.08172 0.06
14 -3 5 o 51.392 49.539 180.00 1.08172 0.12
8 7 4 o 358.661 354.647 0.00 1.21643 0.55
13 0 4 o 1145.474 1132.654 180.00 1.21643 1.77
15 -7 4 o 36.759 36.347 0.00 1.21643 0.06
13 5 -4 o 20.242 19.434 0.00 1.08141 0.05
17 -2 4 o 373.726 358.807 180.00 1.08141 0.86
18 -5 -4 o 119.637 114.861 0.00 1.08141 0.27
15 2 4 o 14.038 13.478 0.00 1.08141 0.03
15 5 1 o 4.146 4.179 0.00 1.22293 0.01
20 -5 1 o 268.497 270.640 180.00 1.22293 0.41
20 -4 0 o 574.807 578.609 0.00 1.22228 0.89
16 4 0 o 0.002 0.002 0.00 1.22228 0.00
16 0 4 o 18.356 18.385 180.00 1.08521 0.04
11 10 1 o 47.481 48.040 180.00 1.21215 0.07
21 -10 1 o 75.593 76.484 0.00 1.21215 0.12
6 4 5 o 277.715 280.912 180.00 1.21152 0.43
10 -4 5 o 159.462 161.298 180.00 1.21152 0.25
12 2 4 o 525.634 530.967 0.00 1.21109 0.81
14 -2 4 o 46.347 46.817 0.00 1.21109 0.07
20 -8 -2 o 49.339 50.482 180.00 1.20351 0.08
12 8 -2 o 6.406 6.554 0.00 1.20351 0.01
13 8 -1 o 425.766 447.789 0.00 1.20164 0.66
21 -8 -1 o 213.464 224.505 0.00 1.20164 0.33
18 -6 3 o 129.587 136.538 180.00 1.20144 0.20
12 6 -3 o 5.314 5.599 0.00 1.20144 0.01
18 -6 -3 o 53.565 56.438 180.00 1.20144 0.08
12 6 3 o 1.236 1.302 0.00 1.20144 0.00
15 4 2 o 45.905 45.602 0.00 1.20876 0.07
11 9 2 o 96.452 95.816 180.00 1.20876 0.15
19 -4 2 o 176.813 175.647 0.00 1.20876 0.27
20 -9 2 o 25.163 24.997 180.00 1.20876 0.04
10 -3 -5 o 19.520 19.298 0.00 1.20624 0.03
7 3 -5 o 283.964 280.732 180.00 1.20624 0.44
18 1 -1 o 1.701 1.550 180.00 1.19140 0.00
14 7 1 o 88.165 80.361 180.00 1.19140 0.14
19 -1 -1 o 14.659 13.361 180.00 1.19140 0.02
21 -7 1 o 401.940 366.358 0.00 1.19140 0.63
10 5 -4 o 0.137 0.136 180.00 1.20582 0.00
15 -5 -4 o 73.993 73.360 180.00 1.20582 0.12
15 7 2 o 34.924 31.640 180.00 1.09121 0.07
22 -7 2 o 2.141 1.939 180.00 1.09121 0.00
18 -1 -2 o 22.988 23.642 0.00 1.19834 0.04
17 1 -2 o 239.128 245.925 0.00 1.19834 0.37
7 -2 -6 o 147.325 134.253 180.00 1.09060 0.31
5 2 6 o 64.561 58.833 180.00 1.09060 0.14
7 -2 6 o 48.154 43.881 0.00 1.09060 0.10
5 2 -6 o 398.087 362.766 180.00 1.09060 0.85
21 -6 0 o 54.745 52.898 180.00 1.19587 0.09
15 6 0 o 0.725 0.700 0.00 1.19587 0.00
18 4 -1 o 127.880 117.521 180.00 1.08982 0.27
22 -4 -1 o 34.544 31.746 180.00 1.08982 0.07
17 3 -1 o 326.616 274.838 180.00 1.18142 0.52
20 -3 -1 o 88.797 74.720 180.00 1.18142 0.14
11 4 4 o 782.094 748.709 180.00 1.19547 1.23
15 -4 4 o 322.935 309.150 180.00 1.19547 0.51
17 2 3 o 7.703 7.092 180.00 1.08967 0.02
19 -2 3 o 146.002 134.424 180.00 1.08967 0.31
17 2 -3 o 43.312 39.877 180.00 1.08967 0.09
19 -2 -3 o 0.163 0.150 0.00 1.08967 0.00
16 3 -2 o 112.634 94.178 180.00 1.18818 0.18
19 -3 -2 o 31.327 26.193 0.00 1.18818 0.05
6 0 -6 o 28.753 25.698 0.00 1.09450 0.06
6 0 6 o 50.491 45.126 180.00 1.09450 0.10
12 1 5 o 15.673 14.489 180.00 1.08936 0.03
13 -1 5 o 27.745 25.648 0.00 1.08936 0.06
23 -8 1 o 0.652 0.582 180.00 1.09371 0.00
15 8 1 o 20.118 17.957 0.00 1.09371 0.04
18 0 3 o 0.303 0.271 180.00 1.09355 0.00
18 0 -3 o 82.602 73.743 180.00 1.09355 0.17
10 -1 5 o 123.341 98.285 180.00 1.18579 0.20
11 -5 -5 o 64.731 51.582 0.00 1.18579 0.10
9 1 5 o 501.166 399.359 0.00 1.18579 0.79
6 5 -5 o 52.843 42.109 0.00 1.18579 0.08
10 0 -5 o 42.997 39.531 180.00 1.17112 0.07
14 0 -4 o 7.178 6.713 0.00 1.17073 0.01
16 -6 4 o 47.722 44.628 0.00 1.17073 0.08
10 6 4 o 223.363 208.881 0.00 1.17073 0.36
9 5 -5 o 8.789 8.001 180.00 1.09717 0.02
14 -5 -5 o 112.364 102.287 180.00 1.09717 0.23
16 7 0 o 80.001 72.823 180.00 1.09716 0.16
23 -7 0 o 402.925 366.772 180.00 1.09716 0.82
20 -6 2 o 89.533 73.049 0.00 1.18320 0.14
14 6 2 o 494.941 403.819 180.00 1.18320 0.79
18 -7 4 o 5.165 4.692 180.00 1.09685 0.01
11 7 4 o 193.524 175.809 180.00 1.09685 0.39
14 3 -4 o 0.883 0.802 180.00 1.09685 0.00
17 -3 -4 o 0.001 0.001 180.00 1.09685 0.00
8 3 5 o 29.392 23.833 180.00 1.17595 0.05
11 -3 5 o 1.470 1.192 0.00 1.17595 0.00
11 11 0 o 1012.900 821.281 0.00 1.17594 1.62
16 5 -1 o 191.604 182.161 0.00 1.16219 0.31
19 0 1 o 106.084 100.855 180.00 1.16219 0.17
21 -5 -1 o 30.965 29.439 0.00 1.16219 0.05
9 7 -4 o 51.277 41.550 180.00 1.17556 0.08
16 -7 -4 o 14.673 11.889 180.00 1.17556 0.02
15 5 -2 o 45.702 45.903 0.00 1.16863 0.07
20 -5 -2 o 28.356 28.481 0.00 1.16863 0.05
19 2 -1 o 204.987 186.190 0.00 1.10161 0.41
23 -9 -1 o 342.679 311.256 180.00 1.10161 0.68
14 9 -1 o 39.696 36.056 0.00 1.10161 0.08
21 -2 -1 o 436.847 396.788 0.00 1.10161 0.87
22 -8 0 o 255.865 240.821 0.00 1.16163 0.42
14 8 0 o 21.383 20.126 0.00 1.16163 0.04
8 6 5 o 624.844 568.406 180.00 1.10114 1.24
14 -6 5 o 128.970 117.321 180.00 1.10114 0.26
18 -8 -4 o 31.257 28.465 0.00 1.10082 0.06
10 8 -4 o 5.450 4.963 180.00 1.10082 0.01
17 -1 3 o 0.011 0.011 0.00 1.16672 0.00
16 1 3 o 0.228 0.232 0.00 1.16672 0.00
19 -8 -3 o 27.101 27.634 180.00 1.16672 0.04
19 -8 3 o 270.630 275.953 0.00 1.16672 0.44
11 8 3 o 331.462 337.980 0.00 1.16672 0.54
11 8 -3 o 107.354 109.465 180.00 1.16672 0.17
16 1 -3 o 211.980 216.148 0.00 1.16672 0.34
17 -1 -3 o 0.178 0.181 180.00 1.16672 0.00
20 0 -1 o 26.255 24.058 180.00 1.10563 0.05
11 -2 -5 o 678.076 689.746 0.00 1.16635 1.10
9 2 -5 o 141.498 143.933 0.00 1.16635 0.23
13 9 1 o 18.507 15.776 180.00 1.15292 0.03
22 -9 1 o 353.207 301.090 180.00 1.15292 0.59
15 -2 -4 o 0.003 0.003 0.00 1.16597 0.00
13 2 -4 o 14.730 14.926 0.00 1.16597 0.02
11 10 -2 o 0.291 0.261 0.00 1.15920 0.00
21 -10 -2 o 264.260 237.689 0.00 1.15920 0.43
12 -4 -5 o 403.945 345.083 180.00 1.15238 0.67
8 4 -5 o 0.113 0.096 0.00 1.15238 0.00
15 1 -4 o 86.823 79.174 180.00 1.10482 0.17
16 -1 -4 o 39.952 36.432 0.00 1.10483 0.08
16 -4 -4 o 87.121 74.564 180.00 1.15201 0.15
12 4 -4 o 15.738 13.469 180.00 1.15201 0.03
19 0 -2 o 552.868 529.419 180.00 1.11528 1.03
16 5 2 o 178.463 170.894 0.00 1.11528 0.33
21 -5 2 o 118.390 113.369 180.00 1.11528 0.22
21 -4 -2 o 62.507 57.168 180.00 1.09906 0.13
17 4 -2 o 57.123 52.243 180.00 1.09906 0.11
11 0 5 o 40.277 39.376 0.00 1.13890 0.07
23 -11 1 o 154.789 141.595 0.00 1.10969 0.29
12 11 1 o 15.043 13.761 180.00 1.10969 0.03
18 3 0 o 12.430 12.151 180.00 1.13889 0.02
21 -3 0 o 138.797 135.679 180.00 1.13889 0.24
0 0 6 o 616.023 573.955 180.00 1.14478 0.35
9 8 4 o 493.389 480.344 180.00 1.13855 0.85
13 3 4 o 1.676 1.631 0.00 1.13855 0.00
17 -8 4 o 33.570 32.682 180.00 1.13855 0.06
16 -3 4 o 83.842 81.626 180.00 1.13855 0.14
18 2 1 o 4.014 3.511 180.00 1.15753 0.01
20 -2 1 o 74.315 65.012 180.00 1.15753 0.12
12 10 -1 o 179.612 157.128 180.00 1.15753 0.30
22 -10 -1 o 124.690 109.081 0.00 1.15753 0.21
15 3 3 o 8.653 7.550 0.00 1.15735 0.01
18 -3 -3 o 0.113 0.099 0.00 1.15735 0.00
15 3 -3 o 55.535 48.459 180.00 1.15735 0.09
18 -3 3 o 155.632 135.802 0.00 1.15735 0.26
17 3 2 o 9.661 8.628 0.00 1.13224 0.02
20 -3 2 o 300.217 268.096 180.00 1.13224 0.53
10 10 -3 o 208.518 203.183 180.00 1.12622 0.37
10 10 3 o 5.302 5.166 180.00 1.12622 0.01
4 1 6 o 325.520 309.893 0.00 1.11463 0.61
4 1 -6 o 47.222 44.955 180.00 1.11463 0.09
5 -1 -6 o 114.966 109.447 0.00 1.11463 0.21
5 -1 6 o 348.588 331.855 180.00 1.11463 0.65
12 -5 5 o 36.725 31.893 180.00 1.15698 0.06
7 5 5 o 20.154 17.502 0.00 1.15698 0.03
3 0 -6 o 11.622 10.407 0.00 1.13156 0.02
3 0 6 o 34.307 30.720 0.00 1.13156 0.06
21 -4 1 o 11.739 11.162 0.00 1.14387 0.02
17 4 1 o 4.548 4.324 0.00 1.14387 0.01
13 8 2 o 706.701 613.220 0.00 1.15000 1.18
21 -8 2 o 40.235 34.912 180.00 1.15000 0.07
20 -7 3 o 384.965 362.011 0.00 1.11363 0.72
13 7 -3 o 0.530 0.498 0.00 1.11363 0.00
13 7 3 o 55.575 52.261 180.00 1.11363 0.10
20 -7 -3 o 262.025 246.401 0.00 1.11363 0.49
10 3 -5 o 180.622 169.104 180.00 1.11331 0.34
13 -3 -5 o 85.248 79.812 0.00 1.11331 0.16
7 6 -5 o 87.655 80.199 0.00 1.13018 0.15
13 -6 -5 o 128.404 117.482 0.00 1.13018 0.23
17 -6 -4 o 99.636 91.881 0.00 1.12983 0.18
11 6 -4 o 126.786 116.917 0.00 1.12983 0.22
13 9 -2 o 24.665 22.728 0.00 1.10708 0.05
22 -9 -2 o 224.717 207.064 180.00 1.10708 0.43
20 -1 0 o 348.554 308.768 0.00 1.14783 0.59
19 1 0 o 0.254 0.225 180.00 1.14783 0.00
14 1 4 o 8.398 7.470 180.00 1.14747 0.01
15 -1 4 o 766.224 681.594 0.00 1.14747 1.29
22 -7 -1 o 17.195 15.835 180.00 1.13503 0.03
15 7 -1 o 508.952 468.722 180.00 1.13503 0.88
3 3 6 o 0.395 0.363 180.00 1.10645 0.00
3 3 -6 o 690.505 635.302 0.00 1.10645 1.34
14 7 -2 o 337.943 334.006 180.00 1.14102 0.58
18 1 2 o 6.161 6.090 0.00 1.14102 0.01
21 -7 -2 o 77.100 76.202 0.00 1.14102 0.13
19 -1 2 o 156.060 154.242 180.00 1.14102 0.27
10 2 5 o 358.416 327.254 180.00 1.13452 0.62
12 -2 5 o 24.040 21.950 180.00 1.13452 0.04
1 1 -6 o 217.575 214.972 0.00 1.14032 0.37
1 1 6 o 0.138 0.137 180.00 1.14032 0.00
18 2 -2 o 100.096 91.643 0.00 1.11116 0.19
12 10 2 o 449.390 411.443 180.00 1.11116 0.85
20 -2 -2 o 70.395 64.450 0.00 1.11116 0.13
22 -10 2 o 17.995 16.475 0.00 1.11116 0.03
22 -6 1 o 66.693 64.831 180.00 1.12214 0.12
16 6 1 o 6.158 5.986 0.00 1.12214 0.01
9 4 5 o 259.027 251.480 0.00 1.12165 0.47
13 -4 5 o 210.968 204.821 0.00 1.12165 0.38
11 1 -5 o 10.302 10.002 0.00 1.12165 0.02
12 -1 -5 o 490.634 476.338 180.00 1.12165 0.89
17 5 0 o 4.729 4.591 0.00 1.12164 0.01
23 -10 0 o 191.671 186.081 180.00 1.12164 0.35
22 -5 0 o 6.813 6.615 180.00 1.12164 0.01
13 10 0 o 181.970 176.663 180.00 1.12164 0.33
19 -5 3 o 115.701 113.521 180.00 1.13925 0.20
14 5 3 o 82.909 81.346 0.00 1.13925 0.14
19 -5 -3 o 100.319 98.428 180.00 1.13925 0.17
14 5 -3 o 99.652 97.774 0.00 1.13925 0.17
2 2 -6 o 102.837 99.627 180.00 1.12726 0.18
2 2 6 o 249.636 241.846 180.00 1.12726 0.44
12 5 4 o 345.151 334.726 0.00 1.12131 0.63
17 -5 4 o 123.920 120.177 0.00 1.12131 0.23
