#------------------------------------------------------------------------------
#$Date: 2016-03-22 21:51:41 +0200 (Tue, 22 Mar 2016) $
#$Revision: 179026 $
#$URL: svn://www.crystallography.net/cod/cif/4/12/24/4122455.cif $
#------------------------------------------------------------------------------
#
# This file is available in the Crystallography Open Database (COD),
# http://www.crystallography.net/
#
# All data on this site have been placed in the public domain by the
# contributors.
#
data_4122455
loop_
_publ_author_name
'Kapelewski, Matthew T.'
'Geier, Stephen J.'
'Hudson, Matthew R.'
'St\"uck, David'
'Mason, Jarad A.'
'Nelson, Jocienne N.'
'Xiao, Dianne J.'
'Hulvey, Zeric'
'Gilmour, Elizabeth'
'FitzGerald, Stephen A.'
'Head-Gordon, Martin'
'Brown, Craig M.'
'Long, Jeffrey R.'
_publ_section_title
;
 M2(m-dobdc) (M = Mg, Mn, Fe, Co, Ni) Metal-Organic Frameworks Exhibiting
 Increased Charge Density and Enhanced H2 Binding at the Open Metal Sites.
;
_journal_issue                   34
_journal_name_full               'Journal of the American Chemical Society'
_journal_page_first              12119
_journal_paper_doi               10.1021/ja506230r
_journal_volume                  136
_journal_year                    2014
_chemical_formula_sum            'C4 H Ni O3'
_chemical_formula_weight         155.75
_chemical_name_systematic        ' ?'
_space_group_IT_number           160
_symmetry_cell_setting           trigonal
_symmetry_space_group_name_Hall  'R 3 -2"'
_symmetry_space_group_name_H-M   'R 3 m :H'
_audit_creation_date             2013-03-28T14:21
_audit_creation_method           'from EXP file using GSAS2CIF'
_audit_update_record
' 2013-03-28T14:21  Initial CIF as created by GSAS2CIF'
_cell_angle_alpha                90.0
_cell_angle_beta                 90.0
_cell_angle_gamma                120.0
_cell_formula_units_Z            18
_cell_length_a                   25.797(5)
_cell_length_b                   25.797
_cell_length_c                   6.7292(17)
_cell_volume                     3878.2(12)
_computing_structure_refinement  GSAS
_diffrn_radiation_probe          neutron
_diffrn_radiation_wavelength     2.078
_exptl_absorpt_correction_T_max  1.00000
_exptl_absorpt_correction_T_min  1.00000
_exptl_absorpt_process_details
;   GSAS Absorption/surface roughness correction: function number 0
 No correction is applied.
;
_pd_block_id                     2013-03-28T14:21|NI_PRIME_R3M_R||BT1
_pd_calc_method                  'Rietveld Refinement'
_pd_instr_location               ' ?'
_pd_meas_2theta_range_inc        0.05
_pd_meas_2theta_range_max        166.25
_pd_meas_2theta_range_min        1.5
_pd_meas_number_of_points        3296
_pd_phase_name                   Ni-prime_10K
_pd_proc_2theta_range_inc        0.05
_pd_proc_2theta_range_max        166.2747
_pd_proc_2theta_range_min        1.5247
_pd_proc_info_datetime           2013-03-28T14:21:50
_pd_proc_info_excluded_regions   ' ?'
_pd_proc_ls_background_function
;   GSAS Background function number 1 with 12 terms.
 Shifted Chebyshev function of 1st kind
      1:    564.093     2:   -113.485     3:    121.765     4:   -25.7108    
      5:    73.0397     6:   -14.9361     7:    45.4455     8:   -10.7457    
      9:    14.6561    10:   0.893725    11:    8.59114    12:   -2.84764    
;
_pd_proc_ls_peak_cutoff          0.00100
_pd_proc_ls_profile_function
;
 CW Profile function number 3 with  19 terms
 Pseudovoigt profile coefficients as parameterized in
 P. Thompson, D.E. Cox & J.B. Hastings (1987). J. Appl. Cryst.,20,79-83.
 Asymmetry correction of L.W. Finger, D.E. Cox & A. P. Jephcoat (1994).
 J. Appl. Cryst.,27,892-900.
 Peak tails are ignored  where the intensity is below 0.0010 times the peak
   Aniso. broadening axis   0.0   0.0   1.0
;
_pd_proc_ls_prof_R_factor        0.0348
_pd_proc_ls_prof_wR_expected     0.0395
_pd_proc_ls_prof_wR_factor       0.0427
_pd_proc_number_of_points        3296
_pd_spec_mounting                ' ?'
_refine_ls_goodness_of_fit_all   1.09
_refine_ls_matrix_type           full
_refine_ls_number_parameters     55
_refine_ls_number_restraints     16
_refine_ls_R_Fsqd_factor         0.08281
_refine_ls_shift/su_max          8.48
_refine_ls_shift/su_mean         2.98
_reflns_d_resolution_high        1.059
_reflns_d_resolution_low         12.898
_reflns_limit_h_max              21
_reflns_limit_h_min              0
_reflns_limit_k_max              12
_reflns_limit_k_min              0
_reflns_limit_l_max              6
_reflns_limit_l_min              -6
_reflns_number_total             426
_cod_data_source_file            NI_PRIME_R3M_R.cif
_cod_data_source_block           NI_PRIME_R3M_R_publ
_cod_depositor_comments
;
The following automatic conversions were performed:

'_geom_bond_publ_flag' value 'N' changed to 'n' according to
/usr/data/users/saulius/crontab/automatic-downloads/rss-feeds/ACS/lib/dictionaries/cif_core.dic
dictionary named 'cif_core.dic' version 2.4.2 from 2011-04-26 (33
times).

'_geom_angle_publ_flag' value 'N' changed to 'n' according
to
/usr/data/users/saulius/crontab/automatic-downloads/rss-feeds/ACS/lib/dictionaries/cif_core.dic
dictionary named 'cif_core.dic' version 2.4.2 from 2011-04-26 (32
times).

Automatic conversion script
Id: cif_fix_values 2281 2013-09-26 08:29:07Z andrius 

 Adding full bibliography for 4122440--4122455.cif.
;
_cod_original_cell_volume        3878.2(13)
_cod_original_sg_symbol_H-M      'R 3 m'
_cod_database_code               4122455
#BEGIN Tags that were not found in dictionaries:
_gsas_exptl_extinct_corr_t_min   1.00000
_gsas_exptl_extinct_corr_t_max   1.00000
#END Tags that were not found in dictionaries
loop_
_symmetry_equiv_pos_site_id
_symmetry_equiv_pos_as_xyz
1 +x,+y,+z
2 -y,x-y,+z
3 y-x,-x,+z
4 y-x,+y,+z
5 -y,-x,+z
6 +x,x-y,+z
101 +x+1/3,+y+2/3,+z+2/3
102 -y+1/3,x-y+2/3,+z+2/3
103 y-x+1/3,-x+2/3,+z+2/3
104 y-x+1/3,+y+2/3,+z+2/3
105 -y+1/3,-x+2/3,+z+2/3
106 +x+1/3,x-y+2/3,+z+2/3
201 +x+2/3,+y+1/3,+z+1/3
202 -y+2/3,x-y+1/3,+z+1/3
203 y-x+2/3,-x+1/3,+z+1/3
204 y-x+2/3,+y+1/3,+z+1/3
205 -y+2/3,-x+1/3,+z+1/3
206 +x+2/3,x-y+1/3,+z+1/3
loop_
_atom_site_type_symbol
_atom_site_label
_atom_site_fract_x
_atom_site_fract_y
_atom_site_fract_z
_atom_site_occupancy
_atom_site_thermal_displace_type
_atom_site_U_iso_or_equiv
_atom_site_symmetry_multiplicity
C C1 0.6580(16) 0.8781(14) 0.837(6) 1.0 Uiso 0.034(14) 18
C C2 0.6657(25) 0.8329(13) 0.746(10) 1.0 Uiso 0.027(19) 9
C C6 0.6394(16) 0.8657(14) 0.043(6) 1.0 Uiso 0.006(10) 18
C C11 0.6320(14) 0.9091(11) 0.166(5) 1.0 Uiso 0.011(9) 18
Ni Ni1 0.3285(13) 0.3757(11) 0.5552(29) 1.0 Uiso 0.020(6) 18
H H7 0.679(4) 0.8394(21) 0.580(14) 1.0 Uiso 0.051(35) 9
O O9 0.6690(16) 0.9254(16) 0.749(7) 1.0 Uiso 0.017(12) 18
O O12 0.6523(14) 0.9624(15) 0.096(5) 1.0 Uiso 0.022(16) 18
O O15 0.6098(18) 0.8912(17) 0.338(7) 1.0 Uiso 0.037(14) 18
C C2m 0.6278(22) 0.8140(11) 0.128(7) 1.0 Uiso 0.011(14) 9
H H7m 0.6188(34) 0.8094(17) 0.275(13) 1.0 Uiso 0.006(19) 9
loop_
_atom_type_symbol
_atom_type_number_in_cell
_atom_type_scat_length_neutron
_atom_type_scat_source
C 72.0 0.6646 International_Tables_Vol_C
Ni 18.0 1.0300 International_Tables_Vol_C
H 18.0 -0.3739 International_Tables_Vol_C
O 54.0 0.5803 International_Tables_Vol_C
loop_
_geom_angle_atom_site_label_1
_geom_angle_atom_site_label_2
_geom_angle_atom_site_label_3
_geom_angle
_geom_angle_site_symmetry_1
_geom_angle_site_symmetry_3
_geom_angle_publ_flag
C2 C1 C6 114(4) 1_555 1_556 n
C2 C1 O9 123(5) 1_555 1_555 n
C6 C1 O9 124(4) 1_556 1_555 n
C1 C2 C1 127(6) 1_555 6_565 n
C1 C2 H7 116.8(32) 1_555 1_555 n
C1 C2 H7 116.6(32) 6_565 1_555 n
C1 C6 C11 121.5(27) 1_554 1_555 n
C1 C6 C2m 121(4) 1_554 1_555 n
C11 C6 C2m 118(4) 1_555 1_555 n
C6 C11 O12 117.8(35) 1_555 1_555 n
C6 C11 O15 116.1(27) 1_555 1_555 n
O12 C11 O15 126(4) 1_555 1_555 n
O9 Ni1 O9 165.2(25) 3_565 102_654 n
O9 Ni1 O12 82.6(13) 3_565 102_655 n
O9 Ni1 O12 94.2(14) 3_565 201_445 n
O9 Ni1 O15 95.8(22) 3_565 3_565 n
O9 Ni1 O12 82.8(21) 102_654 102_655 n
O9 Ni1 O12 80.9(13) 102_654 201_445 n
O9 Ni1 O15 98.6(20) 102_654 3_565 n
O12 Ni1 O12 81.3(7) 102_655 201_445 n
O12 Ni1 O15 176.7(21) 102_655 3_565 n
O12 Ni1 O15 95.8(16) 201_445 3_565 n
C1 O9 Ni1 137.0(34) 1_555 2_665 n
C1 O9 Ni1 120(4) 1_555 203_565 n
Ni1 O9 Ni1 94.6(17) 2_665 203_565 n
C11 O12 Ni1 132.7(31) 1_555 101_554 n
C11 O12 Ni1 129.1(30) 1_555 203_564 n
Ni1 O12 Ni1 94.2(13) 101_554 203_564 n
C11 O15 Ni1 119.6(28) 1_555 2_665 n
C6 C2m C6 124(5) 1_555 6_565 n
C6 C2m H7m 117.4(28) 1_555 1_555 n
C6 C2m H7m 117.0(28) 6_565 1_555 n
loop_
_geom_bond_atom_site_label_1
_geom_bond_atom_site_label_2
_geom_bond_distance
_geom_bond_site_symmetry_2
_geom_bond_publ_flag
C1 C2 1.42(4) 1_555 n
C1 C6 1.44(4) 1_556 n
C1 O9 1.26(4) 1_555 n
C2 C1 1.42(4) 1_555 n
C2 C1 1.42(4) 6_565 n
C2 H7 1.15(13) 1_555 n
C6 C1 1.44(4) 1_554 n
C6 C11 1.48(5) 1_555 n
C6 C2m 1.342(31) 1_555 n
C6 H7m 2.02(9) 1_555 n
C11 C6 1.48(5) 1_555 n
C11 O12 1.29(4) 1_555 n
C11 O15 1.27(4) 1_555 n
Ni1 O9 2.08(4) 3_565 n
Ni1 O9 2.01(4) 102_654 n
Ni1 O12 1.984(30) 102_655 n
Ni1 O12 2.13(4) 201_445 n
Ni1 O15 2.05(5) 3_565 n
H7 C2 1.15(13) 1_555 n
O9 C1 1.26(4) 1_555 n
O9 Ni1 2.08(4) 2_665 n
O9 Ni1 2.01(4) 203_565 n
O12 C11 1.29(4) 1_555 n
O12 Ni1 2.13(4) 101_554 n
O12 Ni1 1.984(30) 203_564 n
O15 C11 1.27(4) 1_555 n
O15 Ni1 2.05(5) 2_665 n
C2m C6 1.342(31) 1_555 n
C2m C6 1.345(31) 6_565 n
C2m H7m 1.01(12) 1_555 n
H7m C6 2.02(9) 1_555 n
H7m C6 2.02(9) 6_565 n
H7m C2m 1.01(12) 1_555 n
loop_
_pd_meas_intensity_total
_pd_proc_ls_weight
_pd_proc_intensity_bkg_calc
_pd_calc_intensity_total
4930(150) 0.0 1753. .
4380(140) 0.0 1742. .
3990(140) 0.0 1731. .
3740(130) 0.0 1719. .
3710(130) 0.0 1708. .
3520(130) 0.0 1698. .
3250(120) 0.0 1687. .
3250(120) 0.0 1676. .
3180(120) 0.0 1665. .
3080(120) 0.0 1655. .
2830(110) 0.0 1644. .
2780(110) 0.0 1634. .
2700(110) 0.0 1624. .
2580(110) 0.0 1614. .
2530(110) 0.0 1604. .
2560(110) 0.0 1594. .
2520(110) 0.0 1584. .
2530(110) 0.0 1574. .
2440(110) 0.0 1564. .
2580(110) 0.0 1555. .
2310(100) 0.0 1545. .
2240(100) 0.0 1536. .
2290(100) 0.0 1526. .
2270(100) 0.0 1517. .
2041(97) 0.0 1508. .
2170(100) 0.0 1499. .
2220(100) 0.0 1490. .
2141(99) 0.0 1481. .
2078(97) 0.0 1472. .
2005(96) 0.0 1463. .
1692(88) 0.0 1454. .
1846(92) 0.0 1446. .
1769(90) 0.0 1437. .
1824(91) 0.0 1429. .
1696(88) 0.0 1420. .
1588(85) 0.0 1412. .
1578(85) 0.0 1404. .
1542(84) 0.0 1396. .
1651(87) 0.0 1387. .
1565(85) 0.0 1379. .
1456(82) 0.0 1371. .
1647(87) 0.0 1364. .
1524(84) 0.0 1356. .
1492(83) 0.0 1348. .
1460(82) 0.0 1340. .
1406(80) 0.0 1333. .
1324(78) 0.0 1325. .
1333(78) 0.0 1318. .
1401(80) 0.0 1310. .
1342(78) 0.0 1303. .
1406(80) 0.0 1296. .
1379(80) 0.0 1289. .
1220(75) 0.0 1282. .
1265(76) 0.0 1274. .
1306(77) 0.0 1267. .
1388(80) 0.0 1261. .
1188(74) 0.0 1254. .
1211(75) 0.0 1247. .
1265(76) 0.0 1240. .
1297(77) 0.0 1233. .
1342(78) 0.0 1227. .
1247(76) 0.0 1220. .
1311(78) 0.0 1214. .
1243(76) 0.0 1207. .
1270(76) 0.0 1201. .
1179(74) 0.0 1195. .
1265(76) 0.0 1188. .
1143(72) 0.0 1182. .
1006(68) 0.0 1176. .
1233(75) 0.0 1170. .
1011(68) 0.0 1164. .
1006(68) 0.0 1158. .
1093(71) 0.0 1152. .
1174(73) 0.0 1146. .
1093(71) 0.0 1141. .
1038(69) 0.0 1135. .
1143(72) 0.0 1129. .
1138(72) 0.0 1123. .
1079(70) 0.0 1118. .
1206(74) 0.0 1112. .
1047(69) 0.0 1107. .
1006(68) 0.0 1101. .
966(67) 0.0 1096. .
1011(68) 0.0 1091. .
925(65) 0.0 1085. .
975(67) 0.0 1080. .
938(66) 0.0 1075. .
1120(72) 0.0 1070. .
1047(69) 0.0 1065. .
1029(69) 0.0 1060. .
1097(71) 0.0 1055. .
997(68) 0.0 1050. .
979(67) 0.0 1045. .
1011(68) 0.0 1040. .
988(67) 0.0 1035. .
1061(70) 0.0 1031. .
979(67) 0.0 1026. .
1174(73) 0.0 1021. .
911(65) 0.0 1017. .
943(66) 0.0 1012. .
1031(47) 0.0 1008. .
1030(47) 0.0 1003. .
1011(46) 0.0 999. .
1089(48) 0.000434 994. 1035.
972(45) 0.000494 990. 1032.
959(45) 0.000494 986. 1030.
993(46) 0.000473 982. 1027.
942(45) 0.000494 977. 1025.
926(44) 0.000517 973. 1024.
972(46) 0.000473 969. 1022.
1009(46) 0.000473 965. 1020.
897(44) 0.000517 961. 1019.
914(44) 0.000517 957. 1019.
942(45) 0.000494 953. 1018.
941(45) 0.000494 949. 1018.
997(46) 0.000473 945. 1018.
1013(47) 0.000453 941. 1019.
1005(46) 0.000473 937. 1021.
1020(47) 0.000453 934. 1023.
1077(48) 0.000434 930. 1025.
1062(48) 0.000434 926. 1029.
1146(49) 0.000416 922. 1033.
1081(48) 0.000434 919. 1039.
1099(48) 0.000434 915. 1046.
1122(49) 0.000416 912. 1056.
1153(50) 0.000400 908. 1067.
1201(51) 0.000384 905. 1083.
1256(52) 0.000370 901. 1104.
1317(53) 0.000356 898. 1133.
1407(55) 0.0003306 894. 1174.
1402(55) 0.0003306 891. 1230.
1483(56) 0.0003189 888. 1305.
1522(57) 0.0003078 884. 1402.
1641(59) 0.0002873 881. 1519.
1751(61) 0.0002687 878. 1658.
1811(62) 0.0002601 875. 1824.
2005(66) 0.0002296 871. 2015.
2277(70) 0.0002041 868. 2222.
2442(73) 0.0001877 865. 2450.
2653(76) 0.0001731 862. 2712.
2859(79) 0.0001602 859. 3001.
3203(83) 0.0001452 856. 3313.
3531(87) 0.0001321 853. 3671.
4158(95) 0.0001108 850. 4079.
4562(99) 0.0001020 847. 4532.
5060(110) 0.0000907 844. 5057.
5750(110) 0.0000797 841. 5668.
6570(120) 0.0000706 839. 6360.
7500(130) 0.0000620 836. 7149.
8510(140) 0.0000541 833. 8002.
9560(140) 0.0000482 830. 8849.
9830(150) 0.0000469 828. 9568.
10120(150) 0.0000457 825. 9974.
9620(140) 0.0000482 822. 9862.
9010(140) 0.0000510 820. 9082.
7540(130) 0.0000610 817. 7713.
5990(110) 0.0000769 814. 6108.
4610(100) 0.0001000 812. 4628.
3344(85) 0.0001384 809. 3455.
2702(76) 0.0001731 807. 2618.
2263(70) 0.0002041 804. 2067.
1816(62) 0.0002601 802. 1720.
1603(59) 0.0002873 799. 1504.
1394(55) 0.0003306 797. 1364.
1413(55) 0.0003306 795. 1268.
1242(52) 0.000370 792. 1196.
1214(51) 0.000384 790. 1140.
1072(48) 0.000434 788. 1094.
1031(47) 0.000453 785. 1056.
940(45) 0.000494 783. 1024.
917(44) 0.000517 781. 997.
950(45) 0.000494 779. 973.
952(45) 0.000494 776. 955.
928(44) 0.000517 774. 937.
843(42) 0.000567 772. 921.
918(44) 0.000517 770. 907.
827(42) 0.000567 768. 894.
842(42) 0.000567 766. 883.
837(42) 0.000567 764. 872.
832(42) 0.000567 762. 863.
847(42) 0.000567 760. 854.
819(42) 0.000567 758. 846.
847(42) 0.000567 756. 838.
854(43) 0.000541 754. 832.
793(41) 0.000595 752. 825.
773(41) 0.000595 750. 819.
887(43) 0.000541 748. 813.
788(41) 0.000595 746. 808.
882(43) 0.000541 744. 803.
822(42) 0.000567 742. 798.
805(41) 0.000595 740. 794.
731(39) 0.000657 739. 790.
740(40) 0.000625 737. 786.
826(42) 0.000567 735. 782.
814(42) 0.000567 733. 778.
790(41) 0.000595 732. 774.
820(57) 0.0003078 730. 771.
766(55) 0.0003306 728. 768.
760(55) 0.0003306 726. 765.
748(54) 0.0003429 725. 761.
742(39) 0.000657 723. 759.
733(39) 0.000657 722. 756.
750(40) 0.000625 720. 753.
758(40) 0.000625 718. 750.
699(38) 0.000693 717. 748.
728(39) 0.000657 715. 745.
774(40) 0.000625 714. 743.
739(39) 0.000657 712. 741.
750(40) 0.000625 711. 738.
751(40) 0.000625 709. 736.
787(41) 0.000595 708. 734.
767(40) 0.000625 706. 732.
690(38) 0.000693 705. 730.
727(39) 0.000657 703. 728.
759(40) 0.000625 702. 726.
741(39) 0.000657 700. 724.
744(39) 0.000657 699. 722.
702(38) 0.000693 698. 721.
683(38) 0.000693 696. 719.
738(39) 0.000657 695. 717.
748(39) 0.000657 694. 716.
715(39) 0.000657 692. 714.
738(39) 0.000657 691. 713.
756(40) 0.000625 690. 711.
707(38) 0.000693 688. 710.
740(39) 0.000657 687. 708.
687(38) 0.000693 686. 707.
721(39) 0.000657 685. 706.
708(38) 0.000693 683. 704.
667(37) 0.000730 682. 703.
698(38) 0.000693 681. 702.
754(40) 0.000625 680. 701.
735(39) 0.000657 679. 699.
691(38) 0.000693 678. 698.
712(39) 0.000657 676. 697.
700(38) 0.000693 675. 696.
747(39) 0.000657 674. 695.
674(37) 0.000730 673. 695.
742(39) 0.000657 672. 694.
695(38) 0.000693 671. 693.
715(39) 0.000657 670. 692.
740(39) 0.000657 669. 691.
757(40) 0.000625 668. 691.
737(39) 0.000657 667. 690.
767(40) 0.000625 666. 690.
754(40) 0.000625 664. 689.
699(38) 0.000693 663. 689.
721(39) 0.000657 662. 689.
726(39) 0.000657 661. 688.
681(38) 0.000693 660. 688.
696(38) 0.000693 660. 688.
701(38) 0.000693 659. 688.
705(38) 0.000693 658. 688.
751(40) 0.000625 657. 689.
709(38) 0.000693 656. 689.
708(38) 0.000693 655. 691.
722(39) 0.000657 654. 691.
708(38) 0.000693 653. 692.
709(38) 0.000693 652. 694.
705(38) 0.000693 651. 695.
669(37) 0.000730 650. 697.
720(39) 0.000657 649. 699.
686(38) 0.000693 649. 702.
699(38) 0.000693 648. 705.
722(39) 0.000657 647. 708.
755(40) 0.000625 646. 712.
710(38) 0.000693 645. 717.
742(39) 0.000657 644. 723.
787(41) 0.000595 644. 730.
814(41) 0.000595 643. 739.
808(41) 0.000595 642. 749.
833(42) 0.000567 641. 762.
857(42) 0.000567 640. 779.
844(42) 0.000567 640. 800.
872(43) 0.000541 639. 830.
962(45) 0.000494 638. 869.
1019(46) 0.000473 637. 922.
1095(48) 0.000434 637. 992.
1254(52) 0.000370 636. 1084.
1257(52) 0.000370 635. 1200.
1364(54) 0.0003429 635. 1340.
1580(58) 0.0002973 634. 1509.
1802(62) 0.0002601 633. 1716.
2072(67) 0.0002228 632. 1966.
2233(69) 0.0002100 632. 2247.
2596(75) 0.0001778 631. 2535.
2926(79) 0.0001602 630. 2812.
3118(82) 0.0001487 630. 3053.
3169(83) 0.0001452 629. 3199.
2959(80) 0.0001562 628. 3190.
2779(77) 0.0001687 628. 3004.
2477(73) 0.0001877 627. 2673.
2059(66) 0.0002296 627. 2277.
1720(61) 0.0002687 626. 1896.
1480(56) 0.0003189 625. 1575.
1260(52) 0.000370 625. 1326.
1197(73) 0.0001877 624. 1145.
1007(45) 0.000494 623. 1018.
955(44) 0.000517 623. 930.
858(42) 0.000567 622. 870.
852(42) 0.000567 622. 828.
789(40) 0.000625 621. 797.
717(38) 0.000693 621. 773.
744(39) 0.000657 620. 754.
723(38) 0.000693 619. 739.
711(38) 0.000693 619. 726.
765(40) 0.000625 618. 715.
686(37) 0.000730 618. 706.
693(38) 0.000693 617. 697.
686(37) 0.000730 617. 691.
666(37) 0.000730 616. 684.
707(38) 0.000693 616. 679.
632(36) 0.000772 615. 674.
672(37) 0.000730 615. 670.
693(38) 0.000693 614. 667.
651(36) 0.000772 614. 663.
591(35) 0.000816 613.1 660.6
692(38) 0.000693 613. 658.
680(37) 0.000730 612. 656.
652(36) 0.000772 612. 654.
609(35) 0.000816 611.2 652.5
618(35) 0.000816 610.7 651.3
642(36) 0.000772 610. 651.
660(37) 0.000730 610. 650.
636(36) 0.000772 609. 651.
666(37) 0.000730 609. 651.
693(38) 0.000693 608. 653.
668(37) 0.000730 608. 655.
623(36) 0.000772 608. 659.
626(36) 0.000772 607. 665.
627(36) 0.000772 607. 673.
701(38) 0.000693 606. 684.
729(39) 0.000657 606. 696.
695(38) 0.000693 605. 711.
776(40) 0.000625 605. 728.
761(39) 0.000657 605. 747.
785(40) 0.000625 604. 767.
891(43) 0.000541 604. 783.
836(41) 0.000595 603. 793.
884(43) 0.000541 603. 793.
775(40) 0.000625 603. 783.
797(40) 0.000625 602. 763.
761(39) 0.000657 602. 737.
713(38) 0.000693 601. 712.
665(37) 0.000730 601. 691.
699(38) 0.000693 601. 673.
677(37) 0.000730 600. 660.
669(37) 0.000730 600. 650.
689(38) 0.000693 600. 644.
622(36) 0.000772 599. 639.
606(35) 0.000816 598.8 635.7
655(37) 0.000730 598. 633.
676(37) 0.000730 598. 632.
670(37) 0.000730 598. 630.
656(37) 0.000730 597. 630.
591(35) 0.000816 597.0 629.1
636(36) 0.000772 597. 629.
625(36) 0.000772 596. 629.
658(37) 0.000730 596. 629.
658(37) 0.000730 596. 630.
678(37) 0.000730 595. 630.
640(36) 0.000772 595. 632.
610(35) 0.000816 594.7 633.1
656(37) 0.000730 594. 635.
629(36) 0.000772 594. 637.
677(37) 0.000730 594. 640.
670(37) 0.000730 593. 644.
669(37) 0.000730 593. 648.
667(37) 0.000730 593. 654.
640(36) 0.000772 593. 662.
672(37) 0.000730 592. 672.
680(37) 0.000730 592. 686.
714(38) 0.000693 592. 705.
720(38) 0.000693 591. 730.
715(38) 0.000693 591. 764.
743(39) 0.000657 591. 809.
792(40) 0.000625 590. 865.
881(42) 0.000567 590. 932.
911(43) 0.000541 590. 1005.
1064(47) 0.000453 590. 1080.
1131(48) 0.000434 589. 1154.
1274(51) 0.000384 589. 1226.
1442(55) 0.0003306 589. 1291.
1404(54) 0.0003429 589. 1326.
1338(53) 0.000356 588. 1311.
1253(51) 0.000384 588. 1243.
1170(49) 0.000416 588. 1142.
994(45) 0.000494 587. 1037.
867(42) 0.000567 587. 940.
820(41) 0.000595 587. 861.
777(40) 0.000625 587. 799.
749(39) 0.000657 586. 753.
773(40) 0.000625 586. 719.
674(37) 0.000730 586. 696.
675(37) 0.000730 586. 679.
557(34) 0.000865 585.4 666.3
647(34) 0.000865 585.2 657.2
685(35) 0.000816 584.9 650.2
637(34) 0.000865 584.7 644.8
640(34) 0.000865 584.5 640.6
611(33) 0.000918 584.2 637.3
651(35) 0.000816 584.0 634.7
630(34) 0.000865 583.8 632.8
672(35) 0.000816 583.5 631.5
661(35) 0.000816 583.3 630.8
604(33) 0.000918 583.1 630.6
597(33) 0.000918 582.8 631.0
615(34) 0.000865 582.6 632.2
621(34) 0.000865 582.4 634.1
616(34) 0.000865 582.2 637.0
642(34) 0.000865 581.9 641.2
644(34) 0.000865 581.7 647.2
671(35) 0.000816 581.5 655.6
684(35) 0.000816 581.3 667.3
637(34) 0.000865 581.1 683.1
676(35) 0.000816 580.9 704.2
719(36) 0.000772 581. 732.
790(38) 0.000693 580. 765.
764(37) 0.000730 580. 805.
801(38) 0.000693 580. 847.
841(39) 0.000657 580. 888.
1011(43) 0.000541 580. 928.
1032(44) 0.000517 579. 962.
1043(44) 0.000517 579. 983.
1061(44) 0.000517 579. 980.
1034(44) 0.000517 579. 951.
901(41) 0.000595 579. 902.
882(40) 0.000625 578. 848.
794(38) 0.000693 578. 797.
755(37) 0.000730 578. 754.
686(35) 0.000816 577.9 718.9
646(34) 0.000865 577.7 692.4
610(33) 0.000918 577.5 672.8
684(35) 0.000816 577.3 658.8
666(35) 0.000816 577.1 648.8
708(36) 0.000772 577. 642.
665(35) 0.000816 576.8 637.1
632(34) 0.000865 576.6 633.8
652(35) 0.000816 576.4 631.7
651(35) 0.000816 576.2 630.5
654(35) 0.000816 576.0 630.2
632(34) 0.000865 575.9 630.7
626(34) 0.000865 575.7 631.9
622(34) 0.000865 575.5 634.0
666(35) 0.000816 575.3 637.1
672(35) 0.000816 575.2 641.4
662(35) 0.000816 575.0 647.2
755(37) 0.000730 575. 655.
742(37) 0.000730 575. 666.
740(37) 0.000730 574. 680.
669(35) 0.000816 574.3 700.0
777(38) 0.000693 574. 726.
800(38) 0.000693 574. 761.
799(38) 0.000693 574. 805.
905(41) 0.000595 574. 860.
936(42) 0.000567 574. 924.
1027(44) 0.000517 573. 993.
1159(46) 0.000473 573. 1062.
1169(46) 0.000473 573. 1126.
1192(47) 0.000453 573. 1178.
1180(47) 0.000453 573. 1205.
1177(47) 0.000453 573. 1195.
1099(45) 0.000494 572. 1146.
1035(44) 0.000517 572. 1069.
966(42) 0.000567 572. 985.
952(42) 0.000567 572. 906.
853(40) 0.000625 572. 838.
832(39) 0.000657 572. 782.
759(37) 0.000730 572. 740.
728(37) 0.000730 571. 707.
690(36) 0.000772 571. 683.
654(35) 0.000816 571.1 664.9
666(35) 0.000816 570.9 651.6
667(35) 0.000816 570.8 641.6
629(34) 0.000865 570.6 633.9
596(33) 0.000918 570.5 627.8
712(36) 0.000772 570. 623.
628(34) 0.000865 570.2 619.0
634(34) 0.000865 570.1 615.9
640(34) 0.000865 569.9 613.4
645(34) 0.000865 569.8 611.7
627(34) 0.000865 569.7 610.4
644(34) 0.000865 569.5 609.6
637(34) 0.000865 569.4 609.5
580(33) 0.000918 569.2 610.2
621(34) 0.000865 569.1 611.8
621(34) 0.000865 569.0 614.5
630(34) 0.000865 568.8 618.6
629(34) 0.000865 568.7 624.1
594(33) 0.000918 568.6 631.2
600(33) 0.000918 568.4 639.7
603(33) 0.000918 568.3 648.8
626(34) 0.000865 568.2 657.0
656(35) 0.000816 568.1 662.3
664(35) 0.000816 567.9 662.5
655(35) 0.000816 567.8 657.6
640(34) 0.000865 567.7 649.3
664(34) 0.000865 567.6 640.0
622(33) 0.000918 567.4 631.1
652(34) 0.000865 567.3 623.6
635(34) 0.000865 567.2 617.7
615(33) 0.000918 567.1 613.2
644(34) 0.000865 566.9 610.2
658(34) 0.000865 566.8 608.3
624(33) 0.000918 566.7 607.3
580(32) 0.000977 566.6 607.2
590(32) 0.000977 566.5 607.7
622(33) 0.000918 566.3 608.9
630(34) 0.000865 566.2 610.7
631(34) 0.000865 566.1 613.1
612(33) 0.000918 566.0 616.2
640(34) 0.000865 565.9 620.2
589(32) 0.000977 565.7 625.2
644(34) 0.000865 565.6 631.7
651(34) 0.000865 565.5 640.0
655(34) 0.000865 565.4 650.9
672(35) 0.000816 565.3 665.4
686(35) 0.000816 565.2 684.7
675(35) 0.000816 565.1 710.3
682(35) 0.000816 565.0 743.9
777(37) 0.000730 565. 787.
815(38) 0.000693 565. 841.
811(38) 0.000693 565. 905.
896(40) 0.000625 565. 977.
1007(43) 0.000541 564. 1051.
1105(45) 0.000494 564. 1112.
1189(47) 0.000453 564. 1145.
1250(48) 0.000434 564. 1138.
1250(48) 0.000434 564. 1093.
1182(46) 0.000473 564. 1025.
1127(45) 0.000494 564. 950.
1063(44) 0.000517 564. 880.
936(41) 0.000595 564. 819.
844(39) 0.000657 563. 769.
771(37) 0.000730 563. 729.
690(35) 0.000816 563.3 698.0
701(35) 0.000816 563.2 674.4
673(35) 0.000816 563.1 656.7
656(34) 0.000865 563.0 643.2
661(34) 0.000865 562.9 633.0
640(34) 0.000865 562.8 625.1
597(33) 0.000918 562.7 619.0
590(32) 0.000977 562.6 614.1
630(34) 0.000865 562.5 610.3
655(34) 0.000865 562.4 607.5
613(33) 0.000918 562.3 605.3
606(33) 0.000918 562.2 603.8
625(33) 0.000918 562.1 603.1
612(33) 0.000918 562.0 603.3
644(34) 0.000865 561.9 604.4
594(33) 0.000918 561.8 606.6
633(34) 0.000865 561.7 610.0
642(34) 0.000865 561.6 614.7
599(33) 0.000918 561.5 620.8
634(34) 0.000865 561.4 627.8
667(35) 0.000816 561.3 635.0
647(34) 0.000865 561.3 641.2
613(33) 0.000918 561.2 644.4
668(35) 0.000816 561.1 643.4
651(34) 0.000865 561.0 638.2
633(34) 0.000865 560.9 630.4
620(33) 0.000918 560.8 621.6
615(33) 0.000918 560.7 613.1
633(34) 0.000865 560.6 605.6
646(34) 0.000865 560.5 599.3
660(34) 0.000865 560.5 594.2
652(34) 0.000865 560.4 590.2
640(34) 0.000865 560.3 587.0
599(33) 0.000918 560.2 584.5
570(32) 0.000977 560.1 582.6
586(32) 0.000977 560.0 581.1
593(32) 0.000977 560.0 580.0
644(34) 0.000865 559.9 579.0
555(31) 0.001041 559.8 578.3
584(32) 0.000977 559.7 577.7
571(32) 0.000977 559.6 577.2
583(32) 0.000977 559.5 576.9
578(32) 0.000977 559.5 576.6
568(32) 0.000977 559.4 576.4
610(33) 0.000918 559.3 576.2
590(32) 0.000977 559.2 576.2
575(32) 0.000977 559.1 576.2
603(33) 0.000918 559.1 576.3
608(33) 0.000918 559.0 576.4
634(34) 0.000865 558.9 576.6
605(33) 0.000918 558.8 576.9
599(33) 0.000918 558.8 577.3
584(32) 0.000977 558.7 577.7
542(31) 0.001041 558.6 578.3
565(32) 0.000977 558.5 578.9
579(32) 0.000977 558.5 579.6
587(32) 0.000977 558.4 580.5
651(34) 0.000865 558.3 581.5
627(33) 0.000918 558.2 582.7
604(33) 0.000918 558.2 584.0
593(32) 0.000977 558.1 585.6
638(33) 0.000918 558.0 587.4
622(32) 0.000977 557.9 589.5
649(33) 0.000918 557.9 592.0
651(33) 0.000918 557.8 595.0
637(33) 0.000918 557.7 598.6
624(32) 0.000977 557.7 603.0
598(31) 0.001041 557.6 608.4
625(32) 0.000977 557.5 615.1
670(33) 0.000918 557.5 623.6
661(33) 0.000918 557.4 634.5
662(33) 0.000918 557.3 648.4
687(34) 0.000865 557.2 666.1
613(32) 0.000977 557.2 688.5
675(34) 0.000865 557.1 716.2
729(35) 0.000816 557.0 749.6
742(35) 0.000816 557.0 788.3
791(36) 0.000772 557. 831.
826(37) 0.000730 557. 873.
829(37) 0.000730 557. 908.
828(37) 0.000730 557. 927.
802(37) 0.000730 557. 925.
836(37) 0.000730 557. 902.
833(37) 0.000730 557. 866.
831(37) 0.000730 556. 824.
801(37) 0.000730 556. 783.
727(35) 0.000816 556.3 747.0
716(35) 0.000816 556.3 716.3
736(35) 0.000816 556.2 691.3
687(34) 0.000865 556.2 671.7
658(33) 0.000918 556.1 656.7
667(33) 0.000918 556.0 645.6
669(33) 0.000918 556.0 637.7
673(34) 0.000865 555.9 632.5
641(33) 0.000918 555.9 629.6
651(33) 0.000918 555.8 628.7
646(33) 0.000918 555.7 630.0
633(32) 0.000977 555.7 633.2
648(33) 0.000918 555.6 638.7
658(33) 0.000918 555.6 646.8
638(33) 0.000918 555.5 658.0
653(33) 0.000918 555.4 672.6
736(35) 0.000816 555.4 690.8
765(36) 0.000772 555. 713.
822(37) 0.000730 555. 737.
827(37) 0.000730 555. 763.
804(37) 0.000730 555. 786.
790(36) 0.000772 555. 802.
826(37) 0.000730 555. 805.
829(37) 0.000730 555. 796.
771(36) 0.000772 555. 776.
720(35) 0.000816 554.9 750.3
797(37) 0.000730 555. 724.
760(36) 0.000772 555. 700.
717(35) 0.000816 554.7 678.9
750(35) 0.000816 554.7 661.5
688(34) 0.000865 554.6 647.6
656(33) 0.000918 554.6 636.9
616(32) 0.000977 554.5 629.0
617(32) 0.000977 554.5 623.5
608(32) 0.000977 554.4 620.0
598(32) 0.000977 554.4 618.4
595(31) 0.001041 554.3 618.6
639(33) 0.000918 554.3 620.6
652(33) 0.000918 554.2 624.5
619(32) 0.000977 554.2 630.5
630(32) 0.000977 554.1 638.9
634(32) 0.000977 554.1 650.0
642(33) 0.000918 554.0 664.0
648(33) 0.000918 554.0 681.1
696(34) 0.000865 553.9 700.8
696(34) 0.000865 553.9 722.1
783(36) 0.000772 554. 743.
800(37) 0.000730 554. 759.
793(36) 0.000772 554. 767.
756(36) 0.000772 554. 764.
778(36) 0.000772 554. 751.
770(36) 0.000772 554. 731.
701(34) 0.000865 553.6 708.6
704(34) 0.000865 553.5 686.4
643(33) 0.000918 553.5 666.2
707(34) 0.000865 553.4 648.8
668(33) 0.000918 553.4 634.3
612(32) 0.000977 553.3 622.4
588(31) 0.001041 553.3 612.9
617(32) 0.000977 553.2 605.3
625(32) 0.000977 553.2 599.3
591(31) 0.001041 553.2 594.6
548(30) 0.001111 553.1 590.8
578(31) 0.001041 553.1 587.8
600(32) 0.000977 553.0 585.5
647(33) 0.000918 553.0 583.5
644(33) 0.000918 552.9 582.0
621(32) 0.000977 552.9 580.7
579(31) 0.001041 552.9 579.8
574(31) 0.001041 552.8 579.0
619(32) 0.000977 552.8 578.5
613(32) 0.000977 552.7 578.1
599(32) 0.000977 552.7 577.9
590(31) 0.001041 552.6 577.9
581(31) 0.001041 552.6 578.0
604(25) 0.001600 552.6 578.3
573(29) 0.001189 552.5 578.7
580(29) 0.001189 552.5 579.4
546(28) 0.001276 552.4 580.2
577(29) 0.001189 552.4 581.4
597(29) 0.001189 552.4 582.7
612(29) 0.001189 552.3 584.4
580(29) 0.001189 552.3 586.4
623(30) 0.001111 552.2 589.0
632(30) 0.001111 552.2 592.2
630(30) 0.001111 552.2 596.1
604(29) 0.001189 552.1 601.0
577(29) 0.001189 552.1 607.2
595(29) 0.001189 552.1 615.0
623(30) 0.001111 552.0 624.8
635(30) 0.001111 552.0 636.9
638(30) 0.001111 551.9 651.8
669(31) 0.001041 551.9 669.7
663(31) 0.001041 551.9 691.0
676(31) 0.001041 551.8 715.2
715(32) 0.000977 551.8 741.6
797(34) 0.000865 551.8 767.8
800(34) 0.000865 551.7 790.5
781(33) 0.000918 551.7 804.9
840(35) 0.000816 551.6 807.5
842(35) 0.000816 551.6 797.6
812(34) 0.000865 551.6 777.8
787(34) 0.000865 551.5 752.6
742(33) 0.000918 551.5 726.1
711(32) 0.000977 551.5 701.0
681(31) 0.001041 551.4 678.7
705(32) 0.000977 551.4 659.7
647(30) 0.001111 551.4 643.9
632(30) 0.001111 551.3 631.0
647(30) 0.001111 551.3 620.8
608(29) 0.001189 551.3 612.8
598(29) 0.001189 551.2 606.8
614(30) 0.001111 551.2 602.3
584(29) 0.001189 551.1 599.1
590(29) 0.001189 551.1 597.1
600(29) 0.001189 551.1 596.2
612(29) 0.001189 551.0 596.2
596(29) 0.001189 551.0 597.1
576(29) 0.001189 551.0 598.8
591(29) 0.001189 550.9 601.1
595(29) 0.001189 550.9 603.8
609(29) 0.001189 550.9 606.4
639(30) 0.001111 550.8 608.3
618(30) 0.001111 550.8 608.8
608(29) 0.001189 550.8 607.6
630(30) 0.001111 550.7 604.7
615(30) 0.001111 550.7 600.7
591(29) 0.001189 550.7 596.3
604(29) 0.001189 550.6 592.0
611(29) 0.001189 550.6 588.0
607(29) 0.001189 550.6 584.6
606(29) 0.001189 550.5 581.8
575(29) 0.001189 550.5 579.5
597(29) 0.001189 550.5 577.8
580(29) 0.001189 550.4 576.5
578(29) 0.001189 550.4 575.6
608(29) 0.001189 550.4 575.1
584(29) 0.001189 550.3 574.9
582(29) 0.001189 550.3 575.1
587(29) 0.001189 550.3 575.7
527(27) 0.001372 550.2 576.5
582(29) 0.001189 550.2 577.7
604(29) 0.001189 550.2 579.1
612(29) 0.001189 550.1 580.7
598(29) 0.001189 550.1 582.3
578(29) 0.001189 550.1 583.7
588(29) 0.001189 550.0 584.8
609(29) 0.001189 550.0 585.2
602(29) 0.001189 550.0 585.1
631(30) 0.001111 549.9 584.7
601(29) 0.001189 549.9 584.3
588(29) 0.001189 549.9 584.1
572(28) 0.001276 549.8 584.2
570(28) 0.001276 549.8 584.8
559(28) 0.001276 549.8 585.9
618(30) 0.001111 549.7 587.7
597(29) 0.001189 549.7 590.3
589(29) 0.001189 549.7 593.7
628(30) 0.001111 549.6 598.2
581(29) 0.001189 549.6 603.8
619(30) 0.001111 549.6 610.9
640(30) 0.001111 549.6 619.6
645(30) 0.001111 549.5 630.0
607(29) 0.001189 549.5 642.2
680(31) 0.001041 549.5 656.5
650(30) 0.001111 549.4 671.9
644(30) 0.001111 549.4 687.5
652(30) 0.001111 549.4 701.8
626(30) 0.001111 549.3 712.5
715(32) 0.000977 549.3 717.2
687(31) 0.001041 549.3 715.1
685(31) 0.001041 549.2 706.6
674(31) 0.001041 549.2 693.9
633(30) 0.001111 549.2 679.3
626(30) 0.001111 549.1 664.8
637(28) 0.001276 549.1 651.4
641(28) 0.001276 549.1 639.9
629(28) 0.001276 549.0 630.4
614(28) 0.001276 549.0 622.9
678(29) 0.001189 549.0 617.3
622(28) 0.001276 548.9 613.5
620(28) 0.001276 548.9 611.4
618(28) 0.001276 548.8 610.8
619(28) 0.001276 548.8 611.8
629(28) 0.001276 548.8 614.2
610(28) 0.001276 548.7 618.1
615(28) 0.001276 548.7 623.3
602(27) 0.001372 548.7 629.7
626(28) 0.001276 548.6 637.0
665(29) 0.001189 548.6 644.5
669(29) 0.001189 548.6 651.2
677(29) 0.001189 548.5 656.0
681(29) 0.001189 548.5 657.7
674(29) 0.001189 548.5 656.0
689(29) 0.001189 548.4 651.4
654(29) 0.001189 548.4 645.0
623(28) 0.001276 548.4 637.9
657(29) 0.001189 548.3 631.2
649(29) 0.001189 548.3 625.5
619(28) 0.001276 548.3 621.2
574(27) 0.001372 548.2 618.3
612(28) 0.001276 548.2 617.1
621(28) 0.001276 548.1 617.5
643(28) 0.001276 548.1 619.7
632(28) 0.001276 548.1 623.7
625(28) 0.001276 548.0 629.5
637(28) 0.001276 548.0 637.4
617(28) 0.001276 548.0 647.3
640(28) 0.001276 547.9 659.1
644(28) 0.001276 547.9 672.5
694(30) 0.001111 547.8 686.9
712(30) 0.001111 547.8 700.8
698(30) 0.001111 547.8 712.4
727(30) 0.001111 547.7 719.4
734(30) 0.001111 547.7 720.1
738(31) 0.001041 547.7 714.2
740(31) 0.001041 547.6 703.0
726(30) 0.001111 547.6 688.4
702(30) 0.001111 547.5 672.7
662(29) 0.001189 547.5 657.2
639(28) 0.001276 547.5 643.1
664(29) 0.001189 547.4 630.5
654(29) 0.001189 547.4 619.7
601(27) 0.001372 547.3 610.5
597(27) 0.001372 547.3 602.8
573(27) 0.001372 547.3 596.5
572(27) 0.001372 547.2 591.2
563(26) 0.001479 547.2 586.8
538(26) 0.001479 547.1 583.2
602(27) 0.001372 547.1 580.2
563(26) 0.001479 547.1 577.7
558(26) 0.001479 547.0 575.6
566(27) 0.001372 547.0 573.9
565(27) 0.001372 546.9 572.4
576(27) 0.001372 546.9 571.1
597(27) 0.001372 546.9 570.0
586(27) 0.001372 546.8 569.0
608(28) 0.001276 546.8 568.2
560(26) 0.001479 546.7 567.6
568(27) 0.001372 546.7 567.0
568(27) 0.001372 546.6 566.5
567(27) 0.001372 546.6 566.1
595(27) 0.001372 546.5 565.8
621(28) 0.001276 546.5 565.5
574(27) 0.001372 546.5 565.3
557(26) 0.001479 546.4 565.2
582(27) 0.001372 546.4 565.1
566(27) 0.001372 546.3 565.1
577(27) 0.001372 546.3 565.2
545(26) 0.001479 546.2 565.3
528(26) 0.001479 546.2 565.5
569(27) 0.001372 546.1 565.8
574(27) 0.001372 546.1 566.1
546(26) 0.001479 546.1 566.6
554(26) 0.001479 546.0 567.1
586(27) 0.001372 546.0 567.8
597(27) 0.001372 545.9 568.5
601(27) 0.001372 545.9 569.4
592(27) 0.001372 545.8 570.4
559(26) 0.001479 545.8 571.4
554(26) 0.001479 545.7 572.7
559(26) 0.001479 545.7 574.2
604(27) 0.001372 545.6 576.0
590(27) 0.001372 545.6 578.1
600(27) 0.001372 545.5 580.7
593(27) 0.001372 545.5 583.8
579(27) 0.001372 545.4 587.5
608(28) 0.001276 545.4 592.0
591(27) 0.001372 545.3 597.2
597(27) 0.001372 545.3 603.3
587(27) 0.001372 545.2 610.5
601(27) 0.001372 545.2 618.6
604(27) 0.001372 545.1 627.5
641(28) 0.001276 545.1 637.0
681(29) 0.001189 545.0 646.4
669(27) 0.001372 545.0 655.0
643(27) 0.001372 544.9 661.3
646(27) 0.001372 544.8 664.5
642(27) 0.001372 544.8 664.1
677(28) 0.001276 544.7 660.7
678(28) 0.001276 544.7 655.1
648(27) 0.001372 544.6 648.5
602(26) 0.001479 544.6 642.1
641(27) 0.001372 544.5 636.5
637(27) 0.001372 544.5 632.1
592(26) 0.001479 544.4 629.3
592(26) 0.001479 544.4 628.2
602(26) 0.001479 544.3 628.9
592(26) 0.001479 544.2 631.3
597(26) 0.001479 544.2 635.6
626(27) 0.001372 544.1 641.8
619(26) 0.001479 544.1 649.8
632(27) 0.001372 544.0 659.6
609(26) 0.001479 543.9 670.5
645(27) 0.001372 543.9 682.2
663(27) 0.001372 543.8 693.3
690(28) 0.001276 543.8 702.6
701(28) 0.001276 543.7 708.3
717(28) 0.001276 543.6 709.2
662(27) 0.001372 543.6 705.3
696(28) 0.001276 543.5 697.2
685(28) 0.001276 543.5 686.5
673(28) 0.001276 543.4 674.7
667(27) 0.001372 543.3 663.1
689(28) 0.001276 543.3 652.5
647(27) 0.001372 543.2 643.4
625(27) 0.001372 543.2 635.9
595(26) 0.001479 543.1 630.2
596(26) 0.001479 543.0 626.1
630(27) 0.001372 543.0 623.7
649(27) 0.001372 542.9 622.7
602(26) 0.001479 542.8 623.0
608(26) 0.001479 542.8 624.5
618(26) 0.001479 542.7 627.0
620(26) 0.001479 542.6 630.1
604(26) 0.001479 542.6 633.1
652(27) 0.001372 542.5 635.6
655(27) 0.001372 542.4 637.0
631(27) 0.001372 542.4 636.7
625(27) 0.001372 542.3 634.9
613(26) 0.001479 542.2 632.0
613(26) 0.001479 542.2 628.5
638(27) 0.001372 542.1 625.1
616(26) 0.001479 542.0 622.1
628(27) 0.001372 542.0 620.1
624(27) 0.001372 541.9 619.2
626(27) 0.001372 541.8 619.4
602(26) 0.001479 541.7 621.0
597(26) 0.001479 541.7 624.0
612(26) 0.001479 541.6 628.4
641(27) 0.001372 541.5 634.2
642(27) 0.001372 541.5 641.3
646(27) 0.001372 541.4 649.7
688(28) 0.001276 541.3 658.9
715(28) 0.001276 541.2 668.2
677(28) 0.001276 541.2 676.7
650(27) 0.001372 541.1 683.2
678(28) 0.001276 541.0 686.6
710(28) 0.001276 540.9 686.2
710(28) 0.001276 540.9 682.2
674(28) 0.001276 540.8 675.3
629(27) 0.001372 540.7 666.7
649(27) 0.001372 540.6 657.7
655(27) 0.001372 540.6 649.0
653(27) 0.001372 540.5 641.4
593(26) 0.001479 540.4 635.0
592(26) 0.001479 540.3 630.1
616(26) 0.001479 540.2 626.7
605(26) 0.001479 540.2 624.7
621(26) 0.001479 540.1 624.2
607(26) 0.001479 540.0 624.9
617(26) 0.001479 539.9 626.8
604(26) 0.001479 539.8 629.7
584(26) 0.001479 539.8 633.1
604(26) 0.001479 539.7 636.5
628(27) 0.001372 539.6 639.4
634(27) 0.001372 539.5 641.2
673(28) 0.001276 539.4 641.3
622(27) 0.001372 539.4 639.8
588(26) 0.001479 539.3 636.9
587(26) 0.001479 539.2 633.3
625(27) 0.001372 539.1 629.5
623(27) 0.001372 539.0 626.0
599(26) 0.001479 538.9 623.3
573(25) 0.001600 538.9 621.6
607(26) 0.001479 538.8 621.0
639(27) 0.001372 538.7 621.7
617(26) 0.001479 538.6 623.6
591(26) 0.001479 538.5 626.7
606(26) 0.001479 538.4 631.1
615(26) 0.001479 538.3 636.6
627(27) 0.001372 538.2 643.0
627(27) 0.001372 538.2 649.9
649(27) 0.001372 538.1 656.7
628(27) 0.001372 538.0 662.5
658(26) 0.001479 537.9 666.4
648(26) 0.001479 537.8 667.8
638(26) 0.001479 537.7 666.5
639(26) 0.001479 537.6 662.8
657(26) 0.001479 537.5 657.4
678(26) 0.001479 537.4 651.2
624(25) 0.001600 537.3 645.1
617(25) 0.001600 537.3 639.6
630(25) 0.001600 537.2 635.1
648(26) 0.001479 537.1 631.7
635(26) 0.001479 537.0 629.7
613(25) 0.001600 536.9 628.9
610(25) 0.001600 536.8 629.4
612(25) 0.001600 536.7 631.1
625(25) 0.001600 536.6 634.0
629(25) 0.001600 536.5 637.9
602(25) 0.001600 536.4 642.3
654(26) 0.001479 536.3 647.1
700(27) 0.001372 536.2 651.7
665(26) 0.001479 536.1 655.7
662(26) 0.001479 536.0 658.6
627(25) 0.001600 535.9 660.6
635(26) 0.001479 535.8 661.8
669(26) 0.001479 535.7 662.9
642(26) 0.001479 535.6 664.4
674(26) 0.001479 535.5 667.0
670(26) 0.001479 535.4 671.2
636(26) 0.001479 535.3 677.4
697(27) 0.001372 535.2 685.9
662(26) 0.001479 535.1 696.9
716(27) 0.001372 535.0 710.7
724(27) 0.001372 534.9 727.3
722(27) 0.001372 534.8 746.6
733(27) 0.001372 534.7 768.3
748(28) 0.001276 534.6 791.7
841(29) 0.001189 534.5 815.5
829(29) 0.001189 534.4 837.6
836(29) 0.001189 534.3 855.4
856(30) 0.001111 534.2 866.4
869(30) 0.001111 534.1 868.5
900(30) 0.001111 534.0 861.2
900(30) 0.001111 533.9 845.8
836(29) 0.001189 533.8 824.5
766(28) 0.001276 533.7 800.0
729(27) 0.001372 533.6 774.6
721(27) 0.001372 533.5 750.0
703(27) 0.001372 533.3 727.2
693(27) 0.001372 533.2 706.9
633(25) 0.001600 533.1 689.0
660(26) 0.001479 533.0 673.7
652(26) 0.001479 532.9 660.6
659(26) 0.001479 532.8 649.6
662(26) 0.001479 532.7 640.5
630(25) 0.001600 532.6 633.0
596(25) 0.001600 532.5 626.7
591(25) 0.001600 532.4 621.6
590(25) 0.001600 532.3 617.2
601(25) 0.001600 532.1 613.4
643(26) 0.001479 532.0 610.0
617(25) 0.001600 531.9 606.9
599(25) 0.001600 531.8 604.2
566(24) 0.001736 531.7 601.8
546(24) 0.001736 531.6 599.9
572(24) 0.001736 531.5 598.6
609(25) 0.001600 531.4 597.7
598(25) 0.001600 531.2 597.5
609(25) 0.001600 531.1 597.9
603(25) 0.001600 531.0 599.0
622(25) 0.001600 530.9 600.6
633(25) 0.001600 530.8 603.0
590(25) 0.001600 530.7 605.8
599(25) 0.001600 530.5 609.2
632(25) 0.001600 530.4 612.8
641(26) 0.001479 530.3 616.5
636(26) 0.001479 530.2 619.8
639(26) 0.001479 530.1 622.3
647(26) 0.001479 530.0 623.7
697(27) 0.001372 529.8 624.0
625(25) 0.001600 529.7 623.2
632(25) 0.001600 529.6 621.6
618(25) 0.001600 529.5 619.8
626(25) 0.001600 529.4 618.1
658(26) 0.001479 529.2 617.0
632(25) 0.001600 529.1 616.6
621(25) 0.001600 529.0 617.1
645(26) 0.001479 528.9 618.6
610(25) 0.001600 528.8 621.2
588(25) 0.001600 528.6 624.7
619(25) 0.001600 528.5 629.1
646(26) 0.001479 528.4 634.1
679(26) 0.001479 528.3 639.3
665(26) 0.001479 528.1 644.2
695(27) 0.001372 528.0 648.0
666(26) 0.001479 527.9 650.1
653(26) 0.001479 527.8 650.2
704(27) 0.001372 527.6 648.0
682(26) 0.001479 527.5 644.0
652(26) 0.001479 527.4 638.6
645(26) 0.001479 527.3 632.6
616(25) 0.001600 527.1 626.4
626(24) 0.001736 527.0 620.5
618(24) 0.001736 526.9 615.3
622(24) 0.001736 526.8 610.9
628(25) 0.001600 526.6 607.3
610(24) 0.001736 526.5 604.6
569(23) 0.001890 526.4 602.7
600(24) 0.001736 526.3 601.6
579(24) 0.001736 526.1 601.0
591(24) 0.001736 526.0 601.0
625(24) 0.001736 525.9 601.2
608(24) 0.001736 525.7 601.5
586(24) 0.001736 525.6 601.8
599(24) 0.001736 525.5 602.0
584(24) 0.001736 525.4 601.9
578(23) 0.001890 525.2 601.9
571(23) 0.001890 525.1 601.9
584(24) 0.001736 525.0 602.1
533(23) 0.001890 524.8 602.8
583(24) 0.001736 524.7 604.1
566(23) 0.001890 524.6 606.1
589(24) 0.001736 524.4 608.8
555(23) 0.001890 524.3 612.3
589(24) 0.001736 524.2 616.6
602(24) 0.001736 524.0 621.6
657(25) 0.001600 523.9 627.4
602(24) 0.001736 523.8 633.6
645(25) 0.001600 523.6 640.1
666(25) 0.001600 523.5 646.4
681(26) 0.001479 523.4 652.1
720(26) 0.001479 523.2 657.0
663(25) 0.001600 523.1 660.9
683(26) 0.001479 523.0 663.9
702(26) 0.001479 522.8 666.4
702(26) 0.001479 522.7 668.9
720(26) 0.001479 522.6 672.1
711(26) 0.001479 522.4 676.3
711(26) 0.001479 522.3 682.1
735(27) 0.001372 522.2 689.7
717(26) 0.001479 522.0 699.3
711(26) 0.001479 521.9 710.9
718(26) 0.001479 521.8 724.5
777(27) 0.001372 521.6 739.8
776(27) 0.001372 521.5 756.2
776(27) 0.001372 521.4 772.6
867(29) 0.001189 521.2 787.8
870(29) 0.001189 521.1 800.1
862(29) 0.001189 520.9 808.0
821(28) 0.001276 520.8 810.5
878(29) 0.001189 520.7 807.2
838(28) 0.001276 520.5 798.8
771(27) 0.001372 520.4 786.5
791(28) 0.001276 520.2 772.0
742(27) 0.001372 520.1 756.8
758(27) 0.001372 520.0 742.2
731(27) 0.001372 519.8 728.9
751(27) 0.001372 519.7 717.6
730(26) 0.001479 519.6 708.3
696(26) 0.001479 519.4 701.1
742(27) 0.001372 519.3 696.0
744(27) 0.001372 519.1 692.6
735(27) 0.001372 519.0 690.5
691(26) 0.001479 518.9 689.4
729(26) 0.001479 518.7 688.5
706(26) 0.001479 518.6 687.4
726(26) 0.001479 518.4 685.7
685(26) 0.001479 518.3 683.4
716(26) 0.001479 518.1 680.4
699(26) 0.001479 518.0 677.4
669(25) 0.001600 517.9 674.6
702(26) 0.001479 517.7 672.5
671(25) 0.001600 517.6 671.5
667(25) 0.001600 517.4 671.8
644(25) 0.001600 517.3 673.7
672(25) 0.001600 517.2 677.1
691(26) 0.001479 517.0 682.1
694(26) 0.001479 516.9 688.5
658(25) 0.001600 516.7 696.0
704(26) 0.001479 516.6 704.2
738(27) 0.001372 516.4 712.4
662(25) 0.001600 516.3 719.9
707(26) 0.001479 516.2 725.8
713(26) 0.001479 516.0 729.4
719(26) 0.001479 515.9 730.4
747(27) 0.001372 515.7 729.0
715(26) 0.001479 515.6 725.9
730(26) 0.001479 515.4 721.8
696(26) 0.001479 515.3 717.6
653(25) 0.001600 515.2 714.3
676(25) 0.001600 515.0 712.3
745(27) 0.001372 514.9 712.0
714(26) 0.001479 514.7 713.7
724(26) 0.001479 514.6 717.4
714(26) 0.001479 514.4 723.0
742(27) 0.001372 514.3 730.0
753(27) 0.001372 514.1 738.1
808(28) 0.001276 514.0 746.2
767(27) 0.001372 513.9 753.6
793(28) 0.001276 513.7 759.0
819(28) 0.001276 513.6 761.7
813(28) 0.001276 513.4 761.0
830(27) 0.001372 513.3 757.2
800(27) 0.001372 513.1 750.7
757(26) 0.001479 513.0 742.6
749(26) 0.001479 512.8 733.9
741(26) 0.001479 512.7 725.6
748(26) 0.001479 512.5 718.3
754(26) 0.001479 512.4 712.6
685(25) 0.001600 512.3 708.7
670(24) 0.001736 512.1 706.7
757(26) 0.001479 512.0 706.5
704(25) 0.001600 511.8 707.6
735(26) 0.001479 511.7 709.7
741(26) 0.001479 511.5 711.9
731(25) 0.001600 511.4 713.4
710(25) 0.001600 511.2 713.4
751(26) 0.001479 511.1 711.1
705(25) 0.001600 510.9 706.2
695(25) 0.001600 510.8 698.7
699(25) 0.001600 510.7 689.2
682(25) 0.001600 510.5 678.2
670(24) 0.001736 510.4 666.7
683(25) 0.001600 510.2 655.1
646(24) 0.001736 510.1 644.1
667(24) 0.001736 509.9 633.8
675(24) 0.001736 509.8 624.5
625(24) 0.001736 509.6 616.2
642(24) 0.001736 509.5 608.9
629(24) 0.001736 509.3 602.6
623(24) 0.001736 509.2 597.1
604(23) 0.001890 509.1 592.3
624(24) 0.001736 508.9 588.1
609(23) 0.001890 508.8 584.4
582(23) 0.001890 508.6 581.0
581(23) 0.001890 508.5 577.8
580(23) 0.001890 508.3 574.9
585(23) 0.001890 508.2 572.1
575(23) 0.001890 508.0 569.4
563(22) 0.002066 507.9 567.1
564(22) 0.002066 507.7 564.9
609(23) 0.001890 507.6 563.1
548(22) 0.002066 507.5 561.5
553(22) 0.002066 507.3 560.2
561(22) 0.002066 507.2 559.2
601(23) 0.001890 507.0 558.5
585(23) 0.001890 506.9 557.9
548(22) 0.002066 506.7 557.4
550(22) 0.002066 506.6 557.0
567(22) 0.002066 506.4 556.6
556(22) 0.002066 506.3 556.0
529(22) 0.002066 506.2 555.3
559(22) 0.002066 506.0 554.6
538(22) 0.002066 505.9 553.7
553(22) 0.002066 505.7 552.8
516(21) 0.002268 505.6 551.9
568(22) 0.002066 505.4 551.2
569(22) 0.002066 505.3 550.6
549(22) 0.002066 505.1 550.2
544(22) 0.002066 505.0 550.0
545(22) 0.002066 504.9 550.0
570(22) 0.002066 504.7 550.3
578(23) 0.001890 504.6 550.8
568(22) 0.002066 504.4 551.4
575(23) 0.001890 504.3 552.2
580(23) 0.001890 504.1 553.2
551(22) 0.002066 504.0 554.2
553(22) 0.002066 503.9 555.3
585(23) 0.001890 503.7 556.6
588(23) 0.001890 503.6 557.9
587(23) 0.001890 503.4 559.5
579(23) 0.001890 503.3 561.3
579(23) 0.001890 503.1 563.5
579(23) 0.001890 503.0 566.1
552(22) 0.002066 502.9 569.1
549(22) 0.002066 502.7 572.6
607(23) 0.001890 502.6 576.6
583(23) 0.001890 502.4 581.0
626(24) 0.001736 502.3 585.7
651(24) 0.001736 502.2 590.5
649(24) 0.001736 502.0 595.2
614(23) 0.001890 501.9 599.4
635(24) 0.001736 501.7 602.9
660(24) 0.001736 501.6 605.2
649(24) 0.001736 501.4 606.3
638(24) 0.001736 501.3 606.0
657(24) 0.001736 501.2 604.5
655(24) 0.001736 501.0 602.1
652(24) 0.001736 500.9 599.1
618(23) 0.001890 500.7 596.0
605(23) 0.001890 500.6 592.9
594(23) 0.001890 500.5 590.2
633(24) 0.001736 500.3 588.0
630(24) 0.001736 500.2 586.4
597(23) 0.001890 500.1 585.3
614(23) 0.001890 499.9 584.8
577(23) 0.001890 499.8 584.6
571(22) 0.002066 499.6 584.7
633(24) 0.001736 499.5 585.0
636(24) 0.001736 499.4 585.1
589(23) 0.001890 499.2 585.1
595(23) 0.001890 499.1 584.8
599(32) 0.000977 499.0 584.2
600(22) 0.002066 498.8 583.5
578(22) 0.002066 498.7 582.7
607(22) 0.002066 498.5 582.1
610(22) 0.002066 498.4 581.8
624(23) 0.001890 498.3 581.8
641(23) 0.001890 498.1 582.4
622(23) 0.001890 498.0 583.5
599(22) 0.002066 497.9 585.2
605(22) 0.002066 497.7 587.3
608(22) 0.002066 497.6 590.0
623(23) 0.001890 497.5 593.0
646(23) 0.001890 497.3 596.2
623(23) 0.001890 497.2 599.6
623(23) 0.001890 497.1 603.1
620(23) 0.001890 496.9 606.7
627(23) 0.001890 496.8 610.4
639(23) 0.001890 496.7 614.5
657(23) 0.001890 496.5 619.0
676(24) 0.001736 496.4 624.3
656(23) 0.001890 496.3 630.4
660(23) 0.001890 496.1 637.5
656(23) 0.001890 496.0 645.6
689(24) 0.001736 495.9 654.6
705(24) 0.001736 495.7 664.4
726(24) 0.001736 495.6 674.6
712(24) 0.001736 495.5 684.7
721(24) 0.001736 495.3 694.0
756(25) 0.001600 495.2 701.6
716(24) 0.001736 495.1 706.9
695(24) 0.001736 495.0 709.1
716(24) 0.001736 494.8 708.1
747(25) 0.001600 494.7 704.0
743(25) 0.001600 494.6 697.1
729(25) 0.001600 494.4 688.3
687(24) 0.001736 494.3 678.4
690(24) 0.001736 494.2 668.0
663(23) 0.001890 494.1 657.8
669(23) 0.001890 493.9 648.3
684(24) 0.001736 493.8 639.5
650(23) 0.001890 493.7 631.8
632(23) 0.001890 493.6 625.0
614(22) 0.002066 493.4 619.0
619(23) 0.001890 493.3 613.7
647(23) 0.001890 493.2 608.8
635(23) 0.001890 493.1 604.2
608(22) 0.002066 492.9 599.4
612(22) 0.002066 492.8 594.6
597(22) 0.002066 492.7 589.5
594(22) 0.002066 492.6 584.3
599(22) 0.002066 492.4 579.1
581(22) 0.002066 492.3 573.9
580(22) 0.002066 492.2 568.9
579(22) 0.002066 492.1 564.1
567(22) 0.002066 492.0 559.7
580(22) 0.002066 491.8 555.7
581(22) 0.002066 491.7 552.1
553(21) 0.002268 491.6 548.8
559(21) 0.002268 491.5 545.9
579(22) 0.002066 491.4 543.3
571(22) 0.002066 491.2 540.9
539(21) 0.002268 491.1 538.8
536(21) 0.002268 491.0 536.8
558(21) 0.002268 490.9 535.0
561(22) 0.002066 490.8 533.3
529(21) 0.002268 490.6 531.7
551(21) 0.002268 490.5 530.3
527(21) 0.002268 490.4 529.0
498(20) 0.002500 490.3 527.9
529(21) 0.002268 490.2 526.9
543(21) 0.002268 490.1 526.1
533(21) 0.002268 490.0 525.4
541(21) 0.002268 489.8 524.8
530(21) 0.002268 489.7 524.4
533(21) 0.002268 489.6 524.2
544(21) 0.002268 489.5 524.0
530(21) 0.002268 489.4 524.1
542(21) 0.002268 489.3 524.2
542(21) 0.002268 489.2 524.5
522(21) 0.002268 489.0 524.9
510(21) 0.002268 488.9 525.4
508(20) 0.002500 488.8 526.2
540(21) 0.002268 488.7 527.1
515(21) 0.002268 488.6 528.1
536(21) 0.002268 488.5 529.4
539(21) 0.002268 488.4 530.9
524(21) 0.002268 488.3 532.5
529(21) 0.002268 488.2 534.4
516(21) 0.002268 488.1 536.3
519(21) 0.002268 487.9 538.3
510(20) 0.002500 487.8 540.3
507(20) 0.002500 487.7 542.1
540(21) 0.002268 487.6 543.7
537(21) 0.002268 487.5 544.9
516(21) 0.002268 487.4 545.6
519(21) 0.002268 487.3 545.9
531(21) 0.002268 487.2 545.8
556(21) 0.002268 487.1 545.3
562(22) 0.002066 487.0 544.5
544(21) 0.002268 486.9 543.7
514(21) 0.002268 486.8 542.8
516(21) 0.002268 486.7 542.0
541(21) 0.002268 486.6 541.4
524(21) 0.002268 486.5 541.1
523(21) 0.002268 486.4 540.8
507(21) 0.002268 486.3 540.8
532(21) 0.002268 486.2 540.8
507(21) 0.002268 486.1 540.9
531(21) 0.002268 486.0 540.9
512(21) 0.002268 485.9 540.8
545(21) 0.002268 485.8 540.5
561(22) 0.002066 485.7 540.1
553(21) 0.002268 485.6 539.6
513(21) 0.002268 485.5 539.1
528(21) 0.002268 485.4 538.5
528(21) 0.002268 485.3 538.1
528(21) 0.002268 485.2 537.8
541(21) 0.002268 485.1 537.7
528(21) 0.002268 485.0 537.8
556(21) 0.002268 484.9 538.1
545(21) 0.002268 484.8 538.5
548(21) 0.002268 484.7 539.1
511(21) 0.002268 484.6 539.7
521(21) 0.002268 484.5 540.2
552(21) 0.002268 484.5 540.5
542(21) 0.002268 484.4 540.5
550(21) 0.002268 484.3 540.3
536(21) 0.002268 484.2 539.8
527(21) 0.002268 484.1 539.0
541(21) 0.002268 484.0 538.0
530(21) 0.002268 483.9 536.9
534(21) 0.002268 483.8 535.8
540(21) 0.002268 483.7 534.8
540(21) 0.002268 483.6 534.0
534(21) 0.002268 483.6 533.3
535(21) 0.002268 483.5 532.8
561(22) 0.002066 483.4 532.6
563(22) 0.002066 483.3 532.5
554(21) 0.002268 483.2 532.7
553(21) 0.002268 483.1 533.1
552(21) 0.002268 483.0 533.6
543(21) 0.002268 483.0 534.4
525(21) 0.002268 482.9 535.3
517(21) 0.002268 482.8 536.4
545(21) 0.002268 482.7 537.8
544(21) 0.002268 482.6 539.3
521(21) 0.002268 482.6 541.2
549(21) 0.002268 482.5 543.3
551(21) 0.002268 482.4 545.7
577(22) 0.002066 482.3 548.3
568(22) 0.002066 482.2 551.0
564(22) 0.002066 482.2 553.9
564(22) 0.002066 482.1 556.7
565(22) 0.002066 482.0 559.3
566(22) 0.002066 481.9 561.4
553(21) 0.002268 481.8 563.0
568(22) 0.002066 481.8 563.9
570(22) 0.002066 481.7 563.9
556(21) 0.002268 481.6 563.2
543(21) 0.002268 481.5 561.8
551(21) 0.002268 481.5 559.8
541(21) 0.002268 481.4 557.5
563(22) 0.002066 481.3 555.0
534(21) 0.002268 481.2 552.5
559(22) 0.002066 481.2 550.1
536(21) 0.002268 481.1 548.0
547(21) 0.002268 481.0 546.1
526(21) 0.002268 481.0 544.6
543(21) 0.002268 480.9 543.5
527(21) 0.002268 480.8 542.8
515(21) 0.002268 480.7 542.5
510(21) 0.002268 480.7 542.5
532(21) 0.002268 480.6 543.0
521(21) 0.002268 480.5 543.8
559(22) 0.002066 480.5 545.0
521(21) 0.002268 480.4 546.7
536(21) 0.002268 480.3 548.7
584(22) 0.002066 480.3 551.2
557(21) 0.002268 480.2 554.0
565(22) 0.002066 480.1 557.2
544(21) 0.002268 480.1 560.8
588(22) 0.002066 480.0 564.5
542(21) 0.002268 480.0 568.3
595(22) 0.002066 479.9 572.0
576(22) 0.002066 479.8 575.5
592(22) 0.002066 479.8 578.5
579(22) 0.002066 479.7 581.0
612(23) 0.001890 479.6 582.6
587(22) 0.002066 479.6 583.5
574(22) 0.002066 479.5 583.6
577(22) 0.002066 479.5 583.0
590(22) 0.002066 479.4 581.9
596(22) 0.002066 479.4 580.5
574(22) 0.002066 479.3 579.0
562(22) 0.002066 479.2 577.6
554(21) 0.002268 479.2 576.3
554(21) 0.002268 479.1 575.4
565(22) 0.002066 479.1 574.7
591(22) 0.002066 479.0 574.4
555(21) 0.002268 479.0 574.2
586(18) 0.003086 478.9 574.2
591(22) 0.002066 478.9 574.3
552(21) 0.002268 478.8 574.4
542(21) 0.002268 478.7 574.5
563(22) 0.002066 478.7 574.6
616(23) 0.001890 478.6 574.6
590(22) 0.002066 478.6 574.8
588(22) 0.002066 478.5 575.0
610(22) 0.002066 478.5 575.5
599(22) 0.002066 478.4 576.4
568(22) 0.002066 478.4 577.6
562(22) 0.002066 478.3 579.1
586(22) 0.002066 478.3 581.1
590(22) 0.002066 478.3 583.4
597(22) 0.002066 478.2 586.0
616(23) 0.001890 478.2 588.7
630(23) 0.001890 478.1 591.6
636(23) 0.001890 478.1 594.4
651(23) 0.001890 478.0 597.2
651(23) 0.001890 478.0 599.9
645(23) 0.001890 477.9 602.5
643(23) 0.001890 477.9 605.1
624(23) 0.001890 477.9 607.8
624(23) 0.001890 477.8 610.7
622(23) 0.001890 477.8 613.9
650(23) 0.001890 477.7 617.4
635(23) 0.001890 477.7 621.2
642(23) 0.001890 477.6 625.1
637(23) 0.001890 477.6 629.1
642(23) 0.001890 477.6 632.8
641(23) 0.001890 477.5 636.0
673(24) 0.001736 477.5 638.2
654(23) 0.001890 477.5 639.3
655(23) 0.001890 477.4 639.0
660(23) 0.001890 477.4 637.2
636(23) 0.001890 477.3 633.9
644(23) 0.001890 477.3 629.4
657(23) 0.001890 477.3 623.8
626(23) 0.001890 477.2 617.6
617(23) 0.001890 477.2 610.9
586(22) 0.002066 477.2 604.2
582(22) 0.002066 477.1 597.7
611(22) 0.002066 477.1 591.4
589(22) 0.002066 477.1 585.5
572(22) 0.002066 477.0 580.2
577(22) 0.002066 477.0 575.3
544(21) 0.002268 477.0 571.0
541(21) 0.002268 476.9 567.2
552(21) 0.002268 476.9 563.9
571(22) 0.002066 476.9 561.0
562(21) 0.002268 476.9 558.6
540(21) 0.002268 476.8 556.6
530(21) 0.002268 476.8 555.1
556(21) 0.002268 476.8 553.9
537(21) 0.002268 476.7 553.2
545(21) 0.002268 476.7 552.9
554(21) 0.002268 476.7 553.0
571(22) 0.002066 476.7 553.5
576(22) 0.002066 476.6 554.3
558(21) 0.002268 476.6 555.5
569(22) 0.002066 476.6 557.1
561(21) 0.002268 476.6 559.0
564(22) 0.002066 476.6 561.1
550(21) 0.002268 476.5 563.7
537(21) 0.002268 476.5 566.4
564(22) 0.002066 476.5 569.6
597(22) 0.002066 476.5 573.0
596(22) 0.002066 476.4 576.8
600(22) 0.002066 476.4 581.0
592(22) 0.002066 476.4 585.5
588(22) 0.002066 476.4 590.4
576(22) 0.002066 476.4 595.6
544(21) 0.002268 476.3 601.0
572(22) 0.002066 476.3 606.4
608(22) 0.002066 476.3 611.7
622(23) 0.001890 476.3 616.4
591(22) 0.002066 476.3 620.5
577(22) 0.002066 476.3 623.5
583(22) 0.002066 476.2 625.3
611(22) 0.002066 476.2 625.6
609(22) 0.002066 476.2 624.5
587(22) 0.002066 476.2 621.9
583(22) 0.002066 476.2 618.1
591(22) 0.002066 476.2 613.3
589(22) 0.002066 476.2 607.9
579(22) 0.002066 476.2 602.0
539(21) 0.002268 476.1 596.0
559(21) 0.002268 476.1 590.0
556(21) 0.002268 476.1 584.2
568(22) 0.002066 476.1 578.7
551(21) 0.002268 476.1 573.6
573(22) 0.002066 476.1 568.8
540(21) 0.002268 476.1 564.4
530(21) 0.002268 476.1 560.3
508(20) 0.002500 476.1 556.5
521(21) 0.002268 476.1 552.9
538(21) 0.002268 476.0 549.5
523(21) 0.002268 476.0 546.3
539(21) 0.002268 476.0 543.3
523(21) 0.002268 476.0 540.6
489(28) 0.001276 476.0 538.0
493(19) 0.002770 476.0 535.6
539(20) 0.002500 476.0 533.4
491(19) 0.002770 476.0 531.5
509(20) 0.002500 476.0 529.8
513(20) 0.002500 476.0 528.3
538(20) 0.002500 476.0 527.0
503(20) 0.002500 476.0 526.0
511(20) 0.002500 476.0 525.1
509(20) 0.002500 476.0 524.5
511(20) 0.002500 476.0 524.1
525(20) 0.002500 476.0 523.8
539(20) 0.002500 476.0 523.7
522(20) 0.002500 476.0 523.8
515(20) 0.002500 476.0 524.0
528(20) 0.002500 476.0 524.4
513(20) 0.002500 476.0 525.0
523(20) 0.002500 476.0 525.6
515(20) 0.002500 476.0 526.3
565(21) 0.002268 476.0 527.1
555(21) 0.002268 476.0 527.9
511(20) 0.002500 476.0 528.6
516(20) 0.002500 476.0 529.3
497(19) 0.002770 476.0 529.9
532(20) 0.002500 476.0 530.4
489(19) 0.002770 476.0 530.7
506(20) 0.002500 476.0 531.0
506(20) 0.002500 476.0 531.2
516(20) 0.002500 476.0 531.3
525(20) 0.002500 476.0 531.5
537(20) 0.002500 476.0 531.8
527(20) 0.002500 476.0 532.1
540(20) 0.002500 476.0 532.5
524(20) 0.002500 476.0 533.1
526(20) 0.002500 476.1 533.8
513(20) 0.002500 476.1 534.6
546(20) 0.002500 476.1 535.6
482(19) 0.002770 476.1 536.8
488(19) 0.002770 476.1 538.1
546(20) 0.002500 476.1 539.5
527(20) 0.002500 476.1 541.1
533(20) 0.002500 476.1 542.9
544(20) 0.002500 476.1 544.8
546(20) 0.002500 476.1 547.0
542(20) 0.002500 476.1 549.3
556(21) 0.002268 476.2 551.8
548(20) 0.002500 476.2 554.5
558(21) 0.002268 476.2 557.3
576(21) 0.002268 476.2 560.1
564(21) 0.002268 476.2 563.0
532(20) 0.002500 476.2 565.7
575(21) 0.002268 476.2 568.2
617(22) 0.002066 476.2 570.4
600(21) 0.002268 476.3 572.2
590(21) 0.002268 476.3 573.4
560(21) 0.002268 476.3 574.1
613(22) 0.002066 476.3 574.4
600(21) 0.002268 476.3 574.2
584(21) 0.002268 476.3 573.6
562(21) 0.002268 476.3 572.8
594(21) 0.002268 476.4 571.8
559(21) 0.002268 476.4 570.9
567(21) 0.002268 476.4 569.9
575(21) 0.002268 476.4 569.0
599(21) 0.002268 476.4 568.2
604(21) 0.002268 476.4 567.4
587(21) 0.002268 476.5 566.7
575(21) 0.002268 476.5 565.9
608(22) 0.002066 476.5 565.1
598(21) 0.002268 476.5 564.3
589(21) 0.002268 476.5 563.3
607(22) 0.002066 476.6 562.3
577(21) 0.002268 476.6 561.2
567(21) 0.002268 476.6 560.2
577(21) 0.002268 476.6 559.1
572(21) 0.002268 476.6 558.2
583(21) 0.002268 476.7 557.3
584(21) 0.002268 476.7 556.6
542(20) 0.002500 476.7 556.1
547(20) 0.002500 476.7 555.7
567(21) 0.002268 476.7 555.3
561(21) 0.002268 476.8 555.1
548(20) 0.002500 476.8 554.8
582(21) 0.002268 476.8 554.6
575(21) 0.002268 476.8 554.3
563(21) 0.002268 476.8 553.9
573(21) 0.002268 476.9 553.6
534(20) 0.002500 476.9 553.2
531(20) 0.002500 476.9 552.8
552(21) 0.002268 476.9 552.4
566(21) 0.002268 477.0 552.2
552(21) 0.002268 477.0 552.0
529(20) 0.002500 477.0 552.0
554(21) 0.002268 477.0 552.2
551(20) 0.002500 477.1 552.5
583(21) 0.002268 477.1 552.9
560(21) 0.002268 477.1 553.5
529(20) 0.002500 477.1 554.2
568(21) 0.002268 477.2 554.9
554(21) 0.002268 477.2 555.8
545(20) 0.002500 477.2 556.7
549(20) 0.002500 477.2 557.6
528(20) 0.002500 477.3 558.6
575(21) 0.002268 477.3 559.8
584(21) 0.002268 477.3 561.0
542(20) 0.002500 477.3 562.3
544(20) 0.002500 477.4 563.6
542(20) 0.002500 477.4 565.1
583(21) 0.002268 477.4 566.5
545(20) 0.002500 477.5 567.8
575(21) 0.002268 477.5 569.0
570(21) 0.002268 477.5 569.9
548(20) 0.002500 477.5 570.6
535(20) 0.002500 477.6 570.8
577(21) 0.002268 477.6 570.7
572(21) 0.002268 477.6 570.2
522(20) 0.002500 477.6 569.3
574(21) 0.002268 477.7 568.1
511(20) 0.002500 477.7 566.7
517(20) 0.002500 477.7 565.3
544(20) 0.002500 477.8 563.7
511(20) 0.002500 477.8 562.2
574(21) 0.002268 477.8 560.8
543(20) 0.002500 477.8 559.4
545(20) 0.002500 477.9 558.3
545(20) 0.002500 477.9 557.2
555(21) 0.002268 477.9 556.3
583(21) 0.002268 478.0 555.6
538(20) 0.002500 478.0 554.9
541(20) 0.002500 478.0 554.4
549(20) 0.002500 478.1 554.1
557(21) 0.002268 478.1 553.9
538(20) 0.002500 478.1 553.8
544(20) 0.002500 478.1 553.9
549(20) 0.002500 478.2 554.2
549(20) 0.002500 478.2 554.6
570(21) 0.002268 478.2 555.3
538(20) 0.002500 478.3 556.1
562(21) 0.002268 478.3 557.0
538(20) 0.002500 478.3 558.1
552(20) 0.002500 478.4 559.2
551(20) 0.002500 478.4 560.4
550(20) 0.002500 478.4 561.6
557(21) 0.002268 478.5 562.8
521(20) 0.002500 478.5 563.9
591(21) 0.002268 478.5 565.0
510(20) 0.002500 478.6 565.9
560(21) 0.002268 478.6 566.8
568(21) 0.002268 478.6 567.7
565(21) 0.002268 478.6 568.5
559(21) 0.002268 478.7 569.4
580(21) 0.002268 478.7 570.2
558(21) 0.002268 478.7 570.9
588(21) 0.002268 478.8 571.6
582(21) 0.002268 478.8 572.2
607(21) 0.002268 478.8 572.5
524(20) 0.002500 478.9 572.7
549(20) 0.002500 478.9 572.4
560(21) 0.002268 478.9 571.9
542(20) 0.002500 479.0 570.9
570(21) 0.002268 479.0 569.6
554(20) 0.002500 479.0 567.9
569(21) 0.002268 479.1 565.9
570(21) 0.002268 479.1 563.8
549(20) 0.002500 479.1 561.5
549(20) 0.002500 479.2 559.1
564(21) 0.002268 479.2 556.8
537(20) 0.002500 479.2 554.5
541(20) 0.002500 479.3 552.4
507(20) 0.002500 479.3 550.4
523(20) 0.002500 479.3 548.7
542(20) 0.002500 479.4 547.1
558(21) 0.002268 479.4 545.8
548(20) 0.002500 479.4 544.8
518(20) 0.002500 479.5 543.9
536(20) 0.002500 479.5 543.3
560(21) 0.002268 479.5 542.9
511(20) 0.002500 479.6 542.7
544(20) 0.002500 479.6 542.7
539(20) 0.002500 479.6 542.9
555(21) 0.002268 479.6 543.3
555(21) 0.002268 479.7 543.8
508(20) 0.002500 479.7 544.5
550(20) 0.002500 479.7 545.2
521(20) 0.002500 479.8 546.1
533(20) 0.002500 479.8 546.9
554(20) 0.002500 479.8 547.8
544(20) 0.002500 479.9 548.7
546(20) 0.002500 479.9 549.5
552(20) 0.002500 479.9 550.4
541(20) 0.002500 480.0 551.2
552(20) 0.002500 480.0 552.1
555(21) 0.002268 480.0 552.9
541(20) 0.002500 480.1 553.9
546(20) 0.002500 480.1 554.9
547(20) 0.002500 480.1 556.0
568(21) 0.002268 480.2 557.2
594(21) 0.002268 480.2 558.5
588(21) 0.002268 480.2 559.9
563(21) 0.002268 480.3 561.4
524(20) 0.002500 480.3 562.9
554(21) 0.002268 480.3 564.6
579(22) 0.002066 480.3 566.3
576(22) 0.002066 480.4 568.0
591(22) 0.002066 480.4 569.8
545(21) 0.002268 480.4 571.6
540(21) 0.002268 480.5 573.4
562(21) 0.002268 480.5 575.3
539(21) 0.002268 480.5 577.3
604(22) 0.002066 480.6 579.3
592(22) 0.002066 480.6 581.4
572(22) 0.002066 480.6 583.4
559(21) 0.002268 480.6 585.5
544(21) 0.002268 480.7 587.4
603(22) 0.002066 480.7 589.2
592(22) 0.002066 480.7 590.8
583(22) 0.002066 480.8 592.1
609(22) 0.002066 480.8 593.0
603(22) 0.002066 480.8 593.6
546(21) 0.002268 480.9 593.8
556(21) 0.002268 480.9 593.6
588(22) 0.002066 480.9 593.2
564(22) 0.002066 480.9 592.5
578(22) 0.002066 481.0 591.6
549(21) 0.002268 481.0 590.6
603(22) 0.002066 481.0 589.6
546(21) 0.002268 481.1 588.6
592(22) 0.002066 481.1 587.6
572(22) 0.002066 481.1 586.7
630(23) 0.001890 481.1 585.9
577(22) 0.002066 481.2 585.0
568(22) 0.002066 481.2 584.2
570(22) 0.002066 481.2 583.5
603(22) 0.002066 481.2 582.7
548(21) 0.002268 481.3 581.9
576(22) 0.002066 481.3 581.1
565(22) 0.002066 481.3 580.4
575(22) 0.002066 481.3 579.6
537(21) 0.002268 481.4 578.9
587(22) 0.002066 481.4 578.3
590(22) 0.002066 481.4 577.8
553(21) 0.002268 481.5 577.4
582(22) 0.002066 481.5 577.0
565(22) 0.002066 481.5 576.7
556(21) 0.002268 481.5 576.5
550(21) 0.002268 481.6 576.3
578(22) 0.002066 481.6 576.0
568(22) 0.002066 481.6 575.7
588(22) 0.002066 481.6 575.4
567(22) 0.002066 481.6 575.0
535(21) 0.002268 481.7 574.5
566(22) 0.002066 481.7 574.0
554(21) 0.002268 481.7 573.4
557(21) 0.002268 481.7 572.9
559(21) 0.002268 481.8 572.3
559(21) 0.002268 481.8 571.9
580(22) 0.002066 481.8 571.5
580(22) 0.002066 481.8 571.2
561(21) 0.002268 481.9 571.0
560(21) 0.002268 481.9 571.0
567(22) 0.002066 481.9 571.0
574(22) 0.002066 481.9 571.2
593(22) 0.002066 481.9 571.4
560(21) 0.002268 482.0 571.7
549(21) 0.002268 482.0 572.0
559(21) 0.002268 482.0 572.4
575(22) 0.002066 482.0 572.9
579(22) 0.002066 482.0 573.5
567(22) 0.002066 482.1 574.2
583(22) 0.002066 482.1 574.9
574(22) 0.002066 482.1 575.8
567(22) 0.002066 482.1 576.7
540(21) 0.002268 482.1 577.8
605(22) 0.002066 482.1 578.9
556(21) 0.002268 482.2 580.2
583(22) 0.002066 482.2 581.5
615(23) 0.001890 482.2 582.8
578(22) 0.002066 482.2 584.2
567(22) 0.002066 482.2 585.7
591(22) 0.002066 482.3 587.2
595(22) 0.002066 482.3 588.7
549(21) 0.002268 482.3 590.4
638(23) 0.001890 482.3 592.0
601(22) 0.002066 482.3 593.8
598(22) 0.002066 482.3 595.6
581(22) 0.002066 482.3 597.5
600(22) 0.002066 482.4 599.4
637(23) 0.001890 482.4 601.3
631(23) 0.001890 482.4 603.2
669(23) 0.001890 482.4 605.0
620(23) 0.001890 482.4 606.5
642(23) 0.001890 482.4 607.9
626(23) 0.001890 482.4 608.9
652(23) 0.001890 482.5 609.7
638(23) 0.001890 482.5 610.1
633(23) 0.001890 482.5 610.1
622(23) 0.001890 482.5 609.8
640(23) 0.001890 482.5 609.3
620(23) 0.001890 482.5 608.5
651(23) 0.001890 482.5 607.5
608(23) 0.001890 482.5 606.3
614(23) 0.001890 482.5 605.0
589(22) 0.002066 482.6 603.6
586(22) 0.002066 482.6 602.1
624(23) 0.001890 482.6 600.5
576(22) 0.002066 482.6 598.7
577(22) 0.002066 482.6 596.8
584(22) 0.002066 482.6 594.7
560(22) 0.002066 482.6 592.5
612(23) 0.001890 482.6 590.1
564(22) 0.002066 482.6 587.6
558(22) 0.002066 482.6 585.0
564(22) 0.002066 482.6 582.3
548(22) 0.002066 482.6 579.6
561(22) 0.002066 482.6 576.9
566(22) 0.002066 482.6 574.3
581(22) 0.002066 482.7 571.7
575(22) 0.002066 482.7 569.2
539(21) 0.002268 482.7 566.9
567(22) 0.002066 482.7 564.7
519(21) 0.002268 482.7 562.6
519(21) 0.002268 482.7 560.7
546(21) 0.002268 482.7 559.0
566(22) 0.002066 482.7 557.3
566(22) 0.002066 482.7 555.8
538(21) 0.002268 482.7 554.5
539(21) 0.002268 482.7 553.3
499(21) 0.002268 482.7 552.2
524(21) 0.002268 482.7 551.3
556(22) 0.002066 482.7 550.6
526(21) 0.002268 482.7 549.9
526(21) 0.002268 482.7 549.5
537(21) 0.002268 482.7 549.2
555(22) 0.002066 482.7 549.0
487(20) 0.002500 482.7 549.1
512(21) 0.002268 482.7 549.2
534(21) 0.002268 482.7 549.6
549(22) 0.002066 482.7 550.1
544(21) 0.002268 482.7 550.7
529(21) 0.002268 482.7 551.5
541(21) 0.002268 482.7 552.5
549(22) 0.002066 482.7 553.6
525(21) 0.002268 482.7 554.9
506(21) 0.002268 482.7 556.3
565(22) 0.002066 482.7 557.8
545(21) 0.002268 482.6 559.4
562(22) 0.002066 482.6 561.1
550(22) 0.002066 482.6 562.8
546(21) 0.002268 482.6 564.6
564(22) 0.002066 482.6 566.3
544(21) 0.002268 482.6 568.1
570(22) 0.002066 482.6 569.7
573(22) 0.002066 482.6 571.3
558(22) 0.002066 482.6 572.8
605(23) 0.001890 482.6 574.2
603(23) 0.001890 482.6 575.5
541(21) 0.002268 482.6 576.7
576(22) 0.002066 482.6 577.7
567(22) 0.002066 482.5 578.8
560(22) 0.002066 482.5 579.7
579(22) 0.002066 482.5 580.6
546(21) 0.002268 482.5 581.5
590(22) 0.002066 482.5 582.3
562(22) 0.002066 482.5 583.0
560(22) 0.002066 482.5 583.7
509(21) 0.002268 482.5 584.4
555(22) 0.002066 482.4 585.0
551(22) 0.002066 482.4 585.5
544(21) 0.002268 482.4 585.9
556(22) 0.002066 482.4 586.3
539(21) 0.002268 482.4 586.6
535(21) 0.002268 482.4 586.9
550(22) 0.002066 482.4 587.3
569(22) 0.002066 482.3 587.6
583(22) 0.002066 482.3 588.0
544(21) 0.002268 482.3 588.5
568(22) 0.002066 482.3 589.1
550(22) 0.002066 482.3 589.8
521(21) 0.002268 482.3 590.7
538(21) 0.002268 482.2 591.7
561(22) 0.002066 482.2 592.8
563(22) 0.002066 482.2 594.2
561(22) 0.002066 482.2 595.6
562(22) 0.002066 482.2 597.3
574(22) 0.002066 482.1 599.1
599(23) 0.001890 482.1 601.1
565(22) 0.002066 482.1 603.2
579(22) 0.002066 482.1 605.5
596(22) 0.002066 482.0 608.0
612(23) 0.001890 482.0 610.6
625(23) 0.001890 482.0 613.4
627(23) 0.001890 482.0 616.2
614(23) 0.001890 482.0 619.2
643(23) 0.001890 481.9 622.1
669(24) 0.001736 481.9 625.1
650(23) 0.001890 481.9 627.9
681(24) 0.001736 481.9 630.7
683(24) 0.001736 481.8 633.2
685(24) 0.001736 481.8 635.5
669(24) 0.001736 481.8 637.6
715(25) 0.001600 481.7 639.4
706(23) 0.001890 481.7 640.9
734(24) 0.001736 481.7 642.2
718(24) 0.001736 481.7 643.2
734(24) 0.001736 481.6 644.0
704(23) 0.001890 481.6 644.7
716(24) 0.001736 481.6 645.1
711(24) 0.001736 481.5 645.4
745(24) 0.001736 481.5 645.6
719(24) 0.001736 481.5 645.6
755(24) 0.001736 481.5 645.4
738(24) 0.001736 481.4 644.9
699(23) 0.001890 481.4 644.3
726(24) 0.001736 481.4 643.4
689(23) 0.001890 481.3 642.1
717(24) 0.001736 481.3 640.7
670(23) 0.001890 481.3 638.9
734(24) 0.001736 481.2 636.9
677(23) 0.001890 481.2 634.6
704(23) 0.001890 481.2 632.2
693(23) 0.001890 481.1 629.7
632(22) 0.002066 481.1 627.1
686(23) 0.001890 481.0 624.5
675(23) 0.001890 481.0 621.8
640(22) 0.002066 481.0 619.2
677(23) 0.001890 480.9 616.7
625(22) 0.002066 480.9 614.3
607(22) 0.002066 480.9 611.9
625(22) 0.002066 480.8 609.6
636(22) 0.002066 480.8 607.5
615(22) 0.002066 480.7 605.5
597(22) 0.002066 480.7 603.6
586(21) 0.002268 480.7 601.8
601(22) 0.002066 480.6 600.1
577(21) 0.002268 480.6 598.6
566(21) 0.002268 480.5 597.3
540(21) 0.002268 480.5 596.1
603(22) 0.002066 480.5 595.0
568(21) 0.002268 480.4 594.1
569(21) 0.002268 480.4 593.3
579(21) 0.002268 480.3 592.6
557(21) 0.002268 480.3 592.0
566(21) 0.002268 480.2 591.5
588(21) 0.002268 480.2 591.1
577(21) 0.002268 480.1 590.7
576(21) 0.002268 480.1 590.4
568(21) 0.002268 480.1 590.2
543(21) 0.002268 480.0 590.0
556(21) 0.002268 480.0 589.9
573(21) 0.002268 479.9 589.9
571(21) 0.002268 479.9 589.9
589(21) 0.002268 479.8 589.9
547(21) 0.002268 479.8 590.0
557(21) 0.002268 479.7 590.1
574(21) 0.002268 479.7 590.3
559(21) 0.002268 479.6 590.4
557(21) 0.002268 479.6 590.6
569(21) 0.002268 479.5 590.7
570(21) 0.002268 479.5 590.7
553(21) 0.002268 479.4 590.7
567(21) 0.002268 479.4 590.5
596(22) 0.002066 479.3 590.3
589(21) 0.002268 479.3 590.0
546(21) 0.002268 479.2 589.5
583(21) 0.002268 479.2 589.0
600(22) 0.002066 479.1 588.4
579(21) 0.002268 479.1 587.8
600(22) 0.002066 479.0 587.1
591(21) 0.002268 479.0 586.3
591(21) 0.002268 478.9 585.5
605(22) 0.002066 478.8 584.6
596(22) 0.002066 478.8 583.7
578(21) 0.002268 478.7 582.7
538(20) 0.002500 478.7 581.6
589(21) 0.002268 478.6 580.5
548(21) 0.002268 478.6 579.2
552(21) 0.002268 478.5 577.9
569(21) 0.002268 478.4 576.5
569(21) 0.002268 478.4 575.0
549(21) 0.002268 478.3 573.4
575(21) 0.002268 478.3 571.8
584(21) 0.002268 478.2 570.2
527(20) 0.002500 478.2 568.5
569(21) 0.002268 478.1 566.9
553(21) 0.002268 478.0 565.3
512(20) 0.002500 478.0 563.8
532(20) 0.002500 477.9 562.3
574(21) 0.002268 477.8 561.0
569(21) 0.002268 477.8 559.7
547(21) 0.002268 477.7 558.5
564(21) 0.002268 477.7 557.4
541(21) 0.002268 477.6 556.4
547(21) 0.002268 477.5 555.5
527(20) 0.002500 477.5 554.7
550(21) 0.002268 477.4 554.0
519(20) 0.002500 477.3 553.4
516(20) 0.002500 477.3 552.9
502(20) 0.002500 477.2 552.6
509(20) 0.002500 477.2 552.3
517(20) 0.002500 477.1 552.2
505(27) 0.001372 477.0 552.2
515(20) 0.002500 477.0 552.3
520(20) 0.002500 476.9 552.6
511(20) 0.002500 476.8 553.0
536(20) 0.002500 476.8 553.5
534(20) 0.002500 476.7 554.1
527(20) 0.002500 476.6 554.8
507(20) 0.002500 476.6 555.7
516(20) 0.002500 476.5 556.6
495(20) 0.002500 476.4 557.7
542(21) 0.002268 476.3 558.8
532(20) 0.002500 476.3 560.0
544(21) 0.002268 476.2 561.2
535(20) 0.002500 476.1 562.5
558(21) 0.002268 476.1 563.8
563(21) 0.002268 476.0 565.0
543(21) 0.002268 475.9 566.2
525(20) 0.002500 475.9 567.4
541(20) 0.002500 475.8 568.4
559(21) 0.002268 475.7 569.3
583(21) 0.002268 475.6 570.1
565(21) 0.002268 475.6 570.7
568(21) 0.002268 475.5 571.2
559(21) 0.002268 475.4 571.5
558(21) 0.002268 475.4 571.6
558(21) 0.002268 475.3 571.6
557(21) 0.002268 475.2 571.5
537(20) 0.002500 475.1 571.2
542(21) 0.002268 475.1 570.9
551(21) 0.002268 475.0 570.4
538(20) 0.002500 474.9 569.9
541(21) 0.002268 474.8 569.4
554(21) 0.002268 474.8 568.8
556(21) 0.002268 474.7 568.2
565(21) 0.002268 474.6 567.5
566(21) 0.002268 474.5 566.8
546(21) 0.002268 474.5 566.1
553(21) 0.002268 474.4 565.4
558(21) 0.002268 474.3 564.6
562(21) 0.002268 474.2 563.8
554(21) 0.002268 474.1 563.0
517(20) 0.002500 474.1 562.3
512(20) 0.002500 474.0 561.5
558(21) 0.002268 473.9 560.8
549(21) 0.002268 473.8 560.1
522(20) 0.002500 473.8 559.4
524(20) 0.002500 473.7 558.9
546(21) 0.002268 473.6 558.4
539(20) 0.002500 473.5 557.9
545(21) 0.002268 473.4 557.6
563(21) 0.002268 473.4 557.4
537(20) 0.002500 473.3 557.2
528(20) 0.002500 473.2 557.2
546(21) 0.002268 473.1 557.3
561(21) 0.002268 473.0 557.4
561(21) 0.002268 473.0 557.6
547(21) 0.002268 472.9 557.9
538(20) 0.002500 472.8 558.3
565(21) 0.002268 472.7 558.8
571(21) 0.002268 472.6 559.3
540(20) 0.002500 472.5 559.9
536(20) 0.002500 472.5 560.5
563(21) 0.002268 472.4 561.2
553(21) 0.002268 472.3 561.8
545(21) 0.002268 472.2 562.5
561(21) 0.002268 472.1 563.2
587(21) 0.002268 472.1 563.8
561(21) 0.002268 472.0 564.4
543(21) 0.002268 471.9 564.9
533(20) 0.002500 471.8 565.4
532(20) 0.002500 471.7 565.9
532(20) 0.002500 471.6 566.3
570(21) 0.002268 471.5 566.6
556(21) 0.002268 471.5 566.9
559(21) 0.002268 471.4 567.2
549(21) 0.002268 471.3 567.4
554(21) 0.002268 471.2 567.7
567(21) 0.002268 471.1 567.9
552(21) 0.002268 471.0 568.0
571(21) 0.002268 471.0 568.2
601(22) 0.002066 470.9 568.3
562(21) 0.002268 470.8 568.5
561(21) 0.002268 470.7 568.5
573(21) 0.002268 470.6 568.6
554(21) 0.002268 470.5 568.6
568(21) 0.002268 470.4 568.6
572(21) 0.002268 470.3 568.5
549(21) 0.002268 470.3 568.4
544(21) 0.002268 470.2 568.3
577(21) 0.002268 470.1 568.1
580(21) 0.002268 470.0 567.9
556(21) 0.002268 469.9 567.6
566(21) 0.002268 469.8 567.4
569(21) 0.002268 469.7 567.1
540(20) 0.002500 469.7 566.8
548(21) 0.002268 469.6 566.4
557(21) 0.002268 469.5 566.0
545(21) 0.002268 469.4 565.6
538(20) 0.002500 469.3 565.2
554(21) 0.002268 469.2 564.7
573(21) 0.002268 469.1 564.2
556(21) 0.002268 469.0 563.7
553(21) 0.002268 468.9 563.1
560(21) 0.002268 468.9 562.5
556(21) 0.002268 468.8 561.8
553(21) 0.002268 468.7 561.2
534(20) 0.002500 468.6 560.5
516(20) 0.002500 468.5 559.8
535(20) 0.002500 468.4 559.1
534(20) 0.002500 468.3 558.4
518(20) 0.002500 468.2 557.7
522(20) 0.002500 468.1 557.0
521(20) 0.002500 468.1 556.3
528(20) 0.002500 468.0 555.6
534(20) 0.002500 467.9 554.9
533(20) 0.002500 467.8 554.2
543(21) 0.002268 467.7 553.5
542(21) 0.002268 467.6 552.9
528(20) 0.002500 467.5 552.2
507(20) 0.002500 467.4 551.5
564(21) 0.002268 467.3 550.9
550(21) 0.002268 467.2 550.3
517(20) 0.002500 467.2 549.7
510(20) 0.002500 467.1 549.2
525(20) 0.002500 467.0 548.7
513(20) 0.002500 466.9 548.3
512(20) 0.002500 466.8 548.0
530(20) 0.002500 466.7 547.7
503(20) 0.002500 466.6 547.6
536(20) 0.002500 466.5 547.5
543(21) 0.002268 466.4 547.5
519(20) 0.002500 466.3 547.6
515(20) 0.002500 466.3 547.8
534(20) 0.002500 466.2 548.1
517(20) 0.002500 466.1 548.5
508(20) 0.002500 466.0 549.0
517(20) 0.002500 465.9 549.6
532(20) 0.002500 465.8 550.3
545(21) 0.002268 465.7 551.1
537(20) 0.002500 465.6 551.9
541(21) 0.002268 465.5 552.8
556(21) 0.002268 465.4 553.8
566(21) 0.002268 465.3 554.9
567(21) 0.002268 465.3 556.0
550(21) 0.002268 465.2 557.1
558(21) 0.002268 465.1 558.2
545(21) 0.002268 465.0 559.3
582(21) 0.002268 464.9 560.4
569(21) 0.002268 464.8 561.5
569(21) 0.002268 464.7 562.6
561(21) 0.002268 464.6 563.6
579(21) 0.002268 464.5 564.6
576(21) 0.002268 464.4 565.5
569(21) 0.002268 464.3 566.3
585(21) 0.002268 464.3 567.1
559(21) 0.002268 464.2 567.8
562(21) 0.002268 464.1 568.4
577(21) 0.002268 464.0 569.0
570(21) 0.002268 463.9 569.5
561(21) 0.002268 463.8 569.9
560(21) 0.002268 463.7 570.2
532(20) 0.002500 463.6 570.3
552(21) 0.002268 463.5 570.4
570(21) 0.002268 463.4 570.4
587(21) 0.002268 463.4 570.2
587(21) 0.002268 463.3 569.9
594(21) 0.002268 463.2 569.5
600(22) 0.002066 463.1 569.0
585(21) 0.002268 463.0 568.4
579(21) 0.002268 462.9 567.7
577(21) 0.002268 462.8 566.9
574(21) 0.002268 462.7 566.0
556(21) 0.002268 462.6 565.2
568(21) 0.002268 462.6 564.3
576(21) 0.002268 462.5 563.4
568(21) 0.002268 462.4 562.6
561(21) 0.002268 462.3 561.8
539(20) 0.002500 462.2 561.0
527(20) 0.002500 462.1 560.4
544(21) 0.002268 462.0 559.8
557(21) 0.002268 461.9 559.4
573(21) 0.002268 461.8 559.0
564(21) 0.002268 461.8 558.8
563(21) 0.002268 461.7 558.6
567(21) 0.002268 461.6 558.6
555(21) 0.002268 461.5 558.7
547(21) 0.002268 461.4 558.9
541(21) 0.002268 461.3 559.2
543(21) 0.002268 461.2 559.6
544(21) 0.002268 461.1 560.1
578(21) 0.002268 461.1 560.6
545(21) 0.002268 461.0 561.2
560(21) 0.002268 460.9 561.8
552(21) 0.002268 460.8 562.4
545(21) 0.002268 460.7 563.0
530(20) 0.002500 460.6 563.7
528(20) 0.002500 460.5 564.3
524(20) 0.002500 460.5 564.8
511(20) 0.002500 460.4 565.4
537(20) 0.002500 460.3 565.9
551(21) 0.002268 460.2 566.3
544(21) 0.002268 460.1 566.7
540(21) 0.002268 460.0 567.1
544(21) 0.002268 459.9 567.4
566(22) 0.002066 459.9 567.6
577(22) 0.002066 459.8 567.9
539(21) 0.002268 459.7 568.0
587(22) 0.002066 459.6 568.2
567(22) 0.002066 459.5 568.2
584(22) 0.002066 459.4 568.2
552(21) 0.002268 459.4 568.2
535(21) 0.002268 459.3 568.0
536(21) 0.002268 459.2 567.9
561(22) 0.002066 459.1 567.6
557(21) 0.002268 459.0 567.2
555(21) 0.002268 458.9 566.8
578(22) 0.002066 458.9 566.3
557(21) 0.002268 458.8 565.7
584(22) 0.002066 458.7 565.1
564(22) 0.002066 458.6 564.4
551(21) 0.002268 458.5 563.7
543(21) 0.002268 458.4 562.9
571(22) 0.002066 458.4 562.2
536(21) 0.002268 458.3 561.4
529(21) 0.002268 458.2 560.7
556(21) 0.002268 458.1 560.0
564(22) 0.002066 458.0 559.4
525(21) 0.002268 458.0 558.8
556(21) 0.002268 457.9 558.2
571(22) 0.002066 457.8 557.8
560(22) 0.002066 457.7 557.4
516(21) 0.002268 457.6 557.1
560(22) 0.002066 457.6 556.9
556(21) 0.002268 457.5 556.7
551(21) 0.002268 457.4 556.6
543(21) 0.002268 457.3 556.6
539(21) 0.002268 457.2 556.7
559(22) 0.002066 457.2 556.8
556(21) 0.002268 457.1 557.0
574(22) 0.002066 457.0 557.2
555(21) 0.002268 456.9 557.5
565(22) 0.002066 456.9 557.7
590(22) 0.002066 456.8 558.0
580(22) 0.002066 456.7 558.3
561(22) 0.002066 456.6 558.5
556(21) 0.002268 456.6 558.7
570(22) 0.002066 456.5 558.9
554(21) 0.002268 456.4 559.1
539(21) 0.002268 456.3 559.1
546(21) 0.002268 456.3 559.2
537(21) 0.002268 456.2 559.2
521(21) 0.002268 456.1 559.1
538(21) 0.002268 456.0 559.0
600(22) 0.002066 456.0 558.8
551(21) 0.002268 455.9 558.6
552(21) 0.002268 455.8 558.4
584(22) 0.002066 455.7 558.2
591(22) 0.002066 455.7 557.9
550(21) 0.002268 455.6 557.6
555(21) 0.002268 455.5 557.4
561(22) 0.002066 455.5 557.2
576(22) 0.002066 455.4 556.9
586(22) 0.002066 455.3 556.7
514(21) 0.002268 455.2 556.6
548(21) 0.002268 455.2 556.4
581(22) 0.002066 455.1 556.3
591(22) 0.002066 455.0 556.2
541(21) 0.002268 455.0 556.2
537(21) 0.002268 454.9 556.2
530(21) 0.002268 454.8 556.2
557(21) 0.002268 454.8 556.3
548(21) 0.002268 454.7 556.4
564(22) 0.002066 454.6 556.5
541(21) 0.002268 454.6 556.7
573(22) 0.002066 454.5 556.9
546(21) 0.002268 454.4 557.1
551(21) 0.002268 454.4 557.4
575(22) 0.002066 454.3 557.7
589(22) 0.002066 454.2 558.0
603(22) 0.002066 454.2 558.3
607(22) 0.002066 454.1 558.6
583(22) 0.002066 454.0 558.9
569(22) 0.002066 454.0 559.2
575(22) 0.002066 453.9 559.5
595(22) 0.002066 453.8 559.8
604(22) 0.002066 453.8 560.0
579(22) 0.002066 453.7 560.3
551(21) 0.002268 453.6 560.5
570(22) 0.002066 453.6 560.6
558(22) 0.002066 453.5 560.8
540(21) 0.002268 453.5 560.9
541(21) 0.002268 453.4 561.0
569(22) 0.002066 453.3 561.0
525(21) 0.002268 453.3 561.0
560(22) 0.002066 453.2 560.9
591(22) 0.002066 453.2 560.7
561(22) 0.002066 453.1 560.5
578(22) 0.002066 453.0 560.3
552(21) 0.002268 453.0 559.9
555(21) 0.002268 452.9 559.5
574(18) 0.003086 452.9 559.0
569(22) 0.002066 452.8 558.4
549(22) 0.002066 452.7 557.8
577(22) 0.002066 452.7 557.0
589(23) 0.001890 452.6 556.2
578(22) 0.002066 452.6 555.4
560(22) 0.002066 452.5 554.4
564(22) 0.002066 452.5 553.5
560(22) 0.002066 452.4 552.5
544(22) 0.002066 452.4 551.4
555(22) 0.002066 452.3 550.3
526(21) 0.002268 452.2 549.2
576(22) 0.002066 452.2 548.1
540(22) 0.002066 452.1 546.9
531(22) 0.002066 452.1 545.8
539(22) 0.002066 452.0 544.6
549(22) 0.002066 452.0 543.4
551(22) 0.002066 451.9 542.2
527(21) 0.002268 451.9 541.0
545(22) 0.002066 451.8 539.8
550(22) 0.002066 451.8 538.7
547(22) 0.002066 451.7 537.5
508(21) 0.002268 451.7 536.3
568(22) 0.002066 451.6 535.2
556(22) 0.002066 451.6 534.0
525(21) 0.002268 451.5 532.9
534(22) 0.002066 451.5 531.8
512(21) 0.002268 451.4 530.7
531(22) 0.002066 451.4 529.7
542(22) 0.002066 451.3 528.6
571(22) 0.002066 451.3 527.7
515(21) 0.002268 451.2 526.7
531(22) 0.002066 451.2 525.8
536(22) 0.002066 451.1 524.9
530(22) 0.002066 451.1 524.0
540(22) 0.002066 451.1 523.2
550(22) 0.002066 451.0 522.4
539(22) 0.002066 451.0 521.6
554(22) 0.002066 450.9 520.9
538(22) 0.002066 450.9 520.2
503(21) 0.002268 450.8 519.5
498(21) 0.002268 450.8 518.9
538(22) 0.002066 450.8 518.3
527(21) 0.002268 450.7 517.7
558(22) 0.002066 450.7 517.2
533(22) 0.002066 450.6 516.6
539(22) 0.002066 450.6 516.1
511(21) 0.002268 450.5 515.7
534(22) 0.002066 450.5 515.2
521(21) 0.002268 450.5 514.8
538(22) 0.002066 450.4 514.4
513(21) 0.002268 450.4 514.0
473(20) 0.002500 450.3 513.7
471(20) 0.002500 450.3 513.3
498(21) 0.002268 450.3 513.0
502(21) 0.002268 450.2 512.7
488(21) 0.002268 450.2 512.4
542(22) 0.002066 450.2 512.2
473(20) 0.002500 450.1 511.9
497(21) 0.002268 450.1 511.7
506(21) 0.002268 450.0 511.5
541(22) 0.002066 450.0 511.3
512(21) 0.002268 450.0 511.2
495(21) 0.002268 449.9 511.1
517(21) 0.002268 449.9 511.0
534(22) 0.002066 449.9 511.0
467(20) 0.002500 449.8 510.9
476(20) 0.002500 449.8 511.0
493(21) 0.002268 449.8 511.0
485(21) 0.002268 449.7 511.1
513(21) 0.002268 449.7 511.2
497(21) 0.002268 449.7 511.3
516(21) 0.002268 449.7 511.5
527(21) 0.002268 449.6 511.7
505(21) 0.002268 449.6 512.0
491(21) 0.002268 449.6 512.2
496(21) 0.002268 449.5 512.6
490(21) 0.002268 449.5 512.9
481(21) 0.002268 449.5 513.3
498(21) 0.002268 449.4 513.7
495(21) 0.002268 449.4 514.1
517(21) 0.002268 449.4 514.6
489(21) 0.002268 449.4 515.1
514(21) 0.002268 449.3 515.6
526(21) 0.002268 449.3 516.1
519(21) 0.002268 449.3 516.7
526(21) 0.002268 449.3 517.3
496(21) 0.002268 449.2 517.9
538(22) 0.002066 449.2 518.5
541(22) 0.002066 449.2 519.2
507(21) 0.002268 449.2 519.8
521(21) 0.002268 449.1 520.5
501(21) 0.002268 449.1 521.2
515(21) 0.002268 449.1 521.9
502(21) 0.002268 449.1 522.6
522(21) 0.002268 449.0 523.4
501(21) 0.002268 449.0 524.1
510(21) 0.002268 449.0 524.9
457(20) 0.002500 449.0 525.7
509(21) 0.002268 449.0 526.6
480(20) 0.002500 448.9 527.4
523(21) 0.002268 448.9 528.3
517(21) 0.002268 448.9 529.3
519(21) 0.002268 448.9 530.2
533(21) 0.002268 448.9 531.2
511(20) 0.002500 448.8 532.3
514(21) 0.002268 448.8 533.3
536(21) 0.002268 448.8 534.4
556(21) 0.002268 448.8 535.6
508(20) 0.002500 448.8 536.7
526(21) 0.002268 448.7 537.9
518(21) 0.002268 448.7 539.1
544(21) 0.002268 448.7 540.3
576(22) 0.002066 448.7 541.5
530(21) 0.002268 448.7 542.8
520(21) 0.002268 448.7 544.0
552(21) 0.002268 448.6 545.2
494(20) 0.002500 448.6 546.3
544(21) 0.002268 448.6 547.5
520(21) 0.002268 448.6 548.5
493(20) 0.002500 448.6 549.6
554(21) 0.002268 448.6 550.5
532(21) 0.002268 448.6 551.4
527(21) 0.002268 448.5 552.2
554(21) 0.002268 448.5 552.9
538(21) 0.002268 448.5 553.5
529(21) 0.002268 448.5 554.0
529(21) 0.002268 448.5 554.3
555(21) 0.002268 448.5 554.6
532(21) 0.002268 448.5 554.8
548(21) 0.002268 448.5 554.9
541(21) 0.002268 448.5 554.8
591(22) 0.002066 448.4 554.7
529(21) 0.002268 448.4 554.5
551(21) 0.002268 448.4 554.2
537(21) 0.002268 448.4 553.8
554(21) 0.002268 448.4 553.3
555(21) 0.002268 448.4 552.8
516(21) 0.002268 448.4 552.3
517(21) 0.002268 448.4 551.7
519(21) 0.002268 448.4 551.1
581(22) 0.002066 448.4 550.4
523(21) 0.002268 448.4 549.7
563(21) 0.002268 448.4 549.0
545(21) 0.002268 448.3 548.3
515(21) 0.002268 448.3 547.6
585(22) 0.002066 448.3 546.8
517(21) 0.002268 448.3 546.1
516(21) 0.002268 448.3 545.3
536(21) 0.002268 448.3 544.6
536(21) 0.002268 448.3 543.9
546(21) 0.002268 448.3 543.2
527(21) 0.002268 448.3 542.5
527(21) 0.002268 448.3 541.8
538(21) 0.002268 448.3 541.1
512(21) 0.002268 448.3 540.4
529(21) 0.002268 448.3 539.8
541(21) 0.002268 448.3 539.2
535(21) 0.002268 448.3 538.5
566(22) 0.002066 448.3 537.9
549(21) 0.002268 448.3 537.4
517(21) 0.002268 448.3 536.8
532(21) 0.002268 448.3 536.2
528(21) 0.002268 448.3 535.7
535(21) 0.002268 448.3 535.2
520(21) 0.002268 448.3 534.7
542(21) 0.002268 448.3 534.2
510(20) 0.002500 448.3 533.7
519(21) 0.002268 448.3 533.2
552(21) 0.002268 448.3 532.7
514(21) 0.002268 448.3 532.3
520(21) 0.002268 448.3 531.9
515(21) 0.002268 448.3 531.4
510(20) 0.002500 448.3 531.0
536(21) 0.002268 448.3 530.7
519(21) 0.002268 448.3 530.3
499(20) 0.002500 448.3 530.0
516(21) 0.002268 448.3 529.7
499(20) 0.002500 448.3 529.4
516(21) 0.002268 448.3 529.2
505(20) 0.002500 448.3 529.0
497(20) 0.002500 448.3 528.8
521(21) 0.002268 448.3 528.7
528(21) 0.002268 448.3 528.6
563(21) 0.002268 448.3 528.6
558(21) 0.002268 448.3 528.6
547(21) 0.002268 448.3 528.6
516(21) 0.002268 448.3 528.7
516(21) 0.002268 448.3 528.9
495(20) 0.002500 448.3 529.0
527(21) 0.002268 448.3 529.3
543(21) 0.002268 448.3 529.5
526(21) 0.002268 448.3 529.8
512(21) 0.002268 448.3 530.2
537(21) 0.002268 448.3 530.6
508(20) 0.002500 448.3 531.0
518(21) 0.002268 448.4 531.5
535(21) 0.002268 448.4 532.0
528(21) 0.002268 448.4 532.5
522(21) 0.002268 448.4 533.1
516(29) 0.001189 448.4 533.7
531(20) 0.002500 448.4 534.4
520(20) 0.002500 448.4 535.1
534(20) 0.002500 448.4 535.8
537(21) 0.002268 448.4 536.5
544(21) 0.002268 448.4 537.2
555(21) 0.002268 448.4 538.0
555(21) 0.002268 448.4 538.7
512(20) 0.002500 448.4 539.5
516(20) 0.002500 448.4 540.3
539(21) 0.002268 448.4 541.1
556(21) 0.002268 448.4 541.8
526(20) 0.002500 448.5 542.6
525(20) 0.002500 448.5 543.4
541(21) 0.002268 448.5 544.1
548(21) 0.002268 448.5 544.9
549(21) 0.002268 448.5 545.6
541(21) 0.002268 448.5 546.3
557(21) 0.002268 448.5 546.9
523(20) 0.002500 448.5 547.6
520(20) 0.002500 448.5 548.1
545(21) 0.002268 448.5 548.7
581(21) 0.002268 448.5 549.2
559(21) 0.002268 448.5 549.6
583(21) 0.002268 448.6 550.0
569(21) 0.002268 448.6 550.4
554(21) 0.002268 448.6 550.7
545(21) 0.002268 448.6 551.0
536(20) 0.002500 448.6 551.2
519(20) 0.002500 448.6 551.3
552(21) 0.002268 448.6 551.5
580(21) 0.002268 448.6 551.5
603(22) 0.002066 448.6 551.6
587(21) 0.002268 448.6 551.6
547(21) 0.002268 448.7 551.6
579(21) 0.002268 448.7 551.5
544(21) 0.002268 448.7 551.5
560(21) 0.002268 448.7 551.4
565(21) 0.002268 448.7 551.3
580(21) 0.002268 448.7 551.2
596(22) 0.002066 448.7 551.1
574(21) 0.002268 448.7 551.0
580(21) 0.002268 448.7 550.9
559(21) 0.002268 448.7 550.8
536(20) 0.002500 448.8 550.6
562(21) 0.002268 448.8 550.5
527(20) 0.002500 448.8 550.4
550(21) 0.002268 448.8 550.3
553(21) 0.002268 448.8 550.3
588(21) 0.002268 448.8 550.2
587(21) 0.002268 448.8 550.1
579(21) 0.002268 448.8 550.1
553(21) 0.002268 448.8 550.1
538(21) 0.002268 448.8 550.1
547(21) 0.002268 448.9 550.1
531(20) 0.002500 448.9 550.1
551(21) 0.002268 448.9 550.1
527(20) 0.002500 448.9 550.2
560(21) 0.002268 448.9 550.2
562(21) 0.002268 448.9 550.3
584(21) 0.002268 448.9 550.4
577(21) 0.002268 448.9 550.5
530(20) 0.002500 448.9 550.6
561(21) 0.002268 449.0 550.7
565(21) 0.002268 449.0 550.8
545(21) 0.002268 449.0 551.0
576(21) 0.002268 449.0 551.1
541(21) 0.002268 449.0 551.3
558(21) 0.002268 449.0 551.4
556(21) 0.002268 449.0 551.6
562(21) 0.002268 449.0 551.8
550(21) 0.002268 449.0 552.0
536(20) 0.002500 449.1 552.2
543(21) 0.002268 449.1 552.4
570(21) 0.002268 449.1 552.7
560(21) 0.002268 449.1 552.9
590(21) 0.002268 449.1 553.2
592(22) 0.002066 449.1 553.5
558(21) 0.002268 449.1 553.8
580(21) 0.002268 449.1 554.1
564(21) 0.002268 449.1 554.4
551(21) 0.002268 449.2 554.8
575(21) 0.002268 449.2 555.2
568(21) 0.002268 449.2 555.5
581(21) 0.002268 449.2 555.9
583(21) 0.002268 449.2 556.4
566(21) 0.002268 449.2 556.8
601(22) 0.002066 449.2 557.2
584(21) 0.002268 449.2 557.7
580(21) 0.002268 449.2 558.1
575(21) 0.002268 449.3 558.6
560(21) 0.002268 449.3 559.0
571(21) 0.002268 449.3 559.5
610(22) 0.002066 449.3 559.9
572(21) 0.002268 449.3 560.4
554(21) 0.002268 449.3 560.8
558(21) 0.002268 449.3 561.2
570(21) 0.002268 449.3 561.6
572(21) 0.002268 449.3 561.9
561(21) 0.002268 449.3 562.3
568(17) 0.003460 449.4 562.6
556(21) 0.002268 449.4 562.9
564(21) 0.002268 449.4 563.1
598(22) 0.002066 449.4 563.3
599(22) 0.002066 449.4 563.4
603(22) 0.002066 449.4 563.5
570(21) 0.002268 449.4 563.6
570(21) 0.002268 449.4 563.6
587(21) 0.002268 449.4 563.6
573(21) 0.002268 449.5 563.5
592(21) 0.002268 449.5 563.4
565(21) 0.002268 449.5 563.2
523(20) 0.002500 449.5 563.0
551(21) 0.002268 449.5 562.7
576(21) 0.002268 449.5 562.4
582(21) 0.002268 449.5 562.1
585(21) 0.002268 449.5 561.7
566(21) 0.002268 449.5 561.3
564(21) 0.002268 449.5 560.9
550(21) 0.002268 449.6 560.5
568(21) 0.002268 449.6 560.0
580(21) 0.002268 449.6 559.6
561(21) 0.002268 449.6 559.1
558(21) 0.002268 449.6 558.7
557(21) 0.002268 449.6 558.2
562(21) 0.002268 449.6 557.8
541(20) 0.002500 449.6 557.4
552(21) 0.002268 449.6 557.0
556(21) 0.002268 449.6 556.6
560(21) 0.002268 449.7 556.2
552(21) 0.002268 449.7 555.8
553(21) 0.002268 449.7 555.5
590(21) 0.002268 449.7 555.2
567(21) 0.002268 449.7 555.0
565(21) 0.002268 449.7 554.7
544(21) 0.002268 449.7 554.5
551(21) 0.002268 449.7 554.3
567(21) 0.002268 449.7 554.1
555(21) 0.002268 449.7 554.0
545(21) 0.002268 449.7 553.9
531(20) 0.002500 449.8 553.8
551(21) 0.002268 449.8 553.7
522(20) 0.002500 449.8 553.7
552(21) 0.002268 449.8 553.7
572(21) 0.002268 449.8 553.7
548(21) 0.002268 449.8 553.7
527(20) 0.002500 449.8 553.7
528(20) 0.002500 449.8 553.7
524(20) 0.002500 449.8 553.8
557(21) 0.002268 449.8 553.8
543(21) 0.002268 449.9 553.9
560(21) 0.002268 449.9 553.9
560(21) 0.002268 449.9 554.0
558(21) 0.002268 449.9 554.0
548(21) 0.002268 449.9 554.1
560(21) 0.002268 449.9 554.1
562(21) 0.002268 449.9 554.1
577(21) 0.002268 449.9 554.2
569(21) 0.002268 449.9 554.2
571(21) 0.002268 449.9 554.2
568(21) 0.002268 450.0 554.2
563(21) 0.002268 450.0 554.1
557(21) 0.002268 450.0 554.1
555(21) 0.002268 450.0 554.0
549(21) 0.002268 450.0 553.9
524(20) 0.002500 450.0 553.8
540(20) 0.002500 450.0 553.7
549(21) 0.002268 450.0 553.5
568(21) 0.002268 450.0 553.4
569(21) 0.002268 450.1 553.2
586(21) 0.002268 450.1 552.9
587(21) 0.002268 450.1 552.6
552(21) 0.002268 450.1 552.4
565(21) 0.002268 450.1 552.0
539(20) 0.002500 450.1 551.7
512(20) 0.002500 450.1 551.3
544(21) 0.002268 450.1 550.9
570(21) 0.002268 450.2 550.4
569(21) 0.002268 450.2 549.9
546(21) 0.002268 450.2 549.4
539(20) 0.002500 450.2 548.9
561(21) 0.002268 450.2 548.3
558(21) 0.002268 450.2 547.8
575(21) 0.002268 450.2 547.1
547(21) 0.002268 450.2 546.5
540(20) 0.002500 450.3 545.9
552(21) 0.002268 450.3 545.2
556(21) 0.002268 450.3 544.6
539(20) 0.002500 450.3 543.9
578(21) 0.002268 450.3 543.2
536(20) 0.002500 450.3 542.5
516(20) 0.002500 450.3 541.8
543(21) 0.002268 450.4 541.1
547(21) 0.002268 450.4 540.4
537(20) 0.002500 450.4 539.7
540(20) 0.002500 450.4 539.0
521(20) 0.002500 450.4 538.3
536(20) 0.002500 450.4 537.6
535(20) 0.002500 450.5 537.0
538(20) 0.002500 450.5 536.3
534(20) 0.002500 450.5 535.6
535(21) 0.002268 450.5 535.0
527(21) 0.002268 450.5 534.4
514(20) 0.002500 450.6 533.8
495(20) 0.002500 450.6 533.2
510(20) 0.002500 450.6 532.6
526(21) 0.002268 450.6 532.0
515(20) 0.002500 450.6 531.5
501(20) 0.002500 450.7 531.0
511(20) 0.002500 450.7 530.5
517(20) 0.002500 450.7 530.0
516(20) 0.002500 450.7 529.5
510(20) 0.002500 450.7 529.1
516(20) 0.002500 450.8 528.6
518(20) 0.002500 450.8 528.2
521(20) 0.002500 450.8 527.9
500(20) 0.002500 450.8 527.5
504(20) 0.002500 450.9 527.2
467(19) 0.002770 450.9 526.9
505(20) 0.002500 450.9 526.6
505(20) 0.002500 450.9 526.3
501(20) 0.002500 451.0 526.1
512(20) 0.002500 451.0 525.9
508(20) 0.002500 451.0 525.7
497(20) 0.002500 451.1 525.5
509(20) 0.002500 451.1 525.3
531(21) 0.002268 451.1 525.2
512(20) 0.002500 451.1 525.1
517(20) 0.002500 451.2 525.0
509(20) 0.002500 451.2 524.9
549(21) 0.002268 451.2 524.9
504(20) 0.002500 451.3 524.8
507(20) 0.002500 451.3 524.8
498(20) 0.002500 451.4 524.8
482(20) 0.002500 451.4 524.8
512(20) 0.002500 451.4 524.9
519(20) 0.002500 451.5 524.9
505(20) 0.002500 451.5 525.0
510(20) 0.002500 451.5 525.1
520(20) 0.002500 451.6 525.2
496(20) 0.002500 451.6 525.3
467(19) 0.002770 451.7 525.4
500(20) 0.002500 451.7 525.5
502(20) 0.002500 451.7 525.7
521(20) 0.002500 451.8 525.8
503(20) 0.002500 451.8 526.0
523(21) 0.002268 451.9 526.2
518(20) 0.002500 451.9 526.3
558(21) 0.002268 452.0 526.5
507(20) 0.002500 452.0 526.7
487(20) 0.002500 452.1 527.0
518(20) 0.002500 452.1 527.2
520(20) 0.002500 452.2 527.4
494(20) 0.002500 452.2 527.6
499(20) 0.002500 452.3 527.9
524(21) 0.002268 452.3 528.1
502(20) 0.002500 452.4 528.4
498(20) 0.002500 452.5 528.7
490(20) 0.002500 452.5 528.9
497(20) 0.002500 452.6 529.2
476(20) 0.002500 452.6 529.5
498(20) 0.002500 452.7 529.8
509(20) 0.002500 452.8 530.1
503(20) 0.002500 452.8 530.4
507(20) 0.002500 452.9 530.8
536(21) 0.002268 453.0 531.1
492(20) 0.002500 453.0 531.4
475(20) 0.002500 453.1 531.8
487(20) 0.002500 453.2 532.1
515(20) 0.002500 453.2 532.5
511(20) 0.002500 453.3 532.8
543(21) 0.002268 453.4 533.2
513(20) 0.002500 453.5 533.6
522(21) 0.002268 453.6 533.9
528(21) 0.002268 453.6 534.3
524(21) 0.002268 453.7 534.7
529(21) 0.002268 453.8 535.0
506(20) 0.002500 453.9 535.4
516(20) 0.002500 454.0 535.8
522(21) 0.002268 454.1 536.2
538(21) 0.002268 454.2 536.5
551(21) 0.002268 454.2 536.9
500(20) 0.002500 454.3 537.3
539(21) 0.002268 454.4 537.6
551(21) 0.002268 454.5 538.0
513(20) 0.002500 454.6 538.3
506(20) 0.002500 454.7 538.7
514(20) 0.002500 454.8 539.0
528(21) 0.002268 454.9 539.3
537(21) 0.002268 455.0 539.6
536(21) 0.002268 455.1 539.9
537(21) 0.002268 455.3 540.1
552(21) 0.002268 455.4 540.4
569(21) 0.002268 455.5 540.6
565(21) 0.002268 455.6 540.8
520(20) 0.002500 455.7 541.0
519(20) 0.002500 455.8 541.2
534(21) 0.002268 456.0 541.3
544(21) 0.002268 456.1 541.5
515(20) 0.002500 456.2 541.6
523(21) 0.002268 456.3 541.7
525(21) 0.002268 456.5 541.7
532(21) 0.002268 456.6 541.8
542(21) 0.002268 456.7 541.8
537(21) 0.002268 456.9 541.8
529(21) 0.002268 457.0 541.8
523(21) 0.002268 457.2 541.7
525(21) 0.002268 457.3 541.7
528(21) 0.002268 457.5 541.6
521(21) 0.002268 457.6 541.5
515(21) 0.002268 457.8 541.4
538(21) 0.002268 457.9 541.3
556(21) 0.002268 458.1 541.1
546(21) 0.002268 458.2 541.0
528(21) 0.002268 458.4 540.8
518(21) 0.002268 458.6 540.7
533(21) 0.002268 458.7 540.5
555(21) 0.002268 458.9 540.4
529(21) 0.002268 459.1 540.2
528(21) 0.002268 459.3 540.0
540(21) 0.002268 459.4 539.9
545(21) 0.002268 459.6 539.7
518(21) 0.002268 459.8 539.6
543(21) 0.002268 460.0 539.4
553(21) 0.002268 460.2 539.3
558(21) 0.002268 460.4 539.1
537(21) 0.002268 460.6 539.0
535(21) 0.002268 460.8 538.9
531(21) 0.002268 461.0 538.8
543(21) 0.002268 461.2 538.7
529(21) 0.002268 461.4 538.6
533(21) 0.002268 461.6 538.6
534(21) 0.002268 461.8 538.5
526(21) 0.002268 462.1 538.5
525(21) 0.002268 462.3 538.5
530(21) 0.002268 462.5 538.5
520(21) 0.002268 462.7 538.6
546(21) 0.002268 463.0 538.6
539(21) 0.002268 463.2 538.7
530(21) 0.002268 463.5 538.8
521(21) 0.002268 463.7 538.9
541(21) 0.002268 464.0 539.0
545(21) 0.002268 464.2 539.2
542(21) 0.002268 464.5 539.3
540(21) 0.002268 464.7 539.5
536(21) 0.002268 465.0 539.8
549(21) 0.002268 465.3 540.0
546(21) 0.002268 465.5 540.3
520(21) 0.002268 465.8 540.6
528(21) 0.002268 466.1 540.9
526(21) 0.002268 466.4 541.2
532(21) 0.002268 466.7 541.6
529(21) 0.002268 467.0 541.9
529(21) 0.002268 467.3 542.3
556(21) 0.002268 467.6 542.8
552(21) 0.002268 467.9 543.2
519(21) 0.002268 468.2 543.7
543(21) 0.002268 468.5 544.1
568(22) 0.002066 468.8 544.6
527(21) 0.002268 469.2 545.2
550(21) 0.002268 469.5 545.7
563(22) 0.002066 469.8 546.3
573(22) 0.002066 470.2 546.8
555(21) 0.002268 470.5 547.4
531(21) 0.002268 470.9 548.0
533(21) 0.002268 471.2 548.6
560(21) 0.002268 471.6 549.2
548(21) 0.002268 471.9 549.9
541(21) 0.002268 472.3 550.5
564(22) 0.002066 472.7 551.2
582(22) 0.002066 473.1 551.9
543(21) 0.002268 473.5 552.5
544(21) 0.002268 473.9 553.2
517(21) 0.002268 474.2 553.9
530(21) 0.002268 474.7 554.6
562(21) 0.002268 475.1 555.3
546(21) 0.002268 475.5 556.0
538(21) 0.002268 475.9 556.7
553(21) 0.002268 476.3 557.4
543(21) 0.002268 476.7 558.0
521(21) 0.002268 477.2 558.7
543(21) 0.002268 477.6 559.4
563(21) 0.002268 478.1 560.1
561(21) 0.002268 478.5 560.8
581(22) 0.002066 479.0 561.5
563(22) 0.002066 479.4 562.1
553(21) 0.002268 479.9 562.8
555(21) 0.002268 480.4 563.5
582(22) 0.002066 480.9 564.1
555(21) 0.002268 481.4 564.8
564(22) 0.002066 481.9 565.4
563(21) 0.002268 482.4 566.1
564(22) 0.002066 482.9 566.7
559(21) 0.002268 483.4 567.3
564(22) 0.002066 483.9 568.0
584(22) 0.002066 484.5 568.6
582(22) 0.002066 485.0 569.2
574(22) 0.002066 485.5 569.8
553(21) 0.002268 486.1 570.4
567(22) 0.002066 486.6 571.0
581(18) 0.003086 487.2 571.6
583(22) 0.002066 487.8 572.2
588(22) 0.002066 488.4 572.8
586(22) 0.002066 488.9 573.4
557(21) 0.002268 489.5 574.0
571(22) 0.002066 490.1 574.6
585(22) 0.002066 490.7 575.2
569(22) 0.002066 491.4 575.8
549(21) 0.002268 492.0 576.4
567(22) 0.002066 492.6 577.0
587(22) 0.002066 493.3 577.6
584(22) 0.002066 493.9 578.2
585(22) 0.002066 494.6 578.8
566(22) 0.002066 495.2 579.5
569(22) 0.002066 495.9 580.1
605(22) 0.002066 496.6 580.7
613(22) 0.002066 497.3 581.3
588(22) 0.002066 498.0 582.0
590(22) 0.002066 498.7 582.6
568(22) 0.002066 499.4 583.3
558(22) 0.002066 500.1 584.0
576(22) 0.002066 500.8 584.6
580(22) 0.002066 501.6 585.3
575(22) 0.002066 502.3 586.0
569(22) 0.002066 503.1 586.7
599(22) 0.002066 503.8 587.4
617(23) 0.001890 504.6 588.2
613(22) 0.002066 505.4 588.9
606(22) 0.002066 506.2 589.7
590(22) 0.002066 507.0 590.4
609(22) 0.002066 507.8 591.2
606(22) 0.002066 508.6 592.0
607(22) 0.002066 509.5 592.8
597(22) 0.002066 510.3 593.7
602(22) 0.002066 511.2 594.5
630(23) 0.001890 512.0 595.4
619(23) 0.001890 512.9 596.2
601(22) 0.002066 513.8 597.1
622(23) 0.001890 514.7 598.0
629(23) 0.001890 515.6 599.0
630(23) 0.001890 516.5 599.9
614(23) 0.001890 517.4 600.9
581(22) 0.002066 518.3 601.9
591(22) 0.002066 519.3 602.9
601(22) 0.002066 520.2 603.9
593(22) 0.002066 521.2 604.9
607(22) 0.002066 522.2 606.0
619(23) 0.001890 523.2 607.1
607(22) 0.002066 524.1 608.2
612(22) 0.002066 525.2 609.3
641(23) 0.001890 526.2 610.4
635(23) 0.001890 527.2 611.6
623(23) 0.001890 528.2 612.8
598(22) 0.002066 529.3 614.0
573(22) 0.002066 530.4 615.2
582(22) 0.002066 531.4 616.5
620(23) 0.001890 532.5 617.7
629(23) 0.001890 533.6 619.0
620(23) 0.001890 534.7 620.3
612(22) 0.002066 535.9 621.7
601(22) 0.002066 537.0 623.0
598(22) 0.002066 538.2 624.4
636(23) 0.001890 539.3 625.8
633(23) 0.001890 540.5 627.2
605(22) 0.002066 541.7 628.7
604(22) 0.002066 542.9 630.2
610(22) 0.002066 544.1 631.6
615(23) 0.001890 545.3 633.2
606(22) 0.002066 546.6 634.7
627(23) 0.001890 547.8 636.2
627(23) 0.001890 549.1 637.8
622(23) 0.001890 550.4 639.4
639(23) 0.001890 551.6 641.0
666(23) 0.001890 552.9 642.7
661(23) 0.001890 554.3 644.4
642(23) 0.001890 555.6 646.0
660(23) 0.001890 556.9 647.7
644(23) 0.001890 558.3 649.5
620(23) 0.001890 559.7 651.2
647(23) 0.001890 561.1 653.0
659(23) 0.001890 562.5 654.8
652(23) 0.001890 563.9 656.6
628(23) 0.001890 565.3 658.4
624(23) 0.001890 566.8 660.3
636(23) 0.001890 568.2 662.1
634(23) 0.001890 569.7 664.0
646(23) 0.001890 571.2 665.9
648(23) 0.001890 572.7 667.8
649(23) 0.001890 574.2 669.8
646(23) 0.001890 575.8 671.7
653(23) 0.001890 577.3 673.7
675(24) 0.001736 578.9 675.7
675(24) 0.001736 580.5 677.7
667(23) 0.001890 582.1 679.7
690(24) 0.001736 583.7 681.8
697(24) 0.001736 585.3 683.8
653(23) 0.001890 587.0 685.9
672(23) 0.001890 588.7 687.9
700(24) 0.001736 590.3 690.0
686(24) 0.001736 592.0 692.1
689(24) 0.001736 593.8 694.3
695(24) 0.001736 595.5 696.4
702(24) 0.001736 597.2 698.5
686(24) 0.001736 599.0 700.7
688(24) 0.001736 600.8 702.8
657(24) 0.001736 602.6 705.0
708(24) 0.001736 604.4 707.2
709(25) 0.001600 606.3 709.4
697(24) 0.001736 608.1 711.6
716(25) 0.001600 610.0 713.8
688(24) 0.001736 611.9 716.0
682(24) 0.001736 613.8 718.2
727(25) 0.001600 615.7 720.5
711(25) 0.001600 617.7 722.7
743(25) 0.001600 619.6 725.0
726(25) 0.001600 621.6 727.2
712(25) 0.001600 623.6 729.5
688(24) 0.001736 625.7 731.7
672(24) 0.001736 627.7 734.0
699(24) 0.001736 629.8 736.3
710(25) 0.001600 631.8 738.6
723(25) 0.001600 633.9 740.9
732(25) 0.001600 636.1 743.2
713(25) 0.001600 638.2 745.5
733(25) 0.001600 640.4 747.8
728(25) 0.001600 642.6 750.1
721(25) 0.001600 644.8 752.4
735(25) 0.001600 647.0 754.7
745(25) 0.001600 649.2 757.1
702(24) 0.001736 651.5 759.4
706(24) 0.001736 653.8 761.8
719(25) 0.001600 656.1 764.1
743(25) 0.001600 658.4 766.5
781(26) 0.001479 660.8 768.9
771(25) . . .
731(25) . . .
753(25) . . .
736(25) . . .
762(25) . . .
779(26) . . .
762(25) . . .
780(26) . . .
788(26) . . .
753(25) . . .
761(25) . . .
812(26) . . .
758(25) . . .
779(26) . . .
814(26) . . .
772(25) . . .
755(25) . . .
761(25) . . .
760(25) . . .
774(26) . . .
755(25) . . .
776(26) . . .
794(26) . . .
780(26) . . .
795(26) . . .
820(26) . . .
813(26) . . .
835(26) . . .
793(26) . . .
803(26) . . .
826(26) . . .
828(26) . . .
834(26) . . .
841(27) . . .
823(26) . . .
783(26) . . .
846(27) . . .
837(26) . . .
837(26) . . .
862(27) . . .
835(26) . . .
845(27) . . .
843(27) . . .
860(27) . . .
879(27) . . .
886(27) . . .
868(27) . . .
841(27) . . .
831(26) . . .
836(26) . . .
866(27) . . .
864(27) . . .
822(26) . . .
821(26) . . .
861(27) . . .
852(27) . . .
901(27) . . .
889(27) . . .
885(27) . . .
890(27) . . .
892(27) . . .
882(27) . . .
886(27) . . .
910(28) . . .
887(27) . . .
907(27) . . .
920(40) . . .
934(40) . . .
919(40) . . .
902(39) . . .
855(38) . . .
878(39) . . .
915(40) . . .
917(40) . . .
925(40) . . .
968(41) . . .
964(41) . . .
881(39) . . .
885(39) . . .
930(40) . . .
960(41) . . .
915(40) . . .
913(40) . . .
985(41) . . .
921(40) . . .
893(39) . . .
930(40) . . .
982(41) . . .
961(41) . . .
1037(42) . . .
987(41) . . .
988(41) . . .
928(40) . . .
999(41) . . .
1003(41) . . .
949(40) . . .
978(41) . . .
1035(42) . . .
1064(43) . . .
1043(42) . . .
1040(42) . . .
942(40) . . .
976(41) . . .
975(41) . . .
1024(42) . . .
1075(43) . . .
1026(42) . . .
975(41) . . .
991(41) . . .
1002(41) . . .
984(41) . . .
1011(42) . . .
1045(42) . . .
1005(41) . . .
1019(42) . . .
978(41) . . .
1071(43) . . .
982(41) . . .
1024(42) . . .
1065(43) . . .
985(41) . . .
1074(43) . . .
1126(44) . . .
1082(43) . . .
1050(42) . . .
1097(43) . . .
1040(42) . . .
1061(42) . . .
1096(43) . . .
1066(43) . . .
1037(42) . . .
1032(42) . . .
1070(43) . . .
1093(43) . . .
1164(44) . . .
1122(44) . . .
1129(44) . . .
1127(44) . . .
1072(43) . . .
1073(43) . . .
1127(44) . . .
1102(43) . . .
1139(44) . . .
1128(44) . . .
1128(44) . . .
1114(43) . . .
1126(44) . . .
1129(44) . . .
1167(44) . . .
1153(44) . . .
1200(45) . . .
1112(43) . . .
1084(43) . . .
1124(44) . . .
1167(44) . . .
1159(44) . . .
1083(43) . . .
1089(43) . . .
1074(43) . . .
1137(44) . . .
1126(44) . . .
1169(44) . . .
1153(44) . . .
1126(44) . . .
1141(44) . . .
1197(45) . . .
loop_
_refln_index_h
_refln_index_k
_refln_index_l
_refln_observed_status
_refln_F_squared_meas
_refln_F_squared_calc
_refln_phase_calc
_refln_d_spacing
_gsas_i100_meas
1 1 0 o 1335.838 1304.345 -180.00 12.89802 100.00
3 0 0 o 1051.947 1028.640 -19.59 7.44668 26.42
2 2 0 o 81.766 70.383 0.00 6.44901 1.55
1 0 1 o 25.671 22.072 45.44 6.44430 0.48
2 0 -1 o 496.134 499.876 139.61 5.76480 7.52
2 1 1 o 171.755 163.769 40.84 5.26303 4.35
4 1 0 o 340.584 313.908 140.40 4.87499 7.43
3 1 -1 o 39.095 39.130 -21.24 4.55847 0.75
4 0 1 o 786.800 695.496 -125.49 4.29794 6.72
3 3 0 o 43.175 38.358 -180.00 4.29934 0.37
3 2 1 o 62.272 48.322 147.17 4.07752 0.96
5 0 -1 o 69.272 68.611 86.48 3.72243 0.45
6 0 0 o 604.962 599.510 -80.27 3.72334 3.92
4 2 -1 o 105.963 91.637 -147.49 3.57646 1.27
5 2 0 o 167.358 144.740 -1.28 3.57727 2.01
5 1 1 o 246.116 225.541 46.65 3.44642 2.75
1 0 -2 o 1.002 0.743 11.10 3.32766 0.01
2 0 2 o 49.716 46.169 -93.88 3.22215 0.24
4 3 1 o 336.914 313.798 -43.35 3.22392 3.32
4 4 0 o 0.697 0.649 180.00 3.22451 0.00
2 1 -2 o 65.562 56.634 -102.23 3.12608 0.61
6 1 -1 o 28.497 22.957 -19.51 3.03960 0.25
3 1 2 o 1.212 1.290 5.06 2.95719 0.01
7 1 0 o 245.911 261.854 107.31 2.95901 2.06
4 0 -2 o 217.724 203.765 54.12 2.88240 0.87
5 3 -1 o 11.732 10.986 150.42 2.88366 0.09
7 0 1 o 84.603 79.221 -150.89 2.88366 0.34
3 2 -2 o 49.016 46.980 114.12 2.81301 0.37
6 2 1 o 248.146 238.344 -171.48 2.81419 1.90
6 3 0 o 27.165 26.111 -137.38 2.81458 0.21
5 0 2 o 2.542 2.239 104.98 2.68806 0.01
4 2 2 o 27.087 28.429 100.54 2.63151 0.18
5 4 1 o 189.242 198.016 116.86 2.63248 1.28
5 1 -2 o 277.719 309.921 -118.21 2.57840 1.81
8 0 -1 o 39.682 44.447 7.04 2.57930 0.13
5 5 0 o 29.623 33.221 180.00 2.57960 0.10
7 2 -1 o 136.093 144.472 -174.15 2.52923 0.86
4 3 -2 o 182.401 191.832 29.35 2.48115 1.11
9 0 0 o 248.657 260.780 -78.69 2.48223 0.76
8 1 1 o 118.464 140.702 -5.04 2.43724 0.70
8 2 0 o 30.630 36.376 -94.98 2.43750 0.18
6 1 2 o 23.872 26.985 -49.33 2.39414 0.14
6 4 -1 o 223.820 253.538 9.50 2.39486 1.28
7 3 1 o 167.618 178.558 -11.15 2.35462 0.93
5 3 2 o 189.362 198.533 -170.11 2.31568 1.02
7 0 -2 o 1421.070 1489.893 69.74 2.31568 3.82
7 4 0 o 88.497 92.788 8.91 2.31655 0.48
6 2 -2 o 38.757 41.230 -115.00 2.27924 0.20
0 0 3 o 1232.746 1122.068 126.29 2.24347 1.05
1 1 3 o 168.159 155.713 -46.80 2.21028 0.83
6 5 1 o 187.962 173.634 -139.13 2.21180 0.93
9 1 -1 o 0.684 0.632 -163.88 2.21180 0.00
5 4 -2 o 79.465 86.433 -93.71 2.17943 0.39
3 0 3 o 35.682 34.054 -134.26 2.14810 0.08
3 0 -3 o 246.408 235.170 157.13 2.14810 0.58
8 0 2 o 153.512 147.400 -115.67 2.14897 0.36
8 3 -1 o 58.263 56.160 33.40 2.14950 0.28
6 6 0 o 0.519 0.501 180.00 2.14967 0.00
2 2 3 o 447.585 409.843 93.98 2.11891 2.07
7 2 2 o 438.001 400.900 69.01 2.11975 2.03
10 0 1 o 252.981 231.490 124.08 2.12025 0.59
10 1 0 o 112.468 102.905 74.93 2.12042 0.52
9 2 1 o 333.633 308.949 -169.92 2.09217 1.51
8 1 -2 o 588.112 581.694 -104.03 2.06472 2.60
9 3 0 o 39.043 38.621 155.02 2.06534 0.17
4 1 3 o 70.231 64.624 -77.52 2.03802 0.30
4 1 -3 o 165.062 151.883 29.84 2.03802 0.71
6 4 2 o 475.124 437.749 -54.79 2.03876 2.06
7 5 -1 o 184.238 169.893 -143.94 2.03921 0.80
3 3 3 o 67.955 59.462 -120.12 1.98896 0.28
7 3 -2 o 589.562 535.573 93.65 2.01376 2.50
8 4 1 o 159.389 144.903 59.02 2.01419 0.68
8 5 0 o 72.033 65.640 173.17 1.96693 0.29
11 0 -1 o 111.345 91.854 11.88 1.94432 0.22
14 4 4 o 180.052 200.353 -168.48 1.05988 0.92
6 0 -3 o 201.133 158.157 -126.36 1.92160 0.40
6 0 3 o 103.459 81.353 120.64 1.92160 0.20
7 6 1 o 65.198 52.674 -34.73 1.90159 0.25
6 5 -2 o 271.998 213.956 -109.07 1.92222 1.07
9 1 2 o 15.674 12.329 -114.68 1.92222 0.06
20 0 2 o 828.036 920.574 -44.74 1.06013 2.10
10 2 -1 o 79.233 62.343 -157.72 1.92260 0.31
13 11 -1 o 141.957 157.783 33.50 1.06019 0.72
20 2 0 o 340.337 378.247 92.77 1.06021 1.72
8 3 2 o 225.890 185.263 -171.30 1.88090 0.86
5 2 3 o 120.440 97.314 53.28 1.90062 0.47
5 2 -3 o 52.076 42.076 -164.99 1.90062 0.20
4 4 6 o 4.030 4.490 93.77 1.05946 0.02
10 0 -2 o 1676.141 1446.369 83.43 1.86122 3.14
11 1 1 o 290.900 250.859 -29.20 1.86156 1.09
9 4 -1 o 35.956 31.007 -118.71 1.86156 0.13
12 0 0 o 253.820 218.836 -132.83 1.86167 0.48
13 0 -5 o 139.429 155.239 -161.94 1.05969 0.36
8 7 -5 o 79.328 88.323 125.65 1.05969 0.41
4 4 3 o 5.012 4.336 -121.68 1.84159 0.02
9 2 -2 o 208.154 180.218 -59.39 1.84213 0.77
11 2 0 o 20.731 17.959 -44.88 1.84257 0.08
7 7 0 o 125.063 108.339 0.00 1.84257 0.23
7 5 2 o 10.551 10.048 94.45 1.80567 0.04
10 3 1 o 32.501 27.881 -61.09 1.82395 0.12
7 1 3 o 83.561 94.420 -108.14 1.78773 0.29
7 1 -3 o 19.155 21.644 43.62 1.78773 0.07
8 4 -2 o 21.481 24.237 18.57 1.78823 0.08
10 4 0 o 76.649 86.371 -23.19 1.78863 0.27
8 6 -1 o 133.277 147.941 38.93 1.77158 0.46
12 11 -2 o 85.850 93.304 -20.91 1.06373 0.41
15 9 0 o 6.311 6.854 -48.43 1.06381 0.03
21 0 0 o 293.992 319.300 -65.41 1.06381 0.70
11 0 2 o 104.660 99.143 135.89 1.73880 0.18
6 3 -3 o 117.812 118.172 19.65 1.75434 0.40
6 3 3 o 3.438 3.449 -36.66 1.75434 0.01
9 5 1 o 70.546 71.068 -172.90 1.75510 0.24
10 2 2 o 391.690 394.109 -9.64 1.72321 1.31
12 1 -1 o 29.607 29.743 -156.54 1.72348 0.10
7 6 -2 o 0.613 0.645 165.95 1.70803 0.00
9 6 0 o 9.446 9.950 -140.02 1.70838 0.03
1 0 4 o 32.608 31.449 -148.34 1.67785 0.05
11 1 -2 o 196.161 190.147 -121.54 1.67885 0.63
9 4 2 o 47.144 45.698 111.02 1.67885 0.15
5 5 3 o 196.877 196.682 113.27 1.69282 0.64
11 3 -1 o 324.519 324.429 39.35 1.69351 1.06
2 0 -4 o 180.353 164.792 5.88 1.66383 0.29
9 0 3 o 235.350 215.077 75.91 1.66440 0.37
9 0 -3 o 160.295 146.487 107.16 1.66440 0.25
8 7 1 o 66.161 60.494 106.42 1.66505 0.21
13 0 1 o 78.869 72.113 -162.82 1.66505 0.13
2 1 4 o 59.328 56.961 107.33 1.65016 0.19
8 2 3 o 26.024 24.912 64.98 1.65071 0.08
8 2 -3 o 243.212 232.818 -100.84 1.65071 0.77
10 3 -2 o 59.653 56.985 144.63 1.65111 0.19
12 2 1 o 603.627 575.922 123.86 1.65134 1.90
13 1 0 o 92.345 88.071 51.71 1.65142 0.29
12 3 0 o 45.714 48.043 -163.54 1.62500 0.14
10 5 -1 o 34.900 35.717 -166.99 1.63797 0.11
19 3 1 o 65.451 68.986 -123.19 1.06743 0.29
17 6 -1 o 67.759 71.419 -17.39 1.06743 0.30
4 0 4 o 226.491 262.810 -112.78 1.61107 0.35
7 4 3 o 238.007 275.150 -99.24 1.61159 0.73
7 4 -3 o 258.600 298.954 116.16 1.61159 0.79
8 6 2 o 104.521 120.506 -76.02 1.61196 0.32
11 4 1 o 200.098 230.324 -28.09 1.61218 0.61
8 8 0 o 91.232 104.956 -180.00 1.61225 0.14
3 1 -4 o 53.363 56.404 161.88 1.62379 0.16
3 2 4 o 90.332 112.111 -10.06 1.59865 0.27
9 5 -2 o 3.064 3.793 167.99 1.59951 0.01
11 3 5 o 63.798 67.503 -98.10 1.06691 0.29
4 2 -4 o 9.169 9.987 -127.70 1.56304 0.03
9 7 -1 o 65.862 72.415 -136.99 1.56405 0.19
5 0 -4 o 36.526 41.970 -16.55 1.57464 0.05
12 1 2 o 52.029 59.767 164.74 1.57547 0.15
11 5 0 o 81.785 93.932 123.31 1.57574 0.24
5 1 4 o 174.111 168.759 84.81 1.55169 0.51
6 6 3 o 104.001 101.172 36.46 1.55215 0.30
11 3 2 o 205.691 200.634 -152.57 1.55248 0.60
14 0 -1 o 199.840 195.253 31.31 1.55267 0.29
10 6 1 o 20.265 19.800 179.02 1.55267 0.06
10 1 -3 o 7.107 6.564 26.94 1.54103 0.02
10 1 3 o 179.251 165.540 -99.10 1.54103 0.52
13 2 -1 o 156.756 144.789 -143.44 1.54154 0.45
9 3 -3 o 4.269 4.441 -47.32 1.51949 0.01
9 3 3 o 161.454 167.945 102.30 1.51949 0.46
12 2 -2 o 15.164 15.742 82.20 1.51980 0.04
15 2 4 o 80.102 83.394 -128.98 1.07078 0.34
13 5 -4 o 9.521 9.912 -53.21 1.07078 0.04
4 3 4 o 86.959 84.565 -147.71 1.52971 0.25
16 4 3 o 237.101 246.844 168.96 1.07093 1.01
16 4 -3 o 13.030 13.565 3.50 1.07093 0.06
13 0 -2 o 345.476 334.267 20.65 1.53046 0.49
8 7 -2 o 4.982 4.820 4.31 1.53046 0.01
6 1 -4 o 8.057 8.966 98.77 1.50863 0.02
10 5 2 o 129.424 143.560 35.57 1.50936 0.36
12 4 -1 o 165.795 183.739 -118.45 1.50954 0.47
10 7 0 o 197.817 219.160 -1.15 1.50960 0.56
14 1 1 o 130.939 145.606 -38.43 1.49931 0.37
5 2 6 o 63.068 65.682 27.61 1.07035 0.27
5 2 -6 o 24.862 25.892 17.24 1.07035 0.11
6 2 4 o 15.024 16.548 -30.21 1.47859 0.04
8 5 3 o 109.406 120.453 50.27 1.47899 0.30
8 5 -3 o 60.543 66.657 -37.11 1.47899 0.17
13 3 1 o 214.210 235.740 -91.04 1.47945 0.59
9 8 1 o 127.664 140.495 -48.36 1.47945 0.35
14 2 0 o 11.881 13.074 -135.12 1.47950 0.03
5 3 -4 o 31.868 35.132 -62.35 1.48841 0.09
7 0 4 o 358.059 394.736 -112.00 1.48841 0.50
11 4 -2 o 51.063 56.322 2.09 1.48910 0.14
15 0 0 o 55.163 60.853 -118.54 1.48934 0.08
16 6 -2 o 34.857 36.633 -160.20 1.07475 0.14
20 1 1 o 39.071 41.072 -73.86 1.07481 0.16
12 12 0 o 183.401 192.810 0.00 1.07484 0.37
11 6 -1 o 200.539 216.034 53.06 1.46036 0.55
8 0 -4 o 13.411 14.661 -107.12 1.44120 0.02
14 0 2 o 443.449 484.458 -51.55 1.44183 0.60
10 6 -2 o 59.888 65.427 -123.15 1.44183 0.16
12 5 1 o 392.136 428.317 118.30 1.44199 1.05
5 4 4 o 47.281 50.753 -17.49 1.45028 0.13
9 7 2 o 117.546 125.989 137.43 1.45093 0.32
13 4 0 o 68.431 73.311 22.07 1.45114 0.19
6 0 6 o 159.595 167.307 -125.70 1.07405 0.33
6 0 -6 o 372.027 390.004 -136.42 1.07405 0.76
7 2 -4 o 12.750 13.909 90.35 1.43229 0.03
12 1 5 o 8.864 9.300 -32.46 1.07429 0.04
12 0 3 o 102.299 111.620 65.84 1.43265 0.14
12 0 -3 o 121.291 132.343 -96.30 1.43265 0.16
13 2 2 o 171.779 187.449 53.15 1.43291 0.46
9 9 0 o 72.017 78.594 180.00 1.43311 0.10
16 0 4 o 37.545 39.422 24.09 1.07449 0.08
12 9 3 o 243.388 255.701 -11.52 1.07464 0.99
12 9 -3 o 111.398 117.034 98.64 1.07464 0.45
7 7 3 o 262.613 284.642 -149.45 1.42389 0.70
11 2 -3 o 87.062 94.365 87.41 1.42389 0.23
11 2 3 o 12.385 13.424 82.16 1.42389 0.03
6 4 -4 o 66.568 67.518 -175.55 1.40651 0.18
12 4 2 o 15.083 15.342 -74.71 1.40709 0.04
15 1 -1 o 8.822 8.980 -118.80 1.40724 0.02
12 6 0 o 229.055 233.204 -117.43 1.40729 0.60
8 1 4 o 222.779 234.456 49.19 1.41494 0.59
7 3 4 o 377.704 378.065 174.65 1.39822 0.99
10 4 3 o 291.394 291.255 -100.29 1.39855 0.76
10 4 -3 o 23.304 23.293 -145.10 1.39855 0.06
14 1 -2 o 150.682 150.477 -174.23 1.39879 0.40
10 8 -1 o 28.831 28.778 -158.15 1.39894 0.08
9 8 -2 o 40.392 47.116 49.37 1.38263 0.10
13 3 -2 o 25.907 30.219 -65.03 1.38263 0.07
11 7 1 o 148.188 159.204 -51.40 1.39078 0.39
14 3 -1 o 400.949 430.756 54.37 1.39078 1.05
17 2 3 o 9.975 10.864 63.99 1.08218 0.04
17 2 -3 o 129.233 140.747 -98.94 1.08218 0.49
15 2 1 o 355.560 420.258 99.86 1.35953 0.91
13 5 -1 o 33.119 39.145 -134.65 1.35953 0.09
6 5 4 o 235.021 274.890 -3.13 1.36647 0.61
9 1 -4 o 10.538 12.326 -78.79 1.36647 0.03
11 6 2 o 100.635 117.725 -120.99 1.36701 0.26
16 0 1 o 62.032 72.574 177.90 1.36714 0.08
8 3 -4 o 37.916 40.747 43.83 1.35138 0.10
12 5 -2 o 48.412 52.598 140.61 1.35191 0.12
11 8 0 o 99.955 108.980 129.35 1.35208 0.26
16 1 0 o 21.826 23.797 78.97 1.35208 0.06
9 6 3 o 3.756 4.437 -136.53 1.35917 0.01
9 6 -3 o 4.430 5.234 66.07 1.35917 0.01
1 0 -5 o 42.906 39.250 -171.15 1.34364 0.05
10 0 4 o 2282.553 2100.237 -157.44 1.34403 2.92
9 5 -5 o 14.538 15.798 -13.79 1.08182 0.05
2 1 -5 o 29.903 29.558 44.34 1.32930 0.08
13 1 3 o 55.264 53.952 -137.90 1.32996 0.14
13 1 -3 o 6.762 6.601 116.99 1.32996 0.02
10 9 1 o 255.626 248.021 101.90 1.33029 0.65
8 6 5 o 29.033 32.472 8.73 1.08565 0.11
2 0 5 o 108.166 96.350 9.73 1.33641 0.14
9 2 4 o 1047.073 930.348 -7.16 1.33679 2.67
14 3 -4 o 130.214 145.894 151.16 1.08585 0.47
11 7 4 o 214.255 240.055 83.93 1.08585 0.78
14 4 1 o 159.659 141.391 -52.44 1.33742 0.41
15 3 0 o 25.996 23.018 -62.27 1.33746 0.07
18 0 3 o 60.344 67.704 -110.02 1.08601 0.11
18 0 -3 o 147.590 165.593 74.17 1.08601 0.27
15 7 2 o 106.993 120.164 -85.60 1.08612 0.39
18 4 -1 o 197.904 222.402 170.03 1.08619 0.72
7 5 -4 o 102.002 111.885 -137.75 1.32266 0.26
15 1 2 o 228.500 249.298 149.10 1.32315 0.58
4 0 -5 o 301.909 353.001 -155.85 1.30861 0.38
8 8 3 o 211.330 245.883 46.92 1.30924 0.53
14 3 2 o 59.799 69.476 -101.79 1.30944 0.15
11 7 -2 o 29.344 34.093 30.49 1.30944 0.07
14 5 0 o 38.701 44.914 129.21 1.30960 0.10
15 8 1 o 118.356 137.833 145.52 1.09006 0.42
3 1 5 o 80.779 91.824 171.81 1.31540 0.20
8 4 4 o 247.472 281.179 169.08 1.31576 0.63
12 3 -3 o 25.084 28.490 -81.59 1.31604 0.06
12 3 3 o 101.947 115.788 19.62 1.31604 0.26
10 8 2 o 10.311 11.707 6.37 1.31624 0.03
12 7 -1 o 81.164 92.139 -53.84 1.31636 0.21
3 2 -5 o 77.211 97.088 -2.86 1.30193 0.19
3 3 6 o 124.832 139.322 -171.78 1.08540 0.46
13 6 1 o 7.354 9.142 -6.43 1.30286 0.02
5 0 5 o 155.403 193.899 22.84 1.28886 0.20
10 2 -4 o 4.211 5.265 -55.89 1.28920 0.01
11 5 -3 o 4.602 5.764 -0.84 1.28946 0.01
11 5 3 o 169.101 211.804 103.59 1.28946 0.43
16 0 -2 o 341.156 427.850 -7.35 1.28965 0.43
17 0 -1 o 33.318 41.817 123.21 1.28976 0.04
10 10 0 o 292.656 367.402 0.00 1.28980 0.37
11 0 -4 o 66.720 87.060 127.81 1.29569 0.08
10 8 -4 o 93.826 108.963 134.64 1.08972 0.33
4 2 5 o 66.027 80.071 -104.03 1.28247 0.17
7 6 4 o 95.509 115.974 -86.16 1.28281 0.24
4 1 6 o 9.455 11.172 30.86 1.09317 0.03
4 1 -6 o 88.153 104.163 43.78 1.09317 0.30
13 5 2 o 70.581 85.851 67.75 1.28325 0.18
15 2 -2 o 9.680 11.774 139.52 1.28325 0.02
16 2 -1 o 99.332 120.873 -112.15 1.28336 0.25
9 4 -4 o 5.121 5.888 8.46 1.27030 0.01
11 1 4 o 239.411 275.255 62.48 1.27030 0.60
15 1 -4 o 17.549 20.737 -31.75 1.09363 0.06
13 7 0 o 208.704 240.325 29.75 1.27088 0.53
17 4 -2 o 30.480 36.008 107.36 1.09390 0.10
16 7 0 o 117.276 138.529 -153.65 1.09400 0.40
5 1 -5 o 99.966 117.540 37.10 1.27618 0.25
10 3 -5 o 29.084 33.738 -165.46 1.09737 0.10
4 3 -5 o 220.789 252.633 -138.11 1.26387 0.56
19 2 -1 o 26.529 30.612 20.05 1.09793 0.09
14 9 -1 o 41.059 47.378 -14.99 1.09793 0.14
14 4 -2 o 26.942 30.783 3.69 1.26461 0.07
11 9 -1 o 168.617 192.628 116.35 1.26472 0.42
15 4 -1 o 29.142 33.292 -121.43 1.26472 0.07
6 1 5 o 28.003 33.857 169.86 1.25190 0.07
10 7 3 o 76.219 92.145 -55.37 1.25246 0.19
10 7 -3 o 62.688 75.786 106.76 1.25246 0.16
17 1 1 o 129.481 156.498 -59.27 1.25273 0.33
13 9 -2 o 16.232 17.795 -169.72 1.10186 0.05
20 0 -1 o 452.621 495.691 -142.88 1.10193 0.74
10 3 4 o 155.821 183.573 -130.49 1.25816 0.39
18 0 0 o 113.702 124.819 -3.44 1.24111 0.14
10 9 -2 o 27.820 32.683 -143.54 1.25858 0.07
12 8 1 o 232.471 272.922 -172.92 1.25868 0.59
13 7 -3 o 14.129 14.756 115.39 1.10578 0.05
13 7 3 o 254.671 265.974 176.88 1.10578 0.82
12 10 2 o 18.549 19.351 -172.02 1.10590 0.06
18 2 -2 o 145.011 151.282 -9.27 1.10590 0.46
12 11 1 o 275.957 287.706 145.16 1.10597 0.88
12 7 2 o 47.341 55.642 54.92 1.24676 0.12
6 2 -5 o 133.740 141.882 35.99 1.23458 0.34
9 5 4 o 354.769 376.454 38.35 1.23488 0.90
14 2 -3 o 75.565 80.206 -50.85 1.23511 0.19
14 2 3 o 0.255 0.270 37.74 1.23511 0.00
13 6 -2 o 13.929 14.788 -166.43 1.23527 0.04
14 6 -1 o 131.730 139.877 125.86 1.23537 0.33
17 2 0 o 114.567 121.659 -166.21 1.23541 0.29
16 5 2 o 230.525 234.271 64.58 1.10999 0.72
19 0 -2 o 68.080 69.186 -134.22 1.10999 0.11
12 1 -4 o 21.984 24.052 -41.17 1.22371 0.06
5 3 5 o 117.771 128.261 7.54 1.24027 0.30
7 0 -5 o 477.911 520.480 -148.65 1.24027 0.60
17 0 2 o 276.687 302.707 -56.93 1.22410 0.35
8 6 -4 o 11.213 12.245 -32.35 1.24058 0.03
12 9 0 o 422.791 462.520 -143.84 1.22423 1.07
15 0 3 o 22.460 24.582 35.76 1.24081 0.03
15 0 -3 o 20.472 22.406 116.27 1.24081 0.03
16 3 1 o 51.948 57.007 -143.12 1.24108 0.13
2 2 6 o 62.349 65.527 23.62 1.10514 0.20
5 4 -5 o 107.122 115.116 126.77 1.21795 0.27
11 1 -5 o 40.422 42.369 -62.33 1.10540 0.13
9 4 5 o 91.367 95.768 -134.31 1.10540 0.29
13 4 3 o 201.162 216.664 -153.05 1.21846 0.51
13 4 -3 o 147.970 159.373 118.59 1.21846 0.38
16 2 2 o 162.140 174.758 -1.53 1.21862 0.41
11 6 -4 o 79.277 76.931 -131.08 1.11801 0.24
15 5 1 o 55.750 60.113 138.58 1.21872 0.14
16 4 0 o 82.329 88.785 41.92 1.21875 0.21
7 2 5 o 158.683 161.246 -155.68 1.20724 0.41
10 10 3 o 209.624 203.226 42.82 1.11818 0.64
16 6 1 o 32.128 31.114 -134.24 1.11838 0.10
13 10 0 o 190.452 184.417 164.49 1.11840 0.58
17 5 0 o 191.335 185.273 51.52 1.11840 0.58
3 0 -6 o 215.984 220.317 -143.44 1.10922 0.34
3 0 6 o 53.959 55.041 176.93 1.10922 0.09
9 9 3 o 146.561 149.279 -178.61 1.20773 0.38
11 10 1 o 438.887 447.562 -8.49 1.20798 1.13
8 1 -5 o 16.513 16.114 38.68 1.19680 0.04
11 0 5 o 614.960 587.650 -125.37 1.12201 0.92
12 2 4 o 429.291 419.042 -151.01 1.19707 1.11
12 5 4 o 170.132 173.127 -98.99 1.10970 0.54
8 0 5 o 120.155 125.560 13.29 1.21256 0.15
12 8 -2 o 29.256 28.571 -102.48 1.19743 0.08
13 8 -1 o 90.971 88.854 -36.62 1.19752 0.24
11 3 -4 o 37.832 39.598 172.92 1.21284 0.10
7 3 -5 o 195.290 191.502 -69.54 1.18662 0.51
7 6 -5 o 161.971 161.466 -139.83 1.11361 0.50
18 1 -1 o 86.711 84.995 30.38 1.18733 0.23
14 7 1 o 133.536 130.893 4.18 1.18733 0.35
8 7 4 o 61.554 61.124 171.63 1.20226 0.16
13 0 4 o 247.951 246.220 -24.60 1.20226 0.32
13 3 4 o 402.265 385.299 28.85 1.12650 1.19
9 8 4 o 61.817 59.210 48.46 1.12650 0.18
7 5 5 o 106.630 109.573 15.36 1.13938 0.30
15 4 2 o 90.225 89.742 156.63 1.20262 0.23
11 9 2 o 40.494 40.277 -99.73 1.20262 0.10
15 5 -2 o 50.013 56.117 -75.81 1.16286 0.14
12 4 -4 o 68.048 70.055 11.71 1.13962 0.19
6 4 5 o 225.904 220.767 47.22 1.19168 0.59
17 3 2 o 91.469 87.660 -85.57 1.12680 0.27
10 0 -5 o 225.417 246.342 30.07 1.15296 0.31
14 6 2 o 150.603 156.318 -99.13 1.17731 0.40
1 1 6 o 54.199 52.740 -77.07 1.11752 0.16
10 5 -4 o 23.680 23.137 120.85 1.19195 0.06
17 3 -1 o 18.924 19.621 132.92 1.17739 0.05
13 2 -4 o 32.355 35.385 -63.69 1.15320 0.09
17 4 1 o 57.722 59.602 -14.75 1.14001 0.16
12 6 3 o 45.941 44.880 -24.26 1.19215 0.12
12 6 -3 o 136.017 132.878 -79.55 1.19215 0.35
6 5 -5 o 219.832 245.761 151.02 1.16703 0.59
9 1 5 o 27.024 30.211 36.58 1.16703 0.07
10 2 5 o 517.050 502.343 65.58 1.11779 1.57
17 1 -2 o 46.939 45.851 166.15 1.19230 0.12
11 10 -2 o 11.099 12.151 30.37 1.15353 0.03
15 6 0 o 403.617 394.231 -134.87 1.19242 1.05
18 2 1 o 110.638 121.150 70.13 1.15361 0.30
12 10 -1 o 116.037 127.062 -175.67 1.15361 0.32
11 4 4 o 130.059 128.995 65.08 1.18189 0.34
14 5 -3 o 23.666 22.916 -60.32 1.13100 0.07
14 5 3 o 262.348 254.027 17.43 1.13100 0.76
8 3 5 o 138.450 153.592 -125.84 1.15759 0.38
16 3 -2 o 19.141 18.948 152.04 1.18224 0.05
15 7 -1 o 87.192 84.489 -176.23 1.13121 0.25
0 0 6 o 352.734 337.222 88.72 1.12173 0.18
14 0 -4 o 120.151 133.392 122.71 1.15784 0.16
10 6 4 o 288.450 320.239 -122.50 1.15784 0.79
13 8 2 o 54.796 58.217 108.46 1.14441 0.15
19 1 0 o 8.246 8.766 139.92 1.14451 0.02
16 1 3 o 2.615 2.904 130.12 1.15803 0.01
16 1 -3 o 4.992 5.546 171.42 1.15803 0.01
11 8 -3 o 10.344 11.491 23.75 1.15803 0.03
11 8 3 o 21.677 24.080 -175.07 1.15803 0.06
8 4 -5 o 441.699 437.508 23.33 1.13496 1.27
19 0 1 o 125.979 140.037 147.16 1.15825 0.17
16 5 -1 o 190.321 211.560 -10.34 1.15825 0.52
14 8 0 o 357.350 397.260 29.20 1.15828 0.97
14 1 4 o 22.012 21.843 135.03 1.13520 0.06
9 2 -5 o 344.311 371.605 -176.24 1.14838 0.96
11 11 0 o 120.098 131.002 0.00 1.17255 0.16
14 7 -2 o 109.263 108.694 62.32 1.13550 0.31
18 1 2 o 317.367 315.713 133.81 1.13550 0.91
15 3 -3 o 7.905 8.541 86.12 1.14881 0.02
15 3 3 o 17.230 18.617 -20.42 1.14881 0.05
18 3 0 o 65.120 64.835 -71.77 1.13561 0.19
9 7 -4 o 33.131 37.162 -8.52 1.16253 0.09
13 9 1 o 3.345 3.616 -79.29 1.14902 0.01
