#------------------------------------------------------------------------------
#$Date: 2016-02-16 22:30:59 +0200 (Tue, 16 Feb 2016) $
#$Revision: 176467 $
#$URL: svn://www.crystallography.net/cod/cif/4/12/24/4122448.cif $
#------------------------------------------------------------------------------
#
# This file is available in the Crystallography Open Database (COD),
# http://www.crystallography.net/
#
# All data on this site have been placed in the public domain by the
# contributors.
#
data_4122448
loop_
_publ_author_name
'Kapelewski, Matthew T.'
'Geier, Stephen J.'
'Hudson, Matthew R.'
'St\"uck, David'
'Mason, Jarad A.'
'Nelson, Jocienne N.'
'Xiao, Dianne J.'
'Hulvey, Zeric'
'Gilmour, Elizabeth'
'FitzGerald, Stephen A.'
'Head-Gordon, Martin'
'Brown, Craig M.'
'Long, Jeffrey R.'
_publ_section_title
;
 M2(m-dobdc) (M = Mg, Mn, Fe, Co, Ni) Metal-Organic Frameworks Exhibiting
 Increased Charge Density and Enhanced H2 Binding at the Open Metal Sites.
;
_journal_issue                   34
_journal_name_full               'Journal of the American Chemical Society'
_journal_page_first              12119
_journal_paper_doi               10.1021/ja506230r
_journal_volume                  136
_journal_year                    2014
_chemical_formula_sum            'C4 H Co D3.73 O3'
_chemical_formula_weight         163.49
_chemical_name_systematic        ' ?'
_space_group_IT_number           160
_symmetry_cell_setting           trigonal
_symmetry_space_group_name_Hall  'R 3 -2"'
_symmetry_space_group_name_H-M   'R 3 m :H'
_audit_creation_date             2013-06-06T15:55
_audit_creation_method           'from EXP file using GSAS2CIF'
_audit_update_record
' 2013-06-06T15:55  Initial CIF as created by GSAS2CIF'
_cell_angle_alpha                90.0
_cell_angle_beta                 90.0
_cell_angle_gamma                120.0
_cell_formula_units_Z            18
_cell_length_a                   25.8806(17)
_cell_length_b                   25.8806
_cell_length_c                   6.8038(6)
_cell_volume                     3946.7(4)
_computing_structure_refinement  GSAS
_diffrn_radiation_probe          neutron
_diffrn_radiation_wavelength     2.078
_exptl_absorpt_correction_T_max  1.00000
_exptl_absorpt_correction_T_min  1.00000
_exptl_absorpt_process_details
;   GSAS Absorption/surface roughness correction: function number 0
 No correction is applied.
;
_pd_block_id                     2013-06-06T15:55|CO_PRIME_2P0_D2_R||BT1
_pd_calc_method                  'Rietveld Refinement'
_pd_instr_location               ' ?'
_pd_meas_2theta_range_inc        0.05
_pd_meas_2theta_range_max        166.25
_pd_meas_2theta_range_min        1.5
_pd_meas_number_of_points        3296
_pd_phase_name                   Co_dobdc_prime_2.0_D2
_pd_proc_2theta_range_inc        0.05
_pd_proc_2theta_range_max        166.3492
_pd_proc_2theta_range_min        1.5992
_pd_proc_info_datetime           2013-06-06T15:55:15
_pd_proc_info_excluded_regions   ' ?'
_pd_proc_ls_background_function
;   GSAS Background function number 1 with 12 terms.
 Shifted Chebyshev function of 1st kind
      1:    309.224     2:   -108.554     3:    118.485     4:    35.0695    
      5:    45.4850     6:   -11.4408     7:    31.8959     8:    3.35307    
      9:    6.66754    10:    1.87710    11:    5.46621    12:   -3.49893    
;
_pd_proc_ls_peak_cutoff          0.00050
_pd_proc_ls_profile_function
;
 CW Profile function number 3 with  19 terms
 Pseudovoigt profile coefficients as parameterized in
 P. Thompson, D.E. Cox & J.B. Hastings (1987). J. Appl. Cryst.,20,79-83.
 Asymmetry correction of L.W. Finger, D.E. Cox & A. P. Jephcoat (1994).
 J. Appl. Cryst.,27,892-900.
 Peak tails are ignored  where the intensity is below 0.0005 times the peak
   Aniso. broadening axis   0.0   0.0   1.0
;
_pd_proc_ls_prof_R_factor        0.0413
_pd_proc_ls_prof_wR_expected     0.0565
_pd_proc_ls_prof_wR_factor       0.0519
_pd_proc_number_of_points        3296
_pd_spec_mounting                ' ?'
_refine_ls_goodness_of_fit_all   0.93
_refine_ls_matrix_type           full
_refine_ls_number_parameters     68
_refine_ls_number_restraints     16
_refine_ls_R_Fsqd_factor         0.06241
_refine_ls_shift/su_max          3.93
_refine_ls_shift/su_mean         0.86
_reflns_d_resolution_high        1.059
_reflns_d_resolution_low         12.940
_reflns_limit_h_max              21
_reflns_limit_h_min              0
_reflns_limit_k_max              12
_reflns_limit_k_min              0
_reflns_limit_l_max              6
_reflns_limit_l_min              -6
_reflns_number_total             434
_cod_data_source_file            CO_PRIME_2P0_D2_R.cif
_cod_data_source_block           CO_PRIME_2P0_D2_R_publ
_cod_depositor_comments
;
The following automatic conversions were performed:

'_geom_bond_publ_flag' value 'N' changed to 'n' according to
/usr/data/users/saulius/crontab/automatic-downloads/rss-feeds/ACS/lib/dictionaries/cif_core.dic
dictionary named 'cif_core.dic' version 2.4.2 from 2011-04-26 (56
times).

'_geom_angle_publ_flag' value 'N' changed to 'n' according
to
/usr/data/users/saulius/crontab/automatic-downloads/rss-feeds/ACS/lib/dictionaries/cif_core.dic
dictionary named 'cif_core.dic' version 2.4.2 from 2011-04-26 (32
times).

Automatic conversion script
Id: cif_fix_values 2281 2013-09-26 08:29:07Z andrius 

 Adding full bibliography for 4122440--4122455.cif.
;
_cod_original_cell_volume        3946.7(6)
_cod_original_sg_symbol_H-M      'R 3 m'
_cod_original_formula_sum        'C4 H D3.73 Co O3'
_cod_database_code               4122448
#BEGIN Tags that were not found in dictionaries:
_gsas_exptl_extinct_corr_t_min   1.00000
_gsas_exptl_extinct_corr_t_max   1.00000
#END Tags that were not found in dictionaries
loop_
_symmetry_equiv_pos_site_id
_symmetry_equiv_pos_as_xyz
1 +x,+y,+z
2 -y,x-y,+z
3 y-x,-x,+z
4 y-x,+y,+z
5 -y,-x,+z
6 +x,x-y,+z
101 +x+1/3,+y+2/3,+z+2/3
102 -y+1/3,x-y+2/3,+z+2/3
103 y-x+1/3,-x+2/3,+z+2/3
104 y-x+1/3,+y+2/3,+z+2/3
105 -y+1/3,-x+2/3,+z+2/3
106 +x+1/3,x-y+2/3,+z+2/3
201 +x+2/3,+y+1/3,+z+1/3
202 -y+2/3,x-y+1/3,+z+1/3
203 y-x+2/3,-x+1/3,+z+1/3
204 y-x+2/3,+y+1/3,+z+1/3
205 -y+2/3,-x+1/3,+z+1/3
206 +x+2/3,x-y+1/3,+z+1/3
loop_
_atom_site_type_symbol
_atom_site_label
_atom_site_fract_x
_atom_site_fract_y
_atom_site_fract_z
_atom_site_occupancy
_atom_site_thermal_displace_type
_atom_site_U_iso_or_equiv
_atom_site_symmetry_multiplicity
C C1 0.6572(9) 0.8750(9) 0.835(4) 1.0 Uiso 0.016(6) 18
C C2 0.6656(12) 0.8328(6) 0.749(5) 1.0 Uiso 0.015(8) 9
C C6 0.6414(9) 0.8681(8) 0.0444(35) 1.0 Uiso 0.017(6) 18
C C11 0.6338(7) 0.9098(7) 0.1621(31) 1.0 Uiso 0.012(5) 18
Co Co2 0.3254(22) 0.3721(19) 0.558(7) 1.0 Uiso 0.002(14) 18
H H7 0.6781(28) 0.8390(14) 0.602(12) 1.0 Uiso 0.071(23) 9
O O9 0.6718(9) 0.9267(9) 0.751(4) 1.0 Uiso 0.014(7) 18
O O12 0.6523(9) 0.9635(10) 0.0925(33) 1.0 Uiso 0.017(7) 18
O O15 0.6107(9) 0.8939(9) 0.3312(33) 1.0 Uiso 0.018(5) 18
C C2m 0.6283(12) 0.8141(6) 0.131(5) 1.0 Uiso 0.014(8) 9
H H7m 0.6161(24) 0.8080(12) 0.280(9) 1.0 Uiso 0.032(15) 9
D D1 0.2076(7) 0.2162(7) 0.0084(27) 2.00262 Uiso 0.110(7) 18
D D2 0.7754(11) 0.9469(9) 0.426(4) 1.51(6) Uiso 0.120(10) 18
D D3 0.5813(26) 0.163(5) 0.492(17) 0.43(8) Uiso 0.19(8) 9
loop_
_atom_type_symbol
_atom_type_number_in_cell
_atom_type_scat_length_neutron
_atom_type_scat_source
C 72.0 0.6646 International_Tables_Vol_C
Co 18.0 0.2490 International_Tables_Vol_C
H 18.0 -0.3739 International_Tables_Vol_C
O 54.0 0.5803 International_Tables_Vol_C
D 67.111 0.6671 International_Tables_Vol_C
loop_
_geom_angle_atom_site_label_1
_geom_angle_atom_site_label_2
_geom_angle_atom_site_label_3
_geom_angle
_geom_angle_site_symmetry_1
_geom_angle_site_symmetry_3
_geom_angle_publ_flag
C2 C1 C6 117.9(26) 1_555 1_556 n
C2 C1 O9 123.5(26) 1_555 1_555 n
C6 C1 O9 117.7(19) 1_556 1_555 n
C1 C2 C1 126(4) 1_555 6_565 n
C1 C2 H7 117.0(19) 1_555 1_555 n
C1 C2 H7 117.0(19) 6_565 1_555 n
C1 C6 C11 125.7(17) 1_554 1_555 n
C1 C6 C2m 116.5(19) 1_554 1_555 n
C11 C6 C2m 117.6(19) 1_555 1_555 n
C6 C11 O12 118.8(19) 1_555 1_555 n
C6 C11 O15 118.9(20) 1_555 1_555 n
O12 C11 O15 122.2(21) 1_555 1_555 n
O9 Co2 O9 166(4) 3_565 102_654 n
O9 Co2 O12 83.7(21) 3_565 102_655 n
O9 Co2 O12 97.2(17) 3_565 201_445 n
O9 Co2 O15 100.2(26) 3_565 3_565 n
O9 Co2 O12 82.5(25) 102_654 102_655 n
O9 Co2 O12 81.3(17) 102_654 201_445 n
O9 Co2 O15 93.6(23) 102_654 3_565 n
O12 Co2 O12 83.0(19) 102_655 201_445 n
O12 Co2 O15 175.5(26) 102_655 3_565 n
O12 Co2 O15 94.3(19) 201_445 3_565 n
C1 O9 Co2 133.3(20) 1_555 2_665 n
C1 O9 Co2 124.7(23) 1_555 203_565 n
Co2 O9 Co2 92.8(22) 2_665 203_565 n
C11 O12 Co2 130.8(20) 1_555 101_554 n
C11 O12 Co2 129.1(21) 1_555 203_564 n
Co2 O12 Co2 95.1(11) 101_554 203_564 n
C11 O15 Co2 123.2(20) 1_555 2_665 n
C6 C2m C6 123.7(25) 1_555 6_565 n
C6 C2m H7m 117.5(13) 1_555 1_555 n
C6 C2m H7m 117.5(13) 6_565 1_555 n
loop_
_geom_bond_atom_site_label_1
_geom_bond_atom_site_label_2
_geom_bond_distance
_geom_bond_site_symmetry_2
_geom_bond_publ_flag
C1 C2 1.348(23) 1_555 n
C1 C6 1.469(23) 1_556 n
C1 Co2 3.12(5) 2_665 n
C1 Co2 3.02(5) 203_565 n
C1 H7 2.04(7) 1_555 n
C1 O9 1.326(24) 1_555 n
C2 C1 1.348(23) 1_555 n
C2 C1 1.348(23) 6_565 n
C2 H7 1.04(9) 1_555 n
C6 C1 1.469(23) 1_554 n
C6 C11 1.434(27) 1_555 n
C6 Co2 3.30(5) 203_564 n
C6 C2m 1.391(19) 1_555 n
C6 H7m 2.10(6) 1_555 n
C11 C6 1.434(27) 1_555 n
C11 Co2 2.95(6) 2_665 n
C11 Co2 3.10(4) 101_554 n
C11 Co2 2.98(6) 203_564 n
C11 O12 1.313(25) 1_555 n
C11 O15 1.267(22) 1_555 n
Co2 C1 3.12(5) 3_565 n
Co2 C1 3.02(5) 102_654 n
Co2 C6 3.30(5) 102_655 n
Co2 C11 2.95(6) 3_565 n
Co2 C11 2.98(6) 102_655 n
Co2 C11 3.10(4) 201_445 n
Co2 Co2 2.98(5) 103_554 n
Co2 Co2 2.98(5) 202_555 n
Co2 O9 2.06(5) 3_565 n
Co2 O9 2.06(4) 102_654 n
Co2 O12 3.22(5) 3_565 n
Co2 O12 1.97(6) 102_655 n
Co2 O12 2.07(5) 201_445 n
Co2 O15 2.06(5) 3_565 n
Co2 O15 3.38(5) 201_445 n
Co2 D1 2.22(4) 103_555 n
H7 C1 2.04(7) 1_555 n
H7 C1 2.04(7) 6_565 n
H7 C2 1.04(9) 1_555 n
O9 C1 1.326(24) 1_555 n
O9 Co2 2.06(5) 2_665 n
O9 Co2 2.06(4) 203_565 n
O12 C11 1.313(25) 1_555 n
O12 Co2 3.22(5) 2_665 n
O12 Co2 2.07(5) 101_554 n
O12 Co2 1.97(6) 203_564 n
O15 C11 1.267(22) 1_555 n
O15 Co2 2.06(5) 2_665 n
O15 Co2 3.38(5) 101_554 n
C2m C6 1.391(19) 1_555 n
C2m C6 1.391(19) 6_565 n
C2m H7m 1.05(8) 1_555 n
H7m C6 2.10(6) 1_555 n
H7m C6 2.10(6) 6_565 n
H7m C2m 1.05(8) 1_555 n
D1 Co2 2.22(4) 202_554 n
loop_
_pd_meas_intensity_total
_pd_proc_ls_weight
_pd_proc_intensity_bkg_calc
_pd_calc_intensity_total
3770(130) 0.0 1027. .
3140(120) 0.0 1020. .
3070(120) 0.0 1014. .
2650(110) 0.0 1007. .
2630(110) 0.0 1001. .
2320(100) 0.0 994. .
2043(97) 0.0 988. .
2024(97) 0.0 982. .
2080(98) 0.0 976. .
1711(89) 0.0 970. .
1884(93) 0.0 963. .
1627(87) 0.0 958. .
1725(89) 0.0 952. .
1646(87) 0.0 946. .
1636(87) 0.0 940. .
1552(85) 0.0 934. .
1459(82) 0.0 928. .
1487(83) 0.0 923. .
1506(83) 0.0 917. .
1450(82) 0.0 912. .
1398(80) 0.0 906. .
1440(82) 0.0 901. .
1389(80) 0.0 895. .
1235(75) 0.0 890. .
1366(79) 0.0 885. .
1296(77) 0.0 880. .
1342(79) 0.0 874. .
1216(75) 0.0 869. .
1198(74) 0.0 864. .
1071(70) 0.0 859. .
1095(71) 0.0 854. .
1202(74) 0.0 849. .
1076(70) 0.0 844. .
959(66) 0.0 840. .
969(67) 0.0 835. .
1057(70) 0.0 830. .
992(68) 0.0 825. .
852(62) 0.0 821. .
978(67) 0.0 816. .
917(65) 0.0 812. .
983(67) 0.0 807. .
950(66) 0.0 803. .
819(61) 0.0 798. .
899(64) 0.0 794. .
829(62) 0.0 790. .
810(61) 0.0 785. .
880(64) 0.0 781. .
922(65) 0.0 777. .
796(60) 0.0 773. .
731(58) 0.0 769. .
684(56) 0.0 765. .
782(60) 0.0 761. .
941(66) 0.0 757. .
829(62) 0.0 753. .
735(58) 0.0 749. .
717(57) 0.0 745. .
843(62) 0.0 741. .
885(64) 0.0 738. .
782(60) 0.0 734. .
768(59) 0.0 730. .
791(60) 0.0 726. .
646(54) 0.0 723. .
745(58) 0.0 719. .
759(59) 0.0 716. .
703(57) 0.0 712. .
600(52) 0.0 709. .
590(52) 0.0 705. .
656(55) 0.0 702. .
632(54) 0.0 699. .
707(57) 0.0 695. .
707(57) 0.0 692. .
674(55) 0.0 689. .
693(56) 0.0 685. .
595(52) 0.0 682. .
586(52) 0.0 679. .
628(53) 0.0 676. .
712(57) 0.0 673. .
745(58) 0.0 670. .
717(57) 0.0 667. .
576(51) 0.0 664. .
684(56) 0.0 661. .
731(58) 0.0 658. .
693(56) 0.0 655. .
628(53) 0.0 652. .
651(54) 0.0 649. .
581(51) 0.0 646. .
670(55) 0.0 644. .
777(60) 0.0 641. .
590(52) 0.0 638. .
562(51) 0.0 635. .
614(53) 0.0 633. .
632(54) 0.0 630. .
600(52) 0.0 627. .
548(50) 0.0 625. .
548(50) 0.0 622. .
562(51) 0.0 620. .
604(52) 0.0 617. .
558(50) 0.0 615. .
600(52) 0.0 612. .
614(53) 0.0 610. .
704(39) 0.0 607. .
659(38) 0.0 605. .
638(37) 0.0 603. .
686(38) 0.000693 600. 608.
631(37) 0.000730 598. 606.
556(34) 0.000865 595.8 604.6
614(36) 0.000772 594. 603.
555(34) 0.000865 591.3 601.1
650(37) 0.000730 589. 600.
585(35) 0.000816 586.9 597.9
578(35) 0.000816 584.8 596.5
587(35) 0.000816 582.6 595.1
541(34) 0.000865 580.5 593.8
593(35) 0.000816 578.4 592.6
627(37) 0.000730 576. 592.
567(35) 0.000816 574.3 590.7
580(35) 0.000816 572.3 590.0
640(37) 0.000730 570. 590.
627(37) 0.000730 568. 590.
655(37) 0.000730 566. 590.
654(37) 0.000730 564. 592.
644(37) 0.000730 562. 597.
747(40) 0.000625 561. 605.
682(38) 0.000693 559. 618.
742(40) 0.000625 557. 637.
731(40) 0.000625 555. 663.
774(41) 0.000595 553. 695.
762(40) 0.000625 551. 732.
816(42) 0.000567 549. 774.
829(42) 0.000567 548. 820.
806(42) 0.000567 546. 871.
816(42) 0.000567 544. 925.
917(44) 0.000517 543. 984.
1060(48) 0.000434 541. 1048.
1120(49) 0.000416 539. 1117.
1134(50) 0.000400 537. 1194.
1221(52) 0.000370 536. 1277.
1341(54) 0.0003429 534. 1370.
1421(56) 0.0003189 533. 1473.
1421(56) 0.0003189 531. 1588.
1707(61) 0.0002687 529. 1719.
1869(64) 0.0002441 528. 1869.
2072(68) 0.0002163 526. 2043.
2131(69) 0.0002100 525. 2250.
2425(73) 0.0001877 523. 2502.
2938(81) 0.0001524 522. 2820.
3208(84) 0.0001417 520. 3228.
3824(92) 0.0001181 519. 3746.
4310(98) 0.0001041 517. 4362.
5240(110) 0.0000857 516. 4994.
5500(110) 0.0000812 515. 5471.
5690(110) 0.0000797 513. 5571.
5020(110) 0.0000890 512. 5134.
4283(97) 0.0001063 510. 4224.
3307(85) 0.0001384 509. 3131.
2138(68) 0.0002163 508. 2155.
1324(54) 0.0003429 506. 1449.
1032(47) 0.000453 505. 1019.
806(42) 0.000567 504. 793.
701(39) 0.000657 503. 684.
583(35) 0.000816 501.2 631.2
550(34) 0.000865 500.0 602.7
552(34) 0.000865 498.7 584.3
540(34) 0.000865 497.5 570.5
515(33) 0.000918 496.3 559.5
506(33) 0.000918 495.1 550.4
529(33) 0.000918 493.9 542.7
494(32) 0.000977 492.7 536.1
529(33) 0.000918 491.5 530.4
459(31) 0.001041 490.4 525.4
466(31) 0.001041 489.2 521.0
480(32) 0.000977 488.1 517.0
479(32) 0.000977 487.0 513.4
469(31) 0.001041 485.9 510.2
539(34) 0.000865 484.8 507.2
528(33) 0.000918 483.7 504.4
463(31) 0.001041 482.6 501.8
471(31) 0.001041 481.5 499.4
502(32) 0.000977 480.5 497.2
483(32) 0.000977 479.4 495.0
471(31) 0.001041 478.4 493.0
486(32) 0.000977 477.4 491.1
437(30) 0.001111 476.4 489.3
476(32) 0.000977 475.4 487.6
437(30) 0.001111 474.4 485.9
414(29) 0.001189 473.4 484.3
480(32) 0.000977 472.4 482.8
449(31) 0.001041 471.5 481.3
424(30) 0.001111 470.5 479.8
429(30) 0.001111 469.6 478.5
465(31) 0.001041 468.6 477.1
441(30) 0.001111 467.7 475.8
495(32) 0.000977 466.8 474.5
475(32) 0.000977 465.9 473.3
481(32) 0.000977 465.0 472.1
481(32) 0.000977 464.1 470.9
494(44) 0.000517 463. 470.
447(42) 0.000567 462. 469.
406(39) 0.000657 462. 468.
453(42) 0.000567 461. 466.
454(31) 0.001041 459.8 465.5
467(31) 0.001041 459.0 464.4
475(31) 0.001041 458.2 463.4
465(31) 0.001041 457.4 462.4
444(30) 0.001111 456.5 461.4
485(32) 0.000977 455.7 460.5
466(31) 0.001041 454.9 459.5
443(30) 0.001111 454.2 458.6
489(32) 0.000977 453.4 457.7
480(32) 0.000977 452.6 456.8
506(32) 0.000977 451.9 455.9
481(32) 0.000977 451.1 455.0
476(31) 0.001041 450.4 454.2
472(31) 0.001041 449.6 453.3
444(30) 0.001111 448.9 452.5
464(31) 0.001041 448.2 451.7
514(33) 0.000918 447.4 450.9
482(32) 0.000977 446.7 450.1
463(31) 0.001041 446.0 449.3
443(30) 0.001111 445.3 448.5
433(30) 0.001111 444.6 447.7
449(30) 0.001111 444.0 447.0
467(31) 0.001041 443.3 446.2
426(30) 0.001111 442.6 445.5
435(30) 0.001111 441.9 444.8
433(30) 0.001111 441.3 444.0
489(32) 0.000977 440.6 443.3
443(30) 0.001111 440.0 442.6
451(31) 0.001041 439.3 441.9
451(31) 0.001041 438.7 441.3
474(31) 0.001041 438.1 440.6
442(30) 0.001111 437.5 439.9
438(30) 0.001111 436.8 439.3
433(30) 0.001111 436.2 438.6
496(32) 0.000977 435.6 438.0
451(31) 0.001041 435.0 437.3
465(31) 0.001041 434.4 436.7
441(30) 0.001111 433.8 436.1
485(32) 0.000977 433.3 435.5
404(29) 0.001189 432.7 434.9
406(29) 0.001189 432.1 434.3
439(30) 0.001111 431.5 433.7
423(29) 0.001189 431.0 433.1
397(28) 0.001276 430.4 432.5
440(30) 0.001111 429.9 431.9
486(32) 0.000977 429.3 431.4
413(29) 0.001189 428.8 430.8
439(30) 0.001111 428.2 430.3
455(31) 0.001041 427.7 429.8
495(32) 0.000977 427.2 429.3
467(31) 0.001041 426.6 428.8
430(30) 0.001111 426.1 428.3
423(29) 0.001189 425.6 427.8
437(30) 0.001111 425.1 427.3
464(31) 0.001041 424.6 426.8
449(30) 0.001111 424.1 426.3
448(30) 0.001111 423.6 425.9
413(29) 0.001189 423.1 425.4
432(30) 0.001111 422.6 425.0
454(31) 0.001041 422.1 424.5
447(30) 0.001111 421.6 424.1
457(31) 0.001041 421.2 423.7
425(30) 0.001111 420.7 423.4
429(30) 0.001111 420.2 423.0
426(30) 0.001111 419.8 422.7
454(31) 0.001041 419.3 422.4
462(31) 0.001041 418.8 422.2
419(29) 0.001189 418.4 422.0
463(31) 0.001041 417.9 421.9
424(30) 0.001111 417.5 422.0
427(30) 0.001111 417.1 422.5
436(30) 0.001111 416.6 423.4
448(30) 0.001111 416.2 425.1
419(29) 0.001189 415.7 427.8
434(30) 0.001111 415.3 431.6
468(31) 0.001041 414.9 436.5
445(30) 0.001111 414.5 442.5
435(30) 0.001111 414.0 449.9
450(30) 0.001111 413.6 458.6
431(30) 0.001111 413.2 469.2
489(32) 0.000977 412.8 482.4
511(33) 0.000918 412.4 499.1
577(35) 0.000816 412.0 520.8
574(35) 0.000816 411.6 548.2
579(35) 0.000816 411.2 580.1
628(36) 0.000772 411. 611.
686(38) 0.000693 410. 632.
643(37) 0.000730 410. 630.
614(36) 0.000772 410. 601.
544(34) 0.000865 409.3 553.9
491(32) 0.000977 408.9 505.1
468(31) 0.001041 408.5 466.6
498(32) 0.000977 408.1 441.7
449(30) 0.001111 407.8 427.5
388(28) 0.001276 407.4 420.3
423(29) 0.001189 407.0 416.5
450(45) 0.000494 407. 414.
428(29) 0.001189 406.3 412.9
415(29) 0.001189 405.9 411.7
413(29) 0.001189 405.6 410.7
423(29) 0.001189 405.2 409.9
452(30) 0.001111 404.9 409.2
443(30) 0.001111 404.5 408.6
393(28) 0.001276 404.2 408.0
408(29) 0.001189 403.8 407.4
425(29) 0.001189 403.5 407.0
417(29) 0.001189 403.2 406.5
428(29) 0.001189 402.8 406.1
455(30) 0.001111 402.5 405.7
454(30) 0.001111 402.2 405.4
425(29) 0.001189 401.8 405.0
434(30) 0.001111 401.5 404.7
415(29) 0.001189 401.2 404.5
414(29) 0.001189 400.9 404.2
422(29) 0.001189 400.5 404.0
435(30) 0.001111 400.2 403.9
413(29) 0.001189 399.9 403.8
390(28) 0.001276 399.6 403.8
373(27) 0.001372 399.3 404.0
420(29) 0.001189 399.0 404.3
436(30) 0.001111 398.6 405.2
403(28) 0.001276 398.3 406.7
429(29) 0.001189 398.0 409.1
435(30) 0.001111 397.7 412.7
426(29) 0.001189 397.4 417.7
452(30) 0.001111 397.1 424.1
415(29) 0.001189 396.8 432.3
419(29) 0.001189 396.5 442.4
444(30) 0.001111 396.2 455.2
442(30) 0.001111 395.9 471.6
508(32) 0.000977 395.6 492.8
505(32) 0.000977 395.4 519.1
513(32) 0.000977 395.1 548.1
541(33) 0.000918 394.8 573.8
579(34) 0.000865 394.5 586.1
543(33) 0.000918 394.2 575.9
520(33) 0.000918 393.9 543.1
476(31) 0.001041 393.7 500.5
459(30) 0.001111 393.4 462.0
439(30) 0.001111 393.1 434.1
478(31) 0.001041 392.8 417.1
404(28) 0.001276 392.5 407.9
422(29) 0.001189 392.3 403.2
421(29) 0.001189 392.0 400.6
364(27) 0.001372 391.7 399.1
401(28) 0.001276 391.5 398.0
421(29) 0.001189 391.2 397.1
364(27) 0.001372 390.9 396.4
371(27) 0.001372 390.7 395.9
382(28) 0.001276 390.4 395.4
398(28) 0.001276 390.1 395.0
382(28) 0.001276 389.9 394.6
444(30) 0.001111 389.6 394.4
390(28) 0.001276 389.4 394.1
373(27) 0.001372 389.1 394.0
436(30) 0.001111 388.9 393.9
448(30) 0.001111 388.6 393.8
389(28) 0.001276 388.4 393.8
370(27) 0.001372 388.1 393.9
384(28) 0.001276 387.9 394.1
415(29) 0.001189 387.6 394.4
428(29) 0.001189 387.4 394.8
383(28) 0.001276 387.1 395.4
402(28) 0.001276 386.9 396.3
390(28) 0.001276 386.6 397.7
383(28) 0.001276 386.4 400.0
360(27) 0.001372 386.2 403.7
363(27) 0.001372 385.9 409.8
378(27) 0.001372 385.7 419.1
426(29) 0.001189 385.4 432.6
467(31) 0.001041 385.2 451.0
453(30) 0.001111 385.0 475.3
464(31) 0.001041 384.7 506.4
479(31) 0.001041 384.5 546.7
521(33) 0.000918 384.3 598.8
638(36) 0.000772 384. 665.
737(39) 0.000657 384. 741.
816(41) 0.000595 384. 816.
874(43) 0.000541 383. 865.
806(41) 0.000595 383. 861.
731(39) 0.000657 383. 793.
627(36) 0.000772 383. 687.
564(34) 0.000865 382.5 581.5
513(32) 0.000977 382.3 501.6
438(30) 0.001111 382.0 451.0
359(27) 0.001372 381.8 423.2
403(28) 0.001276 381.6 409.0
389(28) 0.001276 381.4 401.7
364(27) 0.001372 381.2 397.4
396(28) 0.001276 381.0 394.5
358(27) 0.001372 380.7 392.3
401(28) 0.001276 380.5 390.5
401(28) 0.001276 380.3 389.1
380(28) 0.001276 380.1 387.9
364(27) 0.001372 379.9 386.9
355(27) 0.001372 379.7 386.1
362(25) 0.001600 379.5 385.3
375(26) 0.001479 379.3 384.7
383(26) 0.001479 379.1 384.1
385(26) 0.001479 378.9 383.6
421(28) 0.001276 378.7 383.2
402(27) 0.001372 378.5 382.8
359(25) 0.001600 378.3 382.5
372(26) 0.001479 378.1 382.2
380(26) 0.001479 377.9 382.0
381(26) 0.001479 377.7 381.9
359(25) 0.001600 377.5 382.0
364(25) 0.001600 377.3 382.3
362(25) 0.001600 377.1 382.9
376(26) 0.001479 376.9 384.1
403(27) 0.001372 376.7 386.0
420(28) 0.001276 376.5 388.8
423(28) 0.001276 376.3 392.7
356(25) 0.001600 376.1 398.0
372(26) 0.001479 375.9 404.9
375(26) 0.001479 375.7 413.9
386(26) 0.001479 375.5 424.6
403(27) 0.001372 375.3 435.4
452(29) 0.001189 375.2 443.4
481(30) 0.001111 375.0 444.3
486(30) 0.001111 374.8 436.0
380(26) 0.001479 374.6 421.2
418(27) 0.001372 374.4 406.0
369(26) 0.001479 374.2 394.0
348(25) 0.001600 374.0 386.2
367(26) 0.001479 373.9 381.7
376(26) 0.001479 373.7 379.4
383(26) 0.001479 373.5 378.2
396(27) 0.001372 373.3 377.4
344(25) 0.001600 373.1 376.9
382(26) 0.001479 373.0 376.4
344(25) 0.001600 372.8 376.1
347(25) 0.001600 372.6 375.8
358(25) 0.001600 372.4 375.5
360(25) 0.001600 372.3 375.3
396(27) 0.001372 372.1 375.1
381(26) 0.001479 371.9 374.9
378(26) 0.001479 371.7 374.8
398(27) 0.001372 371.6 374.7
353(25) 0.001600 371.4 374.6
361(25) 0.001600 371.2 374.6
381(26) 0.001479 371.1 374.6
366(26) 0.001479 370.9 374.7
354(25) 0.001600 370.7 374.9
422(28) 0.001276 370.6 375.1
370(26) 0.001479 370.4 375.6
373(26) 0.001479 370.2 376.5
364(26) 0.001479 370.1 378.0
375(26) 0.001479 369.9 380.4
376(26) 0.001479 369.8 384.3
327(24) 0.001736 369.6 390.1
382(26) 0.001479 369.4 398.2
399(27) 0.001372 369.3 409.5
417(27) 0.001372 369.1 424.5
407(27) 0.001372 369.0 443.7
469(29) 0.001189 368.8 466.0
475(29) 0.001189 368.6 487.8
459(29) 0.001189 368.5 502.3
488(30) 0.001111 368.3 501.4
454(29) 0.001189 368.2 482.0
457(29) 0.001189 368.0 452.2
422(28) 0.001276 367.9 423.5
409(27) 0.001372 367.7 402.0
389(26) 0.001479 367.6 388.5
384(26) 0.001479 367.4 381.1
391(26) 0.001479 367.3 377.2
366(26) 0.001479 367.1 375.1
323(24) 0.001736 367.0 373.9
357(25) 0.001600 366.8 373.0
374(26) 0.001479 366.7 372.4
373(26) 0.001479 366.5 371.9
385(26) 0.001479 366.4 371.6
343(25) 0.001600 366.3 371.4
324(24) 0.001736 366.1 371.2
377(26) 0.001479 366.0 371.1
398(27) 0.001372 365.8 371.2
341(25) 0.001600 365.7 371.3
405(27) 0.001372 365.5 371.6
392(27) 0.001372 365.4 372.1
357(25) 0.001600 365.3 373.0
360(25) 0.001600 365.1 374.5
360(25) 0.001600 365.0 377.0
403(27) 0.001372 364.9 381.1
409(27) 0.001372 364.7 387.3
373(26) 0.001479 364.6 396.5
382(26) 0.001479 364.5 409.5
406(27) 0.001372 364.3 427.1
442(28) 0.001276 364.2 449.4
496(30) 0.001111 364.1 475.0
498(30) 0.001111 363.9 499.1
544(32) 0.000977 363.8 513.5
574(32) 0.000977 363.7 509.4
461(29) 0.001189 363.5 485.3
445(28) 0.001276 363.4 451.9
395(27) 0.001372 363.3 421.5
397(27) 0.001372 363.2 399.6
371(26) 0.001479 363.0 386.3
398(26) 0.001479 362.9 379.1
391(26) 0.001479 362.8 375.4
351(24) 0.001736 362.7 373.5
376(25) 0.001600 362.5 372.4
383(26) 0.001479 362.4 371.7
387(26) 0.001479 362.3 371.4
364(25) 0.001600 362.2 371.2
335(24) 0.001736 362.1 371.3
399(26) 0.001479 361.9 371.5
378(25) 0.001600 361.8 371.9
355(25) 0.001600 361.7 372.5
403(26) 0.001479 361.6 373.4
383(26) 0.001479 361.5 374.5
369(25) 0.001600 361.4 376.1
391(26) 0.001479 361.2 378.3
416(27) 0.001372 361.1 381.6
370(25) 0.001600 361.0 386.7
413(27) 0.001372 360.9 394.9
467(29) 0.001189 360.8 408.1
438(28) 0.001276 360.7 428.8
428(27) 0.001372 360.6 460.2
505(30) 0.001111 360.5 505.4
592(33) 0.000918 360.4 568.0
634(34) 0.000865 360.2 648.4
758(37) 0.000730 360. 741.
796(38) 0.000693 360. 831.
966(42) 0.000567 360. 892.
910(41) 0.000595 360. 894.
809(38) 0.000693 360. 830.
738(37) 0.000730 360. 724.
651(34) 0.000865 359.5 610.4
569(32) 0.000977 359.4 518.8
508(30) 0.001111 359.3 457.0
432(27) 0.001372 359.2 420.3
408(27) 0.001372 359.1 400.2
384(26) 0.001479 359.0 389.2
417(27) 0.001372 358.9 382.9
381(26) 0.001479 358.8 378.7
384(26) 0.001479 358.7 375.6
444(28) 0.001276 358.6 373.3
396(26) 0.001479 358.5 371.5
394(26) 0.001479 358.4 370.1
420(27) 0.001372 358.3 369.0
384(26) 0.001479 358.3 368.1
347(24) 0.001736 358.2 367.4
401(26) 0.001479 358.1 366.9
411(27) 0.001372 358.0 366.8
400(26) 0.001479 357.9 367.0
392(26) 0.001479 357.8 367.7
391(26) 0.001479 357.7 369.1
383(26) 0.001479 357.6 371.7
396(26) 0.001479 357.5 375.9
373(25) 0.001600 357.5 382.1
366(25) 0.001600 357.4 390.7
393(26) 0.001479 357.3 401.4
417(27) 0.001372 357.2 412.8
415(27) 0.001372 357.1 421.9
414(27) 0.001372 357.0 424.6
388(26) 0.001479 357.0 418.0
390(26) 0.001479 356.9 404.5
398(26) 0.001479 356.8 390.0
394(26) 0.001479 356.7 378.5
392(26) 0.001479 356.6 370.9
364(25) 0.001600 356.6 366.4
409(27) 0.001372 356.5 363.9
374(25) 0.001600 356.4 362.6
349(24) 0.001736 356.3 361.7
377(25) 0.001600 356.2 361.1
330(24) 0.001736 356.2 360.6
412(27) 0.001372 356.1 360.3
394(26) 0.001479 356.0 359.9
334(24) 0.001736 355.9 359.7
373(25) 0.001600 355.9 359.7
381(26) 0.001479 355.8 359.6
392(26) 0.001479 355.7 359.4
410(27) 0.001372 355.7 359.3
408(27) 0.001372 355.6 359.2
376(25) 0.001600 355.5 359.1
344(24) 0.001736 355.5 359.0
353(24) 0.001736 355.4 358.9
349(24) 0.001736 355.3 358.9
342(24) 0.001736 355.3 358.8
371(25) 0.001600 355.2 358.8
376(25) 0.001600 355.1 358.8
385(26) 0.001479 355.1 358.9
354(25) 0.001600 355.0 358.9
345(24) 0.001736 354.9 358.9
379(25) 0.001600 354.9 359.0
379(25) 0.001600 354.8 359.1
386(26) 0.001479 354.8 359.2
398(26) 0.001479 354.7 359.3
380(26) 0.001479 354.6 359.5
387(26) 0.001479 354.6 359.7
386(26) 0.001479 354.5 359.9
357(25) 0.001600 354.5 360.2
339(24) 0.001736 354.4 360.5
356(25) 0.001600 354.3 360.9
363(25) 0.001600 354.3 361.4
383(26) 0.001479 354.2 361.9
370(25) 0.001600 354.2 362.6
366(24) 0.001736 354.1 363.4
360(24) 0.001736 354.1 364.5
363(24) 0.001736 354.0 365.7
388(25) 0.001600 354.0 367.4
402(26) 0.001479 353.9 369.7
376(25) 0.001600 353.9 372.9
407(26) 0.001479 353.8 377.9
389(25) 0.001600 353.8 386.0
412(26) 0.001479 353.7 399.0
410(26) 0.001479 353.7 419.7
472(28) 0.001276 353.6 451.1
517(29) 0.001189 353.6 495.7
598(32) 0.000977 353.5 553.6
631(33) 0.000918 353.5 619.5
747(36) 0.000772 353. 680.
750(36) 0.000772 353. 715.
727(35) 0.000816 353.3 705.5
637(33) 0.000918 353.3 652.4
569(31) 0.001041 353.3 576.6
511(29) 0.001189 353.2 504.6
464(28) 0.001276 353.2 450.7
408(26) 0.001479 353.1 416.0
395(25) 0.001600 353.1 396.1
379(25) 0.001600 353.1 385.4
385(25) 0.001600 353.0 379.6
395(25) 0.001600 353.0 376.3
353(24) 0.001736 352.9 374.4
356(24) 0.001736 352.9 373.3
369(24) 0.001736 352.9 372.9
369(24) 0.001736 352.8 373.0
361(24) 0.001736 352.8 373.9
368(24) 0.001736 352.8 375.5
397(25) 0.001600 352.7 378.2
384(25) 0.001600 352.7 383.0
387(25) 0.001600 352.6 390.8
388(25) 0.001600 352.6 404.0
413(26) 0.001479 352.6 425.4
467(28) 0.001276 352.5 458.5
550(30) 0.001111 352.5 505.5
615(32) 0.000977 352.5 566.4
634(33) 0.000918 352.5 636.8
712(35) 0.000816 352.4 701.6
703(35) 0.000816 352.4 738.1
725(35) 0.000816 352.4 726.5
676(34) 0.000865 352.3 668.7
581(31) 0.001041 352.3 588.7
487(28) 0.001276 352.3 513.6
457(27) 0.001372 352.2 457.6
440(27) 0.001372 352.2 421.6
415(26) 0.001479 352.2 400.9
366(24) 0.001736 352.2 389.8
407(26) 0.001479 352.1 383.9
393(25) 0.001600 352.1 380.6
362(24) 0.001736 352.1 379.0
385(25) 0.001600 352.1 378.4
412(26) 0.001479 352.0 378.7
365(24) 0.001736 352.0 379.9
373(25) 0.001600 352.0 382.2
377(25) 0.001600 352.0 386.2
373(25) 0.001600 352.0 392.8
428(27) 0.001372 351.9 404.2
473(28) 0.001276 351.9 423.4
484(28) 0.001276 351.9 455.2
539(30) 0.001111 351.9 504.9
571(31) 0.001041 351.8 576.0
687(34) 0.000865 351.8 667.2
792(37) 0.000730 352. 771.
836(38) 0.000693 352. 862.
923(40) 0.000625 352. 902.
910(40) 0.000625 352. 864.
774(36) 0.000772 352. 759.
635(33) 0.000918 351.7 639.1
516(29) 0.001189 351.7 539.0
472(28) 0.001276 351.7 469.9
415(26) 0.001479 351.7 428.0
403(26) 0.001479 351.7 404.5
380(25) 0.001600 351.6 391.5
383(25) 0.001600 351.6 383.9
361(24) 0.001736 351.6 379.0
381(25) 0.001600 351.6 375.7
373(25) 0.001600 351.6 373.5
390(25) 0.001600 351.6 372.3
379(25) 0.001600 351.6 372.2
357(24) 0.001736 351.5 373.6
367(24) 0.001736 351.5 377.4
396(25) 0.001600 351.5 383.7
436(27) 0.001372 351.5 393.1
439(27) 0.001372 351.5 405.2
446(27) 0.001372 351.5 418.3
418(26) 0.001479 351.5 428.6
446(27) 0.001372 351.5 430.9
447(27) 0.001372 351.4 422.6
401(26) 0.001479 351.4 407.3
395(25) 0.001600 351.4 391.5
378(25) 0.001600 351.4 379.1
382(25) 0.001600 351.4 370.8
370(24) 0.001736 351.4 365.8
366(24) 0.001736 351.4 362.9
396(25) 0.001600 351.4 361.3
372(19) 0.002770 351.4 360.2
345(22) 0.002066 351.4 359.5
322(21) 0.002268 351.4 359.0
323(21) 0.002268 351.4 358.6
320(21) 0.002268 351.3 358.4
351(22) 0.002066 351.3 358.2
374(23) 0.001890 351.3 358.2
357(23) 0.001890 351.3 358.2
341(22) 0.002066 351.3 358.4
349(22) 0.002066 351.3 358.7
366(23) 0.001890 351.3 359.3
352(22) 0.002066 351.3 360.3
368(23) 0.001890 351.3 361.8
366(23) 0.001890 351.3 364.1
354(22) 0.002066 351.3 367.3
365(23) 0.001890 351.3 371.3
364(23) 0.001890 351.3 375.7
374(23) 0.001890 351.3 380.2
376(23) 0.001890 351.3 384.0
382(23) 0.001890 351.3 385.8
401(24) 0.001736 351.3 384.2
392(24) 0.001736 351.3 379.6
380(23) 0.001890 351.3 373.9
381(23) 0.001890 351.2 369.2
383(23) 0.001890 351.2 366.0
365(23) 0.001890 351.2 364.3
350(22) 0.002066 351.2 363.7
357(23) 0.001890 351.2 363.9
328(22) 0.002066 351.2 364.8
355(22) 0.002066 351.2 366.3
373(23) 0.001890 351.2 368.5
364(23) 0.001890 351.2 372.1
356(23) 0.001890 351.2 378.0
393(24) 0.001736 351.2 387.9
401(24) 0.001736 351.2 404.1
439(25) 0.001600 351.2 429.5
438(25) 0.001600 351.2 465.3
488(27) 0.001372 351.2 509.8
551(28) 0.001276 351.2 556.7
619(30) 0.001111 351.2 592.5
566(29) 0.001189 351.2 599.5
580(29) 0.001189 351.2 570.4
487(27) 0.001372 351.2 519.5
462(26) 0.001479 351.2 468.3
417(24) 0.001736 351.2 428.5
377(23) 0.001890 351.2 401.8
434(25) 0.001600 351.2 385.7
390(24) 0.001736 351.2 376.6
356(23) 0.001890 351.2 371.4
342(22) 0.002066 351.2 368.2
353(22) 0.002066 351.2 366.0
333(22) 0.002066 351.2 364.5
342(22) 0.002066 351.2 363.4
356(23) 0.001890 351.2 362.5
360(23) 0.001890 351.2 361.9
365(23) 0.001890 351.2 361.4
347(22) 0.002066 351.2 361.1
347(22) 0.002066 351.2 360.9
330(22) 0.002066 351.2 360.8
337(22) 0.002066 351.2 360.9
334(22) 0.002066 351.2 361.0
323(21) 0.002268 351.2 361.4
333(22) 0.002066 351.2 362.1
358(23) 0.001890 351.2 362.9
342(22) 0.002066 351.2 364.0
339(22) 0.002066 351.2 365.1
348(22) 0.002066 351.2 366.0
368(23) 0.001890 351.2 366.5
361(23) 0.001890 351.2 366.6
358(23) 0.001890 351.2 366.4
338(22) 0.002066 351.2 366.4
350(22) 0.002066 351.2 366.8
357(23) 0.001890 351.2 367.6
352(22) 0.002066 351.2 368.9
370(23) 0.001890 351.2 370.5
344(22) 0.002066 351.2 372.6
346(22) 0.002066 351.2 375.2
347(22) 0.002066 351.2 378.6
371(23) 0.001890 351.2 383.1
384(23) 0.001890 351.2 389.3
388(24) 0.001736 351.2 398.2
391(24) 0.001736 351.2 411.5
439(25) 0.001600 351.2 431.3
479(26) 0.001479 351.2 460.4
533(28) 0.001276 351.2 502.7
608(30) 0.001111 351.1 562.7
707(32) 0.000977 351.1 644.2
776(34) 0.000865 351.1 745.8
895(36) 0.000772 351. 859.
956(38) 0.000693 351. 964.
1034(39) 0.000657 351. 1035.
1010(39) 0.000657 351. 1027.
931(37) 0.000730 351. 924.
746(33) 0.000918 351.1 780.5
634(30) 0.001111 351.1 648.5
559(29) 0.001189 351.1 549.6
487(27) 0.001372 351.1 484.9
442(25) 0.001600 351.1 446.7
406(24) 0.001736 351.1 425.7
391(24) 0.001736 351.1 414.6
390(22) 0.002066 351.1 409.5
391(22) 0.002066 351.1 408.9
386(22) 0.002066 351.1 412.9
425(23) 0.001890 351.1 423.0
439(24) 0.001736 351.1 441.1
512(26) 0.001479 351.1 469.0
543(26) 0.001479 351.0 506.7
558(27) 0.001372 351.0 552.0
590(28) 0.001276 351.0 599.9
641(29) 0.001189 351.0 639.3
653(29) 0.001189 351.0 661.1
702(30) 0.001111 351.0 665.3
655(29) 0.001189 351.0 646.8
623(28) 0.001276 351.0 600.8
610(28) 0.001276 351.0 541.6
532(26) 0.001479 351.0 487.7
447(24) 0.001736 351.0 447.1
394(22) 0.002066 350.9 420.0
364(21) 0.002268 350.9 403.7
369(21) 0.002268 350.9 394.5
388(22) 0.002066 350.9 389.9
387(22) 0.002066 350.9 387.9
376(22) 0.002066 350.9 388.1
361(21) 0.002268 350.9 390.6
330(20) 0.002500 350.9 396.1
378(22) 0.002066 350.9 406.0
388(22) 0.002066 350.8 422.4
448(24) 0.001736 350.8 447.2
504(25) 0.001600 350.8 481.3
526(26) 0.001479 350.8 524.2
585(27) 0.001372 350.8 572.6
625(28) 0.001276 350.8 618.2
643(29) 0.001189 350.8 652.2
660(29) 0.001189 350.7 669.4
619(28) 0.001276 350.7 659.7
606(28) 0.001276 350.7 617.4
571(27) 0.001372 350.7 556.9
528(26) 0.001479 350.7 498.3
467(24) 0.001736 350.7 452.0
414(23) 0.001890 350.6 419.8
373(22) 0.002066 350.6 399.4
359(21) 0.002268 350.6 387.0
378(22) 0.002066 350.6 379.5
396(22) 0.002066 350.6 374.6
344(21) 0.002268 350.6 371.2
365(21) 0.002268 350.5 368.7
343(21) 0.002268 350.5 366.8
362(21) 0.002268 350.5 365.3
347(21) 0.002268 350.5 364.0
347(21) 0.002268 350.4 363.0
334(20) 0.002500 350.4 362.2
332(20) 0.002500 350.4 361.5
358(21) 0.002268 350.4 361.0
390(22) 0.002066 350.4 360.6
347(21) 0.002268 350.3 360.3
352(21) 0.002268 350.3 360.0
350(21) 0.002268 350.3 359.9
391(22) 0.002066 350.3 359.9
398(22) 0.002066 350.2 359.9
333(20) 0.002500 350.2 360.2
343(21) 0.002268 350.2 360.5
358(21) 0.002268 350.2 361.0
373(22) 0.002066 350.1 361.7
381(22) 0.002066 350.1 362.7
349(21) 0.002268 350.1 364.3
369(21) 0.002268 350.0 366.9
402(22) 0.002066 350.0 371.1
385(22) 0.002066 350.0 378.0
395(22) 0.002066 350.0 388.9
421(23) 0.001890 349.9 404.6
428(23) 0.001890 349.9 424.7
450(24) 0.001736 349.9 446.1
471(24) 0.001736 349.8 463.5
463(24) 0.001736 349.8 470.1
469(24) 0.001736 349.8 460.6
477(25) 0.001600 349.7 439.6
402(22) 0.002066 349.7 416.8
387(22) 0.002066 349.7 397.8
353(21) 0.002268 349.6 384.3
348(21) 0.002268 349.6 375.7
351(21) 0.002268 349.5 370.8
363(21) 0.002268 349.5 368.1
350(21) 0.002268 349.5 366.9
335(20) 0.002500 349.4 366.5
355(21) 0.002268 349.4 366.8
349(21) 0.002268 349.4 367.6
364(21) 0.002268 349.3 369.3
376(22) 0.002066 349.3 372.1
383(22) 0.002066 349.2 376.6
373(22) 0.002066 349.2 383.8
402(22) 0.002066 349.1 395.4
432(23) 0.001890 349.1 413.0
455(24) 0.001736 349.1 438.1
495(25) 0.001600 349.0 470.9
524(26) 0.001479 349.0 508.2
531(26) 0.001479 348.9 543.1
558(27) 0.001372 348.9 566.3
575(27) 0.001372 348.8 566.7
556(27) 0.001372 348.8 540.1
490(25) 0.001600 348.7 498.6
443(22) 0.002066 348.7 457.9
424(22) 0.002066 348.6 425.6
398(21) 0.002268 348.6 403.2
393(21) 0.002268 348.5 389.1
373(20) 0.002500 348.5 381.0
383(20) 0.002500 348.4 376.8
387(20) 0.002500 348.4 375.2
378(20) 0.002500 348.3 375.7
373(20) 0.002500 348.3 378.4
391(21) 0.002268 348.2 383.9
385(20) 0.002500 348.2 393.1
408(21) 0.002268 348.1 406.2
413(21) 0.002268 348.1 422.8
450(22) 0.002066 348.0 440.9
471(23) 0.001890 348.0 457.3
492(23) 0.001890 347.9 468.0
480(23) 0.001890 347.8 471.7
480(23) 0.001890 347.8 468.0
477(23) 0.001890 347.7 455.8
452(22) 0.002066 347.7 436.9
435(22) 0.002066 347.6 416.5
409(21) 0.002268 347.5 399.2
381(20) 0.002500 347.5 386.3
379(20) 0.002500 347.4 377.8
369(20) 0.002500 347.3 372.7
380(20) 0.002500 347.3 370.0
383(20) 0.002500 347.2 369.0
375(20) 0.002500 347.2 369.3
360(20) 0.002500 347.1 371.0
376(20) 0.002500 347.0 374.7
386(20) 0.002500 347.0 381.4
384(20) 0.002500 346.9 393.0
434(22) 0.002066 346.8 411.0
458(22) 0.002066 346.7 436.0
449(22) 0.002066 346.7 466.5
491(23) 0.001890 346.6 495.7
504(24) 0.001736 346.5 510.7
491(23) 0.001890 346.5 501.8
468(23) 0.001890 346.4 475.1
431(22) 0.002066 346.3 444.1
423(21) 0.002268 346.2 417.2
424(22) 0.002066 346.2 397.3
385(20) 0.002500 346.1 384.2
395(21) 0.002268 346.0 376.4
385(20) 0.002500 345.9 372.2
376(20) 0.002500 345.9 370.4
382(20) 0.002500 345.8 370.4
394(21) 0.002268 345.7 372.1
399(21) 0.002268 345.6 376.0
381(20) 0.002500 345.5 382.6
404(21) 0.002268 345.5 392.7
419(21) 0.002268 345.4 406.6
443(22) 0.002066 345.3 423.7
466(23) 0.001890 345.2 441.7
452(22) 0.002066 345.1 458.9
430(22) 0.002066 345.0 475.0
495(23) 0.001890 345.0 486.7
514(24) 0.001736 344.9 485.9
479(23) 0.001890 344.8 469.4
451(22) 0.002066 344.7 444.8
435(22) 0.002066 344.6 420.6
405(21) 0.002268 344.5 401.3
405(21) 0.002268 344.4 387.7
391(21) 0.002268 344.3 379.3
368(20) 0.002500 344.2 374.7
376(20) 0.002500 344.2 372.9
355(19) 0.002770 344.1 373.1
368(20) 0.002500 344.0 375.5
405(21) 0.002268 343.9 380.5
379(20) 0.002500 343.8 389.7
397(21) 0.002268 343.7 405.2
452(22) 0.002066 343.6 429.3
480(23) 0.001890 343.5 463.1
487(23) 0.001890 343.4 505.2
551(25) 0.001600 343.3 548.3
616(26) 0.001479 343.2 577.1
555(25) 0.001600 343.1 575.9
590(26) 0.001479 343.0 545.7
559(25) 0.001600 342.9 502.3
489(23) 0.001890 342.8 460.3
464(23) 0.001890 342.7 426.6
426(22) 0.002066 342.6 402.6
406(21) 0.002268 342.5 386.9
378(20) 0.002500 342.4 377.5
357(20) 0.002500 342.3 372.1
349(19) 0.002770 342.2 369.3
371(20) 0.002500 342.0 368.5
358(20) 0.002500 341.9 369.6
376(20) 0.002500 341.8 373.0
386(20) 0.002500 341.7 379.5
391(21) 0.002268 341.6 389.8
377(20) 0.002500 341.5 403.8
404(21) 0.002268 341.4 420.6
401(21) 0.002268 341.3 436.9
412(21) 0.002268 341.2 446.7
447(22) 0.002066 341.0 443.9
457(22) 0.002066 340.9 429.5
437(22) 0.002066 340.8 410.8
425(22) 0.002066 340.7 393.4
387(20) 0.002500 340.6 379.7
356(18) 0.003086 340.5 370.0
384(19) 0.002770 340.3 363.7
353(18) 0.003086 340.2 359.8
334(18) 0.003086 340.1 357.6
358(18) 0.003086 340.0 356.4
373(19) 0.002770 339.8 355.9
374(19) 0.002770 339.7 356.2
387(19) 0.002770 339.6 357.2
361(18) 0.003086 339.5 359.3
324(17) 0.003460 339.4 362.7
373(19) 0.002770 339.2 367.5
376(19) 0.002770 339.1 373.4
379(19) 0.002770 339.0 379.2
385(19) 0.002770 338.8 382.9
406(20) 0.002500 338.7 382.6
410(20) 0.002500 338.6 379.1
356(18) 0.003086 338.5 374.7
379(19) 0.002770 338.3 371.1
355(18) 0.003086 338.2 369.3
339(18) 0.003086 338.1 369.4
347(18) 0.003086 337.9 371.9
367(19) 0.002770 337.8 377.5
403(20) 0.002500 337.7 387.5
395(19) 0.002770 337.5 404.3
428(20) 0.002500 337.4 430.5
492(22) 0.002066 337.2 468.6
542(23) 0.001890 337.1 519.2
581(24) 0.001736 337.0 578.3
625(25) 0.001600 336.8 633.6
652(25) 0.001600 336.7 662.9
693(26) 0.001479 336.5 649.6
620(25) 0.001600 336.4 602.6
590(24) 0.001736 336.3 544.4
520(23) 0.001890 336.1 490.6
507(22) 0.002066 336.0 447.2
433(20) 0.002500 335.8 415.4
424(20) 0.002500 335.7 393.8
409(20) 0.002500 335.5 379.8
398(20) 0.002500 335.4 370.9
372(19) 0.002770 335.2 365.3
372(19) 0.002770 335.1 361.6
377(19) 0.002770 334.9 359.4
349(18) 0.003086 334.8 358.4
339(18) 0.003086 334.6 358.5
327(18) 0.003086 334.5 359.5
355(18) 0.003086 334.3 361.5
371(19) 0.002770 334.2 363.9
350(18) 0.003086 334.0 365.7
366(19) 0.002770 333.9 366.0
390(19) 0.002770 333.7 364.5
375(19) 0.002770 333.6 362.4
365(19) 0.002770 333.4 360.7
361(18) 0.003086 333.2 360.2
372(19) 0.002770 333.1 361.6
354(18) 0.003086 332.9 365.5
414(20) 0.002500 332.8 373.0
383(19) 0.002770 332.6 385.3
422(20) 0.002500 332.4 403.7
438(21) 0.002268 332.3 428.2
477(22) 0.002066 332.1 457.4
490(22) 0.002066 332.0 486.0
530(23) 0.001890 331.8 503.6
491(22) 0.002066 331.6 500.8
465(21) 0.002268 331.5 479.3
461(21) 0.002268 331.3 449.7
456(21) 0.002268 331.1 421.2
405(20) 0.002500 331.0 398.0
365(19) 0.002770 330.8 381.0
378(19) 0.002770 330.6 369.8
353(18) 0.003086 330.5 363.0
368(19) 0.002770 330.3 359.3
358(18) 0.003086 330.1 358.1
354(18) 0.003086 329.9 359.0
354(18) 0.003086 329.8 362.2
366(19) 0.002770 329.6 368.2
376(19) 0.002770 329.4 377.6
392(19) 0.002770 329.2 390.6
388(19) 0.002770 329.1 406.4
396(19) 0.002770 328.9 422.8
450(21) 0.002268 328.7 434.8
451(21) 0.002268 328.5 437.9
439(21) 0.002268 328.4 433.1
463(21) 0.002268 328.2 426.1
456(21) 0.002268 328.0 422.1
451(21) 0.002268 327.8 423.0
412(20) 0.002500 327.6 427.2
470(21) 0.002268 327.5 430.1
463(21) 0.002268 327.3 426.2
444(21) 0.002268 327.1 414.5
422(20) 0.002500 326.9 399.0
400(20) 0.002500 326.7 384.1
386(19) 0.002770 326.5 371.8
362(19) 0.002770 326.3 362.8
350(18) 0.003086 326.2 357.3
366(19) 0.002770 326.0 354.7
350(18) 0.003086 325.8 355.0
320(17) 0.003460 325.6 358.2
377(19) 0.002770 325.4 364.3
378(19) 0.002770 325.2 373.5
410(20) 0.002500 325.0 385.1
418(20) 0.002500 324.8 397.4
430(20) 0.002500 324.6 406.7
378(19) 0.002770 324.4 408.4
381(19) 0.002770 324.3 401.3
413(19) 0.002770 324.1 388.9
366(18) 0.003086 323.9 375.6
363(18) 0.003086 323.7 364.1
348(18) 0.003086 323.5 355.2
346(18) 0.003086 323.3 349.0
339(17) 0.003460 323.1 345.0
341(17) 0.003460 322.9 342.9
333(17) 0.003460 322.7 342.1
354(18) 0.003086 322.5 342.2
350(18) 0.003086 322.3 343.1
321(17) 0.003460 322.1 344.6
334(17) 0.003460 321.9 346.4
360(18) 0.003086 321.7 348.8
356(18) 0.003086 321.5 352.0
354(18) 0.003086 321.3 356.5
367(18) 0.003086 321.1 362.6
381(19) 0.002770 320.9 369.5
378(19) 0.002770 320.7 376.0
384(19) 0.002770 320.5 379.6
377(19) 0.002770 320.3 379.1
372(18) 0.003086 320.0 375.8
395(19) 0.002770 319.8 372.5
387(19) 0.002770 319.6 371.5
406(19) 0.002770 319.4 374.4
390(19) 0.002770 319.2 382.2
398(19) 0.002770 319.0 395.1
456(21) 0.002268 318.8 412.4
460(21) 0.002268 318.6 431.9
486(21) 0.002268 318.4 449.3
483(21) 0.002268 318.2 460.1
509(22) 0.002066 317.9 464.4
493(21) 0.002268 317.7 466.9
461(21) 0.002268 317.5 471.4
484(21) 0.002268 317.3 477.8
534(22) 0.002066 317.1 483.3
500(22) 0.002066 316.9 482.9
491(21) 0.002268 316.7 472.4
453(20) 0.002500 316.4 452.0
390(19) 0.002770 316.2 427.5
380(19) 0.002770 316.0 404.2
433(20) 0.002500 315.8 385.0
376(18) 0.003086 315.6 370.8
327(17) 0.003460 315.4 361.2
328(17) 0.003460 315.1 355.6
344(18) 0.003086 314.9 353.5
326(17) 0.003460 314.7 354.6
332(17) 0.003460 314.5 359.2
366(18) 0.003086 314.2 367.8
363(18) 0.003086 314.0 380.8
399(19) 0.002770 313.8 398.6
425(20) 0.002500 313.6 420.0
432(20) 0.002500 313.4 441.9
451(20) 0.002500 313.1 458.5
450(20) 0.002500 312.9 462.3
441(20) 0.002500 312.7 451.2
455(21) 0.002268 312.5 430.8
438(20) 0.002500 312.2 408.3
385(19) 0.002770 312.0 388.3
384(19) 0.002770 311.8 372.9
376(18) 0.003086 311.5 362.5
355(18) 0.003086 311.3 356.9
375(18) 0.003086 311.1 355.9
316(17) 0.003460 310.9 358.8
379(19) 0.002770 310.6 365.5
376(18) 0.003086 310.4 375.5
387(19) 0.002770 310.2 387.5
384(19) 0.002770 309.9 399.3
410(19) 0.002770 309.7 407.2
408(19) 0.002770 309.5 408.0
416(20) 0.002500 309.2 402.1
391(19) 0.002770 309.0 393.0
359(18) 0.003086 308.8 384.0
372(18) 0.003086 308.5 377.1
360(18) 0.003086 308.3 374.2
385(19) 0.002770 308.1 376.4
393(19) 0.002770 307.8 384.7
411(19) 0.002770 307.6 399.6
429(20) 0.002500 307.4 420.9
461(21) 0.002268 307.1 447.4
510(22) 0.002066 306.9 475.8
483(21) 0.002268 306.6 500.2
488(21) 0.002268 306.4 516.3
524(22) 0.002066 306.2 524.3
569(23) 0.001890 305.9 526.5
478(21) 0.002268 305.7 521.2
504(22) 0.002066 305.4 505.4
451(20) 0.002500 305.2 479.9
432(20) 0.002500 305.0 450.3
403(19) 0.002770 304.7 421.6
396(19) 0.002770 304.5 396.9
366(18) 0.003086 304.2 377.5
351(18) 0.003086 304.0 363.6
322(17) 0.003460 303.8 354.8
347(18) 0.003086 303.5 350.4
354(18) 0.003086 303.3 350.1
331(17) 0.003460 303.0 353.8
387(19) 0.002770 302.8 361.8
365(18) 0.003086 302.5 374.0
381(18) 0.003086 302.3 390.2
400(19) 0.002770 302.1 408.8
411(19) 0.002770 301.8 426.5
400(19) 0.002770 301.6 437.9
465(20) 0.002500 301.3 438.7
429(20) 0.002500 301.1 428.9
441(20) 0.002500 300.8 412.3
392(19) 0.002770 300.6 393.1
399(19) 0.002770 300.3 374.4
374(18) 0.003086 300.1 358.7
335(17) 0.003460 299.8 346.7
346(17) 0.003460 299.6 338.4
321(17) 0.003460 299.3 333.3
309(16) 0.00391 299.1 330.7
315(17) 0.003460 298.8 329.5
308(16) 0.00391 298.6 328.8
345(17) 0.003460 298.3 327.5
340(17) 0.003460 298.1 324.9
328(17) 0.003460 297.8 321.5
342(17) 0.003460 297.6 317.9
316(17) 0.003460 297.3 314.5
297(16) 0.00391 297.1 311.7
296(16) 0.00391 296.8 309.3
312(17) 0.003460 296.6 307.5
328(17) 0.003460 296.3 306.1
282(16) 0.00391 296.1 305.0
263(15) 0.00444 295.8 304.2
293(16) 0.00391 295.6 303.5
311(16) 0.00391 295.3 302.9
287(16) 0.00391 295.0 302.4
280(16) 0.00391 294.8 302.0
290(16) 0.00391 294.5 301.8
266(15) 0.00444 294.3 301.6
297(16) 0.00391 294.0 301.7
319(17) 0.003460 293.8 302.0
296(16) 0.00391 293.5 302.5
280(16) 0.00391 293.3 303.2
309(16) 0.00391 293.0 304.2
289(16) 0.00391 292.7 305.1
287(16) 0.00391 292.5 305.8
305(16) 0.00391 292.2 305.9
275(15) 0.00444 292.0 305.3
306(16) 0.00391 291.7 304.0
315(17) 0.003460 291.5 302.6
303(16) 0.00391 291.2 301.3
286(16) 0.00391 290.9 300.2
304(16) 0.00391 290.7 299.4
303(16) 0.00391 290.4 298.9
273(15) 0.00444 290.2 298.6
296(16) 0.00391 289.9 298.7
294(16) 0.00391 289.7 299.0
293(16) 0.00391 289.4 299.7
275(15) 0.00444 289.1 300.5
287(16) 0.00391 288.9 301.6
302(16) 0.00391 288.6 302.8
310(17) 0.003460 288.4 304.0
293(16) 0.00391 288.1 305.0
293(16) 0.00391 287.8 306.1
327(17) 0.003460 287.6 307.5
313(17) 0.003460 287.3 309.9
291(16) 0.00391 287.1 313.6
302(16) 0.00391 286.8 319.0
363(18) 0.003086 286.5 326.2
334(17) 0.003460 286.3 335.1
343(17) 0.003460 286.0 345.0
342(17) 0.003460 285.8 354.6
364(18) 0.003086 285.5 362.5
396(19) 0.002770 285.2 368.3
358(18) 0.003086 285.0 372.1
377(18) 0.003086 284.7 373.3
365(18) 0.003086 284.4 370.9
361(18) 0.003086 284.2 364.9
375(18) 0.003086 283.9 356.6
340(17) 0.003460 283.7 347.8
338(17) 0.003460 283.4 340.1
301(16) 0.00391 283.1 334.9
339(17) 0.003460 282.9 333.0
313(17) 0.003460 282.6 334.6
337(17) 0.003460 282.3 339.3
337(17) 0.003460 282.1 346.3
320(17) 0.003460 281.8 353.9
353(18) 0.003086 281.6 359.4
345(17) 0.003460 281.3 360.1
344(17) 0.003460 281.0 354.9
332(17) 0.003460 280.8 345.5
334(17) 0.003460 280.5 334.7
275(15) 0.00444 280.2 324.4
291(16) 0.00391 280.0 315.6
312(17) 0.003460 279.7 308.6
293(16) 0.00391 279.4 303.4
302(16) 0.00391 279.2 299.8
294(16) 0.00391 278.9 297.5
295(16) 0.00391 278.7 296.3
271(15) 0.00444 278.4 296.1
282(16) 0.00391 278.1 296.8
284(16) 0.00391 277.9 298.6
296(16) 0.00391 277.6 301.6
306(16) 0.00391 277.3 305.9
330(24) 0.001736 277.1 311.3
323(16) 0.00391 276.8 317.5
333(16) 0.00391 276.5 323.9
335(17) 0.003460 276.3 328.9
328(16) 0.00391 276.0 330.8
310(16) 0.00391 275.8 328.9
326(16) 0.00391 275.5 324.2
336(17) 0.003460 275.2 318.2
318(16) 0.00391 275.0 312.5
326(16) 0.00391 274.7 307.9
297(15) 0.00444 274.4 304.9
310(16) 0.00391 274.2 304.0
295(15) 0.00444 273.9 305.2
294(15) 0.00444 273.6 308.9
323(16) 0.00391 273.4 315.4
352(17) 0.003460 273.1 325.1
339(17) 0.003460 272.8 337.9
354(17) 0.003460 272.6 353.6
347(17) 0.003460 272.3 371.0
365(17) 0.003460 272.1 387.8
407(18) 0.003086 271.8 400.8
407(18) 0.003086 271.5 406.9
384(18) 0.003086 271.3 404.9
387(18) 0.003086 271.0 395.2
404(18) 0.003086 270.7 379.9
385(18) 0.003086 270.5 362.4
352(17) 0.003460 270.2 345.4
360(17) 0.003460 269.9 331.0
362(17) 0.003460 269.7 319.9
335(17) 0.003460 269.4 312.2
340(17) 0.003460 269.2 307.7
312(16) 0.00391 268.9 305.9
304(16) 0.00391 268.6 306.2
301(16) 0.00391 268.4 307.9
305(16) 0.00391 268.1 310.2
316(16) 0.00391 267.8 312.0
314(16) 0.00391 267.6 312.0
317(16) 0.00391 267.3 309.7
321(16) 0.00391 267.1 305.4
310(16) 0.00391 266.8 300.2
314(16) 0.00391 266.5 294.8
308(16) 0.00391 266.3 289.8
283(15) 0.00444 266.0 285.5
276(15) 0.00444 265.7 282.1
290(15) 0.00444 265.5 279.5
288(15) 0.00444 265.2 277.6
276(15) 0.00444 265.0 276.2
266(15) 0.00444 264.7 275.4
261(15) 0.00444 264.4 275.0
265(15) 0.00444 264.2 274.9
273(15) 0.00444 263.9 275.1
275(15) 0.00444 263.7 275.5
264(15) 0.00444 263.4 276.1
268(15) 0.00444 263.1 276.5
291(15) 0.00444 262.9 276.6
271(15) 0.00444 262.6 276.3
274(15) 0.00444 262.4 275.6
262(14) 0.00510 262.1 274.7
258(14) 0.00510 261.8 273.9
285(15) 0.00444 261.6 273.3
278(15) 0.00444 261.3 273.2
269(15) 0.00444 261.1 273.6
250(14) 0.00510 260.8 274.4
279(15) 0.00444 260.5 275.8
273(15) 0.00444 260.3 277.7
277(15) 0.00444 260.0 279.9
281(15) 0.00444 259.8 282.1
299(16) 0.00391 259.5 283.8
283(15) 0.00444 259.2 284.7
267(15) 0.00444 259.0 284.7
272(15) 0.00444 258.7 284.3
290(15) 0.00444 258.5 284.2
284(15) 0.00444 258.2 285.1
283(15) 0.00444 258.0 287.4
286(15) 0.00444 257.7 291.3
312(16) 0.00391 257.4 297.0
312(16) 0.00391 257.2 304.2
316(16) 0.00391 256.9 312.3
317(16) 0.00391 256.7 320.2
315(16) 0.00391 256.4 326.0
318(16) 0.00391 256.2 328.3
334(16) 0.00391 255.9 326.8
322(16) 0.00391 255.7 322.4
318(16) 0.00391 255.4 316.5
314(16) 0.00391 255.1 310.0
315(16) 0.00391 254.9 303.4
299(16) 0.00391 254.6 297.0
306(16) 0.00391 254.4 290.9
280(15) 0.00444 254.1 285.2
269(15) 0.00444 253.9 280.1
280(15) 0.00444 253.6 275.9
287(15) 0.00444 253.4 272.5
272(15) 0.00444 253.1 270.1
266(15) 0.00444 252.9 268.4
281(15) 0.00444 252.6 267.6
283(15) 0.00444 252.4 267.5
275(15) 0.00444 252.1 268.0
265(15) 0.00444 251.9 269.2
244(14) 0.00510 251.6 270.8
256(14) 0.00510 251.4 272.5
279(15) 0.00444 251.1 274.2
293(16) 0.00391 250.9 275.1
285(15) 0.00444 250.6 275.1
283(15) 0.00444 250.4 274.1
309(16) 0.00391 250.1 272.6
278(15) 0.00444 249.9 271.1
261(15) 0.00444 249.6 269.9
260(15) 0.00444 249.4 269.3
269(15) 0.00444 249.1 269.3
275(15) 0.00444 248.9 269.7
276(15) 0.00444 248.6 270.3
293(16) 0.00391 248.4 270.8
282(15) 0.00444 248.1 271.1
291(15) 0.00444 247.9 271.2
277(15) 0.00444 247.6 271.3
297(16) 0.00391 247.4 271.4
300(16) 0.00391 247.1 271.3
286(15) 0.00444 246.9 270.9
258(15) 0.00444 246.6 269.9
252(14) 0.00510 246.4 268.7
269(15) 0.00444 246.2 267.7
266(15) 0.00444 245.9 267.2
269(15) 0.00444 245.7 267.5
292(15) 0.00444 245.4 269.0
299(16) 0.00391 245.2 271.7
299(16) 0.00391 244.9 275.5
303(16) 0.00391 244.7 280.6
274(15) 0.00444 244.5 286.3
286(15) 0.00444 244.2 292.0
320(16) 0.00391 244.0 296.7
310(16) 0.00391 243.7 299.0
288(15) 0.00444 243.5 298.0
279(15) 0.00444 243.2 294.2
273(15) 0.00444 243.0 288.8
280(15) 0.00444 242.8 283.0
256(14) 0.00510 242.5 277.8
278(15) 0.00444 242.3 273.8
258(15) 0.00444 242.1 271.3
270(15) 0.00444 241.8 270.6
241(14) 0.00510 241.6 271.6
287(15) 0.00444 241.3 274.3
284(15) 0.00444 241.1 278.5
289(15) 0.00444 240.9 283.9
286(15) 0.00444 240.6 289.8
301(16) 0.00391 240.4 295.2
319(16) 0.00391 240.2 298.7
324(16) 0.00391 239.9 299.2
321(16) 0.00391 239.7 296.4
302(16) 0.00391 239.4 291.1
298(16) 0.00391 239.2 284.4
299(16) 0.00391 239.0 277.6
278(15) 0.00444 238.7 271.4
273(15) 0.00444 238.5 266.1
268(15) 0.00444 238.3 262.0
280(15) 0.00444 238.0 259.1
270(15) 0.00444 237.8 257.3
255(14) 0.00510 237.6 256.6
262(15) 0.00444 237.4 256.9
257(15) 0.00444 237.1 258.0
264(15) 0.00444 236.9 259.7
254(14) 0.00510 236.7 262.1
273(15) 0.00444 236.4 264.6
274(15) 0.00444 236.2 267.1
274(15) 0.00444 236.0 268.9
261(15) 0.00444 235.7 269.8
276(15) 0.00444 235.5 269.5
262(15) 0.00444 235.3 268.3
277(15) 0.00444 235.1 266.7
263(15) 0.00444 234.8 265.2
242(14) 0.00510 234.6 264.3
261(15) 0.00444 234.4 263.9
256(14) 0.00510 234.2 264.1
268(15) 0.00444 233.9 264.5
247(14) 0.00510 233.7 264.9
274(15) 0.00444 233.5 265.3
273(15) 0.00444 233.3 265.6
262(15) 0.00444 233.0 265.9
262(15) 0.00444 232.8 266.3
289(15) 0.00444 232.6 266.3
282(15) 0.00444 232.4 265.9
281(15) 0.00444 232.1 265.0
260(15) 0.00444 231.9 263.8
268(15) 0.00444 231.7 262.8
260(15) 0.00444 231.5 262.4
298(16) 0.00391 231.3 262.8
286(15) 0.00444 231.0 264.3
280(15) 0.00444 230.8 266.9
284(15) 0.00444 230.6 270.6
254(14) 0.00510 230.4 275.3
291(15) 0.00444 230.2 280.5
290(15) 0.00444 229.9 285.3
286(15) 0.00444 229.7 288.9
291(15) 0.00444 229.5 290.4
334(17) 0.003460 229.3 289.6
316(16) 0.00391 229.1 287.4
285(15) 0.00444 228.9 284.7
291(15) 0.00444 228.7 282.4
301(16) 0.00391 228.4 281.0
262(15) 0.00444 228.2 280.9
276(15) 0.00444 228.0 282.1
276(12) 0.00694 227.8 284.5
276(15) 0.00444 227.6 288.0
262(15) 0.00444 227.4 292.0
294(16) 0.00391 227.2 296.2
287(16) 0.00391 226.9 300.1
305(16) 0.00391 226.7 303.7
294(16) 0.00391 226.5 307.4
315(16) 0.00391 226.3 311.4
300(16) 0.00391 226.1 315.2
333(17) 0.003460 225.9 318.2
346(17) 0.003460 225.7 320.2
298(16) 0.00391 225.5 321.4
315(16) 0.00391 225.3 322.3
316(16) 0.00391 225.1 323.5
324(17) 0.003460 224.9 325.6
322(17) 0.003460 224.6 328.8
324(17) 0.003460 224.4 333.2
329(17) 0.003460 224.2 338.5
331(17) 0.003460 224.0 343.8
343(17) 0.003460 223.8 348.5
347(17) 0.003460 223.6 352.1
358(17) 0.003460 223.4 354.8
372(18) 0.003086 223.2 356.3
361(18) 0.003086 223.0 355.7
346(17) 0.003460 222.8 352.0
303(16) 0.00391 222.6 344.2
337(17) 0.003460 222.4 332.8
317(16) 0.00391 222.2 319.2
291(16) 0.00391 222.0 305.0
294(16) 0.00391 221.8 291.5
290(16) 0.00391 221.6 279.6
274(15) 0.00444 221.4 269.5
253(15) 0.00444 221.2 261.3
264(15) 0.00444 221.0 254.9
245(14) 0.00510 220.8 250.1
240(14) 0.00510 220.6 246.7
238(14) 0.00510 220.4 244.3
240(14) 0.00510 220.2 242.7
227(14) 0.00510 220.0 241.7
247(15) 0.00444 219.8 241.0
242(14) 0.00510 219.6 240.4
241(14) 0.00510 219.4 239.9
240(14) 0.00510 219.2 239.4
240(14) 0.00510 219.1 238.7
218(14) 0.00510 218.9 238.0
241(14) 0.00510 218.7 237.3
252(15) 0.00444 218.5 236.7
211(13) 0.00592 218.3 236.3
204(13) 0.00592 218.1 236.3
212(13) 0.00592 217.9 236.8
232(14) 0.00510 217.7 237.9
234(14) 0.00510 217.5 239.5
239(14) 0.00510 217.3 241.8
268(15) 0.00444 217.1 244.8
256(15) 0.00444 216.9 248.3
263(15) 0.00444 216.8 252.1
251(15) 0.00444 216.6 256.2
261(15) 0.00444 216.4 260.1
249(15) 0.00444 216.2 263.8
250(15) 0.00444 216.0 267.0
266(15) 0.00444 215.8 269.8
266(15) 0.00444 215.6 272.3
269(15) 0.00444 215.5 274.6
265(15) 0.00444 215.3 276.6
256(15) 0.00444 215.1 278.2
290(16) 0.00391 214.9 279.1
272(15) 0.00444 214.7 279.3
285(16) 0.00391 214.5 278.8
296(16) 0.00391 214.4 277.3
290(16) 0.00391 214.2 274.7
271(15) 0.00444 214.0 271.0
259(15) 0.00444 213.8 266.2
253(15) 0.00444 213.6 260.9
259(15) 0.00444 213.5 255.4
260(15) 0.00444 213.3 249.9
246(14) 0.00510 213.1 244.9
244(14) 0.00510 212.9 240.4
244(14) 0.00510 212.7 236.6
235(14) 0.00510 212.6 233.4
227(14) 0.00510 212.4 230.9
235(14) 0.00510 212.2 228.9
227(14) 0.00510 212.0 227.3
232(14) 0.00510 211.9 226.0
223(14) 0.00510 211.7 224.8
203(13) 0.00592 211.5 223.6
212(13) 0.00592 211.3 222.5
228(14) 0.00510 211.2 221.5
231(14) 0.00510 211.0 220.6
234(14) 0.00510 210.8 219.9
219(14) 0.00510 210.6 219.2
222(14) 0.00510 210.5 218.7
232(14) 0.00510 210.3 218.4
226(14) 0.00510 210.1 218.1
220(14) 0.00510 210.0 218.1
222(14) 0.00510 209.8 218.2
238(14) 0.00510 209.6 218.6
224(14) 0.00510 209.5 219.1
211(13) 0.00592 209.3 219.8
204(13) 0.00592 209.1 220.7
220(14) 0.00510 208.9 221.8
235(20) 0.002500 208.8 223.0
225(13) 0.00592 208.6 224.2
221(13) 0.00592 208.4 225.2
227(13) 0.00592 208.3 225.9
217(13) 0.00592 208.1 226.3
229(13) 0.00592 207.9 226.2
239(14) 0.00510 207.8 226.0
255(14) 0.00510 207.6 225.7
242(14) 0.00510 207.5 225.5
229(13) 0.00592 207.3 225.5
206(13) 0.00592 207.1 225.8
242(14) 0.00510 207.0 226.3
206(13) 0.00592 206.8 226.8
242(14) 0.00510 206.6 227.3
228(13) 0.00592 206.5 227.5
231(14) 0.00510 206.3 227.4
247(14) 0.00510 206.2 227.0
230(13) 0.00592 206.0 226.3
234(14) 0.00510 205.8 225.4
238(14) 0.00510 205.7 224.7
238(14) 0.00510 205.5 224.3
234(14) 0.00510 205.4 224.3
253(14) 0.00510 205.2 224.8
216(13) 0.00592 205.1 226.0
233(14) 0.00510 204.9 227.8
213(13) 0.00592 204.7 230.1
233(14) 0.00510 204.6 233.0
249(14) 0.00510 204.4 236.3
245(14) 0.00510 204.3 239.6
240(14) 0.00510 204.1 242.7
273(15) 0.00444 204.0 245.4
253(14) 0.00510 203.8 247.3
261(14) 0.00510 203.7 248.6
246(14) 0.00510 203.5 249.2
260(14) 0.00510 203.4 249.2
259(14) 0.00510 203.2 248.8
251(14) 0.00510 203.1 248.4
248(14) 0.00510 202.9 248.3
251(14) 0.00510 202.8 248.5
237(14) 0.00510 202.6 249.2
257(14) 0.00510 202.5 250.1
263(14) 0.00510 202.3 250.8
245(14) 0.00510 202.2 251.1
272(15) 0.00444 202.0 250.7
244(14) 0.00510 201.9 249.4
242(14) 0.00510 201.7 247.5
246(14) 0.00510 201.6 245.3
240(14) 0.00510 201.4 243.2
245(14) 0.00510 201.3 241.5
248(14) 0.00510 201.1 240.4
254(14) 0.00510 201.0 239.8
251(14) 0.00510 200.8 239.8
255(14) 0.00510 200.7 240.0
246(14) 0.00510 200.6 240.2
252(14) 0.00510 200.4 240.2
261(14) 0.00510 200.3 239.8
249(14) 0.00510 200.1 239.2
235(14) 0.00510 200.0 238.4
233(14) 0.00510 199.8 237.6
242(14) 0.00510 199.7 236.5
239(14) 0.00510 199.6 235.3
239(14) 0.00510 199.4 234.0
227(13) 0.00592 199.3 232.7
223(13) 0.00592 199.1 231.6
214(13) 0.00592 199.0 230.7
227(13) 0.00592 198.9 230.2
219(13) 0.00592 198.7 230.2
219(13) 0.00592 198.6 230.6
231(14) 0.00510 198.4 231.4
207(13) 0.00592 198.3 232.5
225(13) 0.00592 198.2 233.4
212(13) 0.00592 198.0 234.0
225(13) 0.00592 197.9 233.8
218(13) 0.00592 197.8 232.8
221(13) 0.00592 197.6 231.1
217(13) 0.00592 197.5 228.9
245(14) 0.00510 197.3 226.7
217(13) 0.00592 197.2 224.7
205(13) 0.00592 197.1 222.9
218(13) 0.00592 196.9 221.6
213(13) 0.00592 196.8 220.7
213(13) 0.00592 196.7 220.1
227(13) 0.00592 196.5 219.7
240(14) 0.00510 196.4 219.3
229(13) 0.00592 196.3 218.8
238(14) 0.00510 196.2 218.3
229(13) 0.00592 196.0 217.5
234(14) 0.00510 195.9 216.7
219(13) 0.00592 195.8 215.9
229(13) 0.00592 195.6 215.1
226(13) 0.00592 195.5 214.5
234(14) 0.00510 195.4 214.2
220(13) 0.00592 195.2 214.3
225(13) 0.00592 195.1 214.8
203(13) 0.00592 195.0 215.8
201(13) 0.00592 194.9 217.3
207(13) 0.00592 194.7 219.3
212(13) 0.00592 194.6 221.7
254(14) 0.00510 194.5 224.4
257(14) 0.00510 194.4 227.2
238(14) 0.00510 194.2 229.8
254(14) 0.00510 194.1 231.9
246(14) 0.00510 194.0 233.2
236(14) 0.00510 193.9 233.5
223(13) 0.00592 193.7 232.9
242(14) 0.00510 193.6 231.6
238(14) 0.00510 193.5 229.8
230(13) 0.00592 193.4 228.0
246(14) 0.00510 193.2 226.5
217(13) 0.00592 193.1 225.6
217(13) 0.00592 193.0 225.4
246(14) 0.00510 192.9 226.0
231(14) 0.00510 192.7 227.6
220(13) 0.00592 192.6 230.0
262(14) 0.00510 192.5 233.1
262(14) 0.00510 192.4 236.8
275(15) 0.00444 192.3 240.6
265(15) 0.00444 192.1 244.1
278(15) 0.00444 192.0 246.9
267(15) 0.00444 191.9 248.6
257(14) 0.00510 191.8 249.1
258(14) 0.00510 191.7 248.4
270(15) 0.00444 191.5 246.8
256(14) 0.00510 191.4 244.6
255(14) 0.00510 191.3 242.2
277(15) 0.00444 191.2 239.9
251(14) 0.00510 191.1 237.9
259(14) 0.00510 191.0 236.4
227(13) 0.00592 190.8 235.5
235(14) 0.00510 190.7 235.1
217(13) 0.00592 190.6 234.9
248(14) 0.00510 190.5 234.9
253(14) 0.00510 190.4 234.8
261(14) 0.00510 190.3 234.6
262(14) 0.00510 190.1 234.4
204(13) 0.00592 190.0 234.4
236(14) 0.00510 189.9 234.6
249(14) 0.00510 189.8 235.3
225(13) 0.00592 189.7 236.6
248(14) 0.00510 189.6 238.4
247(14) 0.00510 189.5 240.9
242(14) 0.00510 189.4 244.1
235(14) 0.00510 189.2 247.8
257(14) 0.00510 189.1 251.9
230(13) 0.00592 189.0 256.2
254(14) 0.00510 188.9 260.3
257(14) 0.00510 188.8 263.7
250(14) 0.00510 188.7 265.8
242(14) 0.00510 188.6 266.0
249(14) 0.00510 188.5 264.0
229(13) 0.00592 188.4 259.9
252(14) 0.00510 188.2 254.2
241(14) 0.00510 188.1 247.5
225(13) 0.00592 188.0 240.5
235(14) 0.00510 187.9 233.7
207(13) 0.00592 187.8 227.4
233(14) 0.00510 187.7 221.8
198(13) 0.00592 187.6 216.9
220(13) 0.00592 187.5 212.7
214(13) 0.00592 187.4 209.3
201(13) 0.00592 187.3 206.6
217(13) 0.00592 187.2 204.5
215(13) 0.00592 187.1 202.8
205(13) 0.00592 187.0 201.6
205(13) 0.00592 186.8 200.8
235(14) 0.00510 186.7 200.3
189(12) 0.00694 186.6 200.2
216(13) 0.00592 186.5 200.2
201(13) 0.00592 186.4 200.6
192(12) 0.00694 186.3 201.2
201(13) 0.00592 186.2 202.0
200(13) 0.00592 186.1 203.1
216(13) 0.00592 186.0 204.4
218(13) 0.00592 185.9 206.0
203(13) 0.00592 185.8 207.7
203(13) 0.00592 185.7 209.4
209(13) 0.00592 185.6 211.0
206(13) 0.00592 185.5 212.4
223(13) 0.00592 185.4 213.6
222(13) 0.00592 185.3 214.3
211(13) 0.00592 185.2 214.6
210(13) 0.00592 185.1 214.5
233(14) 0.00510 185.0 214.3
221(13) 0.00592 184.9 213.8
205(13) 0.00592 184.8 213.4
206(13) 0.00592 184.7 213.1
226(13) 0.00592 184.6 213.0
192(12) 0.00694 184.5 213.2
205(13) 0.00592 184.4 213.6
212(13) 0.00592 184.3 214.3
217(13) 0.00592 184.2 215.3
221(13) 0.00592 184.1 216.3
194(12) 0.00694 184.0 217.6
221(13) 0.00592 183.9 219.0
203(13) 0.00592 183.8 220.6
233(14) 0.00510 183.7 222.6
230(14) 0.00510 183.6 225.1
210(13) 0.00592 183.5 228.2
213(13) 0.00592 183.4 232.1
216(13) 0.00592 183.3 236.8
252(14) 0.00510 183.2 242.2
268(15) 0.00444 183.1 248.4
240(14) 0.00510 183.0 255.1
250(15) 0.00444 182.9 261.9
269(15) 0.00444 182.8 268.2
265(15) 0.00444 182.7 273.5
310(16) 0.00391 182.6 277.2
287(16) 0.00391 182.5 278.8
293(16) 0.00391 182.4 278.3
277(15) 0.00444 182.3 275.8
282(16) 0.00391 182.2 271.9
274(15) 0.00444 182.1 267.0
247(15) 0.00444 182.0 261.7
246(15) 0.00444 181.9 256.5
280(16) 0.00391 181.8 251.5
247(15) 0.00444 181.8 246.9
235(14) 0.00510 181.7 242.8
230(14) 0.00510 181.6 239.0
251(15) 0.00444 181.5 235.7
248(15) 0.00444 181.4 232.6
219(14) 0.00510 181.3 229.8
210(13) 0.00592 181.2 227.4
240(14) 0.00510 181.1 225.3
240(14) 0.00510 181.0 223.6
226(14) 0.00510 180.9 222.4
199(13) 0.00592 180.8 221.7
228(14) 0.00510 180.7 221.5
228(14) 0.00510 180.6 221.7
232(14) 0.00510 180.5 222.2
224(14) 0.00510 180.5 222.8
245(15) 0.00444 180.4 223.3
207(13) 0.00592 180.3 223.4
211(13) 0.00592 180.2 223.1
206(13) 0.00592 180.1 222.3
221(14) 0.00510 180.0 221.3
229(14) 0.00510 179.9 220.0
205(13) 0.00592 179.8 218.8
232(14) 0.00510 179.7 217.6
225(14) 0.00510 179.6 216.4
208(13) 0.00592 179.5 215.2
223(14) 0.00510 179.5 213.9
222(14) 0.00510 179.4 212.4
205(13) 0.00592 179.3 210.6
212(13) 0.00592 179.2 208.7
215(14) 0.00510 179.1 206.6
210(13) 0.00592 179.0 204.6
202(13) 0.00592 178.9 202.7
188(13) 0.00592 178.8 201.0
205(13) 0.00592 178.7 199.5
194(13) 0.00592 178.7 198.4
214(14) 0.00510 178.6 197.5
195(13) 0.00592 178.5 197.1
194(13) 0.00592 178.4 197.0
186(13) 0.00592 178.3 197.3
198(13) 0.00592 178.2 198.1
189(13) 0.00592 178.1 199.3
189(13) 0.00592 178.0 201.1
208(13) 0.00592 178.0 203.3
215(14) 0.00510 177.9 206.1
197(13) 0.00592 177.8 209.5
191(13) 0.00592 177.7 213.4
200(13) 0.00592 177.6 217.8
211(13) 0.00592 177.5 222.6
239(14) 0.00510 177.4 227.6
233(14) 0.00510 177.3 232.7
214(14) 0.00510 177.3 237.7
246(15) 0.00444 177.2 242.3
242(14) 0.00510 177.1 246.3
255(15) 0.00444 177.0 249.5
241(14) 0.00510 176.9 251.9
268(15) 0.00444 176.8 253.2
253(15) 0.00444 176.7 253.7
240(14) 0.00510 176.7 253.2
257(15) 0.00444 176.6 252.1
242(14) 0.00510 176.5 250.3
243(14) 0.00510 176.4 247.9
263(15) 0.00444 176.3 245.1
233(14) 0.00510 176.2 241.8
256(15) 0.00444 176.1 238.2
230(14) 0.00510 176.1 234.4
235(14) 0.00510 176.0 230.5
213(14) 0.00510 175.9 226.5
221(14) 0.00510 175.8 222.5
226(14) 0.00510 175.7 218.8
215(14) 0.00510 175.6 215.3
224(14) 0.00510 175.6 212.2
217(14) 0.00510 175.5 209.6
201(13) 0.00592 175.4 207.5
192(13) 0.00592 175.3 206.0
191(13) 0.00592 175.2 204.9
215(14) 0.00510 175.1 204.4
199(13) 0.00592 175.1 204.2
224(14) 0.00510 175.0 204.4
178(12) 0.00694 174.9 204.7
225(14) 0.00510 174.8 205.1
210(13) 0.00592 174.7 205.3
209(13) 0.00592 174.7 205.1
209(13) 0.00592 174.6 204.6
196(13) 0.00592 174.5 203.6
199(13) 0.00592 174.4 202.3
198(13) 0.00592 174.3 200.7
201(13) 0.00592 174.2 199.0
203(13) 0.00592 174.2 197.3
161(12) 0.00694 174.1 195.6
193(13) 0.00592 174.0 194.1
193(13) 0.00592 173.9 192.8
191(13) 0.00592 173.8 191.6
203(13) 0.00592 173.8 190.6
199(13) 0.00592 173.7 189.7
199(13) 0.00592 173.6 188.9
192(13) 0.00592 173.5 188.2
187(13) 0.00592 173.4 187.7
204(13) 0.00592 173.3 187.2
189(13) 0.00592 173.3 186.9
197(13) 0.00592 173.2 186.7
185(13) 0.00592 173.1 186.6
189(13) 0.00592 173.0 186.8
178(12) 0.00694 172.9 187.2
170(12) 0.00694 172.9 187.8
194(13) 0.00592 172.8 188.7
170(12) 0.00694 172.7 189.8
186(13) 0.00592 172.6 191.2
200(13) 0.00592 172.5 192.8
187(13) 0.00592 172.5 194.6
198(13) 0.00592 172.4 196.7
194(13) 0.00592 172.3 198.9
187(13) 0.00592 172.2 201.2
203(13) 0.00592 172.2 203.3
207(13) 0.00592 172.1 205.3
207(13) 0.00592 172.0 206.9
201(13) 0.00592 171.9 208.0
193(13) 0.00592 171.8 208.6
196(13) 0.00592 171.8 208.7
184(13) 0.00592 171.7 208.4
172(12) 0.00694 171.6 207.7
190(13) 0.00592 171.5 206.9
193(13) 0.00592 171.4 206.1
211(14) 0.00510 171.4 205.2
198(13) 0.00592 171.3 204.3
218(14) 0.00510 171.2 203.3
202(13) 0.00592 171.1 202.4
184(13) 0.00592 171.1 201.6
178(12) 0.00694 171.0 200.8
203(13) 0.00592 170.9 200.1
197(13) 0.00592 170.8 199.7
202(13) 0.00592 170.7 199.5
204(13) 0.00592 170.7 199.6
216(14) 0.00510 170.6 200.0
204(13) 0.00592 170.5 200.7
215(14) 0.00510 170.4 201.7
225(14) 0.00510 170.4 202.9
220(14) 0.00510 170.3 204.3
208(13) 0.00592 170.2 205.8
195(13) 0.00592 170.1 207.3
205(13) 0.00592 170.1 208.8
201(13) 0.00592 170.0 210.1
193(13) 0.00592 169.9 211.3
186(13) 0.00592 169.8 212.3
202(13) 0.00592 169.7 213.2
200(13) 0.00592 169.7 214.1
225(14) 0.00510 169.6 215.1
213(14) 0.00510 169.5 216.3
208(13) 0.00592 169.4 218.0
232(14) 0.00510 169.4 220.0
204(13) 0.00592 169.3 222.6
233(14) 0.00510 169.2 225.7
225(14) 0.00510 169.1 229.2
224(14) 0.00510 169.1 233.1
244(15) 0.00444 169.0 237.0
238(14) 0.00510 168.9 241.0
229(14) 0.00510 168.8 244.6
241(14) 0.00510 168.8 247.9
256(15) 0.00444 168.7 250.4
268(15) 0.00444 168.6 252.2
276(15) 0.00444 168.5 253.0
267(15) 0.00444 168.5 252.9
240(14) 0.00510 168.4 251.8
245(15) 0.00444 168.3 250.1
252(15) 0.00444 168.2 248.0
236(14) 0.00510 168.2 245.9
248(15) 0.00444 168.1 243.9
240(14) 0.00510 168.0 242.4
226(14) 0.00510 167.9 241.5
237(14) 0.00510 167.9 241.2
248(15) 0.00444 167.8 241.5
246(15) 0.00444 167.7 242.4
250(15) 0.00444 167.7 243.6
254(15) 0.00444 167.6 244.8
262(15) 0.00444 167.5 245.9
268(15) 0.00444 167.4 246.3
238(14) 0.00510 167.4 246.0
240(14) 0.00510 167.3 244.6
267(15) 0.00444 167.2 242.3
234(14) 0.00510 167.1 239.1
257(15) 0.00444 167.1 235.4
251(15) 0.00444 167.0 231.3
229(14) 0.00510 166.9 227.1
243(15) 0.00444 166.9 223.0
201(13) 0.00592 166.8 219.1
190(13) 0.00592 166.7 215.4
222(14) 0.00510 166.6 212.0
206(13) 0.00592 166.6 208.9
211(13) 0.00592 166.5 206.3
210(13) 0.00592 166.4 204.0
195(12) 0.00694 166.3 202.1
195(12) 0.00694 166.3 200.6
208(13) 0.00592 166.2 199.6
177(12) 0.00694 166.1 199.1
186(12) 0.00694 166.1 198.9
208(13) 0.00592 166.0 199.1
199(12) 0.00694 165.9 199.7
195(12) 0.00694 165.8 200.5
201(12) 0.00694 165.8 201.6
214(13) 0.00592 165.7 202.8
217(13) 0.00592 165.6 204.3
201(13) 0.00592 165.6 205.8
203(13) 0.00592 165.5 207.3
232(13) 0.00592 165.4 208.8
223(13) 0.00592 165.4 210.2
212(13) 0.00592 165.3 211.4
197(12) 0.00694 165.2 212.5
204(13) 0.00592 165.1 213.5
211(13) 0.00592 165.1 214.5
236(14) 0.00510 165.0 215.4
209(13) 0.00592 164.9 216.3
223(13) 0.00592 164.9 217.3
227(13) 0.00592 164.8 218.3
218(13) 0.00592 164.7 219.4
228(13) 0.00592 164.7 220.4
245(14) 0.00510 164.6 221.3
235(14) 0.00510 164.5 222.1
225(13) 0.00592 164.4 222.6
218(13) 0.00592 164.4 222.9
247(14) 0.00510 164.3 222.9
218(13) 0.00592 164.2 222.6
219(13) 0.00592 164.2 222.0
234(14) 0.00510 164.1 221.0
211(13) 0.00592 164.0 219.6
205(13) 0.00592 164.0 218.0
215(13) 0.00592 163.9 216.1
221(13) 0.00592 163.8 214.1
206(13) 0.00592 163.8 212.0
207(13) 0.00592 163.7 209.8
216(13) 0.00592 163.6 207.6
232(13) 0.00592 163.6 205.4
191(12) 0.00694 163.5 203.2
195(12) 0.00694 163.4 201.2
188(12) 0.00694 163.4 199.2
195(12) 0.00694 163.3 197.4
191(12) 0.00694 163.2 195.7
204(13) 0.00592 163.2 194.2
199(12) 0.00694 163.1 192.9
207(13) 0.00592 163.0 191.8
210(13) 0.00592 163.0 190.9
213(13) 0.00592 162.9 190.0
195(12) 0.00694 162.8 189.2
189(12) 0.00694 162.8 188.5
196(12) 0.00694 162.7 187.7
203(13) 0.00592 162.6 186.9
214(13) 0.00592 162.6 186.0
182(12) 0.00694 162.5 185.1
182(12) 0.00694 162.4 184.2
165(11) 0.00826 162.4 183.3
188(12) 0.00694 162.3 182.3
183(12) 0.00694 162.3 181.4
182(12) 0.00694 162.2 180.6
185(12) 0.00694 162.1 179.9
175(12) 0.00694 162.1 179.3
169(11) 0.00826 162.0 178.8
191(12) 0.00694 161.9 178.4
184(12) 0.00694 161.9 178.2
208(13) 0.00592 161.8 178.1
189(12) 0.00694 161.7 178.2
164(11) 0.00826 161.7 178.4
169(11) 0.00826 161.6 178.8
170(11) 0.00826 161.6 179.2
182(12) 0.00694 161.5 179.7
182(12) 0.00694 161.4 180.4
187(12) 0.00694 161.4 181.0
170(11) 0.00826 161.3 181.8
176(12) 0.00694 161.2 182.6
184(12) 0.00694 161.2 183.4
181(12) 0.00694 161.1 184.4
197(12) 0.00694 161.1 185.4
186(12) 0.00694 161.0 186.6
188(12) 0.00694 160.9 187.8
196(12) 0.00694 160.9 189.1
183(12) 0.00694 160.8 190.6
198(12) 0.00694 160.8 192.0
184(12) 0.00694 160.7 193.6
196(12) 0.00694 160.6 195.1
196(12) 0.00694 160.6 196.7
203(13) 0.00592 160.5 198.4
214(13) 0.00592 160.5 200.2
208(13) 0.00592 160.4 202.0
192(12) 0.00694 160.3 204.0
212(13) 0.00592 160.3 206.2
231(13) 0.00592 160.2 208.4
200(12) 0.00694 160.2 210.8
209(13) 0.00592 160.1 213.2
237(19) 0.002770 160.0 215.6
209(13) 0.00592 160.0 217.8
218(13) 0.00592 159.9 219.8
226(13) 0.00592 159.9 221.5
228(13) 0.00592 159.8 222.7
222(13) 0.00592 159.8 223.5
218(13) 0.00592 159.7 223.8
226(13) 0.00592 159.6 223.6
220(13) 0.00592 159.6 222.8
217(13) 0.00592 159.5 221.5
211(13) 0.00592 159.5 219.8
213(13) 0.00592 159.4 217.9
219(13) 0.00592 159.4 215.7
221(13) 0.00592 159.3 213.5
220(13) 0.00592 159.2 211.3
207(12) 0.00694 159.2 209.2
208(12) 0.00694 159.1 207.3
213(13) 0.00592 159.1 205.5
198(12) 0.00694 159.0 203.8
202(12) 0.00694 159.0 202.3
204(12) 0.00694 158.9 200.8
211(13) 0.00592 158.9 199.4
218(13) 0.00592 158.8 197.9
209(13) 0.00592 158.8 196.4
203(12) 0.00694 158.7 194.9
170(11) 0.00826 158.6 193.3
180(12) 0.00694 158.6 191.8
187(12) 0.00694 158.5 190.4
199(12) 0.00694 158.5 189.2
202(12) 0.00694 158.4 188.1
204(12) 0.00694 158.4 187.2
193(12) 0.00694 158.3 186.6
186(12) 0.00694 158.3 186.2
179(12) 0.00694 158.2 186.2
191(12) 0.00694 158.2 186.4
203(12) 0.00694 158.1 186.8
191(12) 0.00694 158.1 187.5
192(12) 0.00694 158.0 188.4
183(12) 0.00694 158.0 189.5
203(12) 0.00694 157.9 190.7
212(13) 0.00592 157.9 192.0
200(12) 0.00694 157.8 193.2
193(12) 0.00694 157.8 194.3
191(12) 0.00694 157.7 195.3
193(12) 0.00694 157.7 196.2
200(12) 0.00694 157.6 196.8
209(13) 0.00592 157.6 197.3
200(12) 0.00694 157.5 197.6
194(12) 0.00694 157.5 197.8
190(12) 0.00694 157.4 197.9
200(12) 0.00694 157.4 198.0
210(13) 0.00592 157.4 198.0
203(12) 0.00694 157.3 197.9
209(13) 0.00592 157.3 197.7
202(12) 0.00694 157.2 197.5
201(12) 0.00694 157.2 197.1
182(12) 0.00694 157.1 196.7
191(12) 0.00694 157.1 196.3
197(12) 0.00694 157.0 195.9
200(12) 0.00694 157.0 195.5
204(12) 0.00694 156.9 195.2
200(12) 0.00694 156.9 195.0
201(12) 0.00694 156.9 195.0
205(12) 0.00694 156.8 195.2
199(12) 0.00694 156.8 195.4
215(13) 0.00592 156.7 195.8
213(13) 0.00592 156.7 196.2
201(12) 0.00694 156.6 196.7
204(12) 0.00694 156.6 197.0
203(12) 0.00694 156.6 197.2
187(12) 0.00694 156.5 197.2
192(12) 0.00694 156.5 197.0
214(13) 0.00592 156.4 196.6
207(12) 0.00694 156.4 196.0
200(12) 0.00694 156.4 195.2
210(13) 0.00592 156.3 194.2
192(12) 0.00694 156.3 193.2
174(11) 0.00826 156.2 192.1
195(12) 0.00694 156.2 191.0
193(12) 0.00694 156.2 190.0
184(12) 0.00694 156.1 189.1
191(12) 0.00694 156.1 188.2
191(12) 0.00694 156.0 187.4
190(12) 0.00694 156.0 186.6
201(12) 0.00694 156.0 185.9
200(12) 0.00694 155.9 185.2
186(12) 0.00694 155.9 184.5
185(12) 0.00694 155.9 183.8
183(12) 0.00694 155.8 183.1
172(11) 0.00826 155.8 182.5
182(12) 0.00694 155.8 181.8
178(11) 0.00826 155.7 181.2
192(12) 0.00694 155.7 180.6
204(12) 0.00694 155.6 180.1
188(12) 0.00694 155.6 179.6
172(11) 0.00826 155.6 179.3
180(12) 0.00694 155.5 178.9
198(12) 0.00694 155.5 178.7
192(12) 0.00694 155.5 178.5
185(12) 0.00694 155.4 178.4
191(12) 0.00694 155.4 178.4
191(12) 0.00694 155.4 178.4
176(11) 0.00826 155.4 178.5
182(12) 0.00694 155.3 178.6
180(11) 0.00826 155.3 178.8
173(11) 0.00826 155.3 179.1
178(11) 0.00826 155.2 179.4
188(12) 0.00694 155.2 179.9
192(12) 0.00694 155.2 180.4
190(12) 0.00694 155.1 181.0
186(12) 0.00694 155.1 181.7
194(12) 0.00694 155.1 182.4
192(12) 0.00694 155.1 183.1
186(12) 0.00694 155.0 183.8
182(12) 0.00694 155.0 184.6
181(12) 0.00694 155.0 185.2
178(11) 0.00826 155.0 185.9
177(11) 0.00826 154.9 186.5
172(11) 0.00826 154.9 187.0
178(11) 0.00826 154.9 187.6
186(12) 0.00694 154.8 188.2
176(11) 0.00826 154.8 188.9
193(12) 0.00694 154.8 189.7
201(12) 0.00694 154.8 190.6
187(12) 0.00694 154.8 191.6
193(12) 0.00694 154.7 192.8
200(12) 0.00694 154.7 194.1
212(13) 0.00592 154.7 195.5
197(12) 0.00694 154.7 197.1
196(12) 0.00694 154.6 198.7
207(12) 0.00694 154.6 200.4
206(12) 0.00694 154.6 202.1
215(13) 0.00592 154.6 203.8
198(12) 0.00694 154.6 205.4
199(12) 0.00694 154.5 206.9
207(12) 0.00694 154.5 208.2
208(12) 0.00694 154.5 209.2
215(13) 0.00592 154.5 210.0
215(13) 0.00592 154.5 210.4
219(13) 0.00592 154.4 210.4
225(13) 0.00592 154.4 210.1
202(12) 0.00694 154.4 209.4
211(12) 0.00694 154.4 208.5
233(13) 0.00592 154.4 207.4
218(13) 0.00592 154.4 206.0
210(12) 0.00694 154.3 204.6
201(12) 0.00694 154.3 203.0
192(12) 0.00694 154.3 201.4
191(12) 0.00694 154.3 199.7
209(12) 0.00694 154.3 198.0
217(13) 0.00592 154.3 196.3
203(12) 0.00694 154.3 194.5
203(12) 0.00694 154.2 192.6
205(12) 0.00694 154.2 190.8
199(12) 0.00694 154.2 189.1
193(12) 0.00694 154.2 187.4
194(12) 0.00694 154.2 185.8
181(12) 0.00694 154.2 184.4
186(12) 0.00694 154.2 183.1
198(12) 0.00694 154.2 182.0
193(12) 0.00694 154.2 181.2
185(12) 0.00694 154.1 180.6
196(12) 0.00694 154.1 180.2
176(11) 0.00826 154.1 180.1
190(12) 0.00694 154.1 180.3
191(12) 0.00694 154.1 180.7
202(12) 0.00694 154.1 181.4
214(13) 0.00592 154.1 182.4
202(12) 0.00694 154.1 183.7
194(12) 0.00694 154.1 185.2
205(12) 0.00694 154.1 187.0
209(12) 0.00694 154.1 189.1
202(12) 0.00694 154.1 191.4
216(13) 0.00592 154.1 194.0
221(13) 0.00592 154.1 196.7
221(13) 0.00592 154.1 199.6
210(12) 0.00694 154.1 202.6
210(12) 0.00694 154.1 205.6
212(13) 0.00592 154.1 208.6
214(13) 0.00592 154.1 211.6
208(12) 0.00694 154.1 214.3
225(13) 0.00592 154.1 216.8
224(13) 0.00592 154.1 219.0
221(13) 0.00592 154.1 220.8
223(13) 0.00592 154.1 222.2
240(13) 0.00592 154.1 223.1
238(13) 0.00592 154.1 223.7
226(13) 0.00592 154.1 223.9
228(13) 0.00592 154.1 223.9
222(13) 0.00592 154.1 223.6
215(13) 0.00592 154.1 223.1
222(13) 0.00592 154.1 222.5
205(12) 0.00694 154.1 221.7
202(12) 0.00694 154.1 220.8
229(13) 0.00592 154.1 219.7
226(13) 0.00592 154.1 218.5
200(12) 0.00694 154.1 217.2
206(12) 0.00694 154.1 215.8
207(12) 0.00694 154.1 214.3
209(12) 0.00694 154.1 212.7
207(12) 0.00694 154.1 211.0
202(13) 0.00592 154.1 209.4
208(13) 0.00592 154.1 207.7
201(13) 0.00592 154.2 206.1
207(13) 0.00592 154.2 204.6
189(12) 0.00694 154.2 203.2
207(13) 0.00592 154.2 202.0
197(13) 0.00592 154.2 200.8
170(12) 0.00694 154.2 199.8
189(12) 0.00694 154.2 199.0
213(13) 0.00592 154.2 198.2
184(12) 0.00694 154.2 197.6
195(13) 0.00592 154.3 197.0
189(12) 0.00694 154.3 196.4
198(13) 0.00592 154.3 196.0
183(12) 0.00694 154.3 195.5
219(13) 0.00592 154.3 195.2
189(12) 0.00694 154.3 194.9
188(12) 0.00694 154.3 194.8
198(13) 0.00592 154.4 194.7
207(13) 0.00592 154.4 194.8
206(13) 0.00592 154.4 195.1
187(12) 0.00694 154.4 195.4
187(12) 0.00694 154.4 195.9
184(12) 0.00694 154.4 196.5
202(13) 0.00592 154.5 197.3
207(13) 0.00592 154.5 198.1
197(13) 0.00592 154.5 198.9
199(13) 0.00592 154.5 199.8
213(13) 0.00592 154.5 200.8
213(13) 0.00592 154.6 201.8
209(13) 0.00592 154.6 202.8
202(13) 0.00592 154.6 203.7
221(13) 0.00592 154.6 204.6
216(13) 0.00592 154.7 205.5
177(12) 0.00694 154.7 206.3
179(12) 0.00694 154.7 207.1
205(13) 0.00592 154.7 207.8
205(13) 0.00592 154.7 208.5
222(13) 0.00592 154.8 209.2
221(13) 0.00592 154.8 209.9
204(13) 0.00592 154.8 210.7
207(13) 0.00592 154.9 211.5
205(13) 0.00592 154.9 212.5
206(13) 0.00592 154.9 213.6
208(13) 0.00592 154.9 214.8
221(13) 0.00592 155.0 216.1
220(13) 0.00592 155.0 217.6
194(12) 0.00694 155.0 219.1
197(13) 0.00592 155.1 220.7
208(13) 0.00592 155.1 222.3
237(14) 0.00510 155.1 223.9
215(13) 0.00592 155.1 225.3
221(13) 0.00592 155.2 226.6
228(14) 0.00510 155.2 227.6
222(13) 0.00592 155.2 228.5
231(14) 0.00510 155.3 229.2
242(14) 0.00510 155.3 229.7
236(14) 0.00510 155.3 230.0
224(13) 0.00592 155.4 230.1
225(13) 0.00592 155.4 230.1
197(13) 0.00592 155.4 230.0
227(14) 0.00510 155.5 229.7
207(13) 0.00592 155.5 229.4
240(14) 0.00510 155.6 229.0
233(14) 0.00510 155.6 228.5
255(14) 0.00510 155.6 228.0
225(13) 0.00592 155.7 227.6
202(13) 0.00592 155.7 227.1
210(13) 0.00592 155.7 226.8
235(14) 0.00510 155.8 226.6
209(13) 0.00592 155.8 226.4
211(13) 0.00592 155.9 226.5
224(13) 0.00592 155.9 226.6
203(13) 0.00592 155.9 226.9
228(14) 0.00510 156.0 227.2
248(14) 0.00510 156.0 227.5
217(13) 0.00592 156.1 227.9
239(14) 0.00510 156.1 228.2
256(14) 0.00510 156.2 228.3
224(13) 0.00592 156.2 228.3
237(14) 0.00510 156.2 228.1
220(13) 0.00592 156.3 227.6
224(13) 0.00592 156.3 226.9
223(13) 0.00592 156.4 225.9
214(13) 0.00592 156.4 224.6
213(13) 0.00592 156.5 223.2
221(13) 0.00592 156.5 221.6
214(13) 0.00592 156.6 219.8
200(13) 0.00592 156.6 218.0
220(13) 0.00592 156.7 216.2
207(13) 0.00592 156.7 214.4
217(13) 0.00592 156.8 212.7
200(13) 0.00592 156.8 211.1
200(13) 0.00592 156.9 209.5
219(13) 0.00592 156.9 208.2
215(13) 0.00592 157.0 206.9
211(13) 0.00592 157.0 205.8
210(13) 0.00592 157.1 204.7
188(12) 0.00694 157.1 203.8
198(10) 0.01000 157.2 202.9
189(13) 0.00592 157.2 202.1
196(13) 0.00592 157.3 201.3
208(13) 0.00592 157.3 200.4
185(13) 0.00592 157.4 199.6
182(13) 0.00592 157.4 198.7
193(13) 0.00592 157.5 197.7
199(13) 0.00592 157.6 196.7
188(13) 0.00592 157.6 195.7
204(13) 0.00592 157.7 194.7
199(13) 0.00592 157.7 193.7
179(12) 0.00694 157.8 192.7
190(13) 0.00592 157.8 191.8
201(13) 0.00592 157.9 190.9
166(12) 0.00694 158.0 190.0
167(12) 0.00694 158.0 189.3
199(13) 0.00592 158.1 188.6
190(13) 0.00592 158.1 188.0
170(12) 0.00694 158.2 187.6
195(13) 0.00592 158.3 187.2
203(13) 0.00592 158.3 187.0
170(12) 0.00694 158.4 186.8
167(12) 0.00694 158.4 186.8
186(13) 0.00592 158.5 187.0
188(13) 0.00592 158.6 187.2
175(12) 0.00694 158.6 187.6
188(13) 0.00592 158.7 188.1
175(12) 0.00694 158.7 188.6
177(12) 0.00694 158.8 189.3
171(12) 0.00694 158.9 190.0
191(13) 0.00592 158.9 190.8
201(13) 0.00592 159.0 191.6
212(14) 0.00510 159.1 192.4
199(13) 0.00592 159.1 193.3
190(13) 0.00592 159.2 194.1
205(13) 0.00592 159.3 194.9
195(13) 0.00592 159.3 195.7
212(14) 0.00510 159.4 196.5
211(13) 0.00592 159.5 197.2
202(13) 0.00592 159.5 198.0
187(13) 0.00592 159.6 198.7
212(14) 0.00510 159.7 199.4
213(14) 0.00510 159.8 200.1
219(14) 0.00510 159.8 200.8
208(13) 0.00592 159.9 201.4
207(13) 0.00592 160.0 202.0
202(13) 0.00592 160.0 202.5
202(13) 0.00592 160.1 202.9
213(14) 0.00510 160.2 203.2
182(13) 0.00592 160.2 203.3
226(14) 0.00510 160.3 203.2
215(14) 0.00510 160.4 203.0
210(13) 0.00592 160.5 202.6
187(13) 0.00592 160.5 202.0
216(14) 0.00510 160.6 201.2
184(13) 0.00592 160.7 200.4
192(13) 0.00592 160.8 199.4
193(13) 0.00592 160.8 198.4
213(14) 0.00510 160.9 197.3
221(14) 0.00510 161.0 196.3
209(13) 0.00592 161.1 195.2
188(13) 0.00592 161.1 194.3
193(13) 0.00592 161.2 193.4
197(13) 0.00592 161.3 192.6
180(12) 0.00694 161.4 192.0
188(13) 0.00592 161.5 191.4
184(13) 0.00592 161.5 191.1
197(13) 0.00592 161.6 190.9
185(13) 0.00592 161.7 190.8
176(12) 0.00694 161.8 191.0
192(13) 0.00592 161.8 191.3
187(13) 0.00592 161.9 191.8
202(13) 0.00592 162.0 192.6
186(13) 0.00592 162.1 193.5
192(13) 0.00592 162.2 194.6
172(12) 0.00694 162.2 195.9
187(13) 0.00592 162.3 197.4
207(13) 0.00592 162.4 199.1
202(13) 0.00592 162.5 201.0
201(13) 0.00592 162.6 203.0
202(13) 0.00592 162.7 205.2
197(13) 0.00592 162.7 207.6
206(13) 0.00592 162.8 210.1
214(14) 0.00510 162.9 212.6
230(14) 0.00510 163.0 215.3
217(14) 0.00510 163.1 218.1
228(14) 0.00510 163.2 220.9
199(13) 0.00592 163.2 223.7
213(14) 0.00510 163.3 226.5
225(14) 0.00510 163.4 229.3
227(14) 0.00510 163.5 232.0
260(15) 0.00444 163.6 234.7
238(14) 0.00510 163.7 237.3
247(15) 0.00444 163.8 239.8
221(14) 0.00510 163.8 242.1
223(14) 0.00510 163.9 244.3
263(15) 0.00444 164.0 246.4
251(15) 0.00444 164.1 248.3
272(15) 0.00444 164.2 250.1
226(14) 0.00510 164.3 251.7
240(14) 0.00510 164.4 253.2
255(14) 0.00510 164.4 254.5
261(15) 0.00444 164.5 255.7
272(15) 0.00444 164.6 256.6
257(14) 0.00510 164.7 257.4
262(15) 0.00444 164.8 258.0
252(14) 0.00510 164.9 258.4
278(15) 0.00444 165.0 258.6
252(14) 0.00510 165.1 258.5
254(14) 0.00510 165.2 258.3
250(14) 0.00510 165.3 257.9
255(14) 0.00510 165.3 257.3
244(14) 0.00510 165.4 256.6
263(15) 0.00444 165.5 255.8
264(15) 0.00444 165.6 254.9
209(13) 0.00592 165.7 253.9
246(14) 0.00510 165.8 252.9
221(13) 0.00592 165.9 251.8
240(14) 0.00510 166.0 250.6
254(14) 0.00510 166.1 249.4
239(14) 0.00510 166.2 248.1
218(13) 0.00592 166.3 246.7
211(13) 0.00592 166.4 245.2
237(14) 0.00510 166.5 243.6
265(15) 0.00444 166.5 241.8
215(13) 0.00592 166.6 239.9
216(13) 0.00592 166.7 237.8
255(14) 0.00510 166.8 235.7
238(14) 0.00510 166.9 233.4
223(13) 0.00592 167.0 231.0
231(14) 0.00510 167.1 228.6
198(13) 0.00592 167.2 226.2
217(13) 0.00592 167.3 223.8
216(13) 0.00592 167.4 221.5
217(13) 0.00592 167.5 219.2
234(14) 0.00510 167.6 217.0
241(14) 0.00510 167.7 214.8
215(13) 0.00592 167.8 212.8
194(12) 0.00694 167.9 211.0
216(13) 0.00592 168.0 209.2
201(13) 0.00592 168.1 207.6
211(13) 0.00592 168.2 206.1
194(12) 0.00694 168.3 204.8
222(13) 0.00592 168.4 203.6
198(13) 0.00592 168.5 202.5
195(13) 0.00592 168.5 201.6
198(13) 0.00592 168.6 200.9
207(13) 0.00592 168.7 200.3
181(12) 0.00694 168.8 199.8
205(13) 0.00592 168.9 199.4
213(13) 0.00592 169.0 199.2
185(12) 0.00694 169.1 199.1
191(12) 0.00694 169.2 199.1
190(12) 0.00694 169.3 199.2
189(12) 0.00694 169.4 199.4
200(13) 0.00592 169.5 199.6
205(13) 0.00592 169.6 200.0
216(13) 0.00592 169.7 200.4
203(13) 0.00592 169.8 200.9
204(13) 0.00592 169.9 201.4
222(13) 0.00592 170.0 201.9
210(13) 0.00592 170.1 202.4
201(13) 0.00592 170.2 203.0
217(13) 0.00592 170.3 203.6
215(13) 0.00592 170.4 204.1
216(13) 0.00592 170.5 204.7
204(13) 0.00592 170.6 205.3
231(14) 0.00510 170.7 205.9
209(13) 0.00592 170.8 206.5
224(13) 0.00592 170.9 207.2
217(13) 0.00592 171.0 207.8
215(13) 0.00592 171.1 208.5
217(13) 0.00592 171.2 209.2
219(13) 0.00592 171.3 209.9
248(14) 0.00510 171.4 210.5
234(14) 0.00510 171.5 211.2
238(14) 0.00510 171.6 211.9
204(13) 0.00592 171.7 212.5
208(13) 0.00592 171.8 213.1
191(12) 0.00694 171.9 213.7
207(13) 0.00592 172.0 214.2
212(13) 0.00592 172.1 214.7
208(13) 0.00592 172.2 215.1
240(14) 0.00510 172.3 215.4
233(14) 0.00510 172.4 215.7
229(14) 0.00510 172.5 216.0
228(14) 0.00510 172.6 216.3
195(13) 0.00592 172.7 216.5
198(13) 0.00592 172.8 216.7
210(13) 0.00592 172.9 217.0
218(13) 0.00592 173.0 217.3
236(14) 0.00510 173.1 217.6
217(13) 0.00592 173.2 217.9
205(13) 0.00592 173.3 218.3
227(14) 0.00510 173.4 218.7
237(14) 0.00510 173.5 219.2
217(13) 0.00592 173.6 219.7
226(14) 0.00510 173.7 220.2
218(13) 0.00592 173.8 220.8
207(13) 0.00592 173.9 221.4
248(20) 0.002500 174.0 222.1
238(14) 0.00510 174.1 222.7
230(13) 0.00592 174.2 223.4
226(13) 0.00592 174.4 224.1
239(14) 0.00510 174.5 224.8
231(13) 0.00592 174.6 225.5
218(13) 0.00592 174.7 226.3
209(13) 0.00592 174.8 227.0
236(14) 0.00510 174.9 227.8
232(13) 0.00592 175.0 228.5
225(13) 0.00592 175.1 229.3
232(13) 0.00592 175.2 230.0
229(13) 0.00592 175.3 230.8
239(14) 0.00510 175.4 231.5
251(14) 0.00510 175.5 232.2
262(14) 0.00510 175.6 232.9
258(14) 0.00510 175.7 233.6
241(14) 0.00510 175.8 234.2
247(14) 0.00510 175.9 234.8
230(13) 0.00592 176.0 235.4
251(14) 0.00510 176.1 235.9
248(14) 0.00510 176.2 236.4
235(13) 0.00592 176.3 236.9
246(14) 0.00510 176.4 237.3
250(14) 0.00510 176.5 237.7
251(14) 0.00510 176.6 238.0
242(14) 0.00510 176.7 238.4
251(14) 0.00510 176.8 238.6
262(14) 0.00510 176.9 238.8
237(14) 0.00510 177.0 239.0
235(13) 0.00592 177.1 239.2
249(14) 0.00510 177.2 239.3
226(13) 0.00592 177.3 239.4
237(14) 0.00510 177.4 239.4
252(14) 0.00510 177.5 239.4
261(14) 0.00510 177.6 239.5
242(14) 0.00510 177.7 239.4
243(14) 0.00510 177.8 239.4
261(14) 0.00510 177.9 239.4
252(14) 0.00510 178.0 239.4
242(14) 0.00510 178.1 239.3
234(13) 0.00592 178.2 239.3
225(13) 0.00592 178.3 239.3
250(14) 0.00510 178.4 239.2
241(14) 0.00510 178.5 239.3
260(14) 0.00510 178.6 239.3
245(14) 0.00510 178.7 239.4
244(14) 0.00510 178.8 239.6
247(14) 0.00510 178.9 239.8
254(14) 0.00510 179.0 240.1
237(14) 0.00510 179.1 240.4
243(14) 0.00510 179.2 240.8
249(14) 0.00510 179.3 241.3
241(14) 0.00510 179.4 241.8
248(14) 0.00510 179.5 242.4
245(14) 0.00510 179.6 243.0
252(14) 0.00510 179.7 243.6
261(14) 0.00510 179.8 244.2
267(14) 0.00510 179.9 244.9
255(14) 0.00510 180.0 245.5
246(14) 0.00510 180.1 246.1
259(14) 0.00510 180.2 246.7
252(14) 0.00510 180.3 247.2
248(14) 0.00510 180.4 247.7
253(14) 0.00510 180.5 248.2
258(14) 0.00510 180.6 248.7
255(14) 0.00510 180.7 249.1
242(14) 0.00510 180.8 249.5
231(13) 0.00592 180.9 249.8
257(14) 0.00510 181.0 250.2
250(14) 0.00510 181.1 250.5
267(14) 0.00510 181.2 250.9
273(15) 0.00444 181.3 251.2
260(14) 0.00510 181.4 251.4
229(13) 0.00592 181.5 251.7
238(14) 0.00510 181.6 251.9
243(14) 0.00510 181.7 252.0
257(14) 0.00510 181.8 252.1
239(14) 0.00510 181.9 252.1
243(14) 0.00510 182.0 252.0
250(14) 0.00510 182.1 251.8
256(14) 0.00510 182.2 251.6
252(14) 0.00510 182.3 251.2
245(14) 0.00510 182.4 250.8
233(13) 0.00592 182.5 250.2
223(13) 0.00592 182.6 249.5
246(14) 0.00510 182.7 248.8
241(14) 0.00510 182.8 247.9
239(14) 0.00510 182.9 247.0
246(14) 0.00510 183.0 246.0
250(14) 0.00510 183.1 244.9
251(14) 0.00510 183.2 243.8
253(14) 0.00510 183.3 242.6
247(14) 0.00510 183.4 241.4
251(14) 0.00510 183.5 240.3
234(13) 0.00592 183.6 239.1
247(14) 0.00510 183.7 238.0
243(14) 0.00510 183.8 236.9
204(13) 0.00592 183.9 235.9
237(14) 0.00510 184.0 234.9
254(12) 0.00694 184.1 234.0
240(14) 0.00510 184.2 233.2
225(13) 0.00592 184.3 232.5
216(13) 0.00592 184.4 231.8
243(14) 0.00510 184.5 231.3
233(13) 0.00592 184.6 230.8
229(13) 0.00592 184.7 230.4
234(14) 0.00510 184.8 230.1
241(14) 0.00510 184.9 229.9
238(14) 0.00510 185.0 229.7
253(14) 0.00510 185.1 229.6
245(14) 0.00510 185.2 229.6
244(14) 0.00510 185.3 229.6
241(14) 0.00510 185.4 229.6
237(14) 0.00510 185.5 229.7
244(14) 0.00510 185.6 229.9
240(14) 0.00510 185.7 230.0
243(14) 0.00510 185.8 230.2
234(13) 0.00592 185.9 230.4
249(14) 0.00510 186.0 230.6
255(14) 0.00510 186.1 230.8
249(14) 0.00510 186.2 231.0
220(13) 0.00592 186.3 231.2
234(13) 0.00592 186.4 231.4
244(14) 0.00510 186.5 231.6
247(14) 0.00510 186.6 231.8
223(13) 0.00592 186.7 231.9
236(14) 0.00510 186.8 232.0
233(13) 0.00592 186.9 232.1
236(14) 0.00510 187.0 232.2
249(14) 0.00510 187.1 232.3
232(13) 0.00592 187.2 232.4
229(13) 0.00592 187.3 232.4
248(14) 0.00510 187.4 232.5
253(14) 0.00510 187.5 232.5
225(13) 0.00592 187.6 232.6
240(14) 0.00510 187.7 232.6
251(14) 0.00510 187.8 232.7
238(14) 0.00510 187.9 232.7
229(13) 0.00592 188.0 232.7
234(14) 0.00510 188.1 232.8
241(14) 0.00510 188.2 232.8
241(14) 0.00510 188.3 232.8
239(14) 0.00510 188.4 232.8
235(14) 0.00510 188.5 232.7
221(13) 0.00592 188.6 232.7
233(13) 0.00592 188.8 232.6
226(13) 0.00592 188.9 232.5
222(13) 0.00592 189.0 232.4
228(13) 0.00592 189.1 232.3
236(14) 0.00510 189.2 232.1
235(14) 0.00510 189.3 232.0
223(13) 0.00592 189.4 231.8
232(13) 0.00592 189.5 231.6
233(13) 0.00592 189.6 231.5
249(14) 0.00510 189.7 231.3
233(13) 0.00592 189.8 231.1
232(13) 0.00592 189.9 231.0
230(13) 0.00592 190.0 230.9
218(13) 0.00592 190.1 230.8
248(14) 0.00510 190.2 230.7
237(14) 0.00510 190.3 230.6
234(14) 0.00510 190.4 230.6
250(14) 0.00510 190.5 230.6
250(14) 0.00510 190.7 230.6
253(14) 0.00510 190.8 230.6
249(14) 0.00510 190.9 230.7
243(14) 0.00510 191.0 230.8
227(13) 0.00592 191.1 230.9
229(13) 0.00592 191.2 231.0
223(13) 0.00592 191.3 231.1
230(13) 0.00592 191.4 231.2
246(14) 0.00510 191.5 231.3
232(13) 0.00592 191.6 231.4
213(13) 0.00592 191.7 231.5
208(13) 0.00592 191.9 231.6
231(13) 0.00592 192.0 231.7
226(13) 0.00592 192.1 231.7
228(13) 0.00592 192.2 231.8
221(13) 0.00592 192.3 231.8
221(13) 0.00592 192.4 231.8
230(13) 0.00592 192.5 231.8
234(13) 0.00592 192.7 231.8
222(13) 0.00592 192.8 231.8
223(13) 0.00592 192.9 231.8
208(13) 0.00592 193.0 231.8
236(14) 0.00510 193.1 231.8
225(13) 0.00592 193.2 231.8
232(13) 0.00592 193.4 231.8
233(13) 0.00592 193.5 231.8
239(14) 0.00510 193.6 231.8
236(14) 0.00510 193.7 231.8
228(13) 0.00592 193.8 231.8
237(14) 0.00510 194.0 231.8
239(14) 0.00510 194.1 231.8
220(13) 0.00592 194.2 231.8
237(14) 0.00510 194.3 231.8
248(14) 0.00510 194.4 231.8
246(14) 0.00510 194.6 231.8
233(13) 0.00592 194.7 231.8
232(13) 0.00592 194.8 231.9
238(14) 0.00510 194.9 231.9
235(14) 0.00510 195.1 231.9
219(13) 0.00592 195.2 232.0
241(14) 0.00510 195.3 232.0
227(14) 0.00510 195.5 232.1
212(13) 0.00592 195.6 232.2
224(13) 0.00592 195.7 232.3
212(13) 0.00592 195.8 232.5
221(13) 0.00592 196.0 232.6
233(14) 0.00510 196.1 232.8
231(14) 0.00510 196.2 233.1
229(14) 0.00510 196.4 233.3
226(14) 0.00510 196.5 233.6
237(14) 0.00510 196.6 234.0
239(14) 0.00510 196.8 234.3
235(14) 0.00510 196.9 234.7
236(14) 0.00510 197.1 235.1
229(14) 0.00510 197.2 235.5
238(14) 0.00510 197.3 236.0
219(13) 0.00592 197.5 236.4
227(14) 0.00510 197.6 236.9
224(13) 0.00592 197.8 237.4
228(14) 0.00510 197.9 237.9
228(14) 0.00510 198.1 238.4
249(14) 0.00510 198.2 238.9
259(14) 0.00510 198.3 239.4
251(14) 0.00510 198.5 239.9
244(14) 0.00510 198.6 240.4
242(14) 0.00510 198.8 240.9
254(14) 0.00510 198.9 241.5
249(14) 0.00510 199.1 242.0
262(15) 0.00444 199.3 242.5
253(14) 0.00510 199.4 243.0
239(14) 0.00510 199.6 243.6
234(14) 0.00510 199.7 244.1
239(14) 0.00510 199.9 244.6
215(13) 0.00592 200.0 245.2
247(14) 0.00510 200.2 245.8
259(14) 0.00510 200.4 246.3
256(14) 0.00510 200.5 246.9
248(14) 0.00510 200.7 247.5
245(14) 0.00510 200.9 248.0
261(15) 0.00444 201.0 248.6
269(15) 0.00444 201.2 249.2
273(15) 0.00444 201.4 249.7
236(14) 0.00510 201.5 250.3
251(14) 0.00510 201.7 250.8
233(14) 0.00510 201.9 251.3
252(14) 0.00510 202.1 251.8
263(15) 0.00444 202.2 252.3
268(15) 0.00444 202.4 252.7
260(15) 0.00444 202.6 253.1
254(14) 0.00510 202.8 253.5
251(14) 0.00510 203.0 253.8
257(14) 0.00510 203.1 254.2
251(14) 0.00510 203.3 254.4
250(14) 0.00510 203.5 254.7
265(15) 0.00444 203.7 254.9
258(14) 0.00510 203.9 255.1
268(15) 0.00444 204.1 255.2
294(15) 0.00444 204.3 255.4
263(15) 0.00444 204.5 255.4
256(14) 0.00510 204.7 255.5
240(14) 0.00510 204.9 255.5
232(14) 0.00510 205.1 255.5
253(14) 0.00510 205.3 255.4
252(14) 0.00510 205.5 255.4
245(14) 0.00510 205.7 255.2
258(14) 0.00510 205.9 255.1
250(14) 0.00510 206.1 254.9
244(14) 0.00510 206.3 254.7
228(14) 0.00510 206.5 254.5
254(14) 0.00510 206.7 254.2
278(15) 0.00444 207.0 254.0
259(14) 0.00510 207.2 253.7
263(15) 0.00444 207.4 253.4
270(15) 0.00444 207.6 253.1
248(14) 0.00510 207.9 252.7
246(14) 0.00510 208.1 252.4
271(15) 0.00444 208.3 252.1
265(15) 0.00444 208.5 251.8
257(14) 0.00510 208.8 251.5
231(14) 0.00510 209.0 251.2
282(15) 0.00444 209.3 251.0
277(15) 0.00444 209.5 250.7
249(14) 0.00510 209.7 250.5
254(14) 0.00510 210.0 250.3
266(15) 0.00444 210.2 250.1
254(14) 0.00510 210.5 250.0
240(14) 0.00510 210.7 249.8
241(14) 0.00510 211.0 249.7
258(14) 0.00510 211.2 249.7
245(14) 0.00510 211.5 249.6
241(14) 0.00510 211.8 249.6
248(14) 0.00510 212.0 249.7
238(14) 0.00510 212.3 249.7
236(14) 0.00510 212.6 249.8
253(14) 0.00510 212.8 249.9
252(14) 0.00510 213.1 250.0
245(14) 0.00510 213.4 250.2
242(14) 0.00510 213.7 250.4
241(14) 0.00510 214.0 250.6
239(14) 0.00510 214.2 250.8
250(15) 0.00444 214.5 251.1
258(15) 0.00444 214.8 251.3
248(15) 0.00444 215.1 251.6
257(15) 0.00444 215.4 252.0
266(15) 0.00444 215.7 252.3
264(15) 0.00444 216.0 252.7
257(15) 0.00444 216.3 253.1
245(14) 0.00510 216.6 253.5
243(14) 0.00510 216.9 253.9
241(14) 0.00510 217.2 254.4
249(15) 0.00444 217.6 254.9
254(15) 0.00444 217.9 255.4
234(14) 0.00510 218.2 256.0
245(14) 0.00510 218.5 256.6
256(15) 0.00444 218.9 257.2
254(15) 0.00444 219.2 257.8
259(15) 0.00444 219.5 258.5
273(15) 0.00444 219.9 259.2
282(15) 0.00444 220.2 259.9
274(15) 0.00444 220.6 260.7
245(14) 0.00510 220.9 261.4
259(15) 0.00444 221.3 262.2
266(15) 0.00444 221.6 263.1
268(15) 0.00444 222.0 263.9
259(15) 0.00444 222.3 264.8
261(15) 0.00444 222.7 265.6
266(15) 0.00444 223.1 266.5
267(15) 0.00444 223.5 267.4
281(15) 0.00444 223.8 268.2
268(15) 0.00444 224.2 269.1
271(15) 0.00444 224.6 270.0
261(15) 0.00444 225.0 270.8
267(15) 0.00444 225.4 271.7
266(15) 0.00444 225.8 272.5
262(15) 0.00444 226.2 273.3
268(15) 0.00444 226.6 274.1
280(15) 0.00444 227.0 274.9
276(15) 0.00444 227.4 275.7
267(15) 0.00444 227.8 276.4
261(15) 0.00444 228.2 277.1
258(15) 0.00444 228.7 277.7
275(15) 0.00444 229.1 278.4
279(15) 0.00444 229.5 279.0
279(15) 0.00444 230.0 279.5
282(15) 0.00444 230.4 280.1
267(15) 0.00444 230.8 280.6
300(16) 0.00391 231.3 281.0
306(16) 0.00391 231.7 281.5
311(16) 0.00391 232.2 281.9
272(15) 0.00444 232.7 282.3
274(15) 0.00444 233.1 282.6
282(15) 0.00444 233.6 282.9
288(16) 0.00391 234.1 283.2
275(15) 0.00444 234.5 283.5
269(15) 0.00444 235.0 283.8
281(15) 0.00444 235.5 284.0
262(15) 0.00444 236.0 284.2
269(15) 0.00444 236.5 284.4
278(15) 0.00444 237.0 284.6
291(16) 0.00391 237.5 284.7
281(15) 0.00444 238.0 284.9
299(16) 0.00391 238.6 285.0
294(16) 0.00391 239.1 285.1
291(16) 0.00391 239.6 285.2
296(16) 0.00391 240.1 285.3
282(15) 0.00444 240.7 285.3
286(16) 0.00391 241.2 285.4
292(16) 0.00391 241.8 285.4
286(16) 0.00391 242.3 285.5
272(15) 0.00444 242.9 285.5
315(16) 0.00391 243.4 285.5
298(16) 0.00391 244.0 285.6
281(15) 0.00444 244.6 285.6
282(15) 0.00444 245.2 285.6
299(16) 0.00391 245.7 285.6
288(16) 0.00391 246.3 285.7
290(16) 0.00391 246.9 285.7
283(15) 0.00444 247.5 285.7
269(15) 0.00444 248.1 285.8
278(15) 0.00444 248.7 285.8
288(16) 0.00391 249.4 285.9
287(16) 0.00391 250.0 286.0
274(15) 0.00444 250.6 286.1
273(15) 0.00444 251.3 286.3
287(16) 0.00391 251.9 286.5
275(15) 0.00444 252.5 286.6
277(15) 0.00444 253.2 286.9
272(15) 0.00444 253.9 287.1
282(15) 0.00444 254.5 287.4
294(16) 0.00391 255.2 287.7
279(15) 0.00444 255.9 288.0
294(16) 0.00391 256.5 288.4
291(16) 0.00391 257.2 288.8
284(16) 0.00391 257.9 289.3
266(15) 0.00444 258.6 289.7
277(15) 0.00444 259.3 290.2
279(13) 0.00592 260.1 290.8
300(16) 0.00391 260.8 291.4
299(16) 0.00391 261.5 292.0
283(16) 0.00391 262.2 292.6
294(16) 0.00391 263.0 293.3
306(17) 0.003460 263.7 294.0
298(16) 0.00391 264.5 294.8
294(16) 0.00391 265.2 295.6
288(16) 0.00391 266.0 296.4
289(16) 0.00391 266.8 297.2
299(16) 0.00391 267.6 298.1
286(16) 0.00391 268.4 299.0
269(16) 0.00391 269.2 299.9
296(16) 0.00391 270.0 300.9
316(17) 0.003460 270.8 301.9
328(17) 0.003460 271.6 302.9
311(17) 0.003460 272.4 304.0
329(17) 0.003460 273.2 305.1
319(17) 0.003460 274.1 306.2
310(17) 0.003460 274.9 307.3
318(17) 0.003460 275.8 308.5
291(16) 0.00391 276.6 309.7
305(17) 0.003460 277.5 311.0
310(17) 0.003460 278.4 312.2
317(17) 0.003460 279.3 313.5
316(17) 0.003460 280.2 314.8
309(17) 0.003460 281.1 316.2
319(17) 0.003460 282.0 317.5
330(17) 0.003460 282.9 318.9
326(17) 0.003460 283.8 320.3
312(17) 0.003460 284.7 321.8
323(17) 0.003460 285.7 323.2
331(17) 0.003460 286.6 324.7
346(17) 0.003460 287.6 326.2
336(17) 0.003460 288.5 327.7
326(17) 0.003460 289.5 329.3
320(17) 0.003460 290.5 330.9
321(17) 0.003460 291.5 332.4
317(17) 0.003460 292.5 334.1
320(17) 0.003460 293.5 335.7
350(18) 0.003086 294.5 337.3
373(18) 0.003086 295.5 338.9
366(18) 0.003086 296.5 340.6
354(18) 0.003086 297.6 342.3
342(17) 0.003460 298.6 344.0
344(17) 0.003460 299.7 345.6
356(18) 0.003086 300.7 347.3
356(18) 0.003086 301.8 349.0
360(18) 0.003086 302.9 350.7
366(18) 0.003086 304.0 352.5
356(18) 0.003086 305.1 354.2
355(18) 0.003086 306.2 355.9
360(18) 0.003086 307.3 357.6
358(18) 0.003086 308.5 359.4
353(18) 0.003086 309.6 361.1
380(18) 0.003086 310.7 362.8
376(18) 0.003086 311.9 364.5
377(18) 0.003086 313.1 366.2
376(18) 0.003086 314.2 368.0
371(18) 0.003086 315.4 369.7
387(18) 0.003086 316.6 371.4
395(19) 0.002770 317.8 373.1
390(18) 0.003086 319.0 374.7
376(18) 0.003086 320.3 376.4
383(18) 0.003086 321.5 378.1
404(19) 0.002770 322.7 379.7
405(19) 0.002770 324.0 381.3
401(19) 0.002770 325.3 382.9
417(19) 0.002770 326.5 384.5
406(19) 0.002770 327.8 386.0
393(19) 0.002770 329.1 387.5
402(19) 0.002770 330.4 389.0
403(19) 0.002770 331.7 390.5
413(19) 0.002770 333.1 392.0
404(19) 0.002770 334.4 393.4
398(19) 0.002770 335.7 394.7
410(19) 0.002770 337.1 396.1
399(19) 0.002770 338.5 397.4
403(19) 0.002770 339.8 398.7
415(19) 0.002770 341.2 400.0
403(19) 0.002770 342.6 401.2
397(19) 0.002770 344.0 402.4
417(19) 0.002770 345.5 403.6
414(19) 0.002770 346.9 404.7
390(18) 0.003086 348.3 405.9
408(19) 0.002770 349.8 407.0
423(19) 0.002770 351.3 408.0
409(19) 0.002770 352.7 409.1
399(19) 0.002770 354.2 410.2
405(19) 0.002770 355.7 411.2
406(19) 0.002770 357.2 412.2
397(19) 0.002770 358.8 413.2
406(19) 0.002770 360.3 414.3
404(19) 0.002770 361.9 415.3
408(19) 0.002770 363.4 416.3
427(19) 0.002770 365.0 417.3
431(19) 0.002770 366.6 418.3
433(19) 0.002770 368.2 419.3
407(19) 0.002770 369.8 420.3
411(19) 0.002770 371.4 421.3
462(20) 0.002500 373.0 422.3
434(20) 0.002500 374.7 423.4
429(20) 0.002500 376.3 424.4
428(20) 0.002500 378.0 425.5
430(20) 0.002500 379.7 426.6
432(20) 0.002500 381.3 427.7
453(20) 0.002500 383.1 428.8
432(20) 0.002500 384.8 429.9
425(20) 0.002500 386.5 431.1
408(19) 0.002770 388.2 432.3
431(20) 0.002500 390.0 433.5
423(20) 0.002500 391.8 434.7
445(20) 0.002500 393.5 435.9
436(20) 0.002500 395.3 437.2
434(20) 0.002500 397.1 438.5
460(20) 0.002500 399.0 439.8
440(20) 0.002500 400.8 441.1
436(20) 0.002500 402.6 442.5
429(20) 0.002500 404.5 443.8
434(20) 0.002500 406.4 445.3
446(20) 0.002500 408.3 446.7
467(21) 0.002268 410.2 448.1
468(21) 0.002268 412.1 449.6
443(20) 0.002500 414.0 451.1
449(20) 0.002500 415.9 452.6
475(21) 0.002268 417.9 454.2
444(20) 0.002500 419.9 455.8
439(20) 0.002500 421.8 457.4
458(20) 0.002500 423.8 459.0
443(20) 0.002500 425.8 460.6
453(20) 0.002500 427.9 462.3
445(20) 0.002500 429.9 464.0
456(20) 0.002500 432.0 465.7
449(20) 0.002500 434.0 467.5
450(20) . . .
458(20) . . .
473(21) . . .
479(21) . . .
459(20) . . .
475(21) . . .
493(21) . . .
486(21) . . .
480(21) . . .
462(20) . . .
470(21) . . .
503(21) . . .
509(21) . . .
494(21) . . .
485(21) . . .
492(21) . . .
498(21) . . .
496(21) . . .
523(22) . . .
533(22) . . .
529(22) . . .
523(22) . . .
510(21) . . .
531(22) . . .
552(22) . . .
540(22) . . .
546(22) . . .
517(22) . . .
513(21) . . .
521(22) . . .
501(21) . . .
495(21) . . .
515(22) . . .
537(22) . . .
543(22) . . .
542(22) . . .
538(22) . . .
535(22) . . .
544(22) . . .
601(23) . . .
586(23) . . .
586(23) . . .
593(23) . . .
605(23) . . .
579(23) . . .
569(23) . . .
577(23) . . .
600(23) . . .
605(23) . . .
579(23) . . .
596(23) . . .
604(23) . . .
632(24) . . .
619(23) . . .
618(23) . . .
634(24) . . .
646(24) . . .
635(24) . . .
619(23) . . .
636(24) . . .
615(23) . . .
630(24) . . .
628(24) . . .
618(23) . . .
628(24) . . .
627(24) . . .
626(34) . . .
612(33) . . .
635(34) . . .
612(33) . . .
646(34) . . .
646(34) . . .
656(34) . . .
709(36) . . .
651(34) . . .
691(35) . . .
744(36) . . .
629(34) . . .
654(34) . . .
697(35) . . .
708(36) . . .
735(36) . . .
692(35) . . .
669(35) . . .
715(36) . . .
701(36) . . .
742(36) . . .
710(36) . . .
746(37) . . .
703(36) . . .
674(35) . . .
710(36) . . .
759(37) . . .
747(37) . . .
769(37) . . .
793(38) . . .
779(37) . . .
712(36) . . .
764(37) . . .
744(36) . . .
750(37) . . .
784(37) . . .
778(37) . . .
743(36) . . .
796(38) . . .
789(37) . . .
726(36) . . .
773(37) . . .
798(38) . . .
756(37) . . .
775(37) . . .
764(37) . . .
751(37) . . .
795(38) . . .
744(36) . . .
862(39) . . .
813(38) . . .
889(40) . . .
855(39) . . .
869(39) . . .
794(38) . . .
843(39) . . .
797(38) . . .
774(37) . . .
876(39) . . .
924(40) . . .
867(39) . . .
847(39) . . .
875(39) . . .
820(38) . . .
846(39) . . .
871(39) . . .
847(39) . . .
860(39) . . .
853(39) . . .
902(40) . . .
879(39) . . .
861(39) . . .
879(39) . . .
901(40) . . .
915(40) . . .
920(40) . . .
915(40) . . .
948(41) . . .
927(40) . . .
910(40) . . .
895(40) . . .
899(40) . . .
941(41) . . .
881(39) . . .
927(40) . . .
929(40) . . .
967(41) . . .
949(41) . . .
911(40) . . .
926(40) . . .
890(40) . . .
833(38) . . .
886(39) . . .
949(41) . . .
973(41) . . .
949(41) . . .
953(41) . . .
879(39) . . .
947(41) . . .
977(41) . . .
loop_
_refln_index_h
_refln_index_k
_refln_index_l
_refln_observed_status
_refln_F_squared_meas
_refln_F_squared_calc
_refln_phase_calc
_refln_d_spacing
_gsas_i100_meas
1 1 0 o 1147.675 1142.475 -180.00 12.94031 100.00
3 0 0 o 159.287 122.494 -0.76 7.47109 4.66
1 0 1 o 133.271 130.544 62.90 6.51046 2.97
2 2 0 o 1.603 1.458 0.00 6.47016 0.04
2 0 -1 o 343.501 409.579 134.73 5.81587 6.12
2 1 1 o 22.981 33.770 -3.67 5.30473 0.68
4 1 0 o 56.680 76.598 46.04 4.89098 1.44
3 1 -1 o 94.578 94.674 -60.05 4.58928 2.12
4 0 1 o 491.666 435.483 -123.47 4.32532 4.91
3 3 0 o 429.377 370.909 -180.00 4.31344 4.27
3 2 1 o 62.741 50.599 178.35 4.10223 1.13
5 0 -1 o 370.348 319.628 36.70 3.74326 2.80
6 0 0 o 426.960 379.774 -70.46 3.73555 3.22
4 2 -1 o 233.254 226.194 -166.74 3.59583 3.27
5 2 0 o 177.304 173.736 -50.78 3.58900 2.48
5 1 1 o 616.470 596.165 30.73 3.46456 8.05
1 0 -2 o 195.120 167.754 9.71 3.36339 1.20
2 0 2 o 8.901 12.237 -97.87 3.25523 0.05
4 3 1 o 30.416 31.717 -50.62 3.24008 0.35
4 4 0 o 3.005 2.870 180.00 3.23508 0.02
2 1 -2 o 280.700 325.060 -164.73 3.15688 3.07
6 1 -1 o 0.000 5.954 -66.35 3.05425 0.00
3 1 2 o 87.764 87.824 62.47 2.98426 0.86
7 1 0 o 969.656 1009.056 125.52 2.96871 9.46
4 0 -2 o 408.288 405.891 19.68 2.90794 1.92
5 3 -1 o 56.844 56.034 98.28 2.89712 0.53
7 0 1 o 628.538 619.576 -170.77 2.89712 2.93
3 2 -2 o 137.213 150.897 104.32 2.83718 1.23
6 2 1 o 350.125 376.834 -158.41 2.82713 3.12
6 3 0 o 69.988 75.303 -80.71 2.82381 0.62
5 0 2 o 415.442 421.280 -18.42 2.70990 1.71
4 2 2 o 39.687 38.519 -142.68 2.65237 0.31
5 4 1 o 399.416 398.469 39.81 2.64415 3.15
5 1 -2 o 119.370 111.637 -78.92 2.59835 0.91
8 0 -1 o 259.025 233.765 1.06 2.59062 0.98
5 5 0 o 119.871 107.507 0.00 2.58806 0.45
7 2 -1 o 333.351 320.326 -169.97 2.54022 2.45
4 3 -2 o 93.522 82.546 -63.79 2.49952 0.67
9 0 0 o 549.344 507.160 -39.88 2.49036 1.94
8 1 1 o 435.564 397.141 -19.20 2.44765 2.99
8 2 0 o 144.327 129.132 -56.65 2.44549 0.99
6 1 2 o 10.402 11.397 136.72 2.41118 0.07
6 4 -1 o 220.579 222.742 4.97 2.40500 1.47
7 3 1 o 80.346 75.384 118.22 2.36451 0.52
7 0 -2 o 900.724 827.332 95.71 2.33159 2.84
5 3 2 o 438.294 402.583 -159.46 2.33159 2.76
7 4 0 o 26.149 21.618 109.78 2.32415 0.16
6 2 -2 o 43.972 42.840 -148.83 2.29464 0.27
0 0 3 o 2958.746 2743.492 94.11 2.26794 2.96
1 1 3 o 269.077 254.549 -75.44 2.23389 1.57
6 5 1 o 182.895 153.674 -117.23 2.22086 1.06
9 1 -1 o 97.640 82.040 17.72 2.22086 0.57
5 4 -2 o 230.105 226.314 -42.89 2.19351 1.30
3 0 3 o 24.554 25.811 147.42 2.17015 0.07
3 0 -3 o 7.164 7.531 132.23 2.17015 0.02
8 0 2 o 5.735 5.455 106.15 2.16266 0.02
8 3 -1 o 121.389 111.252 -167.33 2.15820 0.67
6 6 0 o 44.349 40.080 -180.00 2.15672 0.12
2 2 3 o 361.030 310.049 135.02 2.14027 1.96
7 2 2 o 109.283 100.510 70.19 2.13307 0.59
10 0 1 o 743.952 719.499 84.82 2.12880 2.00
10 1 0 o 20.245 20.013 125.64 2.12737 0.11
9 2 1 o 454.234 466.333 -153.66 2.10056 2.39
8 1 -2 o 251.071 259.815 -103.08 2.07738 1.30
9 3 0 o 27.944 29.142 130.94 2.07211 0.14
7 5 -1 o 46.885 52.294 -171.60 2.04731 0.24
4 1 3 o 148.903 150.825 -25.88 2.05750 0.76
4 1 -3 o 283.457 287.116 12.90 2.05750 1.44
6 4 2 o 456.808 489.979 -33.02 2.05111 2.31
7 3 -2 o 384.300 404.763 97.37 2.02582 1.91
8 4 1 o 99.434 101.994 58.78 2.02216 0.49
3 3 3 o 55.170 61.537 -160.10 2.00738 0.27
8 5 0 o 11.459 33.313 139.91 1.97338 0.05
11 0 -1 o 28.288 45.541 51.52 1.95192 0.07
6 0 -3 o 166.139 177.354 -106.48 1.93862 0.38
6 0 3 o 133.071 142.054 105.81 1.93862 0.31
9 1 2 o 62.546 67.348 -60.56 1.93327 0.29
6 5 -2 o 134.260 144.569 -118.72 1.93327 0.62
10 2 -1 o 58.512 65.053 -159.53 1.93009 0.27
7 6 1 o 0.994 1.410 -112.22 1.90897 0.00
5 2 3 o 27.909 36.267 46.32 1.91723 0.13
5 2 -3 o 207.052 269.060 172.68 1.91723 0.94
8 3 2 o 208.551 208.014 -169.46 1.89152 0.93
10 0 -2 o 677.354 662.459 53.14 1.87163 1.48
11 1 1 o 263.213 245.102 -29.32 1.86873 1.15
9 4 -1 o 44.476 41.416 -33.17 1.86873 0.19
12 0 0 o 98.829 89.982 -173.52 1.86777 0.22
4 4 3 o 12.210 10.449 -40.00 1.85706 0.05
9 2 -2 o 177.743 155.248 -49.00 1.85235 0.76
11 2 0 o 11.360 9.733 -51.69 1.84862 0.05
7 7 0 o 0.135 0.116 0.00 1.84862 0.00
10 3 1 o 26.484 35.160 -91.31 1.83094 0.11
7 1 3 o 223.737 219.882 -130.53 1.80222 0.92
7 1 -3 o 85.208 83.740 40.08 1.80222 0.35
7 5 2 o 73.921 82.973 143.70 1.81553 0.31
8 4 -2 o 67.536 63.958 93.42 1.79792 0.28
10 4 0 o 61.638 56.465 -62.84 1.79450 0.25
8 6 -1 o 110.344 92.873 40.77 1.77832 0.45
6 3 3 o 27.176 20.280 -30.40 1.76824 0.11
6 3 -3 o 49.063 36.613 -0.04 1.76824 0.20
9 5 1 o 91.313 69.888 -26.76 1.76176 0.36
11 0 2 o 597.785 563.869 125.64 1.74801 1.18
10 2 2 o 356.211 300.701 -32.54 1.73228 1.39
12 1 -1 o 21.251 17.239 -161.77 1.72998 0.08
9 6 0 o 142.205 136.371 -23.44 1.71399 0.54
5 5 3 o 77.621 76.739 74.15 1.70569 0.30
7 6 -2 o 15.922 14.522 -132.59 1.71696 0.06
11 3 -1 o 121.013 103.553 16.71 1.69987 0.46
1 0 4 o 35.870 29.393 -84.14 1.69608 0.07
9 4 2 o 105.646 92.622 55.47 1.68751 0.40
11 1 -2 o 225.202 197.440 -147.78 1.68751 0.84
2 0 -4 o 74.698 72.935 12.78 1.68170 0.14
9 0 -3 o 115.101 121.595 75.92 1.67681 0.21
9 0 3 o 257.421 271.943 40.83 1.67681 0.48
8 7 1 o 197.038 203.707 131.66 1.67128 0.73
13 0 1 o 177.163 183.160 172.29 1.67128 0.33
2 1 4 o 129.392 134.163 126.90 1.66767 0.48
8 2 -3 o 283.195 294.227 -112.61 1.66291 1.04
8 2 3 o 58.884 61.178 100.40 1.66291 0.22
10 3 -2 o 85.609 88.670 -174.37 1.65953 0.31
12 2 1 o 453.870 471.411 136.27 1.65751 1.66
13 1 0 o 95.283 99.062 36.30 1.65684 0.35
10 5 -1 o 21.767 24.971 40.01 1.64408 0.08
12 3 0 o 31.886 34.844 172.12 1.63033 0.11
3 1 -4 o 25.423 31.818 176.66 1.64065 0.09
4 0 4 o 279.027 300.031 -49.41 1.62762 0.50
7 4 -3 o 129.484 134.659 122.45 1.62318 0.46
7 4 3 o 35.578 37.000 -126.82 1.62318 0.13
8 6 2 o 112.418 111.043 -73.93 1.62004 0.40
11 4 1 o 151.763 146.573 -6.33 1.61816 0.54
8 8 0 o 54.663 52.498 -180.00 1.61754 0.10
3 2 4 o 43.380 40.856 -45.84 1.61489 0.15
9 5 -2 o 28.318 25.883 5.00 1.60749 0.10
5 0 -4 o 203.004 170.213 1.18 1.59031 0.35
12 1 2 o 35.887 28.785 -169.38 1.58325 0.12
9 7 -1 o 157.422 135.075 -135.23 1.56981 0.54
11 5 0 o 99.950 77.861 112.51 1.58091 0.34
4 2 -4 o 2.686 2.047 -166.85 1.57844 0.01
5 1 4 o 180.151 158.532 107.71 1.56683 0.61
6 6 3 o 18.975 17.324 -24.63 1.56287 0.06
11 3 2 o 204.519 188.082 177.64 1.56006 0.69
10 6 1 o 12.527 11.472 -161.41 1.55839 0.04
14 0 -1 o 170.633 156.265 18.64 1.55839 0.29
10 1 3 o 169.289 149.861 -70.50 1.55160 0.57
10 1 -3 o 12.168 10.772 9.41 1.55160 0.04
13 2 -1 o 112.079 110.229 -139.50 1.54721 0.38
4 3 4 o 40.519 44.362 -157.54 1.54435 0.14
8 7 -2 o 13.592 16.202 44.64 1.53787 0.05
13 0 -2 o 341.080 406.593 23.55 1.53787 0.57
9 3 3 o 80.914 67.214 134.64 1.52976 0.27
9 3 -3 o 2.714 2.254 -137.70 1.52976 0.01
12 2 -2 o 56.004 43.134 107.48 1.52713 0.18
6 1 -4 o 6.616 5.354 132.55 1.52281 0.02
10 5 2 o 186.207 154.920 27.20 1.51660 0.61
14 1 1 o 414.589 323.940 -20.52 1.50478 1.35
12 4 -1 o 153.052 127.884 -167.15 1.51506 0.50
10 7 0 o 0.396 0.331 -68.57 1.51455 0.00
7 0 4 o 204.519 162.757 -63.41 1.50215 0.33
5 3 -4 o 56.055 44.609 -75.13 1.50215 0.18
11 4 -2 o 190.910 166.416 -10.76 1.49619 0.62
15 0 0 o 75.565 68.192 -97.16 1.49422 0.12
6 2 4 o 63.601 60.056 -117.22 1.49213 0.20
8 5 -3 o 51.592 52.737 34.44 1.48871 0.17
8 5 3 o 35.168 35.948 53.64 1.48871 0.11
13 3 1 o 285.744 307.734 -102.28 1.48484 0.91
9 8 1 o 231.823 249.663 -60.91 1.48484 0.74
14 2 0 o 55.092 59.298 -112.99 1.48436 0.18
5 4 4 o 77.289 75.983 -3.58 1.46323 0.24
9 7 2 o 57.587 62.037 159.41 1.45772 0.18
11 6 -1 o 131.619 125.271 71.51 1.46567 0.42
13 4 0 o 65.274 70.837 46.10 1.45590 0.20
8 0 -4 o 51.855 55.813 -114.44 1.45397 0.08
10 6 -2 o 143.443 143.169 -118.69 1.44856 0.45
14 0 2 o 284.452 283.910 -25.03 1.44856 0.44
12 5 1 o 550.765 542.315 114.71 1.44722 1.72
7 2 -4 o 77.319 75.406 129.07 1.44488 0.24
12 0 3 o 176.330 171.637 92.53 1.44177 0.27
12 0 -3 o 73.523 71.566 -152.10 1.44177 0.11
13 2 2 o 134.960 131.334 26.37 1.43957 0.42
9 9 0 o 0.083 0.080 180.00 1.43781 0.00
7 7 3 o 130.633 129.247 163.86 1.43291 0.40
11 2 -3 o 87.767 86.836 94.22 1.43291 0.27
11 2 3 o 56.253 55.656 173.26 1.43291 0.17
6 4 -4 o 0.159 0.177 41.84 1.41859 0.00
8 1 4 o 183.135 178.419 54.67 1.42719 0.56
12 4 2 o 98.887 107.798 -99.33 1.41357 0.30
15 1 -1 o 8.837 9.439 45.30 1.41232 0.03
12 6 0 o 218.992 232.383 -120.37 1.41190 0.67
7 3 4 o 287.103 297.440 173.22 1.41014 0.88
10 4 -3 o 96.597 97.625 -61.38 1.40726 0.29
10 4 3 o 159.035 160.727 -49.06 1.40726 0.48
14 1 -2 o 77.031 77.317 -137.13 1.40521 0.23
10 8 -1 o 105.778 106.107 -95.02 1.40398 0.32
14 3 -1 o 97.061 97.742 47.45 1.39579 0.29
11 7 1 o 136.105 137.059 -81.75 1.39579 0.41
9 8 -2 o 33.901 31.466 75.88 1.38892 0.10
13 3 -2 o 6.944 6.445 -136.25 1.38892 0.02
9 1 -4 o 39.968 49.225 -36.87 1.37780 0.12
6 5 4 o 203.856 251.071 7.57 1.37780 0.61
11 6 2 o 94.810 108.421 -164.50 1.37319 0.28
16 0 1 o 66.940 73.538 128.08 1.37205 0.10
9 6 -3 o 7.000 7.035 116.22 1.36741 0.02
9 6 3 o 39.173 39.373 -82.84 1.36741 0.12
13 5 -1 o 15.946 16.863 -77.35 1.36440 0.05
15 2 1 o 218.609 231.179 121.99 1.36440 0.65
8 3 -4 o 23.941 25.590 56.38 1.36244 0.07
1 0 -5 o 8.652 8.886 -67.76 1.35826 0.01
12 5 -2 o 169.261 173.287 109.70 1.35799 0.50
16 1 0 o 57.766 58.244 105.14 1.35651 0.17
11 8 0 o 134.328 135.438 104.76 1.35651 0.40
9 2 4 o 792.793 757.671 -16.17 1.34758 2.35
10 0 4 o 1132.271 1129.199 -158.31 1.35495 1.68
2 1 -5 o 64.832 63.724 99.99 1.34354 0.19
2 0 5 o 27.318 26.610 46.97 1.35084 0.04
14 4 1 o 51.891 51.689 -35.51 1.34220 0.15
15 3 0 o 6.299 6.292 -124.19 1.34185 0.02
13 1 -3 o 25.144 24.866 -23.82 1.33786 0.07
13 1 3 o 21.247 21.011 -114.22 1.33786 0.06
10 9 1 o 132.585 127.284 79.09 1.33504 0.39
7 5 -4 o 215.746 204.835 -168.24 1.33320 0.63
3 1 5 o 54.855 51.287 168.91 1.32929 0.16
15 1 2 o 242.930 227.144 167.83 1.32903 0.71
8 4 4 o 351.606 331.706 179.59 1.32618 1.03
8 8 3 o 115.984 98.473 66.89 1.31691 0.34
12 3 3 o 43.747 41.087 11.51 1.32378 0.13
12 3 -3 o 54.912 51.572 -141.67 1.32378 0.16
3 2 -5 o 38.091 32.671 -21.20 1.31548 0.11
11 7 -2 o 8.685 7.472 -137.74 1.31523 0.03
14 3 2 o 19.447 16.731 -171.32 1.31523 0.06
4 0 -5 o 100.032 92.406 -108.43 1.32233 0.15
10 8 2 o 45.534 41.896 32.04 1.32208 0.13
14 5 0 o 20.423 17.893 21.12 1.31389 0.06
12 7 -1 o 54.184 48.919 -45.60 1.32105 0.16
13 6 1 o 51.380 49.474 -22.13 1.30750 0.15
11 0 -4 o 65.079 63.370 41.88 1.30577 0.10
5 0 5 o 363.037 349.892 24.74 1.30209 0.53
10 2 -4 o 62.508 59.877 176.13 1.29917 0.18
11 5 3 o 177.554 171.037 113.77 1.29692 0.52
11 5 -3 o 64.553 62.184 75.71 1.29692 0.19
5 1 -5 o 53.837 49.903 32.08 1.28911 0.16
15 2 -2 o 34.834 32.225 153.93 1.28887 0.10
13 5 2 o 129.395 119.703 57.15 1.28887 0.38
4 2 5 o 85.368 82.475 -112.76 1.29555 0.25
16 2 -1 o 100.076 91.892 -86.28 1.28792 0.29
16 0 -2 o 321.944 311.081 5.07 1.29531 0.47
17 0 -1 o 274.466 264.924 161.67 1.29435 0.40
10 10 0 o 363.465 350.480 0.00 1.29403 0.53
7 6 4 o 40.438 38.695 -83.53 1.29267 0.12
9 4 -4 o 50.344 45.738 -22.06 1.27996 0.15
11 1 4 o 284.077 258.084 83.40 1.27996 0.83
4 3 -5 o 126.733 116.251 -138.09 1.27650 0.37
13 7 0 o 217.086 198.156 30.13 1.27505 0.63
10 3 4 o 101.671 91.367 -121.10 1.26762 0.30
6 1 5 o 29.723 26.381 -178.38 1.26426 0.09
10 9 -2 o 5.261 4.660 -52.76 1.26403 0.02
12 8 1 o 175.813 154.332 -178.18 1.26314 0.51
14 4 -2 o 111.653 99.680 -51.32 1.27011 0.32
11 9 -1 o 274.153 245.295 107.78 1.26920 0.80
15 4 -1 o 6.883 6.159 -66.55 1.26920 0.02
10 7 -3 o 3.301 2.795 47.30 1.25952 0.01
10 7 3 o 59.121 50.055 -40.78 1.25952 0.17
17 1 1 o 91.267 78.262 -79.50 1.25717 0.27
15 0 3 o 113.586 108.093 18.27 1.24775 0.17
15 0 -3 o 77.331 73.591 139.68 1.24775 0.11
6 2 -5 o 19.693 18.524 58.10 1.24654 0.06
16 3 1 o 60.673 56.438 -81.82 1.24547 0.18
5 3 5 o 118.172 111.901 -6.16 1.25236 0.34
7 0 -5 o 153.357 145.218 -163.92 1.25236 0.22
12 7 2 o 38.399 36.508 12.13 1.25214 0.11
18 0 0 o 151.249 140.238 -0.54 1.24518 0.22
9 5 4 o 517.540 472.670 40.40 1.24397 1.51
8 6 -4 o 38.822 37.496 -9.31 1.24976 0.11
14 2 3 o 0.313 0.278 -128.61 1.24199 0.00
14 2 -3 o 85.403 75.765 -29.63 1.24199 0.25
13 6 -2 o 2.234 1.934 75.04 1.24058 0.01
14 6 -1 o 191.173 162.779 137.10 1.23974 0.56
17 2 0 o 101.178 85.667 -135.89 1.23946 0.30
7 1 6 o 27.843 28.005 68.92 1.05932 0.17
7 1 -6 o 90.568 91.098 69.10 1.05932 0.54
5 4 -5 o 112.674 97.884 144.03 1.22954 0.33
17 0 2 o 108.760 95.169 -35.67 1.22933 0.16
12 9 0 o 706.251 641.956 -141.68 1.22824 2.07
12 1 -4 o 18.737 14.856 -151.99 1.23263 0.05
10 5 5 o 76.794 75.257 102.15 1.06095 0.44
14 9 2 o 8.851 8.694 57.70 1.06081 0.05
19 2 2 o 16.376 16.084 -179.52 1.06081 0.09
13 4 -3 o 82.853 82.353 137.22 1.22518 0.24
13 4 3 o 132.841 132.039 -171.88 1.22518 0.39
8 0 5 o 72.564 73.756 34.83 1.22403 0.11
16 2 2 o 200.942 204.892 -9.06 1.22382 0.59
14 10 1 o 32.573 32.277 -42.46 1.06029 0.19
15 5 1 o 7.679 7.912 130.76 1.22301 0.02
16 4 0 o 146.360 151.213 51.73 1.22274 0.43
11 3 -4 o 2.799 2.913 -87.38 1.22160 0.01
11 10 1 o 167.091 169.185 13.38 1.21223 0.49
7 2 5 o 265.478 273.155 -166.95 1.21859 0.78
8 7 4 o 55.372 56.804 -156.60 1.21086 0.16
13 0 4 o 470.055 482.215 -16.94 1.21086 0.70
9 9 3 o 130.394 130.734 -156.05 1.21434 0.39
8 1 -5 o 5.564 5.840 62.28 1.20792 0.02
11 9 2 o 31.838 33.447 -107.84 1.20773 0.09
15 4 2 o 13.325 13.999 165.16 1.20773 0.04
12 2 4 o 618.596 651.487 -142.34 1.20559 1.84
10 9 4 o 138.474 131.281 -84.56 1.06293 0.77
7 3 -5 o 293.001 304.465 -41.09 1.19753 0.88
17 1 -2 o 32.592 33.879 171.80 1.19734 0.10
6 4 5 o 421.245 442.052 32.70 1.20269 1.25
15 6 0 o 494.212 515.365 -138.83 1.19633 1.48
12 8 -2 o 0.624 0.654 -178.02 1.20250 0.00
13 8 -1 o 72.287 75.722 -61.75 1.20173 0.22
10 5 -4 o 10.368 10.825 88.92 1.20039 0.03
12 6 -3 o 103.148 107.187 -103.40 1.19861 0.31
12 6 3 o 37.726 39.203 -47.40 1.19861 0.11
12 2 -5 o 340.837 316.515 46.50 1.06453 1.84
20 0 2 o 910.767 846.850 -31.38 1.06440 2.46
18 1 -1 o 114.006 122.398 16.82 1.19150 0.34
14 7 1 o 33.182 35.625 44.53 1.19150 0.10
13 11 -1 o 69.892 65.383 47.81 1.06386 0.38
11 4 4 o 251.303 272.314 55.84 1.19019 0.76
20 2 0 o 308.114 288.909 76.43 1.06369 1.69
14 4 4 o 56.997 52.739 -155.40 1.06654 0.30
14 6 2 o 190.827 189.821 -103.57 1.18226 0.58
17 3 -1 o 94.918 92.831 167.85 1.18153 0.29
16 3 -2 o 53.822 58.765 140.76 1.18722 0.16
13 0 -5 o 121.718 114.616 -174.17 1.06815 0.31
8 7 -5 o 48.609 45.772 125.59 1.06815 0.25
6 5 -5 o 408.615 392.206 149.30 1.17753 1.25
9 1 5 o 107.814 103.484 15.35 1.17753 0.33
12 11 -2 o 25.320 23.796 -43.16 1.06802 0.13
11 11 0 o 161.261 156.748 0.00 1.17639 0.25
9 7 -4 o 2.543 2.663 -149.33 1.17055 0.01
15 9 0 o 67.107 62.492 -23.19 1.06730 0.35
21 0 0 o 271.266 252.611 -104.52 1.06730 0.70
4 4 6 o 12.287 11.982 2.38 1.07013 0.06
8 3 5 o 203.236 210.949 -120.09 1.16790 0.63
15 5 -2 o 31.624 32.794 -13.23 1.16773 0.10
13 2 -4 o 5.975 6.262 -79.11 1.16109 0.02
14 0 -4 o 84.239 86.682 46.95 1.16579 0.13
10 6 4 o 507.909 522.640 -127.64 1.16579 1.58
16 1 -3 o 20.557 21.160 142.61 1.16416 0.06
11 8 -3 o 41.036 42.239 32.96 1.16416 0.13
16 1 3 o 26.170 26.937 162.04 1.16416 0.08
11 8 3 o 44.377 45.678 -165.14 1.16416 0.14
9 2 -5 o 669.278 701.887 -173.88 1.15850 2.11
11 10 -2 o 1.926 2.018 -88.07 1.15833 0.01
18 2 1 o 65.180 67.881 74.85 1.15765 0.21
12 10 -1 o 133.542 139.076 163.01 1.15765 0.42
10 0 -5 o 525.804 543.456 16.92 1.16317 0.82
19 0 1 o 66.984 69.620 114.59 1.16231 0.10
16 5 -1 o 300.236 312.053 -8.93 1.16231 0.94
17 6 -1 o 82.178 81.670 -6.07 1.07113 0.40
19 3 1 o 77.718 77.238 -106.66 1.07113 0.38
14 8 0 o 342.584 356.655 27.40 1.16207 1.07
15 3 3 o 53.467 53.840 -60.20 1.15485 0.17
15 3 -3 o 4.198 4.227 -37.32 1.15485 0.01
7 5 5 o 95.850 86.645 50.17 1.14933 0.31
13 8 2 o 153.861 138.659 124.78 1.14916 0.49
19 1 0 o 18.257 16.248 67.57 1.14827 0.06
14 1 4 o 79.111 72.858 111.94 1.14284 0.26
13 9 1 o 21.955 21.528 -76.40 1.15304 0.07
12 4 -4 o 9.291 8.226 65.25 1.14732 0.03
16 4 3 o 243.886 249.559 161.14 1.07629 1.12
16 4 -3 o 3.497 3.579 100.04 1.07629 0.02
18 1 2 o 201.393 185.915 142.33 1.14020 0.66
14 7 -2 o 21.026 19.410 -76.24 1.14020 0.07
11 3 5 o 199.681 204.828 -64.90 1.07550 0.93
8 4 -5 o 447.788 404.289 18.27 1.14482 1.45
16 6 -2 o 110.424 112.859 135.58 1.07910 0.49
18 3 0 o 164.535 151.371 -128.35 1.13933 0.54
9 8 4 o 98.606 89.703 42.37 1.13402 0.33
13 3 4 o 291.603 265.272 22.94 1.13402 0.97
0 0 6 o 118.597 107.906 40.58 1.13397 0.07
17 4 1 o 32.532 29.659 75.05 1.14399 0.11
20 1 1 o 40.061 40.916 -77.08 1.07854 0.18
12 12 0 o 232.217 237.135 0.00 1.07836 0.52
10 2 5 o 722.310 682.584 77.81 1.12731 2.45
13 5 -4 o 10.151 10.365 18.08 1.07757 0.05
15 2 4 o 86.807 88.635 -138.41 1.07757 0.39
14 5 3 o 342.689 311.571 22.01 1.13689 1.13
14 5 -3 o 82.294 74.821 0.17 1.13689 0.27
16 0 4 o 51.872 53.148 -31.65 1.08133 0.11
11 0 5 o 884.996 812.200 -117.53 1.13161 1.48
5 2 6 o 49.377 50.591 50.04 1.08128 0.22
5 2 -6 o 23.285 23.858 4.82 1.08128 0.10
17 3 2 o 42.875 39.374 -123.84 1.13145 0.14
6 0 -6 o 341.673 346.524 -132.58 1.08508 0.72
6 0 6 o 261.676 265.391 -122.61 1.08508 0.55
3 0 6 o 77.036 74.175 -128.00 1.12113 0.13
3 0 -6 o 97.989 94.349 -143.15 1.12113 0.17
11 6 -4 o 24.617 23.775 -102.95 1.12541 0.08
15 7 -1 o 130.481 118.410 -170.68 1.13516 0.43
1 1 6 o 7.124 6.601 -113.70 1.12964 0.02
12 9 -3 o 218.166 223.293 104.26 1.08003 0.97
12 9 3 o 221.154 226.351 -13.65 1.08003 0.98
9 4 5 o 185.984 167.227 -135.67 1.11469 0.66
11 1 -5 o 24.345 21.890 -76.91 1.11469 0.09
16 5 2 o 237.240 213.510 75.11 1.11454 0.84
19 0 -2 o 10.496 9.446 -130.84 1.11454 0.02
17 2 3 o 0.260 0.257 145.53 1.08763 0.00
17 2 -3 o 87.199 86.252 -112.84 1.08763 0.36
10 10 3 o 386.191 377.371 48.12 1.12395 1.33
18 0 -3 o 96.961 94.177 29.45 1.09149 0.20
18 0 3 o 18.541 18.008 3.44 1.09149 0.04
12 1 5 o 0.777 0.795 -150.12 1.08301 0.00
7 6 -5 o 131.673 128.823 -155.20 1.12306 0.45
9 5 -5 o 11.762 11.442 -16.82 1.09068 0.05
15 7 2 o 108.411 105.498 -56.13 1.09053 0.44
16 6 1 o 37.458 36.518 -146.62 1.12228 0.13
17 5 0 o 290.471 282.706 44.07 1.12207 1.00
13 10 0 o 252.183 245.442 144.43 1.12207 0.87
8 6 5 o 97.966 95.714 1.98 1.09457 0.39
12 5 4 o 198.296 178.814 -126.68 1.11700 0.70
2 2 6 o 44.758 40.342 34.37 1.11695 0.16
18 4 -1 o 417.625 407.053 166.17 1.08996 1.70
17 4 -2 o 10.634 10.785 -137.46 1.09836 0.04
15 8 1 o 6.247 6.081 -156.34 1.09385 0.02
13 7 -3 o 13.843 12.846 179.46 1.11144 0.05
13 7 3 o 200.343 185.904 174.88 1.11144 0.72
10 3 -5 o 1.660 1.625 -158.95 1.10651 0.01
16 7 0 o 166.180 167.173 -165.63 1.09758 0.64
13 9 -2 o 34.599 33.943 106.28 1.10636 0.13
14 9 -1 o 175.882 179.663 -5.56 1.10175 0.67
19 2 -1 o 149.359 152.570 11.71 1.10175 0.57
11 7 4 o 427.050 414.636 61.07 1.09284 1.71
14 3 -4 o 44.621 43.324 160.10 1.09284 0.18
12 10 2 o 10.655 9.985 -69.55 1.11043 0.04
18 2 -2 o 172.126 161.308 -14.75 1.11043 0.62
20 0 -1 o 586.809 581.201 -151.43 1.10576 1.09
10 8 -4 o 39.539 39.399 153.58 1.09675 0.15
3 3 6 o 197.681 196.871 -162.88 1.09671 0.77
12 11 1 o 187.262 176.405 128.74 1.10982 0.68
15 1 -4 o 8.332 8.531 -88.73 1.10072 0.03
4 1 -6 o 85.059 85.490 38.97 1.10467 0.32
4 1 6 o 52.351 52.616 44.50 1.10467 0.20
