#------------------------------------------------------------------------------
#$Date: 2016-02-16 22:30:59 +0200 (Tue, 16 Feb 2016) $
#$Revision: 176467 $
#$URL: svn://www.crystallography.net/cod/cif/4/12/29/4122996.cif $
#------------------------------------------------------------------------------
#
# This file is available in the Crystallography Open Database (COD),
# http://www.crystallography.net/
#
# All data on this site have been placed in the public domain by the
# contributors.
#
data_4122996
loop_
_publ_author_name
'Anderson, John S.'
'Gallagher, Audrey T.'
'Mason, Jarad A.'
'Harris, T. David'
_publ_section_title
;
 A Five-Coordinate Heme Dioxygen Adduct Isolated within a Metal-Organic
 Framework.
;
_journal_name_full               'Journal of the American Chemical Society'
_journal_page_first              141117151249006
_journal_paper_doi               10.1021/ja5103103
_journal_year                    2014
_chemical_formula_moiety         '0.03(C576 H288 Fe12 N48 O274 Zr48)'
_chemical_formula_sum            'C18 H9 Fe0.38 N1.5 O8.75 Zr1.5'
_chemical_formula_weight         544.04
_chemical_name_systematic
;
 ?
;
_space_group_crystal_system      cubic
_space_group_IT_number           229
_space_group_name_Hall           '-I 4 2 3'
_space_group_name_H-M_alt        'I m -3 m'
_symmetry_space_group_name_Hall  '-I 4 2 3'
_symmetry_space_group_name_H-M   'I m -3 m'
_atom_sites_solution_hydrogens   geom
_atom_sites_solution_primary     direct
_audit_creation_date             2014-10-06
_audit_creation_method
;
Olex2 1.2
(compiled 2014.09.19 svn.r3010 for OlexSys, GUI svn.r4874)
;
_cell_angle_alpha                90
_cell_angle_beta                 90
_cell_angle_gamma                90
_cell_formula_units_Z            32
_cell_length_a                   38.6484(19)
_cell_length_b                   38.6484(19)
_cell_length_c                   38.6484(19)
_cell_measurement_reflns_used    9179
_cell_measurement_temperature    100(2)
_cell_measurement_theta_max      66.52
_cell_measurement_theta_min      2.80
_cell_volume                     57729(5)
_computing_cell_refinement       'SAINT v8.27A (Bruker, 2012)'
_computing_data_reduction        'SAINT v8.27A (Bruker, 2012)'
_computing_molecular_graphics    'Olex2 (Dolomanov et al., 2009)'
_computing_publication_material  'Olex2 (Dolomanov et al., 2009)'
_computing_structure_refinement  'ShelXL (Sheldrick, 2008)'
_computing_structure_solution    'ShelXS (Sheldrick, 2008)'
_diffrn_ambient_temperature      100.13
_diffrn_detector                 'Bruker APEX2 area detector'
_diffrn_detector_area_resol_mean 7.9
_diffrn_detector_type            'CCD area detector'
_diffrn_measured_fraction_theta_full 0.945
_diffrn_measured_fraction_theta_max 1.000
_diffrn_measurement_device       'three-circle diffractometer'
_diffrn_measurement_device_type  'Bruker SMART APEX2 area detector'
_diffrn_measurement_method       '\w and \f scans'
_diffrn_radiation_monochromator  'mirror optics'
_diffrn_radiation_probe          x-ray
_diffrn_radiation_type           CuK\a
_diffrn_radiation_wavelength     1.54178
_diffrn_reflns_av_R_equivalents  0.0410
_diffrn_reflns_av_unetI/netI     0.0112
_diffrn_reflns_Laue_measured_fraction_full 0.945
_diffrn_reflns_Laue_measured_fraction_max 1.000
_diffrn_reflns_limit_h_max       44
_diffrn_reflns_limit_h_min       -45
_diffrn_reflns_limit_k_max       45
_diffrn_reflns_limit_k_min       -44
_diffrn_reflns_limit_l_max       45
_diffrn_reflns_limit_l_min       -41
_diffrn_reflns_number            184326
_diffrn_reflns_point_group_measured_fraction_full 0.945
_diffrn_reflns_point_group_measured_fraction_max 1.000
_diffrn_reflns_theta_full        67.679
_diffrn_reflns_theta_max         65.043
_diffrn_reflns_theta_min         1.616
_diffrn_source                   'microfocus sealed X-ray tube'
_diffrn_source_type              'Incoatec I\ms'
_diffrn_standards_number         0
_exptl_absorpt_coefficient_mu    2.522
_exptl_absorpt_correction_T_max  0.3196
_exptl_absorpt_correction_T_min  0.2199
_exptl_absorpt_correction_type   multi-scan
_exptl_absorpt_process_details
;
SADABS-2012/1 (Bruker,2012) was used for absorption correction.
wR2(int) was 0.0502 before and 0.0423 after correction.
The Ratio of minimum to maximum transmission is 0.6880.
The \l/2 correction factor is 0.0015.
;
_exptl_crystal_density_diffrn    0.501
_exptl_crystal_description       cube
_exptl_crystal_F_000             8552
_refine_diff_density_max         0.822
_refine_diff_density_min         -0.277
_refine_diff_density_rms         0.048
_refine_ls_extinction_method     none
_refine_ls_goodness_of_fit_ref   1.089
_refine_ls_hydrogen_treatment    constr
_refine_ls_matrix_type           full
_refine_ls_number_parameters     140
_refine_ls_number_reflns         4616
_refine_ls_number_restraints     265
_refine_ls_restrained_S_all      1.098
_refine_ls_R_factor_all          0.0495
_refine_ls_R_factor_gt           0.0441
_refine_ls_shift/su_max          0.003
_refine_ls_shift/su_mean         0.000
_refine_ls_structure_factor_coef Fsqd
_refine_ls_weighting_details
'w=1/[\s^2^(Fo^2^)+(0.0920P)^2^+38.2810P] where P=(Fo^2^+2Fc^2^)/3'
_refine_ls_weighting_scheme      calc
_refine_ls_wR_factor_gt          0.1381
_refine_ls_wR_factor_ref         0.1415
_reflns_Friedel_coverage         0.000
_reflns_number_gt                4006
_reflns_number_total             4616
_reflns_threshold_expression     'I > 2\s(I)'
_cod_data_source_file            ja5103103_si_002.cif
_cod_data_source_block           PCN-224FeO2
_cod_original_cell_volume        57729(9)
_cod_original_formula_sum        'C18 H9 Fe0.38 N1.50 O8.75 Zr1.50'
_cod_database_code               4122996
#BEGIN Tags that were not found in dictionaries:
_shelxl_version_number           2013-4
_shelx_space_group_comment
;
The symmetry employed for this shelxl refinement is uniquely defined
by the following loop, which should always be used as a source of
symmetry information in preference to the above space-group names.
They are only intended as comments.
;
_olex2_refinement_description
;
1. Fixed Uiso
 At 1.2 times of:
  All C(H) groups
2. Restrained distances
 Zr1-O9 \\sim Zr2-O4
 with sigma of 0.02
 O8-O6 \\sim O7-O6
 with sigma of 0.02
3. Rigid bond restraints
 All non-hydrogen atoms
 with sigma for 1-2 distances of 0.01 and sigma for 1-3 distances of 0.01
4. Uiso/Uaniso restraints and constraints
All non-hydrogen atoms have similar U: within 1.7A with sigma of 0.04 and sigma
for terminal atoms of 0.08
All non-hydrogen atoms restrained to be isotropic: with sigma of 0.1 and sigma
for terminal atoms of 0.2
5. Rigid body (RIGU) restrains
 O6
 with sigma for 1-2 distances of 0.004 and sigma for 1-3 distances of 0.004
6. Others
 Fixed Sof: O1(0.25) Zr1(0.25) Zr2(0.25) O4(0.5) Fe1(0.125) O5(0.25) O9(0.5)
 O6(0.125) O7(0.03125) O8(0.03125)
7.a Aromatic/amide H refined with riding coordinates:
 C10(H10), C15(H15), C16(H16)
;
_shelx_res_file
;
TITL jsa29cub in Im-3m #229
CELL 1.54178 38.6484 38.6484 38.6484 90 90 90
ZERR 32 0.0019 0.0019 0.0019 0 0 0
LATT 2
SYMM -Y,+X,+Z
SYMM -X,-Y,+Z
SYMM +Y,-X,+Z
SYMM +X,-Z,+Y
SYMM +X,-Y,-Z
SYMM +X,+Z,-Y
SYMM +Z,+Y,-X
SYMM -X,+Y,-Z
SYMM -Z,+Y,+X
SYMM +Z,+X,+Y
SYMM +Y,+Z,+X
SYMM -Y,-Z,+X
SYMM +Z,-X,-Y
SYMM -Y,+Z,-X
SYMM -Z,-X,+Y
SYMM -Z,+X,-Y
SYMM +Y,-Z,-X
SYMM +Y,+X,-Z
SYMM -Y,-X,-Z
SYMM -X,+Z,+Y
SYMM -X,-Z,-Y
SYMM +Z,-Y,+X
SYMM -Z,-Y,-X

SFAC C H N O Fe Zr
UNIT 576 288 48 280 12 48
SADI Zr1 O9 Zr2 O4
SADI O8 O6 O7 O6
DELU
SIMU 0.04 0.08 1.7
RIGU O6
ISOR

L.S. 10
PLAN  100
TEMP -173.02
REM reset to Im-3m #229
BOND
MORE -1
CONF
fmap 2 53
acta
REM <HKL>C:/Users/PXRD%20User/Documents/Harris%20files/JSA/XRD/JSA/jsa29/work/
REM jsa29cub-mask.hkl</HKL>

WGHT    0.092000   38.281002
FVAR       0.00985
O3    4    0.217377    0.217377    0.217377    10.16667    0.03682    0.03682 =
         0.03682    0.02349    0.02349    0.02349
PART 2
O1    4    0.289762    0.234919    0.234919    10.25000    0.02314    0.04492 =
         0.04492    0.02651    0.01272    0.01272
PART 0
N6    3    0.500000    0.250170    0.052158    10.50000    0.01390    0.15921 =
         0.01740    0.00099    0.00000    0.00000
C7    1    0.409639    0.250000    0.090361    10.50000    0.02153    0.15350 =
         0.02153    0.00576    0.00153    0.00576
C10   1    0.482658    0.246967    0.108887    11.00000    0.03019    0.16591 =
         0.01541    0.00196    0.00503   -0.00047
AFIX  43
H10   2    0.468075    0.245704    0.128634    11.00000   -1.20000
AFIX   0
C13   1    0.471693    0.249225    0.073567    11.00000    0.02376    0.14928 =
         0.02006    0.00098    0.00492    0.00180
C14   1    0.358872    0.250000    0.141128    10.50000    0.03638    0.13825 =
         0.03638    0.03720    0.02279    0.03720
C15   1    0.390904    0.220229    0.096717    11.00000    0.04293    0.14922 =
         0.04192   -0.00207    0.02167    0.00548
AFIX  43
H15   2    0.395392    0.199859    0.083713    11.00000   -1.20000
AFIX   0
C16   1    0.365230    0.220103    0.122406    11.00000    0.04411    0.13982 =
         0.05135    0.02282    0.02750    0.01868
AFIX  43
H16   2    0.352318    0.199679    0.126917    11.00000   -1.20000
AFIX   0
C19   1    0.437198    0.250000    0.062802    10.50000    0.02017    0.15581 =
         0.02017    0.00051    0.00624    0.00051
PART 2
ZR1   6    0.266224    0.201594    0.201594    10.25000    0.03866    0.03656 =
         0.03656    0.01762    0.02196    0.02196
PART 0
PART 1
ZR2   6    0.276854    0.212772    0.212772    10.25000    0.03930    0.03616 =
         0.03616    0.01579    0.02145    0.02145
PART 0
O2    4    0.314625    0.222195    0.172508    11.00000    0.08000    0.11288 =
         0.08502    0.06935    0.06437    0.06884
PART 1
O4    4    0.255050    0.159050    0.210105    10.50000    0.07098    0.05308 =
         0.14485    0.02009    0.00672    0.02442
PART 0
C6    1    0.331420    0.250000    0.168580    10.50000    0.06083    0.13013 =
         0.06083    0.06377    0.04460    0.06377
FE1   5    0.500000    0.263641    0.000000    10.12500    0.01260    0.17728 =
         0.01228    0.00000    0.00000    0.00000
PART 1
O5    4    0.316247    0.245521    0.245521    10.25000    0.06024    0.04636 =
         0.04636    0.03147    0.03006    0.03006
PART 0
PART 2
O9    4    0.245447    0.151381    0.190171    10.50000    0.12798    0.11124 =
         0.42122   -0.11984   -0.10771    0.05517
PART 0
O6    4    0.500000    0.309931    0.000000    10.12500    0.03291    0.18806 =
         0.02447    0.00000    0.00000    0.00000
PART 2
O7    4    0.486028    0.324149   -0.021936    10.03125    0.06554    0.17186 =
         0.03225   -0.01022   -0.00887    0.01898
PART 0
PART 1
O8    4    0.526050    0.324418    0.000000    10.03125    0.08114    0.19704 =
         0.14010    0.00000    0.00000   -0.04260
HKLF 4

REM  jsa29cub in Im-3m #229
REM R1 =  0.0441 for    4006 Fo > 4sig(Fo)  and  0.0495 for all    4616 data
REM    140 parameters refined using    265 restraints

END

WGHT      0.0917     38.3192

REM Highest difference peak  0.822,  deepest hole -0.277,  1-sigma level  0.048
Q1    1   0.2598  0.1810  0.1810  10.50000  0.05    0.82
Q2    1   0.2394  0.1414  0.2394  10.50000  0.05    0.64
Q3    1   0.2906  0.2201  0.2201  10.50000  0.05    0.46
Q4    1   0.2368  0.1367  0.1756  11.00000  0.05    0.26
Q5    1   0.2391  0.1485  0.1668  11.00000  0.05    0.22
Q6    1   0.5191  0.2516  0.0000  10.50000  0.05    0.20
Q7    1   0.2251  0.1428  0.1759  11.00000  0.05    0.18
Q8    1   0.3361  0.2414  0.2414  10.50000  0.05    0.17
Q9    1   0.3591  0.2466  0.1442  11.00000  0.05    0.16
Q10   1   0.5000  0.2447  0.0985  10.50000  0.05    0.14
Q11   1   0.4899  0.2641  0.0998  11.00000  0.05    0.12
Q12   1   0.5000  0.2540  0.0996  10.50000  0.05    0.12
Q13   1   0.5000  0.2797  0.0586  10.50000  0.05    0.12
Q14   1   0.3759  0.2208  0.1402  11.00000  0.05    0.11
Q15   1   0.3001  0.2235  0.1581  11.00000  0.05    0.11
Q16   1   0.4788  0.2783  0.0841  11.00000  0.05    0.10
Q17   1   0.5000  0.2960  0.0000  10.25000  0.05    0.10
Q18   1   0.5000  0.2187  0.0622  10.50000  0.05    0.10
Q19   1   0.4837  0.2732  0.0929  11.00000  0.05    0.10
Q20   1   0.2581  0.1197  0.1925  11.00000  0.05    0.09
Q21   1   0.2817  0.1371  0.2421  11.00000  0.05    0.08
Q22   1   0.1259  0.0000  0.0000  10.12500  0.05    0.07
Q23   1   0.4598  0.1793  0.1793  10.50000  0.05    0.07
Q24   1   0.3131  0.1749  0.1390  11.00000  0.05    0.06
Q25   1   0.4777  0.3213  0.1783  11.00000  0.05    0.06
Q26   1   0.3386  0.1707  0.1707  10.50000  0.05    0.06
Q27   1   0.2367  0.1016  0.1016  10.50000  0.05    0.05
Q28   1   0.5000  0.2221  0.1775  10.50000  0.05    0.05
Q29   1   0.3615  0.1971  0.1971  10.50000  0.05    0.05
Q30   1   0.1791  0.0000  0.1790  10.25000  0.05    0.05
Q31   1   0.4803  0.3251  0.1764  11.00000  0.05    0.05
Q32   1   0.3244  0.1575  0.1575  10.50000  0.05    0.05
Q33   1   0.6018  0.3611  0.0000  10.50000  0.05    0.05
Q34   1   0.2440  0.0797  0.1840  11.00000  0.05    0.05
Q35   1   0.2424  0.0975  0.2423  10.50000  0.05    0.05
Q36   1   0.1819  0.1622  0.1717  11.00000  0.05    0.05
Q37   1   0.3219  0.0130  0.0130  10.50000  0.05    0.05
Q38   1   0.5000  0.4806 -0.0221  10.50000  0.05    0.05
Q39   1   0.3357  0.2399  0.0762  11.00000  0.05    0.05
Q40   1   0.5000  0.5000 -0.1428  10.12500  0.05    0.05
Q41   1   0.4232  0.1776  0.1249  11.00000  0.05    0.05
Q42   1   0.5000  0.1982  0.1982  10.25000  0.05    0.05
Q43   1   0.3980  0.2220  0.1063  11.00000  0.05    0.05
Q44   1   0.4574  0.2400  0.2400  10.50000  0.05    0.05
Q45   1   0.1858  0.1605  0.1605  10.50000  0.05    0.05
Q46   1   0.4212  0.2355  0.1440  11.00000  0.05    0.05
Q47   1   0.2378  0.0572  0.2378  10.50000  0.05    0.05
Q48   1   0.5000  0.4591  0.0000  10.25000  0.05    0.04
Q49   1   0.3364  0.0402  0.0000  10.50000  0.05    0.04
Q50   1   0.3832  0.2584  0.1870  11.00000  0.05    0.04
Q51   1   0.1926  0.0000  0.1763  10.50000  0.05    0.04
Q52   1   0.4806  0.3200  0.1615  11.00000  0.05    0.04
Q53   1   0.4800  0.2592  0.1631  11.00000  0.05    0.04
Q54   1   0.5000  0.3176 -0.0587  10.50000  0.05    0.04
Q55   1   0.2172  0.0000  0.2172  10.25000  0.05    0.04
Q56   1   0.5000  0.4485  0.0000  10.25000  0.05    0.04
Q57   1   0.5000  0.2620  0.1849  10.50000  0.05    0.04
Q58   1   0.4789  0.1982  0.1596  11.00000  0.05    0.04
Q59   1   0.3406  0.1559  0.1433  11.00000  0.05    0.04
Q60   1   0.2400  0.0413  0.1459  11.00000  0.05    0.04
Q61   1   0.3639  0.1228  0.0000  10.50000  0.05    0.04
Q62   1   0.4400  0.3221 -0.0432  11.00000  0.05    0.04
Q63   1   0.2959  0.2596  0.1005  11.00000  0.05    0.04
Q64   1   0.5000  0.1787  0.1651  10.50000  0.05    0.04
Q65   1   0.3561  0.1683  0.1683  10.50000  0.05    0.04
Q66   1   0.3717  0.1232  0.0000  10.50000  0.05    0.04
Q67   1   0.4408  0.2414  0.1618  11.00000  0.05    0.04
Q68   1   0.3583  0.2163  0.2163  10.50000  0.05    0.04
Q69   1   0.2595  0.0794  0.2595  10.50000  0.05    0.04
Q70   1   0.4819  0.2723  0.1632  11.00000  0.05    0.04
Q71   1   0.1349  0.0000  0.0413  10.50000  0.05    0.04
Q72   1   0.5000  0.2727  0.1778  10.50000  0.05    0.04
Q73   1   0.2004  0.1164  0.1363  11.00000  0.05    0.04
Q74   1   0.4888  0.2804  0.1626  11.00000  0.05    0.04
Q75   1   0.5000  0.3244  0.1238  10.50000  0.05    0.04
Q76   1   0.3734  0.1590  0.0000  10.50000  0.05    0.03
Q77   1   0.2449  0.0785  0.1755  11.00000  0.05    0.03
Q78   1   0.0371  0.0000  0.0371  10.25000  0.05    0.03
Q79   1   0.2239  0.0000  0.0561  10.50000  0.05    0.03
Q80   1   0.2221  0.0905  0.2221  10.50000  0.05    0.03
Q81   1   0.3479  0.1998  0.1998  10.50000  0.05    0.03
Q82   1   0.5000  0.2564  0.1977  10.50000  0.05    0.03
Q83   1   0.2151  0.0000  0.1446  10.50000  0.05    0.03
Q84   1   0.0435  0.0000  0.0230  10.50000  0.05    0.03
Q85   1   0.0970  0.0774  0.0970  10.50000  0.05    0.03
Q86   1   0.5649  0.4352  0.0000  10.25000  0.05    0.03
Q87   1   0.1793  0.0576  0.1793  10.50000  0.05    0.03
Q88   1   0.2439  0.0000  0.0783  10.50000  0.05    0.03
Q89   1   0.1808  0.0239  0.0357  11.00000  0.05    0.03
Q90   1   0.3002  0.1808  0.0800  11.00000  0.05    0.03
Q91   1   0.5000  0.3077  0.1414  10.50000  0.05    0.03
Q92   1   0.4573  0.4573 -0.0581  10.50000  0.05    0.03
Q93   1   0.2381  0.0869  0.2381  10.50000  0.05    0.03
Q94   1   0.2971  0.2254  0.1195  11.00000  0.05    0.03
Q95   1   0.3217  0.1190  0.1190  10.50000  0.05    0.03
Q96   1   0.2648  0.0185  0.1185  11.00000  0.05    0.03
Q97   1   0.4215  0.1777  0.1506  11.00000  0.05    0.03
Q98   1   0.4418  0.1616  0.1616  10.50000  0.05    0.03
Q99   1   0.4012  0.0984  0.0984  10.50000  0.05    0.03
Q100  1   0.1653  0.0000  0.0813  10.50000  0.05    0.03
;
_shelx_res_checksum              96270
_shelx_hkl_file
;
   0   1   1   87.22    2.71
   0   2   0 1193.64   23.24
   0   2   2  423.03    3.44
   0   3   1    1.40    0.06
   0   3   3   19.04    0.04
   0   4   0  504.64    9.70
   0   4   2   24.98    0.35
   0   4   4   30.73    0.50
   0   5   1    1.95    0.00
   0   5   3    0.08    0.00
   0   5   5   28.55    0.06
   0   6   0  102.29    2.63
   0   6   2   15.24    0.01
   0   6   4    5.06    0.00
   0   6   6    2.67    0.09
   0   7   1    2.63    0.00
   0   7   3    0.21    0.01
   0   7   5   12.58    0.07
   0   7   7   38.61    0.11
   0   8   0   74.13    1.48
   0   8   2   32.70    0.30
   0   8   4   15.81    0.44
   0   8   6   11.68    0.01
   0   8   8    1.38    0.30
   0   9   1    8.60    0.11
   0   9   3    0.63    0.02
   0   9   5    5.65    0.03
   0   9   7    7.47    0.06
   0   9   9   50.15    0.47
   0  10   0   30.26    0.76
   0  10   2   70.48    0.95
   0  10   4   43.87    0.41
   0  10   6   34.18    0.41
   0  10   8   11.77    0.09
   0  10  10   12.34    0.25
   0  11   1    1.02    0.04
   0  11   3   12.86    0.06
   0  11   5    9.50    0.03
   0  11   7   10.36    0.06
   0  11   9    3.51    0.01
   0  11  11   12.37    0.05
   0  12   0    0.13    0.02
   0  12   2   71.99    0.80
   0  12   4    3.41    0.01
   0  12   6   16.29    0.21
   0  12   8    0.67    0.02
   0  12  10    6.70    0.07
   0  12  12   71.96    0.84
   0  13   1    3.51    0.04
   0  13   3    1.88    0.02
   0  13   5   26.37    0.15
   0  13   7    5.35    0.06
   0  13   9    0.39    0.01
   0  13  11    5.68    0.05
   0  13  13   30.49    0.29
   0  14   0   25.37    0.65
   0  14   2   58.60    0.35
   0  14   4   35.71    0.21
   0  14   6   11.36    0.07
   0  14   8    4.85    0.04
   0  14  10    4.39    0.04
   0  14  12   51.48    0.31
   0  14  14   31.77    0.34
   0  15   1    0.28    0.01
   0  15   3   26.00    0.18
   0  15   5   10.61    0.06
   0  15   7   19.49    0.09
   0  15   9    0.64    0.01
   0  15  11   37.53    0.20
   0  15  13   49.46    0.34
   0  15  15   30.55    0.37
   0  16   0    0.32    0.06
   0  16   2   43.02    0.28
   0  16   4    0.16    0.01
   0  16   6   16.77    0.15
   0  16   8    2.32    0.02
   0  16  10   25.26    0.21
   0  16  12   35.79    0.21
   0  16  14   11.46    0.10
   0  16  16   37.75    0.47
   0  17   1   10.09    0.08
   0  17   3    8.05    0.09
   0  17   5   58.75    0.42
   0  17   7    2.50    0.03
   0  17   9    0.76    0.02
   0  17  11   22.16    0.12
   0  17  13   27.94    0.20
   0  17  15   57.71    0.42
   0  17  17   23.20    0.26
   0  18   0    8.53    0.22
   0  18   2    8.83    0.07
   0  18   4   16.54    0.15
   0  18   6    0.23    0.01
   0  18   8    0.20    0.01
   0  18  10   17.59    0.14
   0  18  12    9.07    0.06
   0  18  14   14.58    0.10
   0  18  16    6.60    0.06
   0  18  18   22.89    0.24
   0  19   1    0.44    0.02
   0  19   3   29.00    0.20
   0  19   5    6.46    0.09
   0  19   7    7.92    0.06
   0  19   9    1.86    0.03
   0  19  11    1.51    0.02
   0  19  13   24.40    0.17
   0  19  15   15.28    0.14
   0  19  17   33.63    0.21
   0  19  19    5.80    0.06
   0  20   0    6.37    0.16
   0  20   2    1.26    0.01
   0  20   4    5.34    0.07
   0  20   6    0.34    0.02
   0  20   8    5.41    0.04
   0  20  10    0.91    0.02
   0  20  12   11.55    0.09
   0  20  14    0.70    0.01
   0  20  16    6.67    0.08
   0  20  18    0.88    0.02
   0  20  20   11.91    0.10
   0  21   1    2.00    0.02
   0  21   3    1.58    0.03
   0  21   5    6.14    0.08
   0  21   7    0.07    0.02
   0  21   9    1.56    0.02
   0  21  11    3.93    0.04
   0  21  13    1.13    0.02
   0  21  15    7.68    0.05
   0  21  17    3.11    0.02
   0  21  19   16.94    0.10
   0  21  21    0.47    0.02
   0  22   0    4.02    0.11
   0  22   2    1.21    0.01
   0  22   4    2.12    0.03
   0  22   6    5.21    0.06
   0  22   8    0.02    0.01
   0  22  10    4.23    0.05
   0  22  12    0.33    0.01
   0  22  14    0.67    0.01
   0  22  16    0.37    0.01
   0  22  18    2.96    0.03
   0  22  20    0.14    0.01
   0  22  22    2.63    0.04
   0  23   1    0.00    0.01
   0  23   3    0.02    0.01
   0  23   5    0.06    0.01
   0  23   7    1.90    0.03
   0  23   9    0.07    0.01
   0  23  11    0.14    0.01
   0  23  13    0.00    0.01
   0  23  15    1.30    0.01
   0  23  17    0.72    0.01
   0  23  19    0.02    0.01
   0  23  21    1.85    0.02
   0  23  23    2.97    0.03
   0  24   0   10.61    0.27
   0  24   2    2.76    0.02
   0  24   4    6.10    0.06
   0  24   6    0.06    0.01
   0  24   8    1.25    0.02
   0  24  10    0.22    0.01
   0  24  12    0.02    0.01
   0  24  14    2.80    0.02
   0  24  16    1.34    0.02
   0  24  18    3.13    0.03
   0  24  20    1.12    0.02
   0  24  22    5.13    0.04
   0  24  24    0.08    0.01
   0  25   1    0.15    0.01
   0  25   3    4.46    0.03
   0  25   5    0.15    0.01
   0  25   7    2.58    0.03
   0  25   9    0.25    0.01
   0  25  11    0.00    0.01
   0  25  13    3.12    0.02
   0  25  15    2.18    0.02
   0  25  17    3.80    0.03
   0  25  19    2.66    0.02
   0  25  21    4.15    0.03
   0  25  23    0.00    0.01
   0  25  25    1.62    0.03
   0  26   0    7.41    0.08
   0  26   2    4.85    0.03
   0  26   4    0.22    0.01
   0  26   6    5.68    0.04
   0  26   8    0.64    0.01
   0  26  10    0.57    0.01
   0  26  12    0.42    0.01
   0  26  14    0.67    0.01
   0  26  16    6.92    0.05
   0  26  18    9.32    0.06
   0  26  20    9.61    0.07
   0  26  22    1.05    0.02
   0  26  24    2.14    0.03
   0  26  26    0.05    0.02
   0  27   1    1.00    0.01
   0  27   3    0.04    0.00
   0  27   5    7.43    0.04
   0  27   7    0.57    0.01
   0  27   9    0.78    0.01
   0  27  11    0.04    0.00
   0  27  13    0.60    0.01
   0  27  15    7.76    0.05
   0  27  17    9.57    0.06
   0  27  19    9.32    0.06
   0  27  21    3.85    0.03
   0  27  23    2.88    0.03
   0  27  25    0.19    0.01
   0  27  27    0.39    0.02
   0  28   0    9.71    0.11
   0  28   2    0.03    0.01
   0  28   4    4.83    0.03
   0  28   6    0.32    0.01
   0  28   8    2.71    0.02
   0  28  10    1.51    0.02
   0  28  12    0.31    0.01
   0  28  14    2.17    0.02
   0  28  16    5.35    0.04
   0  28  18   10.99    0.07
   0  28  20    9.00    0.06
   0  28  22    4.54    0.04
   0  28  24    0.63    0.02
   0  28  26    1.22    0.02
   0  28  28    5.82    0.09
   0  29   1    0.73    0.01
   0  29   3    1.72    0.01
   0  29   5    0.01    0.01
   0  29   7    1.61    0.01
   0  29   9    0.44    0.01
   0  29  11    0.00    0.01
   0  29  13    1.87    0.02
   0  29  15    2.82    0.02
   0  29  17   10.06    0.06
   0  29  19    6.82    0.05
   0  29  21    4.95    0.04
   0  29  23    0.95    0.02
   0  29  25    0.07    0.01
   0  29  27    2.74    0.03
   0  29  29    4.41    0.06
   0  30   0    3.47    0.05
   0  30   2    0.72    0.01
   0  30   4    2.37    0.02
   0  30   6    0.00    0.01
   0  30   8    0.20    0.01
   0  30  10    0.22    0.01
   0  30  12    0.05    0.01
   0  30  14    0.57    0.01
   0  30  16   10.30    0.07
   0  30  18    6.58    0.05
   0  30  20    9.35    0.06
   0  30  22    2.49    0.03
   0  30  24    0.16    0.01
   0  30  26    4.48    0.06
   0  30  28    7.45    0.07
   0  30  30   13.41    0.17
   0  31   1    0.55    0.01
   0  31   3    0.01    0.01
   0  31   5    0.38    0.01
   0  31   7    1.07    0.01
   0  31   9    0.26    0.01
   0  31  11    0.01    0.01
   0  31  13    0.07    0.01
   0  31  15    5.49    0.04
   0  31  17    1.78    0.02
   0  31  19    7.08    0.05
   0  31  21    2.46    0.03
   0  31  23    0.97    0.02
   0  31  25    1.40    0.02
   0  31  27    1.92    0.03
   0  31  29    6.71    0.07
   0  31  31    4.23    0.06
   0  32   0    0.02    0.02
   0  32   2    1.81    0.02
   0  32   4    0.08    0.01
   0  32   6    0.37    0.01
   0  32   8    0.26    0.01
   0  32  10    0.94    0.01
   0  32  12    0.68    0.01
   0  32  14    2.16    0.02
   0  32  16    0.68    0.01
   0  32  18    8.15    0.06
   0  32  20    3.47    0.03
   0  32  22    2.30    0.02
   0  32  24    0.86    0.02
   0  32  26    2.54    0.03
   0  32  28    9.55    0.08
   0  32  30    8.07    0.07
   0  32  32   11.89    0.17
   0  33   1    0.13    0.01
   0  33   3    0.85    0.02
   0  33   5    0.59    0.01
   0  33   7    0.60    0.01
   0  33   9    1.73    0.02
   0  33  11    1.14    0.02
   0  33  13    0.65    0.01
   0  33  15    0.19    0.01
   0  33  17    3.34    0.03
   0  33  19    1.33    0.02
   0  33  21    3.19    0.03
   0  33  23    0.08    0.01
   0  33  25    0.03    0.01
   0  33  27    2.55    0.03
   0  33  29    3.08    0.03
   0  33  31    7.12    0.07
   0  34   0    5.88    0.09
   0  34   2    2.19    0.02
   0  34   4    3.74    0.04
   0  34   6    0.50    0.01
   0  34   8    0.03    0.01
   0  34  10    0.17    0.01
   0  34  12    0.56    0.01
   0  34  14    0.53    0.01
   0  34  16    3.63    0.03
   0  34  18    1.34    0.02
   0  34  20    3.17    0.03
   0  34  22    0.16    0.01
   0  34  24    0.00    0.01
   0  34  26    3.28    0.03
   0  34  28    3.96    0.04
   0  34  30    7.20    0.08
   0  35   1    0.72    0.02
   0  35   3    0.13    0.01
   0  35   5    0.47    0.01
   0  35   7    0.23    0.01
   0  35   9    0.77    0.01
   0  35  11    0.03    0.01
   0  35  13    2.92    0.03
   0  35  15    0.59    0.01
   0  35  17    0.01    0.01
   0  35  19    0.74    0.01
   0  35  21    0.05    0.01
   0  35  23    0.40    0.01
   0  35  25    0.67    0.01
   0  35  27    0.97    0.01
   0  35  29    3.04    0.03
   0  36   0    0.96    0.06
   0  36   2    0.93    0.01
   0  36   4    0.26    0.01
   0  36   6    0.02    0.01
   0  36   8    1.03    0.02
   0  36  10    0.41    0.01
   0  36  12    3.68    0.03
   0  36  14    0.01    0.01
   0  36  16    0.76    0.02
   0  36  18    0.04    0.01
   0  36  20    0.19    0.01
   0  36  22    0.03    0.01
   0  36  24    0.96    0.02
   0  36  26    0.77    0.01
   0  37   1    0.74    0.01
   0  37   3    0.34    0.01
   0  37   5    0.80    0.01
   0  37   7    0.26    0.01
   0  37   9    0.01    0.01
   0  37  11    1.26    0.02
   0  37  13    0.00    0.01
   0  37  15    1.29    0.02
   0  37  17    0.00    0.01
   0  37  19    0.43    0.01
   0  37  21    0.00    0.01
   0  37  23    0.55    0.01
   0  37  25    0.06    0.01
   0  38   0    2.09    0.05
   0  38   2    0.12    0.01
   0  38   4    3.18    0.03
   0  38   6    0.00    0.01
   0  38   8    0.43    0.01
   0  38  10    0.51    0.01
   0  38  12    0.00    0.01
   0  38  14    1.18    0.02
   0  38  16    0.03    0.01
   0  38  18    0.95    0.02
   0  38  20    0.04    0.01
   0  38  22    0.37    0.01
   0  38  24    0.04    0.01
   0  39   1    0.15    0.01
   0  39   3    0.59    0.01
   0  39   5    0.76    0.02
   0  39   7    0.01    0.01
   0  39   9    0.80    0.02
   0  39  11    0.03    0.01
   0  39  13    0.76    0.01
   0  39  15    0.05    0.01
   0  39  17    0.92    0.02
   0  39  19    0.05    0.01
   0  39  21    0.30    0.01
   0  39  23    0.00    0.01
   0  40   0    0.21    0.03
   0  40   2    0.15    0.01
   0  40   4    0.55    0.01
   0  40   6    0.19    0.01
   0  40   8    0.28    0.01
   0  40  10    0.04    0.01
   0  40  12    0.75    0.01
   0  40  14    0.44    0.01
   0  40  16    1.73    0.02
   0  40  18    0.34    0.01
   0  40  20    0.57    0.01
   0  41   1    0.09    0.01
   0  41   3    0.48    0.01
   0  41   5    0.01    0.01
   0  41   7    1.13    0.02
   0  41   9    0.12    0.01
   0  41  11    0.22    0.01
   0  41  13    0.01    0.01
   0  41  15    0.31    0.01
   0  41  17    0.01    0.01
   0  41  19    0.27    0.01
   0  42   0    1.37    0.04
   0  42   2    0.02    0.01
   0  42   4    0.40    0.01
   0  42   6    0.00    0.01
   0  42   8    0.43    0.01
   0  42  10    0.01    0.01
   0  42  12    0.01    0.01
   0  42  14    0.53    0.01
   0  42  16    0.15    0.01
   0  43   1    0.56    0.01
   0  43   3    0.00    0.01
   0  43   5    0.19    0.01
   0  43   7    0.01    0.01
   0  43   9    0.04    0.01
   0  43  11    0.33    0.01
   0  43  13    0.03    0.01
   0  44   0    2.56    0.06
   0  44   2    0.08    0.01
   0  44   4    0.93    0.02
   0  44   6    0.31    0.01
   0  44   8    0.50    0.01
   0  44  10    0.02    0.01
   0  45   1    0.31    0.01
   0  45   3    0.41    0.01
   0  45   5    0.00    0.01
   1   2   1   76.87    0.16
   1   3   2    2.17    0.03
   1   4   1   56.06    0.12
   1   4   3    3.16    0.01
   1   5   2    2.87    0.00
   1   5   4    3.98    0.01
   1   6   1   36.23    0.10
   1   6   3    3.08    0.01
   1   6   5    2.81    0.03
   1   7   2    2.32    0.00
   1   7   4    2.06    0.00
   1   7   6    1.43    0.01
   1   8   1   16.84    0.14
   1   8   3    7.51    0.01
   1   8   5    3.36    0.06
   1   8   7    3.15    0.04
   1   9   2    6.20    0.05
   1   9   4    2.32    0.02
   1   9   6    0.82    0.01
   1   9   8    0.80    0.01
   1  10   1    8.53    0.21
   1  10   3    9.90    0.07
   1  10   5    2.09    0.01
   1  10   7    1.78    0.02
   1  10   9    1.96    0.02
   1  11   2    1.29    0.02
   1  11   4    1.74    0.01
   1  11   6    0.50    0.00
   1  11   8    1.32    0.00
   1  11  10    2.22    0.01
   1  12   1    5.71    0.07
   1  12   3    7.53    0.08
   1  12   5    0.33    0.01
   1  12   7    0.22    0.01
   1  12   9    0.35    0.01
   1  12  11    0.88    0.01
   1  13   2    3.34    0.03
   1  13   4    1.69    0.01
   1  13   6    1.46    0.01
   1  13   8    0.69    0.01
   1  13  10    0.39    0.01
   1  13  12    0.35    0.01
   1  14   1    3.03    0.02
   1  14   3    6.75    0.03
   1  14   5    0.09    0.01
   1  14   7    0.26    0.01
   1  14   9    0.25    0.01
   1  14  11    0.22    0.01
   1  14  13    0.40    0.01
   1  15   2    0.40    0.01
   1  15   4    0.13    0.01
   1  15   6    0.15    0.01
   1  15   8    0.05    0.00
   1  15  10    0.19    0.01
   1  15  12    0.30    0.00
   1  15  14    0.54    0.01
   1  16   1    1.41    0.01
   1  16   3    5.51    0.02
   1  16   5    0.11    0.01
   1  16   7    0.08    0.01
   1  16   9    0.28    0.01
   1  16  11    0.06    0.00
   1  16  13    0.55    0.01
   1  16  15    0.41    0.01
   1  17   2    8.96    0.04
   1  17   4    5.11    0.03
   1  17   6    3.49    0.02
   1  17   8    0.82    0.01
   1  17  10    0.09    0.01
   1  17  12    0.02    0.01
   1  17  14    0.00    0.01
   1  17  16    0.03    0.01
   1  18   1    1.02    0.01
   1  18   3    2.26    0.02
   1  18   5    0.00    0.01
   1  18   7    0.28    0.01
   1  18   9    0.01    0.01
   1  18  11    0.01    0.01
   1  18  13    0.46    0.01
   1  18  15    0.10    0.01
   1  18  17    0.11    0.01
   1  19   2    0.49    0.01
   1  19   4    0.06    0.01
   1  19   6    0.02    0.01
   1  19   8    0.00    0.01
   1  19  10    0.03    0.01
   1  19  12    0.14    0.01
   1  19  14    0.03    0.01
   1  19  16    0.01    0.01
   1  19  18    0.02    0.01
   1  20   1    0.73    0.01
   1  20   3    0.35    0.01
   1  20   5    0.17    0.01
   1  20   7    1.20    0.01
   1  20   9    0.43    0.01
   1  20  11    0.56    0.01
   1  20  13    0.60    0.01
   1  20  15    0.00    0.01
   1  20  17    0.02    0.01
   1  20  19    0.01    0.00
   1  21   2    1.59    0.01
   1  21   4    0.27    0.01
   1  21   6    0.01    0.01
   1  21   8    0.05    0.01
   1  21  10    0.11    0.01
   1  21  12    0.23    0.01
   1  21  14    0.06    0.01
   1  21  16    0.04    0.01
   1  21  18    0.01    0.00
   1  21  20    0.00    0.01
   1  22   1    0.83    0.03
   1  22   3    0.11    0.01
   1  22   5    0.89    0.01
   1  22   7    1.93    0.02
   1  22   9    0.83    0.01
   1  22  11    1.06    0.01
   1  22  13    0.41    0.01
   1  22  15    0.00    0.00
   1  22  17    0.08    0.01
   1  22  19    0.01    0.01
   1  22  21    0.07    0.01
   1  23   2    0.02    0.01
   1  23   4    0.27    0.01
   1  23   6    0.13    0.01
   1  23   8    0.25    0.01
   1  23  10    0.23    0.01
   1  23  12    0.09    0.01
   1  23  14    0.01    0.00
   1  23  16    0.19    0.01
   1  23  18    0.25    0.01
   1  23  20    0.32    0.01
   1  23  22    0.09    0.01
   1  24   1    1.17    0.03
   1  24   3    1.01    0.01
   1  24   5    1.62    0.02
   1  24   7    3.31    0.02
   1  24   9    1.76    0.01
   1  24  11    1.17    0.01
   1  24  13    0.26    0.01
   1  24  15    0.00    0.00
   1  24  17    0.21    0.01
   1  24  19    0.11    0.01
   1  24  21    0.17    0.01
   1  24  23    0.01    0.01
   1  25   2    0.15    0.01
   1  25   4    0.35    0.01
   1  25   6    0.42    0.01
   1  25   8    0.61    0.01
   1  25  10    0.47    0.01
   1  25  12    0.17    0.00
   1  25  14    0.00    0.01
   1  25  16    0.12    0.01
   1  25  18    0.15    0.01
   1  25  20    0.20    0.01
   1  25  22    0.06    0.01
   1  25  24    0.00    0.01
   1  26   1    0.71    0.01
   1  26   3    0.47    0.01
   1  26   5    0.63    0.01
   1  26   7    1.42    0.01
   1  26   9    0.60    0.01
   1  26  11    0.21    0.00
   1  26  13    0.00    0.00
   1  26  15    0.05    0.01
   1  26  17    0.37    0.01
   1  26  19    0.32    0.01
   1  26  21    0.33    0.01
   1  26  23    0.01    0.01
   1  26  25    0.07    0.01
   1  27   2    0.74    0.01
   1  27   4    0.75    0.01
   1  27   6    0.59    0.01
   1  27   8    0.44    0.01
   1  27  10    0.25    0.00
   1  27  12    0.18    0.00
   1  27  14    0.01    0.00
   1  27  16    0.09    0.01
   1  27  18    0.17    0.01
   1  27  20    0.23    0.01
   1  27  22    0.19    0.01
   1  27  24    0.07    0.01
   1  27  26    0.00    0.01
   1  28   1    0.22    0.01
   1  28   3    0.01    0.00
   1  28   5    0.01    0.00
   1  28   7    0.06    0.00
   1  28   9    0.00    0.00
   1  28  11    0.01    0.00
   1  28  13    0.09    0.01
   1  28  15    0.18    0.01
   1  28  17    0.32    0.01
   1  28  19    0.19    0.01
   1  28  21    0.21    0.01
   1  28  23    0.00    0.01
   1  28  25    0.02    0.01
   1  28  27    0.01    0.01
   1  29   2    0.58    0.01
   1  29   4    0.27    0.00
   1  29   6    0.34    0.01
   1  29   8    0.27    0.01
   1  29  10    0.17    0.01
   1  29  12    0.15    0.01
   1  29  14    0.28    0.01
   1  29  16    0.46    0.01
   1  29  18    0.39    0.01
   1  29  20    0.30    0.01
   1  29  22    0.15    0.01
   1  29  24    0.05    0.01
   1  29  26    0.00    0.01
   1  29  28    0.00    0.01
   1  30   1    0.19    0.01
   1  30   3    0.02    0.01
   1  30   5    0.01    0.00
   1  30   7    0.00    0.00
   1  30   9    0.01    0.01
   1  30  11    0.06    0.01
   1  30  13    0.25    0.01
   1  30  15    0.38    0.01
   1  30  17    0.38    0.01
   1  30  19    0.19    0.01
   1  30  21    0.19    0.01
   1  30  23    0.02    0.01
   1  30  25    0.03    0.01
   1  30  27    0.00    0.01
   1  30  29    0.00    0.01
   1  31   2    0.56    0.01
   1  31   4    0.50    0.01
   1  31   6    0.10    0.01
   1  31   8    0.02    0.01
   1  31  10    0.00    0.01
   1  31  12    0.03    0.01
   1  31  14    0.11    0.01
   1  31  16    0.12    0.01
   1  31  18    0.09    0.01
   1  31  20    0.12    0.01
   1  31  22    0.05    0.01
   1  31  24    0.00    0.01
   1  31  26    0.01    0.01
   1  31  28    0.01    0.01
   1  31  30    0.03    0.01
   1  32   1    0.17    0.01
   1  32   3    0.05    0.01
   1  32   5    0.01    0.01
   1  32   7    0.01    0.01
   1  32   9    0.00    0.01
   1  32  11    0.04    0.01
   1  32  13    0.18    0.01
   1  32  15    0.17    0.01
   1  32  17    0.17    0.01
   1  32  19    0.07    0.01
   1  32  21    0.04    0.01
   1  32  23    0.00    0.01
   1  32  25    0.00    0.01
   1  32  27    0.01    0.01
   1  32  29    0.00    0.01
   1  32  31    0.01    0.01
   1  33   2    0.17    0.01
   1  33   4    0.19    0.01
   1  33   6    0.17    0.01
   1  33   8    0.18    0.01
   1  33  10    0.31    0.01
   1  33  12    0.41    0.01
   1  33  14    0.26    0.01
   1  33  16    0.13    0.01
   1  33  18    0.03    0.01
   1  33  20    0.00    0.01
   1  33  22    0.01    0.01
   1  33  24    0.03    0.01
   1  33  26    0.07    0.01
   1  33  28    0.04    0.01
   1  33  30    0.03    0.01
   1  34   1    0.03    0.01
   1  34   3    0.01    0.01
   1  34   5    0.08    0.01
   1  34   7    0.08    0.01
   1  34   9    0.18    0.01
   1  34  11    0.25    0.01
   1  34  13    0.22    0.01
   1  34  15    0.09    0.01
   1  34  17    0.02    0.01
   1  34  19    0.02    0.01
   1  34  21    0.06    0.01
   1  34  23    0.20    0.01
   1  34  25    0.08    0.01
   1  34  27    0.10    0.01
   1  34  29    0.03    0.01
   1  35   2    0.58    0.01
   1  35   4    0.42    0.01
   1  35   6    0.20    0.01
   1  35   8    0.06    0.01
   1  35  10    0.00    0.01
   1  35  12    0.00    0.01
   1  35  14    0.02    0.01
   1  35  16    0.05    0.01
   1  35  18    0.13    0.01
   1  35  20    0.18    0.01
   1  35  22    0.14    0.01
   1  35  24    0.10    0.01
   1  35  26    0.10    0.01
   1  35  28    0.06    0.01
   1  36   1    0.00    0.01
   1  36   3    0.05    0.01
   1  36   5    0.10    0.01
   1  36   7    0.18    0.01
   1  36   9    0.37    0.01
   1  36  11    0.30    0.01
   1  36  13    0.18    0.01
   1  36  15    0.04    0.01
   1  36  17    0.00    0.01
   1  36  19    0.15    0.01
   1  36  21    0.21    0.01
   1  36  23    0.34    0.01
   1  36  25    0.17    0.01
   1  36  27    0.14    0.01
   1  37   2    0.57    0.01
   1  37   4    0.43    0.01
   1  37   6    0.61    0.01
   1  37   8    0.66    0.01
   1  37  10    0.50    0.01
   1  37  12    0.44    0.01
   1  37  14    0.22    0.01
   1  37  16    0.04    0.01
   1  37  18    0.01    0.01
   1  37  20    0.03    0.01
   1  37  22    0.03    0.01
   1  37  24    0.01    0.01
   1  37  26    0.01    0.01
   1  38   1    0.02    0.01
   1  38   3    0.01    0.01
   1  38   5    0.00    0.01
   1  38   7    0.00    0.01
   1  38   9    0.02    0.01
   1  38  11    0.05    0.01
   1  38  13    0.06    0.01
   1  38  15    0.01    0.01
   1  38  17    0.01    0.01
   1  38  19    0.08    0.01
   1  38  21    0.08    0.01
   1  38  23    0.12    0.01
   1  39   2    0.14    0.01
   1  39   4    0.08    0.01
   1  39   6    0.00    0.01
   1  39   8    0.01    0.01
   1  39  10    0.02    0.01
   1  39  12    0.03    0.01
   1  39  14    0.00    0.01
   1  39  16    0.02    0.01
   1  39  18    0.05    0.01
   1  39  20    0.05    0.01
   1  39  22    0.02    0.01
   1  40   1    0.01    0.01
   1  40   3    0.01    0.01
   1  40   5    0.00    0.01
   1  40   7    0.01    0.01
   1  40   9    0.00    0.01
   1  40  11    0.01    0.01
   1  40  13    0.01    0.01
   1  40  15    0.00    0.01
   1  40  17    0.03    0.01
   1  40  19    0.08    0.01
   1  40  21    0.08    0.01
   1  41   2    0.13    0.01
   1  41   4    0.17    0.01
   1  41   6    0.14    0.01
   1  41   8    0.16    0.01
   1  41  10    0.20    0.01
   1  41  12    0.14    0.01
   1  41  14    0.02    0.01
   1  41  16    0.00    0.01
   1  41  18    0.03    0.01
   1  42   1    0.00    0.01
   1  42   3    0.02    0.01
   1  42   5    0.01    0.01
   1  42   7    0.03    0.01
   1  42   9    0.11    0.01
   1  42  11    0.06    0.01
   1  42  13    0.02    0.01
   1  42  15    0.00    0.01
   1  42  17    0.06    0.01
   1  43   2    0.49    0.01
   1  43   4    0.38    0.01
   1  43   6    0.18    0.01
   1  43   8    0.07    0.01
   1  43  10    0.04    0.01
   1  43  12    0.04    0.01
   1  43  14    0.08    0.01
   1  44   1    0.00    0.01
   1  44   3    0.01    0.01
   1  44   5    0.00    0.01
   1  44   7    0.01    0.01
   1  44   9    0.04    0.01
   1  44  11    0.01    0.01
   1  45   2    0.25    0.01
   1  45   4    0.17    0.01
   1  45   6    0.19    0.01
   2   2   2 1196.35   10.78
   2   3   3    9.82    0.04
   2   4   2  153.06    0.56
   2   4   4   43.62    0.13
   2   5   3    0.48    0.00
   2   5   5   11.50    0.04
   2   6   2    4.24    0.13
   2   6   4    2.52    0.01
   2   6   6    3.49    0.06
   2   7   3    0.70    0.00
   2   7   5    8.46    0.04
   2   7   7   41.05    0.29
   2   8   2   11.18    0.09
   2   8   4   34.89    0.25
   2   8   6   15.22    0.08
   2   8   8    2.29    0.04
   2   9   3    0.05    0.01
   2   9   5    1.56    0.01
   2   9   7    7.38    0.09
   2   9   9   42.91    0.32
   2  10   2    0.31    0.20
   2  10   4   16.01    0.11
   2  10   6   10.16    0.14
   2  10   8    1.46    0.02
   2  10  10   23.44    0.12
   2  11   3    7.71    0.05
   2  11   5    2.96    0.01
   2  11   7    6.65    0.02
   2  11   9    1.95    0.01
   2  11  11    7.94    0.04
   2  12   2   38.33    0.17
   2  12   4   27.27    0.05
   2  12   6   24.32    0.07
   2  12   8    1.89    0.01
   2  12  10    2.59    0.01
   2  12  12   27.35    0.10
   2  13   3    2.41    0.03
   2  13   5   20.37    0.10
   2  13   7    6.94    0.04
   2  13   9    0.98    0.01
   2  13  11    3.37    0.02
   2  13  13   21.06    0.14
   2  14   2    5.26    0.02
   2  14   4   36.37    0.14
   2  14   6    3.12    0.02
   2  14   8    0.09    0.00
   2  14  10   10.80    0.07
   2  14  12   46.12    0.20
   2  14  14   62.01    0.39
   2  15   3   27.41    0.14
   2  15   5    9.31    0.05
   2  15   7   21.36    0.09
   2  15   9    0.01    0.00
   2  15  11   27.15    0.10
   2  15  13   35.35    0.18
   2  15  15   21.46    0.16
   2  16   2   35.06    0.31
   2  16   4   15.19    0.07
   2  16   6   29.12    0.17
   2  16   8    0.52    0.01
   2  16  10   13.82    0.08
   2  16  12   13.74    0.08
   2  16  14   14.24    0.06
   2  16  16   26.43    0.21
   2  17   3    7.84    0.05
   2  17   5   47.37    0.23
   2  17   7    2.32    0.02
   2  17   9    0.37    0.01
   2  17  11   15.95    0.07
   2  17  13   21.50    0.12
   2  17  15   45.22    0.21
   2  17  17   15.53    0.11
   2  18   2    1.78    0.01
   2  18   4    9.73    0.06
   2  18   6    2.19    0.02
   2  18   8    2.87    0.02
   2  18  10   16.90    0.09
   2  18  12    5.69    0.03
   2  18  14   21.40    0.10
   2  18  16    5.97    0.04
   2  18  18   22.70    0.16
   2  19   3   28.47    0.14
   2  19   5    4.32    0.03
   2  19   7    6.92    0.04
   2  19   9    1.52    0.02
   2  19  11    1.05    0.01
   2  19  13   21.69    0.11
   2  19  15   13.39    0.07
   2  19  17   27.21    0.12
   2  19  19    4.53    0.03
   2  20   2    1.37    0.02
   2  20   4    0.30    0.01
   2  20   6    0.66    0.01
   2  20   8    4.18    0.02
   2  20  10    0.00    0.01
   2  20  12    5.52    0.04
   2  20  14    0.89    0.01
   2  20  16    5.29    0.03
   2  20  18    0.69    0.01
   2  20  20   11.45    0.07
   2  21   3    1.43    0.02
   2  21   5    3.44    0.03
   2  21   7    0.00    0.01
   2  21   9    1.45    0.01
   2  21  11    2.57    0.02
   2  21  13    0.80    0.01
   2  21  15    6.65    0.03
   2  21  17    1.74    0.01
   2  21  19   13.59    0.05
   2  21  21    0.12    0.01
   2  22   2    6.24    0.06
   2  22   4    2.68    0.02
   2  22   6    2.44    0.02
   2  22   8    0.00    0.01
   2  22  10    1.00    0.02
   2  22  12    0.05    0.01
   2  22  14    0.28    0.01
   2  22  16    0.71    0.01
   2  22  18    1.35    0.01
   2  22  20    0.39    0.01
   2  22  22    0.76    0.02
   2  23   3    0.02    0.01
   2  23   5    1.00    0.01
   2  23   7    0.49    0.01
   2  23   9    0.33    0.01
   2  23  11    0.07    0.01
   2  23  13    0.03    0.00
   2  23  15    0.95    0.01
   2  23  17    0.25    0.01
   2  23  19    0.06    0.01
   2  23  21    1.36    0.01
   2  23  23    2.98    0.03
   2  24   2    4.75    0.04
   2  24   4    6.22    0.04
   2  24   6    0.03    0.01
   2  24   8    1.82    0.01
   2  24  10    0.02    0.00
   2  24  12    0.00    0.00
   2  24  14    2.24    0.01
   2  24  16    0.87    0.01
   2  24  18    2.57    0.01
   2  24  20    0.32    0.01
   2  24  22    4.49    0.03
   2  24  24    0.28    0.01
   2  25   3    3.51    0.02
   2  25   5    0.05    0.01
   2  25   7    2.03    0.01
   2  25   9    0.08    0.01
   2  25  11    0.04    0.00
   2  25  13    2.64    0.01
   2  25  15    1.75    0.01
   2  25  17    3.71    0.02
   2  25  19    2.26    0.02
   2  25  21    3.53    0.02
   2  25  23    0.01    0.01
   2  25  25    1.11    0.02
   2  26   2   10.88    0.06
   2  26   4    0.11    0.00
   2  26   6    5.13    0.02
   2  26   8    1.26    0.01
   2  26  10    0.49    0.01
   2  26  12    0.10    0.00
   2  26  14    0.32    0.01
   2  26  16    4.36    0.02
   2  26  18    7.61    0.04
   2  26  20    6.80    0.03
   2  26  22    1.52    0.01
   2  26  24    1.18    0.01
   2  26  26    0.00    0.01
   2  27   3    0.25    0.00
   2  27   5    6.15    0.02
   2  27   7    0.16    0.01
   2  27   9    0.25    0.01
   2  27  11    0.10    0.00
   2  27  13    0.48    0.01
   2  27  15    5.92    0.03
   2  27  17    7.79    0.04
   2  27  19    6.46    0.03
   2  27  21    2.55    0.02
   2  27  23    1.75    0.01
   2  27  25    0.03    0.01
   2  27  27    0.91    0.02
   2  28   2    1.32    0.01
   2  28   4    0.77    0.01
   2  28   6    0.95    0.01
   2  28   8    0.38    0.01
   2  28  10    0.11    0.00
   2  28  12    0.01    0.00
   2  28  14    3.68    0.02
   2  28  16    5.93    0.03
   2  28  18   11.04    0.05
   2  28  20    7.76    0.04
   2  28  22    4.86    0.03
   2  28  24    0.24    0.01
   2  28  26    0.83    0.01
   2  28  28    4.69    0.05
   2  29   3    1.84    0.01
   2  29   5    0.18    0.00
   2  29   7    1.99    0.01
   2  29   9    0.64    0.01
   2  29  11    0.00    0.00
   2  29  13    1.42    0.01
   2  29  15    2.33    0.01
   2  29  17    9.10    0.04
   2  29  19    6.05    0.03
   2  29  21    4.45    0.02
   2  29  23    1.00    0.01
   2  29  25    0.04    0.01
   2  29  27    2.45    0.02
   2  29  29    3.17    0.04
   2  30   2    1.34    0.02
   2  30   4    0.06    0.00
   2  30   6    0.91    0.01
   2  30   8    1.77    0.01
   2  30  10    0.95    0.01
   2  30  12    0.12    0.01
   2  30  14    0.13    0.01
   2  30  16    7.08    0.03
   2  30  18    4.99    0.03
   2  30  20    6.97    0.04
   2  30  22    2.64    0.02
   2  30  24    0.04    0.01
   2  30  26    3.15    0.02
   2  30  28    6.09    0.04
   2  30  30   11.34    0.11
   2  31   3    0.00    0.01
   2  31   5    0.80    0.01
   2  31   7    1.61    0.01
   2  31   9    0.41    0.01
   2  31  11    0.10    0.01
   2  31  13    0.00    0.01
   2  31  15    4.32    0.02
   2  31  17    1.45    0.01
   2  31  19    5.88    0.03
   2  31  21    2.29    0.02
   2  31  23    1.04    0.01
   2  31  25    0.95    0.01
   2  31  27    1.65    0.02
   2  31  29    5.09    0.03
   2  31  31    3.36    0.04
   2  32   2    3.28    0.03
   2  32   4    0.43    0.01
   2  32   6    0.00    0.01
   2  32   8    0.01    0.01
   2  32  10    0.40    0.01
   2  32  12    0.33    0.01
   2  32  14    2.49    0.02
   2  32  16    0.62    0.01
   2  32  18    7.06    0.04
   2  32  20    2.46    0.02
   2  32  22    2.11    0.02
   2  32  24    1.14    0.01
   2  32  26    1.77    0.02
   2  32  28    7.58    0.05
   2  32  30    6.50    0.04
   2  32  32    9.80    0.10
   2  33   3    0.39    0.01
   2  33   5    0.26    0.01
   2  33   7    0.09    0.01
   2  33   9    0.83    0.01
   2  33  11    0.65    0.01
   2  33  13    0.79    0.01
   2  33  15    0.20    0.01
   2  33  17    2.65    0.02
   2  33  19    0.77    0.01
   2  33  21    2.30    0.02
   2  33  23    0.14    0.01
   2  33  25    0.02    0.01
   2  33  27    2.25    0.02
   2  33  29    2.38    0.02
   2  33  31    6.01    0.04
   2  34   2    0.00    0.01
   2  34   4    0.31    0.01
   2  34   6    0.01    0.01
   2  34   8    0.86    0.01
   2  34  10    0.99    0.01
   2  34  12    0.01    0.01
   2  34  14    1.46    0.01
   2  34  16    1.75    0.02
   2  34  18    0.58    0.01
   2  34  20    1.95    0.02
   2  34  22    0.12    0.01
   2  34  24    0.01    0.01
   2  34  26    2.04    0.02
   2  34  28    2.83    0.02
   2  34  30    5.53    0.04
   2  35   3    0.23    0.01
   2  35   5    0.23    0.01
   2  35   7    0.04    0.01
   2  35   9    0.30    0.01
   2  35  11    0.00    0.01
   2  35  13    2.29    0.02
   2  35  15    0.62    0.01
   2  35  17    0.00    0.01
   2  35  19    0.64    0.01
   2  35  21    0.03    0.01
   2  35  23    0.50    0.01
   2  35  25    0.31    0.01
   2  35  27    0.59    0.01
   2  36   2    5.37    0.04
   2  36   4    0.62    0.01
   2  36   6    1.89    0.02
   2  36   8    0.00    0.01
   2  36  10    0.09    0.01
   2  36  12    1.10    0.01
   2  36  14    0.69    0.01
   2  36  16    0.11    0.01
   2  36  18    0.37    0.01
   2  36  20    0.03    0.01
   2  36  22    0.29    0.01
   2  36  24    0.49    0.01
   2  36  26    0.16    0.00
   2  37   3    0.55    0.01
   2  37   5    0.34    0.01
   2  37   7    0.53    0.01
   2  37   9    0.01    0.01
   2  37  11    1.61    0.02
   2  37  13    0.00    0.01
   2  37  15    1.06    0.01
   2  37  17    0.01    0.01
   2  37  19    0.14    0.01
   2  37  21    0.09    0.01
   2  37  23    0.10    0.01
   2  37  25    0.05    0.01
   2  38   2    0.86    0.01
   2  38   4    0.47    0.01
   2  38   6    0.59    0.01
   2  38   8    0.00    0.01
   2  38  10    1.17    0.02
   2  38  12    0.14    0.01
   2  38  14    1.64    0.02
   2  38  16    0.17    0.01
   2  38  18    1.07    0.01
   2  38  20    0.12    0.01
   2  38  22    0.22    0.01
   2  38  24    0.05    0.01
   2  39   3    0.56    0.01
   2  39   5    0.71    0.01
   2  39   7    0.02    0.01
   2  39   9    0.61    0.01
   2  39  11    0.04    0.01
   2  39  13    0.63    0.01
   2  39  15    0.05    0.01
   2  39  17    0.85    0.01
   2  39  19    0.04    0.01
   2  39  21    0.23    0.01
   2  39  23    0.02    0.01
   2  40   2    1.04    0.02
   2  40   4    0.00    0.01
   2  40   6    1.05    0.02
   2  40   8    0.00    0.01
   2  40  10    0.12    0.01
   2  40  12    0.15    0.01
   2  40  14    0.08    0.01
   2  40  16    1.22    0.01
   2  40  18    0.27    0.01
   2  40  20    0.74    0.01
   2  41   3    0.20    0.01
   2  41   5    0.05    0.01
   2  41   7    0.43    0.01
   2  41   9    0.00    0.01
   2  41  11    0.04    0.01
   2  41  13    0.01    0.01
   2  41  15    0.28    0.01
   2  41  17    0.04    0.01
   2  41  19    0.53    0.01
   2  42   2    0.62    0.02
   2  42   4    0.02    0.01
   2  42   6    0.29    0.01
   2  42   8    0.01    0.01
   2  42  10    0.12    0.01
   2  42  12    0.10    0.01
   2  42  14    0.89    0.01
   2  42  16    0.48    0.01
   2  43   3    0.00    0.01
   2  43   5    0.16    0.01
   2  43   7    0.01    0.01
   2  43   9    0.03    0.01
   2  43  11    0.22    0.01
   2  43  13    0.01    0.01
   2  44   2    0.88    0.02
   2  44   4    0.04    0.01
   2  44   6    0.19    0.01
   2  44   8    0.00    0.01
   2  44  10    0.32    0.01
   2  45   3    0.50    0.01
   2  45   5    0.04    0.01
   3   4   3    1.31    0.03
   3   5   4    4.70    0.01
   3   6   3    0.00    0.01
   3   6   5    6.62    0.05
   3   7   4    5.24    0.03
   3   7   6   15.76    0.11
   3   8   3    2.95    0.01
   3   8   5    6.24    0.07
   3   8   7   23.71    0.16
   3   9   4    0.69    0.00
   3   9   6    2.26    0.03
   3   9   8   11.84    0.06
   3  10   3    8.06    0.09
   3  10   5    7.95    0.01
   3  10   7   15.41    0.04
   3  10   9   13.89    0.04
   3  11   4    1.72    0.00
   3  11   6    0.40    0.00
   3  11   8    0.36    0.00
   3  11  10    3.21    0.01
   3  12   3    5.98    0.08
   3  12   5    6.57    0.04
   3  12   7    7.25    0.05
   3  12   9    5.06    0.03
   3  12  11    2.00    0.01
   3  13   4    1.18    0.02
   3  13   6    0.08    0.00
   3  13   8    0.00    0.00
   3  13  10    0.13    0.01
   3  13  12    1.29    0.01
   3  14   3    3.93    0.02
   3  14   5    2.45    0.01
   3  14   7    3.84    0.02
   3  14   9    1.41    0.01
   3  14  11    0.00    0.00
   3  14  13    0.74    0.01
   3  15   4   20.95    0.11
   3  15   6    9.76    0.05
   3  15   8    2.14    0.01
   3  15  10    0.88    0.01
   3  15  12    0.13    0.01
   3  15  14    0.26    0.01
   3  16   3    3.73    0.03
   3  16   5    0.94    0.01
   3  16   7    0.92    0.01
   3  16   9    0.42    0.01
   3  16  11    0.29    0.01
   3  16  13    0.00    0.01
   3  16  15    0.30    0.01
   3  17   4    5.27    0.03
   3  17   6    1.90    0.02
   3  17   8    0.02    0.01
   3  17  10    0.92    0.01
   3  17  12    0.81    0.01
   3  17  14    1.24    0.01
   3  17  16    2.16    0.02
   3  18   3    1.68    0.02
   3  18   5    0.02    0.01
   3  18   7    0.39    0.01
   3  18   9    0.88    0.01
   3  18  11    0.68    0.01
   3  18  13    0.34    0.01
   3  18  15    0.02    0.01
   3  18  17    1.48    0.02
   3  19   4   17.23    0.09
   3  19   6    5.58    0.04
   3  19   8    1.70    0.02
   3  19  10    0.52    0.01
   3  19  12    0.03    0.01
   3  19  14    0.07    0.01
   3  19  16    0.22    0.01
   3  19  18    0.00    0.01
   3  20   3    0.10    0.01
   3  20   5    3.50    0.02
   3  20   7    4.28    0.03
   3  20   9    6.08    0.03
   3  20  11    3.47    0.02
   3  20  13    0.96    0.01
   3  20  15    0.03    0.01
   3  20  17    0.56    0.01
   3  20  19    0.13    0.01
   3  21   4    0.14    0.01
   3  21   6    0.61    0.01
   3  21   8    0.83    0.01
   3  21  10    0.43    0.01
   3  21  12    0.55    0.01
   3  21  14    0.13    0.01
   3  21  16    0.32    0.01
   3  21  18    0.57    0.01
   3  21  20    0.02    0.01
   3  22   3    3.97    0.04
   3  22   5   13.69    0.08
   3  22   7    9.65    0.06
   3  22   9   11.32    0.07
   3  22  11    7.17    0.04
   3  22  13    1.76    0.01
   3  22  15    0.06    0.01
   3  22  17    0.85    0.01
   3  22  19    0.35    0.01
   3  22  21    0.14    0.01
   3  23   4    0.84    0.01
   3  23   6    1.84    0.02
   3  23   8    3.34    0.02
   3  23  10    2.70    0.02
   3  23  12    0.79    0.01
   3  23  14    0.01    0.00
   3  23  16    0.30    0.01
   3  23  18    1.04    0.01
   3  23  20    0.75    0.01
   3  23  22    0.00    0.01
   3  24   3    7.94    0.06
   3  24   5   14.38    0.07
   3  24   7   12.73    0.06
   3  24   9   12.64    0.05
   3  24  11    5.13    0.02
   3  24  13    1.24    0.01
   3  24  15    0.04    0.01
   3  24  17    1.23    0.01
   3  24  19    1.11    0.01
   3  24  21    0.35    0.01
   3  24  23    0.18    0.01
   3  25   4    3.30    0.02
   3  25   6    4.87    0.02
   3  25   8    5.48    0.02
   3  25  10    3.52    0.02
   3  25  12    1.20    0.01
   3  25  14    0.08    0.01
   3  25  16    0.30    0.01
   3  25  18    1.27    0.01
   3  25  20    1.67    0.01
   3  25  22    0.77    0.01
   3  25  24    0.07    0.01
   3  26   3    3.69    0.03
   3  26   5    7.24    0.03
   3  26   7    6.13    0.03
   3  26   9    4.93    0.02
   3  26  11    0.88    0.01
   3  26  13    0.07    0.00
   3  26  15    0.35    0.01
   3  26  17    2.01    0.02
   3  26  19    2.49    0.02
   3  26  21    0.98    0.01
   3  26  23    0.51    0.01
   3  26  25    0.04    0.01
   3  27   4    0.19    0.00
   3  27   6    0.04    0.00
   3  27   8    0.06    0.00
   3  27  10    0.00    0.00
   3  27  12    0.01    0.00
   3  27  14    0.35    0.01
   3  27  16    2.01    0.01
   3  27  18    3.02    0.02
   3  27  20    2.36    0.02
   3  27  22    1.50    0.01
   3  27  24    0.53    0.01
   3  27  26    0.01    0.01
   3  28   3    0.63    0.01
   3  28   5    1.95    0.01
   3  28   7    0.66    0.01
   3  28   9    0.27    0.01
   3  28  11    0.01    0.00
   3  28  13    0.37    0.01
   3  28  15    1.69    0.01
   3  28  17    2.80    0.02
   3  28  19    2.63    0.02
   3  28  21    1.54    0.01
   3  28  23    0.77    0.01
   3  28  25    0.10    0.01
   3  28  27    0.02    0.01
   3  29   4    1.83    0.01
   3  29   6    0.89    0.01
   3  29   8    0.24    0.01
   3  29  10    0.05    0.01
   3  29  12    0.00    0.01
   3  29  14    0.20    0.01
   3  29  16    1.17    0.01
   3  29  18    1.74    0.01
   3  29  20    1.43    0.01
   3  29  22    0.80    0.01
   3  29  24    0.35    0.01
   3  29  26    0.02    0.01
   3  29  28    0.04    0.01
   3  30   3    0.16    0.01
   3  30   5    0.13    0.01
   3  30   7    0.02    0.01
   3  30   9    0.01    0.01
   3  30  11    0.28    0.01
   3  30  13    1.07    0.01
   3  30  15    2.37    0.02
   3  30  17    2.30    0.02
   3  30  19    1.48    0.01
   3  30  21    0.88    0.01
   3  30  23    0.54    0.01
   3  30  25    0.03    0.01
   3  30  27    0.00    0.01
   3  30  29    0.03    0.01
   3  31   4    0.01    0.01
   3  31   6    0.10    0.01
   3  31   8    0.27    0.01
   3  31  10    0.47    0.01
   3  31  12    1.02    0.01
   3  31  14    1.57    0.01
   3  31  16    1.30    0.01
   3  31  18    0.99    0.02
   3  31  20    0.74    0.01
   3  31  22    0.20    0.01
   3  31  24    0.00    0.01
   3  31  26    0.05    0.01
   3  31  28    0.12    0.01
   3  31  30    0.12    0.01
   3  32   3    0.05    0.01
   3  32   5    0.09    0.01
   3  32   7    0.20    0.01
   3  32   9    0.09    0.01
   3  32  11    0.79    0.01
   3  32  13    1.41    0.01
   3  32  15    1.20    0.01
   3  32  17    0.86    0.01
   3  32  19    0.36    0.01
   3  32  21    0.01    0.01
   3  32  23    0.00    0.01
   3  32  25    0.07    0.01
   3  32  27    0.11    0.01
   3  32  29    0.03    0.01
   3  32  31    0.02    0.01
   3  33   4    0.06    0.01
   3  33   6    0.04    0.01
   3  33   8    0.02    0.01
   3  33  10    0.64    0.01
   3  33  12    0.96    0.01
   3  33  14    0.57    0.01
   3  33  16    0.26    0.01
   3  33  18    0.07    0.01
   3  33  20    0.00    0.01
   3  33  22    0.02    0.01
   3  33  24    0.12    0.01
   3  33  26    0.22    0.01
   3  33  28    0.23    0.01
   3  33  30    0.10    0.01
   3  34   3    0.07    0.01
   3  34   5    0.19    0.01
   3  34   7    0.72    0.01
   3  34   9    1.11    0.01
   3  34  11    1.78    0.01
   3  34  13    1.38    0.01
   3  34  15    0.74    0.01
   3  34  17    0.19    0.01
   3  34  19    0.02    0.01
   3  34  21    0.38    0.01
   3  34  23    0.55    0.01
   3  34  25    0.60    0.01
   3  34  27    0.37    0.01
   3  34  29    0.11    0.01
   3  35   4    0.29    0.01
   3  35   6    0.36    0.01
   3  35   8    0.80    0.01
   3  35  10    1.70    0.01
   3  35  12    1.35    0.01
   3  35  14    0.58    0.01
   3  35  16    0.09    0.01
   3  35  18    0.04    0.01
   3  35  20    0.38    0.01
   3  35  22    0.47    0.01
   3  35  24    0.37    0.01
   3  35  26    0.34    0.01
   3  35  28    0.26    0.01
   3  36   3    0.07    0.01
   3  36   5    0.08    0.01
   3  36   7    0.75    0.01
   3  36   9    1.50    0.01
   3  36  11    1.53    0.02
   3  36  13    0.91    0.01
   3  36  15    0.37    0.01
   3  36  17    0.00    0.01
   3  36  19    0.51    0.01
   3  36  21    1.18    0.01
   3  36  23    1.19    0.01
   3  36  25    1.05    0.01
   3  36  27    0.53    0.01
   3  37   4    0.49    0.01
   3  37   6    0.00    0.01
   3  37   8    0.24    0.01
   3  37  10    0.38    0.01
   3  37  12    0.30    0.01
   3  37  14    0.12    0.01
   3  37  16    0.04    0.01
   3  37  18    0.45    0.01
   3  37  20    0.67    0.01
   3  37  22    0.56    0.01
   3  37  24    0.28    0.01
   3  37  26    0.14    0.01
   3  38   3    0.01    0.01
   3  38   5    0.05    0.01
   3  38   7    0.28    0.01
   3  38   9    0.37    0.01
   3  38  11    0.65    0.01
   3  38  13    0.45    0.01
   3  38  15    0.04    0.01
   3  38  17    0.16    0.01
   3  38  19    0.72    0.01
   3  38  21    1.28    0.01
   3  38  23    1.03    0.01
   3  39   4    0.68    0.01
   3  39   6    1.23    0.02
   3  39   8    1.66    0.02
   3  39  10    1.86    0.02
   3  39  12    1.33    0.02
   3  39  14    0.50    0.01
   3  39  16    0.01    0.01
   3  39  18    0.17    0.01
   3  39  20    0.33    0.01
   3  39  22    0.24    0.01
   3  40   3    0.01    0.01
   3  40   5    0.03    0.01
   3  40   7    0.11    0.01
   3  40   9    0.15    0.01
   3  40  11    0.37    0.01
   3  40  13    0.20    0.01
   3  40  15    0.01    0.01
   3  40  17    0.34    0.01
   3  40  19    0.85    0.01
   3  40  21    1.31    0.02
   3  41   4    0.01    0.01
   3  41   6    0.00    0.01
   3  41   8    0.06    0.01
   3  41  10    0.31    0.01
   3  41  12    0.12    0.01
   3  41  14    0.02    0.01
   3  41  16    0.25    0.01
   3  41  18    0.52    0.01
   3  42   3    0.04    0.01
   3  42   5    0.01    0.01
   3  42   7    0.15    0.01
   3  42   9    0.34    0.01
   3  42  11    0.28    0.01
   3  42  13    0.04    0.01
   3  42  15    0.02    0.01
   3  42  17    0.34    0.01
   3  43   4    0.00    0.01
   3  43   6    0.06    0.01
   3  43   8    0.13    0.01
   3  43  10    0.16    0.01
   3  43  12    0.04    0.01
   3  43  14    0.01    0.01
   3  44   3    0.01    0.01
   3  44   5    0.00    0.01
   3  44   7    0.03    0.01
   3  44   9    0.09    0.01
   3  44  11    0.06    0.01
   3  45   4    0.47    0.01
   4   4   4   95.24    1.39
   4   5   5    0.43    0.01
   4   6   4   11.60    0.12
   4   6   6   25.82    0.20
   4   7   5    0.18    0.00
   4   7   7   15.36    0.35
   4   8   4   14.25    0.13
   4   8   6    0.80    0.00
   4   8   8    7.32    0.17
   4   9   5    0.44    0.00
   4   9   7    1.92    0.03
   4   9   9   22.41    0.14
   4  10   4   18.68    0.37
   4  10   6    0.35    0.00
   4  10   8    0.40    0.00
   4  10  10    6.90    0.03
   4  11   5    0.03    0.01
   4  11   7    1.50    0.01
   4  11   9    0.71    0.02
   4  11  11    7.05    0.04
   4  12   4    9.41    0.14
   4  12   6    0.94    0.01
   4  12   8    0.03    0.01
   4  12  10    0.47    0.00
   4  12  12   18.77    0.10
   4  13   5   10.01    0.04
   4  13   7    4.62    0.02
   4  13   9    0.88    0.01
   4  13  11    0.11    0.00
   4  13  13    5.23    0.03
   4  14   4   50.36    0.25
   4  14   6    2.10    0.01
   4  14   8    0.08    0.01
   4  14  10    0.89    0.01
   4  14  12   28.99    0.14
   4  14  14   39.25    0.24
   4  15   5    8.82    0.04
   4  15   7   19.02    0.07
   4  15   9    0.71    0.01
   4  15  11    9.13    0.04
   4  15  13   10.29    0.05
   4  15  15    6.64    0.05
   4  16   4    2.33    0.01
   4  16   6    3.27    0.03
   4  16   8    5.11    0.03
   4  16  10   11.57    0.07
   4  16  12   16.60    0.08
   4  16  14   21.11    0.10
   4  16  16   46.30    0.36
   4  17   5   38.08    0.18
   4  17   7    2.48    0.02
   4  17   9    0.02    0.01
   4  17  11    5.09    0.02
   4  17  13    7.74    0.04
   4  17  15   22.38    0.10
   4  17  17    5.71    0.04
   4  18   4   42.25    0.37
   4  18   6    0.61    0.01
   4  18   8    1.81    0.02
   4  18  10    0.03    0.01
   4  18  12    0.12    0.01
   4  18  14    5.74    0.03
   4  18  16    3.23    0.02
   4  18  18    7.18    0.05
   4  19   5    1.96    0.02
   4  19   7    4.09    0.03
   4  19   9    1.06    0.02
   4  19  11    0.08    0.01
   4  19  13    9.51    0.06
   4  19  15    5.80    0.03
   4  19  17   14.33    0.05
   4  19  19    0.71    0.01
   4  20   4    1.75    0.04
   4  20   6    0.44    0.02
   4  20   8    1.98    0.02
   4  20  10    0.62    0.01
   4  20  12    1.38    0.01
   4  20  14    0.47    0.01
   4  20  16    6.64    0.03
   4  20  18    0.03    0.00
   4  20  20    7.50    0.04
   4  21   5    0.80    0.02
   4  21   7    0.52    0.01
   4  21   9    0.32    0.01
   4  21  11    1.07    0.01
   4  21  13    0.05    0.01
   4  21  15    3.61    0.02
   4  21  17    0.37    0.01
   4  21  19    5.32    0.02
   4  21  21    0.32    0.01
   4  22   4    0.56    0.02
   4  22   6    2.40    0.03
   4  22   8    1.27    0.02
   4  22  10    0.04    0.01
   4  22  12    1.65    0.01
   4  22  14    0.07    0.01
   4  22  16    0.22    0.01
   4  22  18    0.41    0.01
   4  22  20    0.40    0.01
   4  22  22    2.04    0.02
   4  23   5    2.47    0.02
   4  23   7    0.07    0.01
   4  23   9    0.96    0.02
   4  23  11    0.06    0.01
   4  23  13    0.02    0.01
   4  23  15    0.33    0.01
   4  23  17    0.14    0.01
   4  23  19    0.21    0.01
   4  23  21    0.98    0.01
   4  23  23    1.38    0.02
   4  24   4    5.41    0.04
   4  24   6    0.28    0.01
   4  24   8    0.11    0.01
   4  24  10    0.13    0.01
   4  24  12    0.30    0.00
   4  24  14    1.05    0.01
   4  24  16    0.27    0.01
   4  24  18    1.75    0.01
   4  24  20    0.20    0.01
   4  24  22    1.93    0.02
   4  24  24    0.39    0.02
   4  25   5    0.02    0.01
   4  25   7    1.64    0.01
   4  25   9    0.06    0.01
   4  25  11    0.18    0.01
   4  25  13    1.91    0.01
   4  25  15    0.94    0.01
   4  25  17    2.05    0.01
   4  25  19    1.41    0.01
   4  25  21    1.78    0.02
   4  25  23    0.35    0.01
   4  25  25    0.12    0.01
   4  26   4    4.10    0.02
   4  26   6    0.23    0.01
   4  26   8    1.29    0.01
   4  26  10    0.68    0.01
   4  26  12    2.06    0.01
   4  26  14    1.01    0.01
   4  26  16    3.58    0.02
   4  26  18    5.90    0.03
   4  26  20    4.43    0.02
   4  26  22    0.32    0.01
   4  26  24    0.56    0.01
   4  26  26    0.02    0.01
   4  27   5    4.34    0.02
   4  27   7    0.06    0.01
   4  27   9    0.07    0.01
   4  27  11    0.19    0.01
   4  27  13    0.52    0.01
   4  27  15    3.30    0.02
   4  27  17    4.50    0.02
   4  27  19    3.34    0.02
   4  27  21    1.22    0.01
   4  27  23    0.35    0.01
   4  27  25    0.07    0.01
   4  27  27    1.20    0.03
   4  28   4    6.68    0.04
   4  28   6    0.72    0.01
   4  28   8    1.43    0.01
   4  28  10    1.52    0.01
   4  28  12    0.18    0.01
   4  28  14    0.63    0.01
   4  28  16    1.40    0.01
   4  28  18    4.09    0.02
   4  28  20    3.69    0.02
   4  28  22    1.45    0.01
   4  28  24    0.13    0.01
   4  28  26    0.72    0.01
   4  28  28    2.92    0.03
   4  29   5    0.29    0.01
   4  29   7    2.28    0.01
   4  29   9    1.20    0.01
   4  29  11    0.00    0.01
   4  29  13    0.64    0.01
   4  29  15    0.73    0.01
   4  29  17    4.54    0.02
   4  29  19    3.40    0.02
   4  29  21    2.21    0.02
   4  29  23    0.37    0.01
   4  29  25    0.16    0.01
   4  29  27    1.64    0.02
   4  29  29    1.94    0.02
   4  30   4    0.06    0.01
   4  30   6    0.44    0.01
   4  30   8    0.33    0.01
   4  30  10    0.13    0.01
   4  30  12    0.02    0.01
   4  30  14    0.15    0.01
   4  30  16    4.64    0.02
   4  30  18    3.14    0.02
   4  30  20    4.10    0.02
   4  30  22    1.16    0.01
   4  30  24    0.06    0.01
   4  30  26    1.55    0.02
   4  30  28    3.38    0.02
   4  30  30    6.08    0.06
   4  31   5    0.60    0.01
   4  31   7    1.74    0.01
   4  31   9    0.37    0.01
   4  31  11    0.13    0.01
   4  31  13    0.03    0.01
   4  31  15    1.99    0.01
   4  31  17    0.42    0.01
   4  31  19    3.01    0.02
   4  31  21    1.16    0.01
   4  31  23    0.58    0.01
   4  31  25    0.55    0.01
   4  31  27    0.81    0.01
   4  31  29    2.67    0.02
   4  31  31    1.45    0.02
   4  32   4    0.15    0.01
   4  32   6    1.03    0.01
   4  32   8    0.02    0.01
   4  32  10    0.82    0.01
   4  32  12    0.52    0.01
   4  32  14    0.94    0.01
   4  32  16    0.04    0.01
   4  32  18    3.67    0.02
   4  32  20    1.33    0.01
   4  32  22    1.35    0.01
   4  32  24    0.27    0.01
   4  32  26    0.35    0.01
   4  32  28    3.00    0.02
   4  32  30    2.49    0.02
   4  32  32    4.18    0.05
   4  33   5    0.01    0.01
   4  33   7    0.14    0.01
   4  33   9    0.19    0.01
   4  33  11    0.07    0.01
   4  33  13    1.00    0.01
   4  33  15    0.16    0.01
   4  33  17    1.76    0.01
   4  33  19    0.49    0.01
   4  33  21    1.83    0.02
   4  33  23    0.02    0.01
   4  33  25    0.08    0.01
   4  33  27    0.59    0.01
   4  33  29    0.84    0.01
   4  33  31    2.98    0.03
   4  34   4    0.50    0.01
   4  34   6    0.01    0.01
   4  34   8    0.23    0.01
   4  34  10    0.43    0.01
   4  34  12    0.11    0.01
   4  34  14    1.13    0.01
   4  34  16    1.03    0.01
   4  34  18    0.20    0.01
   4  34  20    1.09    0.01
   4  34  22    0.19    0.01
   4  34  24    0.08    0.01
   4  34  26    0.51    0.01
   4  34  28    0.85    0.01
   4  35   5    0.03    0.01
   4  35   7    0.01    0.01
   4  35   9    0.05    0.01
   4  35  11    0.04    0.01
   4  35  13    1.50    0.01
   4  35  15    0.58    0.01
   4  35  17    0.00    0.01
   4  35  19    0.63    0.01
   4  35  21    0.00    0.01
   4  35  23    1.02    0.01
   4  35  25    0.01    0.01
   4  35  27    0.00    0.00
   4  36   4    0.26    0.01
   4  36   6    0.06    0.01
   4  36   8    0.13    0.01
   4  36  10    0.02    0.01
   4  36  12    1.28    0.01
   4  36  14    0.30    0.01
   4  36  16    0.26    0.01
   4  36  18    0.14    0.01
   4  36  20    0.02    0.01
   4  36  22    0.32    0.01
   4  36  24    0.01    0.01
   4  36  26    0.08    0.01
   4  37   5    0.23    0.01
   4  37   7    0.41    0.01
   4  37   9    0.04    0.01
   4  37  11    1.15    0.01
   4  37  13    0.00    0.01
   4  37  15    0.85    0.01
   4  37  17    0.03    0.01
   4  37  19    0.01    0.01
   4  37  21    0.37    0.01
   4  37  23    0.06    0.01
   4  37  25    0.73    0.01
   4  38   4    3.90    0.04
   4  38   6    0.30    0.01
   4  38   8    1.75    0.02
   4  38  10    0.06    0.01
   4  38  12    0.61    0.01
   4  38  14    0.06    0.01
   4  38  16    0.08    0.01
   4  38  18    0.27    0.01
   4  38  20    0.00    0.01
   4  38  22    0.05    0.01
   4  38  24    0.40    0.01
   4  39   5    0.28    0.01
   4  39   7    0.19    0.01
   4  39   9    0.18    0.01
   4  39  11    0.01    0.01
   4  39  13    0.28    0.01
   4  39  15    0.02    0.01
   4  39  17    0.65    0.01
   4  39  19    0.05    0.01
   4  39  21    0.14    0.01
   4  39  23    0.06    0.01
   4  40   4    0.70    0.02
   4  40   6    0.09    0.01
   4  40   8    0.07    0.01
   4  40  10    0.01    0.01
   4  40  12    0.18    0.01
   4  40  14    0.23    0.01
   4  40  16    1.57    0.02
   4  40  18    0.74    0.01
   4  40  20    1.16    0.01
   4  41   5    0.37    0.01
   4  41   7    0.00    0.01
   4  41   9    0.20    0.01
   4  41  11    0.04    0.01
   4  41  13    0.05    0.01
   4  41  15    0.20    0.01
   4  41  17    0.12    0.01
   4  41  19    0.75    0.01
   4  42   4    0.17    0.01
   4  42   6    0.00    0.01
   4  42   8    0.37    0.01
   4  42  10    0.04    0.01
   4  42  12    0.04    0.01
   4  42  14    0.28    0.01
   4  42  16    0.33    0.01
   4  43   5    0.08    0.01
   4  43   7    0.01    0.01
   4  43   9    0.03    0.01
   4  43  11    0.12    0.01
   4  43  13    0.00    0.01
   4  44   4    0.10    0.01
   4  44   6    0.00    0.01
   4  44   8    0.04    0.01
   4  44  10    0.07    0.01
   4  45   5    0.08    0.01
   5   6   5   16.97    0.05
   5   7   6   10.98    0.14
   5   8   5   16.50    0.09
   5   8   7   14.64    0.08
   5   9   6    6.02    0.04
   5   9   8   13.44    0.05
   5  10   5   23.80    0.11
   5  10   7   10.25    0.02
   5  10   9   13.24    0.06
   5  11   6    0.66    0.01
   5  11   8    1.66    0.01
   5  11  10    9.35    0.03
   5  12   5   29.89    0.24
   5  12   7   10.13    0.03
   5  12   9    3.83    0.02
   5  12  11    9.36    0.03
   5  13   6    0.97    0.00
   5  13   8    0.17    0.00
   5  13  10    1.02    0.01
   5  13  12    6.61    0.03
   5  14   5   13.24    0.05
   5  14   7    5.62    0.02
   5  14   9    0.05    0.01
   5  14  11    0.82    0.01
   5  14  13    4.75    0.03
   5  15   6    3.16    0.02
   5  15   8    0.18    0.00
   5  15  10    0.09    0.01
   5  15  12    0.68    0.01
   5  15  14    2.87    0.02
   5  16   5    3.37    0.01
   5  16   7    0.05    0.00
   5  16   9    1.09    0.01
   5  16  11    0.26    0.01
   5  16  13    0.60    0.01
   5  16  15    2.76    0.02
   5  17   6   24.49    0.11
   5  17   8    7.68    0.04
   5  17  10    1.40    0.01
   5  17  12    1.89    0.02
   5  17  14    1.00    0.01
   5  17  16    0.08    0.01
   5  18   5    0.41    0.01
   5  18   7    3.71    0.02
   5  18   9    5.94    0.04
   5  18  11    0.66    0.01
   5  18  13    0.10    0.01
   5  18  15    0.49    0.01
   5  18  17    0.33    0.01
   5  19   6    0.03    0.01
   5  19   8    0.18    0.01
   5  19  10    0.90    0.02
   5  19  12    0.84    0.01
   5  19  14    0.14    0.01
   5  19  16    0.16    0.01
   5  19  18    0.94    0.01
   5  20   5    4.37    0.05
   5  20   7   15.19    0.09
   5  20   9   14.67    0.09
   5  20  11    4.89    0.03
   5  20  13    0.00    0.01
   5  20  15    0.32    0.01
   5  20  17    0.18    0.01
   5  20  19    1.48    0.01
   5  21   6    0.16    0.01
   5  21   8    0.34    0.01
   5  21  10    0.19    0.01
   5  21  12    0.04    0.01
   5  21  14    0.11    0.01
   5  21  16    0.73    0.01
   5  21  18    0.65    0.01
   5  21  20    0.02    0.01
   5  22   5   20.41    0.15
   5  22   7   25.97    0.15
   5  22   9   19.88    0.11
   5  22  11   12.24    0.06
   5  22  13    0.74    0.01
   5  22  15    0.41    0.01
   5  22  17    0.43    0.01
   5  22  19    0.90    0.01
   5  22  21    0.48    0.01
   5  23   6    2.59    0.03
   5  23   8    4.43    0.03
   5  23  10    4.11    0.02
   5  23  12    0.49    0.01
   5  23  14    0.06    0.01
   5  23  16    0.27    0.01
   5  23  18    1.23    0.01
   5  23  20    1.25    0.01
   5  23  22    0.08    0.01
   5  24   5   15.66    0.11
   5  24   7   22.51    0.10
   5  24   9   14.03    0.06
   5  24  11    6.03    0.03
   5  24  13    0.18    0.01
   5  24  15    0.48    0.01
   5  24  17    1.83    0.01
   5  24  19    2.72    0.02
   5  24  21    1.49    0.01
   5  24  23    0.28    0.01
   5  25   6    0.38    0.01
   5  25   8    1.78    0.01
   5  25  10    1.64    0.01
   5  25  12    0.05    0.00
   5  25  14    0.34    0.01
   5  25  16    1.01    0.01
   5  25  18    2.57    0.02
   5  25  20    3.36    0.02
   5  25  22    1.76    0.02
   5  25  24    0.06    0.01
   5  26   5   10.52    0.05
   5  26   7   14.56    0.05
   5  26   9    6.14    0.03
   5  26  11    1.48    0.01
   5  26  13    0.01    0.01
   5  26  15    0.70    0.01
   5  26  17    3.07    0.02
   5  26  19    5.05    0.03
   5  26  21    2.99    0.02
   5  26  23    0.80    0.01
   5  26  25    0.16    0.01
   5  27   6    5.66    0.02
   5  27   8    4.21    0.02
   5  27  10    2.17    0.01
   5  27  12    0.85    0.01
   5  27  14    0.01    0.01
   5  27  16    0.92    0.01
   5  27  18    2.74    0.02
   5  27  20    2.82    0.02
   5  27  22    2.39    0.02
   5  27  24    0.63    0.01
   5  27  26    0.00    0.01
   5  28   5    5.51    0.03
   5  28   7    5.19    0.02
   5  28   9    1.12    0.01
   5  28  11    0.35    0.01
   5  28  13    0.26    0.01
   5  28  15    1.97    0.01
   5  28  17    3.82    0.02
   5  28  19    4.91    0.03
   5  28  21    4.19    0.02
   5  28  23    1.41    0.01
   5  28  25    0.37    0.01
   5  28  27    0.20    0.01
   5  29   6    0.02    0.00
   5  29   8    0.08    0.01
   5  29  10    0.11    0.01
   5  29  12    0.42    0.01
   5  29  14    1.52    0.01
   5  29  16    3.19    0.02
   5  29  18    4.14    0.02
   5  29  20    3.21    0.02
   5  29  22    1.82    0.02
   5  29  24    0.64    0.01
   5  29  26    0.04    0.01
   5  29  28    0.10    0.01
   5  30   5    0.15    0.01
   5  30   7    0.07    0.01
   5  30   9    0.08    0.01
   5  30  11    0.11    0.01
   5  30  13    1.36    0.01
   5  30  15    3.10    0.02
   5  30  17    2.80    0.02
   5  30  19    2.31    0.02
   5  30  21    1.97    0.02
   5  30  23    0.76    0.01
   5  30  25    0.08    0.01
   5  30  27    0.02    0.01
   5  30  29    0.07    0.01
   5  31   6    0.01    0.01
   5  31   8    0.14    0.01
   5  31  10    0.20    0.01
   5  31  12    1.03    0.01
   5  31  14    1.86    0.01
   5  31  16    1.29    0.01
   5  31  18    1.27    0.01
   5  31  20    1.36    0.01
   5  31  22    0.55    0.01
   5  31  24    0.04    0.01
   5  31  26    0.00    0.01
   5  31  28    0.02    0.01
   5  31  30    0.06    0.01
   5  32   5    1.18    0.02
   5  32   7    0.87    0.01
   5  32   9    1.37    0.01
   5  32  11    2.15    0.02
   5  32  13    3.31    0.02
   5  32  15    2.25    0.02
   5  32  17    1.32    0.01
   5  32  19    0.80    0.01
   5  32  21    0.13    0.01
   5  32  23    0.00    0.01
   5  32  25    0.05    0.01
   5  32  27    0.04    0.01
   5  32  29    0.01    0.01
   5  32  31    0.01    0.01
   5  33   6    0.06    0.01
   5  33   8    0.02    0.01
   5  33  10    0.65    0.01
   5  33  12    1.36    0.01
   5  33  14    0.76    0.01
   5  33  16    0.25    0.01
   5  33  18    0.05    0.01
   5  33  20    0.01    0.01
   5  33  22    0.11    0.01
   5  33  24    0.35    0.01
   5  33  26    0.40    0.01
   5  33  28    0.27    0.01
   5  33  30    0.12    0.01
   5  34   5    0.20    0.01
   5  34   7    0.47    0.01
   5  34   9    1.90    0.02
   5  34  11    2.15    0.02
   5  34  13    1.80    0.02
   5  34  15    0.98    0.01
   5  34  17    0.25    0.01
   5  34  19    0.00    0.01
   5  34  21    0.28    0.01
   5  34  23    0.78    0.01
   5  34  25    0.65    0.01
   5  34  27    0.25    0.01
   5  34  29    0.04    0.01
   5  35   6    0.02    0.01
   5  35   8    0.75    0.01
   5  35  10    2.14    0.02
   5  35  12    2.27    0.02
   5  35  14    1.20    0.01
   5  35  16    0.37    0.01
   5  35  18    0.00    0.01
   5  35  20    0.17    0.01
   5  35  22    0.30    0.01
   5  35  24    0.29    0.01
   5  35  26    0.20    0.01
   5  35  28    0.09    0.01
   5  36   5    0.01    0.01
   5  36   7    0.45    0.01
   5  36   9    2.16    0.02
   5  36  11    1.66    0.02
   5  36  13    1.08    0.01
   5  36  15    0.48    0.01
   5  36  17    0.00    0.01
   5  36  19    0.60    0.01
   5  36  21    1.23    0.01
   5  36  23    1.66    0.02
   5  36  25    1.26    0.01
   5  36  27    0.48    0.01
   5  37   6    1.54    0.01
   5  37   8    3.50    0.02
   5  37  10    3.17    0.02
   5  37  12    2.77    0.02
   5  37  14    1.68    0.02
   5  37  16    0.17    0.01
   5  37  18    0.18    0.01
   5  37  20    0.64    0.01
   5  37  22    0.82    0.01
   5  37  24    0.57    0.01
   5  38   5    0.69    0.01
   5  38   7    1.39    0.02
   5  38   9    2.15    0.02
   5  38  11    2.17    0.02
   5  38  13    1.49    0.02
   5  38  15    0.15    0.01
   5  38  17    0.36    0.01
   5  38  19    1.77    0.02
   5  38  21    2.95    0.02
   5  38  23    3.05    0.03
   5  39   6    0.01    0.01
   5  39   8    0.39    0.01
   5  39  10    0.60    0.01
   5  39  12    0.45    0.01
   5  39  14    0.03    0.01
   5  39  16    0.34    0.01
   5  39  18    1.25    0.01
   5  39  20    1.62    0.02
   5  39  22    1.30    0.02
   5  40   5    0.70    0.02
   5  40   7    0.96    0.01
   5  40   9    1.26    0.02
   5  40  11    1.41    0.02
   5  40  13    0.79    0.01
   5  40  15    0.00    0.01
   5  40  17    0.73    0.01
   5  40  19    2.10    0.02
   5  40  21    3.19    0.03
   5  41   6    0.27    0.01
   5  41   8    0.63    0.01
   5  41  10    1.17    0.02
   5  41  12    0.63    0.01
   5  41  14    0.00    0.01
   5  41  16    0.23    0.01
   5  41  18    0.74    0.01
   5  42   5    0.00    0.01
   5  42   7    0.05    0.01
   5  42   9    0.32    0.01
   5  42  11    0.18    0.01
   5  42  13    0.01    0.01
   5  42  15    0.05    0.01
   5  43   6    0.00    0.01
   5  43   8    0.06    0.01
   5  43  10    0.07    0.01
   5  43  12    0.01    0.01
   5  44   5    0.00    0.01
   5  44   7    0.01    0.01
   5  44   9    0.07    0.01
   6   6   6   34.30    2.21
   6   7   7    3.62    0.02
   6   8   6   10.06    0.01
   6   8   8   20.08    0.19
   6   9   7    2.39    0.02
   6   9   9    6.83    0.05
   6  10   6    0.05    0.01
   6  10   8    0.25    0.01
   6  10  10    9.29    0.04
   6  11   7    0.30    0.01
   6  11   9    0.71    0.01
   6  11  11    8.54    0.03
   6  12   6    1.19    0.03
   6  12   8    0.17    0.00
   6  12  10    1.85    0.01
   6  12  12   11.23    0.08
   6  13   7    0.16    0.01
   6  13   9    0.46    0.00
   6  13  11    1.12    0.01
   6  13  13    0.06    0.01
   6  14   6    0.38    0.01
   6  14   8    0.55    0.01
   6  14  10    0.72    0.01
   6  14  12   15.98    0.09
   6  14  14   16.63    0.11
   6  15   7    8.07    0.04
   6  15   9    2.17    0.01
   6  15  11    1.07    0.01
   6  15  13    0.19    0.01
   6  15  15    0.02    0.01
   6  16   6   17.66    0.12
   6  16   8    2.82    0.02
   6  16  10    0.58    0.01
   6  16  12    1.59    0.02
   6  16  14    3.68    0.02
   6  16  16   10.34    0.09
   6  17   7    3.00    0.02
   6  17   9    1.34    0.01
   6  17  11    0.00    0.01
   6  17  13    0.17    0.01
   6  17  15    2.70    0.02
   6  17  17    0.01    0.01
   6  18   6    0.82    0.02
   6  18   8    0.61    0.01
   6  18  10    0.39    0.01
   6  18  12    0.31    0.01
   6  18  14    4.73    0.03
   6  18  16    1.89    0.02
   6  18  18   15.10    0.10
   6  19   7    2.00    0.03
   6  19   9    0.11    0.01
   6  19  11    0.21    0.01
   6  19  13    1.27    0.02
   6  19  15    0.06    0.01
   6  19  17    3.58    0.02
   6  19  19    0.19    0.01
   6  20   6    5.54    0.07
   6  20   8    3.30    0.03
   6  20  10   11.10    0.07
   6  20  12    1.38    0.02
   6  20  14    2.73    0.02
   6  20  16    0.35    0.01
   6  20  18    0.04    0.00
   6  20  20    3.07    0.02
   6  21   7    1.69    0.02
   6  21   9    0.06    0.01
   6  21  11    0.45    0.01
   6  21  13    0.18    0.01
   6  21  15    0.72    0.01
   6  21  17    0.00    0.00
   6  21  19    1.64    0.01
   6  21  21    0.77    0.01
   6  22   6    0.01    0.01
   6  22   8    4.45    0.03
   6  22  10    3.37    0.02
   6  22  12    3.14    0.02
   6  22  14    0.25    0.01
   6  22  16    0.33    0.01
   6  22  18    0.85    0.01
   6  22  20    0.26    0.01
   6  22  22    2.51    0.02
   6  23   7    0.11    0.01
   6  23   9    0.18    0.01
   6  23  11    0.27    0.01
   6  23  13    0.09    0.01
   6  23  15    0.67    0.01
   6  23  17    0.00    0.01
   6  23  19    0.25    0.01
   6  23  21    1.20    0.01
   6  23  23    0.34    0.01
   6  24   6    3.28    0.03
   6  24   8    2.03    0.02
   6  24  10    4.36    0.02
   6  24  12    1.07    0.01
   6  24  14    1.50    0.01
   6  24  16    0.25    0.01
   6  24  18    0.17    0.01
   6  24  20    0.11    0.01
   6  24  22    0.27    0.01
   6  24  24    2.18    0.03
   6  25   7    2.07    0.02
   6  25   9    0.18    0.01
   6  25  11    0.00    0.00
   6  25  13    0.69    0.01
   6  25  15    0.58    0.01
   6  25  17    0.45    0.01
   6  25  19    0.14    0.01
   6  25  21    0.06    0.01
   6  25  23    1.68    0.02
   6  25  25    0.42    0.01
   6  26   6    1.86    0.01
   6  26   8    0.01    0.00
   6  26  10    0.26    0.01
   6  26  12    0.05    0.00
   6  26  14    0.05    0.01
   6  26  16    0.24    0.01
   6  26  18    0.48    0.01
   6  26  20    0.22    0.01
   6  26  22    0.04    0.01
   6  26  24    0.04    0.01
   6  26  26    0.39    0.01
   6  27   7    0.52    0.01
   6  27   9    0.36    0.01
   6  27  11    0.10    0.00
   6  27  13    0.07    0.01
   6  27  15    1.11    0.01
   6  27  17    1.02    0.01
   6  27  19    0.36    0.01
   6  27  21    0.03    0.01
   6  27  23    0.09    0.01
   6  27  25    0.69    0.01
   6  27  27    1.44    0.02
   6  28   6    0.97    0.01
   6  28   8    0.03    0.00
   6  28  10    0.14    0.01
   6  28  12    0.36    0.01
   6  28  14    1.40    0.01
   6  28  16    0.78    0.01
   6  28  18    0.94    0.01
   6  28  20    1.05    0.01
   6  28  22    0.38    0.01
   6  28  24    0.01    0.01
   6  28  26    0.59    0.01
   6  28  28    0.84    0.02
   6  29   7    0.84    0.01
   6  29   9    0.54    0.01
   6  29  11    0.04    0.01
   6  29  13    0.31    0.01
   6  29  15    0.10    0.01
   6  29  17    0.83    0.01
   6  29  19    0.64    0.01
   6  29  21    0.19    0.01
   6  29  23    0.00    0.01
   6  29  25    0.51    0.01
   6  29  27    0.84    0.01
   6  29  29    0.58    0.01
   6  30   6    0.84    0.01
   6  30   8    1.24    0.01
   6  30  10    0.00    0.01
   6  30  12    0.08    0.01
   6  30  14    0.10    0.01
   6  30  16    0.72    0.01
   6  30  18    0.23    0.01
   6  30  20    0.72    0.01
   6  30  22    0.54    0.01
   6  30  24    0.11    0.01
   6  30  26    0.23    0.01
   6  30  28    0.48    0.01
   6  30  30    0.79    0.01
   6  31   7    0.43    0.01
   6  31   9    0.06    0.01
   6  31  11    0.00    0.01
   6  31  13    0.00    0.01
   6  31  15    0.98    0.01
   6  31  17    0.01    0.01
   6  31  19    0.83    0.01
   6  31  21    0.34    0.01
   6  31  23    0.38    0.01
   6  31  25    0.14    0.01
   6  31  27    0.11    0.01
   6  31  29    0.42    0.01
   6  31  31    0.03    0.01
   6  32   6    2.71    0.02
   6  32   8    0.60    0.01
   6  32  10    1.07    0.01
   6  32  12    1.34    0.01
   6  32  14    0.02    0.01
   6  32  16    0.47    0.01
   6  32  18    0.30    0.01
   6  32  20    0.03    0.01
   6  32  22    0.51    0.01
   6  32  24    0.11    0.01
   6  32  26    0.02    0.01
   6  32  28    0.43    0.01
   6  32  30    0.15    0.01
   6  33   7    0.10    0.01
   6  33   9    0.25    0.01
   6  33  11    0.22    0.01
   6  33  13    0.33    0.01
   6  33  15    0.36    0.01
   6  33  17    0.64    0.01
   6  33  19    0.16    0.01
   6  33  21    1.57    0.02
   6  33  23    0.11    0.01
   6  33  25    0.75    0.01
   6  33  27    0.03    0.01
   6  33  29    0.00    0.00
   6  34   6    0.05    0.01
   6  34   8    0.15    0.01
   6  34  10    0.02    0.01
   6  34  12    0.57    0.01
   6  34  14    0.28    0.01
   6  34  16    1.20    0.01
   6  34  18    0.22    0.01
   6  34  20    1.29    0.02
   6  34  22    0.10    0.01
   6  34  24    1.24    0.01
   6  34  26    0.19    0.01
   6  34  28    0.10    0.01
   6  35   7    0.05    0.01
   6  35   9    0.02    0.01
   6  35  11    0.06    0.01
   6  35  13    1.04    0.01
   6  35  15    0.45    0.01
   6  35  17    0.00    0.01
   6  35  19    0.59    0.01
   6  35  21    0.20    0.01
   6  35  23    2.29    0.02
   6  35  25    0.81    0.01
   6  35  27    0.63    0.01
   6  36   6    0.89    0.01
   6  36   8    0.13    0.01
   6  36  10    0.54    0.01
   6  36  12    0.08    0.01
   6  36  14    0.98    0.01
   6  36  16    0.05    0.01
   6  36  18    0.07    0.01
   6  36  20    0.03    0.01
   6  36  22    0.43    0.01
   6  36  24    0.10    0.01
   6  36  26    0.59    0.01
   6  37   7    0.11    0.01
   6  37   9    0.55    0.01
   6  37  11    0.03    0.01
   6  37  13    0.22    0.01
   6  37  15    0.35    0.01
   6  37  17    0.03    0.01
   6  37  19    0.01    0.01
   6  37  21    0.32    0.01
   6  37  23    0.27    0.01
   6  37  25    1.23    0.01
   6  38   6    0.14    0.01
   6  38   8    0.26    0.01
   6  38  10    0.00    0.01
   6  38  12    0.07    0.01
   6  38  14    0.38    0.01
   6  38  16    0.06    0.01
   6  38  18    0.86    0.01
   6  38  20    0.27    0.01
   6  38  22    0.09    0.01
   6  38  24    0.34    0.01
   6  39   7    0.78    0.01
   6  39   9    0.05    0.01
   6  39  11    0.17    0.01
   6  39  13    0.05    0.01
   6  39  15    0.01    0.01
   6  39  17    0.51    0.01
   6  39  19    0.07    0.01
   6  39  21    0.06    0.01
   6  40   6    1.79    0.03
   6  40   8    0.66    0.01
   6  40  10    1.26    0.02
   6  40  12    0.23    0.01
   6  40  14    0.04    0.01
   6  40  16    0.44    0.01
   6  40  18    0.39    0.01
   6  40  20    0.85    0.01
   6  41   7    0.00    0.01
   6  41   9    0.10    0.01
   6  41  11    0.00    0.01
   6  41  13    0.00    0.01
   6  41  15    0.24    0.01
   6  41  17    0.20    0.01
   6  42   6    0.02    0.01
   6  42   8    0.35    0.01
   6  42  10    0.21    0.01
   6  42  12    0.11    0.01
   6  42  14    0.09    0.01
   6  42  16    0.26    0.01
   6  43   7    0.07    0.01
   6  43   9    0.01    0.01
   6  43  11    0.08    0.01
   6  43  13    0.02    0.01
   6  44   6    0.05    0.01
   6  44   8    0.02    0.01
   7   8   7   18.71    0.23
   7   9   8   19.60    0.11
   7  10   7    6.60    0.06
   7  10   9   15.15    0.05
   7  11   8    3.92    0.02
   7  11  10    9.61    0.03
   7  12   7    3.66    0.06
   7  12   9    4.90    0.03
   7  12  11    8.64    0.04
   7  13   8    0.02    0.00
   7  13  10    0.67    0.01
   7  13  12    5.86    0.03
   7  14   7    3.98    0.03
   7  14   9    2.20    0.02
   7  14  11    2.08    0.02
   7  14  13    6.49    0.04
   7  15   8    1.21    0.01
   7  15  10    0.34    0.01
   7  15  12    0.05    0.01
   7  15  14    2.59    0.02
   7  16   7    0.17    0.01
   7  16   9    0.00    0.00
   7  16  11    0.01    0.01
   7  16  13    1.18    0.01
   7  16  15    3.19    0.03
   7  17   8    0.45    0.01
   7  17  10    0.01    0.01
   7  17  12    0.26    0.01
   7  17  14    0.02    0.01
   7  17  16    1.31    0.02
   7  18   7   12.33    0.10
   7  18   9    7.00    0.04
   7  18  11    0.41    0.01
   7  18  13    0.11    0.01
   7  18  15    0.98    0.01
   7  18  17    2.53    0.02
   7  19   8    2.20    0.02
   7  19  10    1.76    0.02
   7  19  12    1.52    0.02
   7  19  14    2.20    0.02
   7  19  16    1.10    0.01
   7  19  18    0.17    0.00
   7  20   7   20.47    0.15
   7  20   9   14.37    0.09
   7  20  11    2.17    0.02
   7  20  13    0.02    0.01
   7  20  15    1.05    0.01
   7  20  17    1.38    0.01
   7  20  19    1.00    0.01
   7  21   8    0.65    0.01
   7  21  10    0.07    0.01
   7  21  12    0.04    0.01
   7  21  14    0.04    0.01
   7  21  16    0.45    0.01
   7  21  18    0.07    0.01
   7  21  20    0.37    0.01
   7  22   7   19.26    0.17
   7  22   9   13.01    0.07
   7  22  11    4.08    0.02
   7  22  13    0.04    0.00
   7  22  15    2.14    0.01
   7  22  17    1.76    0.01
   7  22  19    0.82    0.01
   7  22  21    0.97    0.01
   7  23   8    0.88    0.01
   7  23  10    1.08    0.01
   7  23  12    0.01    0.00
   7  23  14    0.30    0.01
   7  23  16    0.33    0.01
   7  23  18    0.52    0.01
   7  23  20    0.50    0.01
   7  23  22    0.02    0.01
   7  24   7   20.74    0.12
   7  24   9   13.65    0.06
   7  24  11    2.62    0.01
   7  24  13    0.09    0.00
   7  24  15    1.10    0.01
   7  24  17    2.49    0.02
   7  24  19    2.49    0.02
   7  24  21    1.47    0.01
   7  24  23    0.75    0.01
   7  25   8    2.97    0.01
   7  25  10    1.91    0.01
   7  25  12    0.17    0.01
   7  25  14    0.11    0.01
   7  25  16    0.55    0.01
   7  25  18    1.41    0.01
   7  25  20    2.46    0.02
   7  25  22    1.36    0.01
   7  25  24    0.02    0.01
   7  26   7   14.94    0.08
   7  26   9    8.37    0.03
   7  26  11    0.90    0.01
   7  26  13    0.05    0.01
   7  26  15    0.66    0.01
   7  26  17    3.15    0.02
   7  26  19    5.18    0.03
   7  26  21    3.10    0.02
   7  26  23    1.67    0.02
   7  26  25    0.45    0.01
   7  27   8    0.34    0.01
   7  27  10    0.05    0.00
   7  27  12    0.00    0.01
   7  27  14    0.31    0.01
   7  27  16    2.19    0.02
   7  27  18    3.44    0.02
   7  27  20    3.16    0.02
   7  27  22    2.59    0.02
   7  27  24    0.76    0.01
   7  27  26    0.02    0.01
   7  28   7    3.55    0.02
   7  28   9    1.57    0.01
   7  28  11    0.17    0.01
   7  28  13    0.01    0.01
   7  28  15    1.27    0.01
   7  28  17    2.91    0.02
   7  28  19    4.14    0.02
   7  28  21    3.76    0.02
   7  28  23    2.00    0.02
   7  28  25    0.68    0.01
   7  28  27    0.34    0.01
   7  29   8    0.22    0.01
   7  29  10    0.16    0.01
   7  29  12    0.08    0.01
   7  29  14    0.11    0.01
   7  29  16    1.24    0.01
   7  29  18    2.13    0.02
   7  29  20    2.15    0.02
   7  29  22    1.53    0.02
   7  29  24    0.89    0.01
   7  29  26    0.11    0.01
   7  29  28    0.05    0.01
   7  30   7    0.00    0.01
   7  30   9    0.01    0.01
   7  30  11    0.03    0.01
   7  30  13    0.35    0.01
   7  30  15    1.72    0.01
   7  30  17    1.77    0.01
   7  30  19    1.63    0.01
   7  30  21    1.70    0.02
   7  30  23    1.23    0.01
   7  30  25    0.33    0.01
   7  30  27    0.10    0.01
   7  30  29    0.06    0.01
   7  31   8    0.19    0.01
   7  31  10    0.14    0.01
   7  31  12    0.03    0.01
   7  31  14    0.35    0.01
   7  31  16    0.26    0.01
   7  31  18    0.31    0.01
   7  31  20    0.54    0.01
   7  31  22    0.17    0.01
   7  31  24    0.00    0.01
   7  31  26    0.00    0.01
   7  31  28    0.02    0.01
   7  31  30    0.09    0.01
   7  32   7    0.50    0.01
   7  32   9    0.13    0.01
   7  32  11    0.90    0.01
   7  32  13    1.20    0.01
   7  32  15    0.84    0.01
   7  32  17    0.75    0.01
   7  32  19    0.68    0.01
   7  32  21    0.17    0.01
   7  32  23    0.07    0.01
   7  32  25    0.05    0.01
   7  32  27    0.03    0.01
   7  32  29    0.00    0.01
   7  32  31    0.11    0.01
   7  33   8    0.61    0.01
   7  33  10    2.82    0.02
   7  33  12    3.89    0.02
   7  33  14    2.57    0.02
   7  33  16    1.75    0.01
   7  33  18    1.15    0.01
   7  33  20    0.47    0.01
   7  33  22    0.19    0.01
   7  33  24    0.04    0.01
   7  33  26    0.02    0.00
   7  33  28    0.03    0.01
   7  33  30    0.04    0.01
   7  34   7    0.94    0.01
   7  34   9    1.58    0.01
   7  34  11    2.21    0.02
   7  34  13    1.14    0.01
   7  34  15    0.58    0.01
   7  34  17    0.23    0.01
   7  34  19    0.00    0.01
   7  34  21    0.16    0.01
   7  34  23    0.30    0.01
   7  34  25    0.14    0.01
   7  34  27    0.01    0.01
   7  34  29    0.00    0.01
   7  35   8    0.65    0.01
   7  35  10    2.31    0.02
   7  35  12    2.21    0.02
   7  35  14    1.10    0.02
   7  35  16    0.38    0.01
   7  35  18    0.00    0.01
   7  35  20    0.32    0.01
   7  35  22    0.52    0.01
   7  35  24    0.35    0.01
   7  35  26    0.14    0.01
   7  35  28    0.02    0.00
   7  36   7    1.86    0.02
   7  36   9    3.53    0.02
   7  36  11    2.94    0.02
   7  36  13    1.21    0.02
   7  36  15    0.45    0.01
   7  36  17    0.01    0.01
   7  36  19    0.78    0.01
   7  36  21    1.65    0.02
   7  36  23    1.77    0.02
   7  36  25    1.15    0.01
   7  37   8    1.05    0.02
   7  37  10    1.21    0.02
   7  37  12    0.99    0.02
   7  37  14    0.52    0.01
   7  37  16    0.00    0.01
   7  37  18    0.55    0.01
   7  37  20    1.14    0.01
   7  37  22    1.28    0.01
   7  37  24    0.73    0.01
   7  38   7    2.47    0.03
   7  38   9    2.59    0.02
   7  38  11    2.79    0.02
   7  38  13    1.43    0.02
   7  38  15    0.09    0.01
   7  38  17    0.52    0.01
   7  38  19    2.11    0.02
   7  38  21    3.70    0.03
   7  38  23    3.59    0.03
   7  39   8    1.58    0.02
   7  39  10    1.98    0.02
   7  39  12    1.46    0.02
   7  39  14    0.36    0.01
   7  39  16    0.04    0.01
   7  39  18    0.74    0.01
   7  39  20    1.46    0.02
   7  39  22    1.56    0.02
   7  40   7    1.36    0.02
   7  40   9    1.30    0.02
   7  40  11    1.69    0.02
   7  40  13    0.79    0.01
   7  40  15    0.00    0.01
   7  40  17    0.78    0.01
   7  40  19    2.28    0.02
   7  41   8    0.08    0.01
   7  41  10    0.61    0.01
   7  41  12    0.30    0.01
   7  41  14    0.02    0.01
   7  41  16    0.29    0.01
   7  41  18    0.72    0.01
   7  42   7    0.39    0.01
   7  42   9    0.78    0.01
   7  42  11    0.50    0.01
   7  42  13    0.07    0.01
   7  42  15    0.00    0.01
   7  43   8    0.12    0.01
   7  43  10    0.08    0.01
   7  43  12    0.00    0.01
   7  44   7    0.08    0.01
   7  44   9    0.16    0.01
   8   8   8   34.68    0.26
   8   9   9    3.78    0.03
   8  10   8    2.43    0.01
   8  10  10    4.68    0.03
   8  11   9    1.00    0.01
   8  11  11    4.01    0.02
   8  12   8    0.20    0.02
   8  12  10    0.63    0.01
   8  12  12    3.55    0.03
   8  13   9    0.08    0.00
   8  13  11    4.89    0.02
   8  13  13    4.09    0.03
   8  14   8    0.11    0.01
   8  14  10    0.19    0.01
   8  14  12    4.02    0.03
   8  14  14    1.92    0.02
   8  15   9    1.18    0.01
   8  15  11    0.17    0.01
   8  15  13    3.87    0.02
   8  15  15    5.18    0.04
   8  16   8    1.04    0.01
   8  16  10    0.23    0.01
   8  16  12    0.25    0.01
   8  16  14    0.00    0.01
   8  16  16    1.01    0.03
   8  17   9    1.16    0.02
   8  17  11    1.49    0.01
   8  17  13    2.21    0.02
   8  17  15    1.07    0.01
   8  17  17    5.55    0.04
   8  18   8    8.39    0.08
   8  18  10    5.72    0.03
   8  18  12    5.46    0.03
   8  18  14    0.69    0.01
   8  18  16    1.01    0.01
   8  18  18    2.74    0.02
   8  19   9    0.70    0.01
   8  19  11    2.88    0.02
   8  19  13    0.89    0.01
   8  19  15    3.07    0.02
   8  19  17    0.01    0.00
   8  19  19    1.52    0.01
   8  20   8    4.56    0.06
   8  20  10   10.41    0.06
   8  20  12    4.20    0.03
   8  20  14    3.24    0.02
   8  20  16    0.22    0.01
   8  20  18    0.15    0.01
   8  20  20    5.64    0.04
   8  21   9    0.83    0.01
   8  21  11    0.41    0.01
   8  21  13    2.51    0.02
   8  21  15    0.08    0.01
   8  21  17    0.40    0.01
   8  21  19    0.44    0.01
   8  21  21    0.46    0.01
   8  22   8   15.18    0.12
   8  22  10    9.90    0.05
   8  22  12   10.04    0.04
   8  22  14    0.84    0.01
   8  22  16    0.35    0.01
   8  22  18    0.76    0.01
   8  22  20    0.17    0.01
   8  22  22    7.41    0.05
   8  23   9    0.15    0.01
   8  23  11    0.35    0.01
   8  23  13    0.14    0.01
   8  23  15    0.47    0.01
   8  23  17    0.04    0.01
   8  23  19    0.02    0.01
   8  23  21    2.97    0.02
   8  23  23    0.21    0.01
   8  24   8    4.28    0.03
   8  24  10    4.83    0.02
   8  24  12    2.32    0.01
   8  24  14    0.36    0.01
   8  24  16    0.06    0.01
   8  24  18    0.14    0.01
   8  24  20    1.68    0.01
   8  24  22    0.51    0.01
   8  24  24    3.94    0.04
   8  25   9    0.55    0.01
   8  25  11    0.12    0.00
   8  25  13    0.04    0.01
   8  25  15    0.18    0.01
   8  25  17    0.01    0.01
   8  25  19    0.29    0.01
   8  25  21    0.80    0.01
   8  25  23    4.15    0.03
   8  25  25    1.68    0.02
   8  26   8    1.38    0.02
   8  26  10    0.98    0.01
   8  26  12    0.52    0.01
   8  26  14    0.00    0.01
   8  26  16    0.00    0.01
   8  26  18    0.23    0.01
   8  26  20    0.74    0.01
   8  26  22    1.58    0.02
   8  26  24    0.79    0.01
   8  26  26    1.10    0.02
   8  27   9    0.26    0.01
   8  27  11    0.34    0.01
   8  27  13    0.00    0.01
   8  27  15    0.11    0.01
   8  27  17    0.00    0.01
   8  27  19    0.56    0.01
   8  27  21    0.82    0.01
   8  27  23    1.67    0.02
   8  27  25    1.55    0.01
   8  27  27    1.28    0.02
   8  28   8    0.03    0.01
   8  28  10    0.28    0.01
   8  28  12    0.02    0.01
   8  28  14    0.06    0.01
   8  28  16    0.54    0.01
   8  28  18    0.88    0.01
   8  28  20    0.13    0.01
   8  28  22    0.26    0.01
   8  28  24    0.03    0.01
   8  28  26    0.29    0.01
   8  28  28    0.00    0.01
   8  29   9    0.37    0.01
   8  29  11    0.09    0.01
   8  29  13    0.05    0.01
   8  29  15    0.19    0.01
   8  29  17    0.06    0.01
   8  29  19    0.09    0.01
   8  29  21    0.38    0.01
   8  29  23    0.40    0.01
   8  29  25    0.73    0.01
   8  29  27    0.17    0.01
   8  29  29    0.00    0.01
   8  30   8    1.43    0.02
   8  30  10    0.07    0.01
   8  30  12    0.24    0.01
   8  30  14    1.47    0.01
   8  30  16    0.31    0.01
   8  30  18    0.80    0.01
   8  30  20    0.19    0.01
   8  30  22    0.02    0.01
   8  30  24    0.01    0.01
   8  30  26    0.00    0.01
   8  30  28    0.06    0.01
   8  30  30    0.01    0.01
   8  31   9    0.20    0.01
   8  31  11    0.01    0.01
   8  31  13    0.09    0.01
   8  31  15    0.10    0.01
   8  31  17    0.17    0.01
   8  31  19    0.04    0.01
   8  31  21    0.03    0.01
   8  31  23    0.29    0.01
   8  31  25    0.02    0.01
   8  31  27    0.18    0.01
   8  31  29    0.18    0.01
   8  31  31    0.91    0.02
   8  32   8    0.53    0.01
   8  32  10    0.08    0.01
   8  32  12    0.08    0.01
   8  32  14    0.62    0.01
   8  32  16    0.03    0.01
   8  32  18    0.46    0.01
   8  32  20    0.32    0.01
   8  32  22    1.68    0.02
   8  32  24    0.59    0.01
   8  32  26    1.23    0.01
   8  32  28    1.00    0.01
   8  32  30    0.91    0.01
   8  33   9    0.08    0.01
   8  33  11    0.11    0.01
   8  33  13    0.13    0.01
   8  33  15    0.59    0.01
   8  33  17    0.15    0.01
   8  33  19    0.03    0.01
   8  33  21    1.39    0.01
   8  33  23    0.50    0.01
   8  33  25    2.03    0.02
   8  33  27    1.21    0.01
   8  33  29    0.91    0.01
   8  34   8    0.55    0.01
   8  34  10    0.08    0.01
   8  34  12    0.16    0.01
   8  34  14    0.93    0.01
   8  34  16    0.03    0.01
   8  34  18    0.18    0.01
   8  34  20    0.16    0.01
   8  34  22    0.00    0.01
   8  34  24    1.16    0.01
   8  34  26    0.63    0.01
   8  34  28    0.96    0.01
   8  35   9    0.38    0.01
   8  35  11    0.25    0.01
   8  35  13    0.56    0.01
   8  35  15    0.17    0.01
   8  35  17    0.08    0.01
   8  35  19    0.26    0.01
   8  35  21    0.22    0.01
   8  35  23    2.39    0.02
   8  35  25    1.55    0.01
   8  35  27    1.74    0.02
   8  36   8    0.06    0.01
   8  36  10    0.16    0.01
   8  36  12    0.05    0.01
   8  36  14    0.34    0.01
   8  36  16    0.34    0.01
   8  36  18    0.03    0.01
   8  36  20    0.06    0.01
   8  36  22    0.36    0.01
   8  36  24    0.40    0.01
   8  36  26    1.25    0.01
   8  37   9    1.32    0.02
   8  37  11    0.11    0.01
   8  37  13    0.34    0.01
   8  37  15    0.41    0.01
   8  37  17    0.00    0.01
   8  37  19    0.03    0.01
   8  37  21    0.21    0.01
   8  37  23    0.34    0.01
   8  37  25    1.28    0.02
   8  38   8    1.71    0.03
   8  38  10    0.62    0.01
   8  38  12    0.96    0.01
   8  38  14    0.00    0.01
   8  38  16    0.01    0.01
   8  38  18    0.47    0.01
   8  38  20    0.19    0.01
   8  38  22    0.06    0.01
   8  39   9    0.34    0.01
   8  39  11    0.39    0.01
   8  39  13    0.00    0.01
   8  39  15    0.00    0.01
   8  39  17    0.35    0.01
   8  39  19    0.04    0.01
   8  39  21    0.00    0.01
   8  40   8    0.51    0.01
   8  40  10    0.93    0.01
   8  40  12    0.31    0.01
   8  40  14    0.02    0.01
   8  40  16    0.25    0.01
   8  40  18    0.29    0.01
   8  40  20    0.49    0.01
   8  41   9    0.18    0.01
   8  41  11    0.03    0.01
   8  41  13    0.00    0.01
   8  41  15    0.14    0.01
   8  41  17    0.13    0.01
   8  42   8    1.09    0.02
   8  42  10    0.67    0.01
   8  42  12    0.43    0.01
   8  42  14    0.00    0.01
   8  43   9    0.02    0.01
   8  43  11    0.03    0.01
   8  44   8    0.09    0.01
   9  10   9   11.48    0.06
   9  11  10    8.94    0.03
   9  12   9    2.89    0.03
   9  12  11    7.21    0.03
   9  13  10    0.31    0.01
   9  13  12    2.75    0.02
   9  14   9    0.75    0.02
   9  14  11    1.68    0.02
   9  14  13    2.84    0.02
   9  15  10    1.44    0.01
   9  15  12    0.41    0.01
   9  15  14    0.48    0.01
   9  16   9    0.29    0.01
   9  16  11    0.59    0.01
   9  16  13    1.13    0.01
   9  16  15    1.96    0.02
   9  17  10    1.23    0.01
   9  17  12    2.28    0.02
   9  17  14    0.93    0.01
   9  17  16    0.53    0.01
   9  18   9    1.59    0.02
   9  18  11    0.12    0.01
   9  18  13    0.79    0.01
   9  18  15    1.05    0.01
   9  18  17    2.61    0.01
   9  19  10    1.84    0.02
   9  19  12    1.60    0.02
   9  19  14    1.73    0.02
   9  19  16    0.46    0.01
   9  19  18    0.75    0.01
   9  20   9    5.95    0.06
   9  20  11    0.42    0.01
   9  20  13    0.75    0.01
   9  20  15    1.20    0.01
   9  20  17    2.20    0.01
   9  20  19    2.01    0.01
   9  21  10    2.34    0.02
   9  21  12    1.23    0.01
   9  21  14    1.05    0.01
   9  21  16    1.15    0.01
   9  21  18    0.09    0.01
   9  21  20    0.67    0.01
   9  22   9    4.80    0.04
   9  22  11    1.49    0.01
   9  22  13    0.51    0.01
   9  22  15    2.28    0.02
   9  22  17    2.91    0.02
   9  22  19    1.31    0.01
   9  22  21    1.48    0.02
   9  23  10    0.02    0.00
   9  23  12    0.18    0.01
   9  23  14    0.53    0.01
   9  23  16    0.32    0.01
   9  23  18    0.22    0.01
   9  23  20    0.14    0.01
   9  23  22    0.16    0.01
   9  24   9    6.12    0.04
   9  24  11    1.33    0.01
   9  24  13    0.15    0.01
   9  24  15    0.76    0.01
   9  24  17    2.76    0.02
   9  24  19    1.93    0.01
   9  24  21    1.38    0.01
   9  24  23    0.73    0.01
   9  25  10    0.28    0.01
   9  25  12    0.00    0.00
   9  25  14    0.15    0.01
   9  25  16    0.29    0.01
   9  25  18    0.48    0.01
   9  25  20    0.75    0.01
   9  25  22    0.22    0.01
   9  25  24    0.15    0.01
   9  26   9    3.65    0.03
   9  26  11    0.68    0.01
   9  26  13    0.00    0.01
   9  26  15    0.07    0.01
   9  26  17    1.99    0.02
   9  26  19    2.56    0.02
   9  26  21    1.86    0.02
   9  26  23    1.08    0.01
   9  26  25    0.97    0.01
   9  27  10    0.14    0.01
   9  27  12    0.37    0.01
   9  27  14    0.06    0.01
   9  27  16    0.30    0.01
   9  27  18    0.82    0.01
   9  27  20    0.94    0.01
   9  27  22    1.22    0.01
   9  27  24    0.40    0.01
   9  27  26    0.03    0.01
   9  28   9    0.89    0.01
   9  28  11    0.72    0.01
   9  28  13    0.07    0.01
   9  28  15    0.01    0.01
   9  28  17    0.79    0.01
   9  28  19    1.14    0.01
   9  28  21    1.82    0.02
   9  28  23    1.15    0.01
   9  28  25    1.00    0.02
   9  28  27    0.27    0.01
   9  29  10    0.64    0.01
   9  29  12    0.96    0.01
   9  29  14    0.23    0.01
   9  29  16    0.04    0.01
   9  29  18    0.28    0.01
   9  29  20    0.42    0.01
   9  29  22    0.44    0.01
   9  29  24    0.39    0.01
   9  29  26    0.04    0.01
   9  29  28    0.06    0.01
   9  30   9    0.29    0.01
   9  30  11    0.70    0.01
   9  30  13    0.05    0.01
   9  30  15    0.05    0.01
   9  30  17    0.30    0.01
   9  30  19    0.37    0.01
   9  30  21    1.17    0.01
   9  30  23    1.51    0.02
   9  30  25    1.16    0.01
   9  30  27    0.35    0.01
   9  30  29    0.31    0.01
   9  31  10    0.15    0.01
   9  31  12    0.52    0.01
   9  31  14    1.17    0.01
   9  31  16    0.87    0.01
   9  31  18    1.04    0.01
   9  31  20    1.70    0.01
   9  31  22    1.26    0.01
   9  31  24    0.78    0.01
   9  31  26    0.60    0.01
   9  31  28    0.42    0.01
   9  31  30    0.01    0.01
   9  32   9    0.12    0.01
   9  32  11    0.06    0.01
   9  32  13    0.01    0.01
   9  32  15    0.03    0.01
   9  32  17    0.01    0.01
   9  32  19    0.11    0.01
   9  32  21    0.13    0.01
   9  32  23    0.35    0.01
   9  32  25    0.74    0.01
   9  32  27    0.39    0.01
   9  32  29    0.24    0.01
   9  32  31    0.03    0.01
   9  33  10    0.20    0.01
   9  33  12    0.48    0.01
   9  33  14    0.20    0.01
   9  33  16    0.07    0.01
   9  33  18    0.04    0.01
   9  33  20    0.00    0.01
   9  33  22    0.00    0.01
   9  33  24    0.01    0.01
   9  33  26    0.06    0.01
   9  33  28    0.16    0.01
   9  34   9    1.48    0.02
   9  34  11    0.88    0.01
   9  34  13    0.26    0.01
   9  34  15    0.00    0.01
   9  34  17    0.01    0.01
   9  34  19    0.17    0.01
   9  34  21    0.26    0.01
   9  34  23    0.15    0.01
   9  34  25    0.01    0.01
   9  34  27    0.06    0.01
   9  35  10    1.22    0.01
   9  35  12    1.03    0.01
   9  35  14    0.48    0.01
   9  35  16    0.11    0.01
   9  35  18    0.01    0.01
   9  35  20    0.21    0.01
   9  35  22    0.18    0.01
   9  35  24    0.01    0.01
   9  35  26    0.04    0.01
   9  36   9    4.39    0.04
   9  36  11    2.28    0.02
   9  36  13    0.74    0.01
   9  36  15    0.05    0.01
   9  36  17    0.17    0.01
   9  36  19    1.26    0.01
   9  36  21    1.70    0.02
   9  36  23    1.50    0.01
   9  36  25    0.58    0.01
   9  37  10    1.02    0.02
   9  37  12    0.80    0.01
   9  37  14    0.55    0.01
   9  37  16    0.00    0.01
   9  37  18    0.43    0.01
   9  37  20    0.94    0.01
   9  37  22    1.05    0.01
   9  37  24    0.46    0.01
   9  38   9    2.28    0.03
   9  38  11    1.83    0.02
   9  38  13    1.11    0.01
   9  38  15    0.02    0.01
   9  38  17    0.38    0.01
   9  38  19    1.51    0.02
   9  38  21    2.35    0.02
   9  38  23    2.27    0.02
   9  39  10    0.50    0.01
   9  39  12    0.43    0.01
   9  39  14    0.10    0.01
   9  39  16    0.07    0.01
   9  39  18    0.47    0.01
   9  39  20    0.87    0.01
   9  40   9    1.12    0.02
   9  40  11    1.18    0.01
   9  40  13    0.73    0.01
   9  40  15    0.00    0.01
   9  40  17    0.37    0.01
   9  40  19    1.31    0.02
   9  41  10    0.54    0.01
   9  41  12    0.28    0.01
   9  41  14    0.00    0.01
   9  41  16    0.10    0.01
   9  42   9    1.25    0.02
   9  42  11    0.68    0.01
   9  42  13    0.20    0.01
   9  43  10    0.00    0.01
  10  10  10   11.48    0.17
  10  11  11    0.46    0.01
  10  12  10    1.44    0.02
  10  12  12    0.07    0.01
  10  13  11    2.14    0.02
  10  13  13    5.66    0.06
  10  14  10    1.45    0.02
  10  14  12    0.48    0.01
  10  14  14    3.48    0.04
  10  15  11    2.05    0.02
  10  15  13   11.11    0.07
  10  15  15   14.71    0.13
  10  16  10    1.58    0.03
  10  16  12    6.23    0.04
  10  16  14    5.43    0.04
  10  16  16    1.61    0.03
  10  17  11    4.36    0.03
  10  17  13    6.87    0.05
  10  17  15    8.25    0.06
  10  17  17   15.83    0.10
  10  18  10   10.35    0.10
  10  18  12   12.75    0.08
  10  18  14    7.87    0.05
  10  18  16    5.31    0.03
  10  18  18    0.35    0.01
  10  19  11    5.63    0.03
  10  19  13    4.23    0.03
  10  19  15    8.73    0.04
  10  19  17    1.28    0.01
  10  19  19    2.72    0.03
  10  20  10   19.19    0.14
  10  20  12   11.54    0.06
  10  20  14   11.24    0.05
  10  20  16    0.02    0.01
  10  20  18    0.01    0.01
  10  20  20    5.29    0.04
  10  21  11    3.33    0.02
  10  21  13    5.83    0.03
  10  21  15    1.04    0.01
  10  21  17    1.27    0.01
  10  21  19    0.06    0.01
  10  21  21    0.21    0.01
  10  22  10   10.66    0.05
  10  22  12    8.72    0.04
  10  22  14    1.59    0.01
  10  22  16    0.00    0.01
  10  22  18    0.77    0.01
  10  22  20    1.17    0.01
  10  22  22   11.92    0.08
  10  23  11    0.90    0.01
  10  23  13    0.17    0.01
  10  23  15    0.31    0.01
  10  23  17    0.15    0.01
  10  23  19    0.03    0.01
  10  23  21    5.13    0.03
  10  23  23    1.50    0.02
  10  24  10    5.88    0.03
  10  24  12    1.15    0.01
  10  24  14    0.34    0.01
  10  24  16    0.15    0.01
  10  24  18    0.66    0.01
  10  24  20    5.50    0.03
  10  24  22    3.49    0.02
  10  24  24    9.24    0.08
  10  25  11    0.10    0.01
  10  25  13    0.06    0.01
  10  25  15    0.03    0.01
  10  25  17    0.07    0.01
  10  25  19    1.69    0.01
  10  25  21    3.26    0.02
  10  25  23    6.33    0.03
  10  25  25    2.76    0.03
  10  26  10    0.37    0.01
  10  26  12    0.20    0.01
  10  26  14    0.21    0.01
  10  26  16    2.02    0.02
  10  26  18    2.33    0.02
  10  26  20    4.23    0.02
  10  26  22    3.38    0.02
  10  26  24    2.06    0.02
  10  26  26    0.57    0.01
  10  27  11    0.57    0.01
  10  27  13    0.13    0.01
  10  27  15    0.11    0.01
  10  27  17    0.82    0.01
  10  27  19    3.22    0.02
  10  27  21    3.17    0.02
  10  27  23    3.76    0.02
  10  27  25    2.09    0.02
  10  27  27    0.85    0.02
  10  28  10    1.41    0.02
  10  28  12    0.80    0.01
  10  28  14    1.08    0.01
  10  28  16    5.01    0.03
  10  28  18    4.65    0.03
  10  28  20    2.56    0.02
  10  28  22    2.07    0.02
  10  28  24    0.61    0.01
  10  28  26    0.05    0.01
  10  28  28    0.18    0.01
  10  29  11    0.01    0.01
  10  29  13    0.11    0.01
  10  29  15    1.07    0.01
  10  29  17    0.90    0.01
  10  29  19    0.81    0.01
  10  29  21    1.29    0.01
  10  29  23    0.60    0.01
  10  29  25    0.28    0.01
  10  29  27    0.09    0.01
  10  29  29    1.04    0.02
  10  30  10    0.58    0.01
  10  30  12    0.01    0.01
  10  30  14    0.36    0.01
  10  30  16    0.41    0.01
  10  30  18    0.38    0.01
  10  30  20    0.12    0.01
  10  30  22    0.02    0.01
  10  30  24    0.40    0.01
  10  30  26    1.60    0.01
  10  30  28    1.65    0.01
  10  30  30    2.40    0.03
  10  31  11    0.11    0.01
  10  31  13    0.79    0.01
  10  31  15    0.15    0.01
  10  31  17    0.87    0.01
  10  31  19    0.18    0.01
  10  31  21    0.07    0.01
  10  31  23    0.25    0.01
  10  31  25    0.40    0.01
  10  31  27    1.09    0.01
  10  31  29    1.87    0.02
  10  31  31    3.13    0.03
  10  32  10    0.06    0.01
  10  32  12    0.31    0.01
  10  32  14    0.01    0.01
  10  32  16    1.54    0.01
  10  32  18    0.15    0.01
  10  32  20    0.15    0.01
  10  32  22    0.38    0.01
  10  32  24    0.25    0.01
  10  32  26    1.95    0.02
  10  32  28    1.99    0.02
  10  32  30    2.90    0.02
  10  33  11    0.00    0.01
  10  33  13    0.03    0.01
  10  33  15    0.91    0.01
  10  33  17    0.03    0.01
  10  33  19    0.15    0.01
  10  33  21    0.42    0.01
  10  33  23    0.28    0.01
  10  33  25    2.28    0.02
  10  33  27    2.19    0.02
  10  33  29    2.27    0.02
  10  34  10    0.01    0.01
  10  34  12    0.09    0.01
  10  34  14    0.74    0.01
  10  34  16    0.05    0.01
  10  34  18    0.35    0.01
  10  34  20    0.09    0.01
  10  34  22    0.07    0.01
  10  34  24    1.74    0.01
  10  34  26    2.07    0.02
  10  34  28    2.19    0.02
  10  35  11    0.36    0.01
  10  35  13    0.60    0.01
  10  35  15    0.01    0.01
  10  35  17    0.48    0.01
  10  35  19    0.00    0.01
  10  35  21    0.03    0.01
  10  35  23    1.48    0.01
  10  35  25    1.43    0.01
  10  35  27    1.96    0.02
  10  36  10    0.21    0.01
  10  36  12    0.04    0.01
  10  36  14    0.27    0.01
  10  36  16    0.67    0.01
  10  36  18    0.11    0.01
  10  36  20    0.14    0.01
  10  36  22    0.19    0.01
  10  36  24    0.26    0.01
  10  37  11    0.04    0.01
  10  37  13    0.08    0.01
  10  37  15    0.56    0.01
  10  37  17    0.03    0.01
  10  37  19    0.01    0.01
  10  37  21    0.26    0.01
  10  37  23    0.48    0.01
  10  38  10    0.26    0.01
  10  38  12    0.33    0.01
  10  38  14    0.01    0.01
  10  38  16    0.00    0.01
  10  38  18    0.24    0.01
  10  38  20    0.08    0.01
  10  38  22    0.00    0.01
  10  39  11    0.31    0.01
  10  39  13    0.00    0.01
  10  39  15    0.00    0.01
  10  39  17    0.25    0.01
  10  39  19    0.01    0.01
  10  39  21    0.01    0.01
  10  40  10    1.33    0.02
  10  40  12    0.47    0.01
  10  40  14    0.16    0.01
  10  40  16    0.05    0.01
  10  40  18    0.06    0.01
  10  41  11    0.13    0.01
  10  41  13    0.02    0.01
  10  41  15    0.02    0.01
  10  42  10    0.54    0.01
  10  42  12    0.32    0.01
  10  42  14    0.02    0.01
  11  12  11    2.65    0.03
  11  13  12    0.01    0.01
  11  14  11    0.41    0.01
  11  14  13    0.11    0.01
  11  15  12    1.62    0.02
  11  15  14    0.01    0.01
  11  16  11    0.19    0.01
  11  16  13    0.05    0.01
  11  16  15    0.73    0.01
  11  17  12    6.40    0.04
  11  17  14    2.48    0.02
  11  17  16    0.03    0.01
  11  18  11    1.24    0.02
  11  18  13    0.71    0.01
  11  18  15    1.43    0.01
  11  18  17    1.39    0.01
  11  19  12    5.41    0.03
  11  19  14    2.82    0.02
  11  19  16    0.42    0.01
  11  19  18    0.68    0.01
  11  20  11    0.57    0.01
  11  20  13    1.41    0.01
  11  20  15    3.21    0.02
  11  20  17    2.04    0.01
  11  20  19    2.83    0.02
  11  21  12    3.04    0.02
  11  21  14    1.44    0.01
  11  21  16    0.79    0.01
  11  21  18    0.07    0.01
  11  21  20    0.87    0.01
  11  22  11    0.06    0.01
  11  22  13    0.41    0.01
  11  22  15    3.94    0.02
  11  22  17    2.23    0.02
  11  22  19    2.09    0.02
  11  22  21    1.63    0.02
  11  23  12    1.82    0.01
  11  23  14    1.22    0.01
  11  23  16    0.46    0.01
  11  23  18    0.26    0.01
  11  23  20    0.01    0.01
  11  23  22    0.60    0.01
  11  24  11    0.03    0.01
  11  24  13    0.06    0.01
  11  24  15    1.42    0.01
  11  24  17    1.03    0.01
  11  24  19    1.45    0.01
  11  24  21    0.67    0.01
  11  24  23    0.84    0.02
  11  25  12    0.02    0.01
  11  25  14    0.09    0.01
  11  25  16    0.08    0.01
  11  25  18    0.00    0.01
  11  25  20    0.02    0.01
  11  25  22    0.01    0.01
  11  25  24    0.24    0.01
  11  26  11    0.08    0.01
  11  26  13    0.22    0.01
  11  26  15    0.03    0.01
  11  26  17    0.10    0.01
  11  26  19    0.64    0.01
  11  26  21    0.29    0.01
  11  26  23    0.57    0.01
  11  26  25    0.49    0.01
  11  27  12    1.18    0.01
  11  27  14    1.22    0.01
  11  27  16    0.26    0.01
  11  27  18    0.01    0.01
  11  27  20    0.01    0.01
  11  27  22    0.01    0.01
  11  27  24    0.00    0.01
  11  27  26    0.22    0.01
  11  28  11    1.15    0.01
  11  28  13    1.49    0.01
  11  28  15    0.18    0.01
  11  28  17    0.08    0.01
  11  28  19    0.11    0.01
  11  28  21    0.58    0.01
  11  28  23    1.02    0.01
  11  28  25    0.94    0.01
  11  28  27    0.88    0.01
  11  29  12    0.07    0.01
  11  29  14    0.04    0.01
  11  29  16    0.11    0.01
  11  29  18    0.47    0.01
  11  29  20    0.66    0.01
  11  29  22    0.76    0.01
  11  29  24    1.05    0.01
  11  29  26    0.55    0.01
  11  29  28    0.00    0.01
  11  30  11    2.37    0.02
  11  30  13    2.40    0.02
  11  30  15    0.60    0.01
  11  30  17    0.63    0.01
  11  30  19    0.06    0.01
  11  30  21    0.30    0.01
  11  30  23    1.49    0.02
  11  30  25    1.32    0.01
  11  30  27    1.14    0.01
  11  30  29    0.21    0.01
  11  31  12    0.07    0.01
  11  31  14    0.03    0.01
  11  31  16    0.06    0.01
  11  31  18    0.00    0.01
  11  31  20    0.18    0.01
  11  31  22    0.26    0.01
  11  31  24    0.42    0.01
  11  31  26    0.70    0.01
  11  31  28    0.48    0.01
  11  31  30    0.01    0.00
  11  32  11    0.54    0.01
  11  32  13    1.03    0.01
  11  32  15    1.15    0.01
  11  32  17    1.29    0.01
  11  32  19    0.34    0.01
  11  32  21    0.03    0.01
  11  32  23    0.30    0.01
  11  32  25    0.83    0.01
  11  32  27    1.14    0.01
  11  32  29    0.29    0.01
  11  33  12    0.01    0.01
  11  33  14    0.29    0.01
  11  33  16    0.30    0.01
  11  33  18    0.12    0.01
  11  33  20    0.05    0.01
  11  33  22    0.03    0.01
  11  33  24    0.29    0.01
  11  33  26    0.80    0.01
  11  33  28    1.01    0.01
  11  34  11    0.03    0.01
  11  34  13    0.36    0.01
  11  34  15    0.62    0.01
  11  34  17    1.08    0.01
  11  34  19    1.04    0.01
  11  34  21    0.51    0.01
  11  34  23    0.02    0.01
  11  34  25    0.12    0.01
  11  34  27    0.58    0.01
  11  35  12    0.11    0.01
  11  35  14    0.00    0.01
  11  35  16    0.05    0.01
  11  35  18    0.29    0.01
  11  35  20    0.39    0.01
  11  35  22    0.12    0.01
  11  35  24    0.01    0.00
  11  35  26    0.32    0.01
  11  36  11    0.55    0.02
  11  36  13    0.00    0.01
  11  36  15    0.06    0.01
  11  36  17    0.66    0.01
  11  36  19    1.13    0.01
  11  36  21    0.93    0.01
  11  36  23    0.33    0.01
  11  36  25    0.03    0.01
  11  37  12    0.01    0.01
  11  37  14    0.01    0.01
  11  37  16    0.04    0.01
  11  37  18    0.35    0.01
  11  37  20    0.42    0.01
  11  37  22    0.26    0.01
  11  37  24    0.02    0.01
  11  38  11    1.09    0.02
  11  38  13    0.39    0.01
  11  38  15    0.01    0.01
  11  38  17    0.36    0.01
  11  38  19    0.78    0.01
  11  38  21    1.07    0.01
  11  39  12    0.19    0.01
  11  39  14    0.04    0.01
  11  39  16    0.01    0.01
  11  39  18    0.12    0.01
  11  39  20    0.26    0.01
  11  40  11    1.11    0.02
  11  40  13    0.56    0.01
  11  40  15    0.07    0.01
  11  40  17    0.09    0.01
  11  41  12    0.04    0.01
  11  41  14    0.01    0.01
  11  41  16    0.00    0.01
  11  42  11    0.38    0.01
  11  42  13    0.12    0.01
  12  12  12    2.15    0.05
  12  13  13    1.51    0.03
  12  14  12    3.63    0.04
  12  14  14    8.81    0.07
  12  15  13    9.23    0.06
  12  15  15   12.99    0.12
  12  16  12   18.56    0.17
  12  16  14   13.71    0.09
  12  16  16   10.27    0.09
  12  17  13    9.41    0.06
  12  17  15   10.58    0.05
  12  17  17   17.33    0.11
  12  18  12   19.80    0.17
  12  18  14   11.19    0.06
  12  18  16   10.84    0.06
  12  18  18    0.08    0.01
  12  19  13    6.64    0.04
  12  19  15   11.17    0.05
  12  19  17    2.32    0.02
  12  19  19    4.40    0.03
  12  20  12   13.61    0.08
  12  20  14    9.98    0.04
  12  20  16    0.72    0.01
  12  20  18    0.01    0.01
  12  20  20    2.94    0.03
  12  21  13    6.61    0.03
  12  21  15    1.20    0.01
  12  21  17    1.32    0.01
  12  21  19    0.16    0.01
  12  21  21    0.62    0.02
  12  22  12   10.84    0.07
  12  22  14    0.90    0.01
  12  22  16    0.30    0.01
  12  22  18    0.55    0.01
  12  22  20    0.80    0.01
  12  22  22   13.14    0.10
  12  23  13    0.48    0.01
  12  23  15    0.17    0.01
  12  23  17    0.11    0.01
  12  23  19    0.00    0.01
  12  23  21    5.07    0.03
  12  23  23    2.47    0.03
  12  24  12    0.00    0.01
  12  24  14    1.28    0.01
  12  24  16    0.54    0.01
  12  24  18    2.53    0.02
  12  24  20    7.25    0.04
  12  24  22    5.73    0.03
  12  24  24    9.30    0.07
  12  25  13    0.04    0.01
  12  25  15    0.00    0.01
  12  25  17    0.23    0.01
  12  25  19    2.12    0.02
  12  25  21    3.88    0.02
  12  25  23    6.64    0.04
  12  25  25    2.62    0.03
  12  26  12    1.40    0.02
  12  26  14    2.63    0.02
  12  26  16    2.41    0.02
  12  26  18    5.32    0.03
  12  26  20    6.31    0.04
  12  26  22    5.50    0.03
  12  26  24    2.72    0.02
  12  26  26    1.14    0.02
  12  27  13    0.31    0.01
  12  27  15    0.48    0.01
  12  27  17    1.59    0.02
  12  27  19    3.28    0.02
  12  27  21    2.59    0.02
  12  27  23    3.18    0.02
  12  27  25    1.10    0.01
  12  27  27    0.01    0.01
  12  28  12    0.15    0.01
  12  28  14    1.15    0.01
  12  28  16    2.28    0.02
  12  28  18    3.36    0.02
  12  28  20    1.13    0.01
  12  28  22    1.10    0.01
  12  28  24    0.01    0.01
  12  28  26    0.17    0.01
  12  28  28    2.37    0.03
  12  29  13    0.54    0.01
  12  29  15    2.80    0.02
  12  29  17    2.31    0.02
  12  29  19    1.38    0.01
  12  29  21    1.58    0.02
  12  29  23    0.61    0.01
  12  29  25    0.03    0.01
  12  29  27    1.00    0.01
  12  29  29    2.89    0.03
  12  30  12    0.39    0.01
  12  30  14    3.16    0.02
  12  30  16    1.48    0.01
  12  30  18    1.83    0.02
  12  30  20    1.00    0.01
  12  30  22    0.28    0.01
  12  30  24    0.23    0.01
  12  30  26    1.51    0.01
  12  30  28    3.02    0.02
  12  30  30    2.66    0.03
  12  31  13    1.39    0.01
  12  31  15    1.16    0.01
  12  31  17    2.34    0.02
  12  31  19    1.19    0.01
  12  31  21    0.75    0.01
  12  31  23    0.01    0.01
  12  31  25    0.37    0.01
  12  31  27    1.60    0.01
  12  31  29    3.01    0.02
  12  31  31    4.08    0.05
  12  32  12    1.42    0.02
  12  32  14    1.37    0.01
  12  32  16    2.69    0.02
  12  32  18    1.02    0.01
  12  32  20    0.63    0.01
  12  32  22    0.12    0.01
  12  32  24    0.46    0.01
  12  32  26    2.24    0.02
  12  32  28    3.72    0.02
  12  33  13    0.07    0.01
  12  33  15    2.07    0.02
  12  33  17    0.61    0.01
  12  33  19    0.92    0.01
  12  33  21    0.01    0.01
  12  33  23    0.03    0.01
  12  33  25    1.64    0.01
  12  33  27    2.20    0.02
  12  34  12    0.09    0.01
  12  34  14    0.99    0.01
  12  34  16    0.03    0.01
  12  34  18    0.54    0.01
  12  34  20    0.02    0.01
  12  34  22    0.01    0.01
  12  34  24    1.52    0.01
  12  34  26    1.59    0.01
  12  35  13    1.02    0.01
  12  35  15    0.16    0.01
  12  35  17    1.02    0.01
  12  35  19    0.05    0.01
  12  35  21    0.00    0.01
  12  35  23    0.83    0.01
  12  35  25    1.00    0.01
  12  36  12    0.43    0.01
  12  36  14    0.01    0.01
  12  36  16    0.75    0.01
  12  36  18    0.13    0.01
  12  36  20    0.05    0.01
  12  36  22    0.18    0.01
  12  36  24    0.36    0.01
  12  37  13    0.00    0.01
  12  37  15    0.92    0.01
  12  37  17    0.08    0.01
  12  37  19    0.03    0.01
  12  37  21    0.13    0.01
  12  37  23    0.30    0.01
  12  38  12    0.30    0.01
  12  38  14    0.03    0.01
  12  38  16    0.04    0.01
  12  38  18    0.06    0.01
  12  38  20    0.00    0.01
  12  39  13    0.01    0.01
  12  39  15    0.01    0.01
  12  39  17    0.13    0.01
  12  39  19    0.00    0.01
  12  40  12    0.14    0.01
  12  40  14    0.02    0.01
  12  40  16    0.00    0.01
  12  41  13    0.01    0.01
  12  41  15    0.00    0.01
  12  42  12    0.33    0.01
  13  14  13    0.06    0.01
  13  15  14    2.50    0.03
  13  16  13    0.05    0.01
  13  16  15    0.04    0.01
  13  17  14    4.33    0.03
  13  17  16    0.03    0.01
  13  18  13    1.31    0.02
  13  18  15    0.50    0.01
  13  18  17    1.40    0.01
  13  19  14    4.20    0.02
  13  19  16    0.51    0.01
  13  19  18    0.60    0.01
  13  20  13    3.65    0.02
  13  20  15    2.07    0.02
  13  20  17    2.70    0.02
  13  20  19    2.09    0.02
  13  21  14    4.28    0.02
  13  21  16    1.51    0.01
  13  21  18    0.09    0.01
  13  21  20    0.53    0.01
  13  22  13    2.53    0.02
  13  22  15    2.17    0.02
  13  22  17    2.65    0.02
  13  22  19    1.22    0.01
  13  22  21    1.02    0.01
  13  23  14    0.27    0.01
  13  23  16    0.00    0.01
  13  23  18    0.05    0.01
  13  23  20    0.09    0.01
  13  23  22    0.52    0.01
  13  24  13    0.80    0.01
  13  24  15    0.38    0.01
  13  24  17    1.08    0.01
  13  24  19    0.66    0.01
  13  24  21    0.52    0.01
  13  24  23    0.61    0.01
  13  25  14    0.12    0.01
  13  25  16    0.25    0.01
  13  25  18    0.11    0.01
  13  25  20    0.03    0.01
  13  25  22    0.10    0.01
  13  25  24    0.48    0.01
  13  26  13    0.11    0.01
  13  26  15    0.40    0.01
  13  26  17    0.00    0.01
  13  26  19    0.04    0.01
  13  26  21    0.14    0.01
  13  26  23    0.32    0.01
  13  26  25    0.73    0.01
  13  27  14    0.30    0.01
  13  27  16    0.09    0.01
  13  27  18    0.00    0.01
  13  27  20    0.05    0.01
  13  27  22    0.20    0.01
  13  27  24    0.03    0.01
  13  27  26    0.06    0.01
  13  28  13    1.77    0.02
  13  28  15    2.37    0.02
  13  28  17    0.79    0.01
  13  28  19    0.21    0.01
  13  28  21    0.12    0.01
  13  28  23    0.39    0.01
  13  28  25    1.06    0.01
  13  28  27    0.57    0.01
  13  29  14    0.67    0.01
  13  29  16    0.34    0.01
  13  29  18    0.06    0.01
  13  29  20    0.00    0.01
  13  29  22    0.08    0.01
  13  29  24    0.24    0.01
  13  29  26    0.14    0.01
  13  29  28    0.03    0.01
  13  30  13    3.45    0.03
  13  30  15    4.20    0.03
  13  30  17    2.88    0.02
  13  30  19    1.41    0.01
  13  30  21    0.02    0.01
  13  30  23    0.37    0.01
  13  30  25    1.01    0.01
  13  30  27    0.74    0.01
  13  30  29    0.32    0.01
  13  31  14    1.80    0.02
  13  31  16    2.08    0.02
  13  31  18    0.97    0.02
  13  31  20    0.05    0.01
  13  31  22    0.05    0.01
  13  31  24    0.36    0.01
  13  31  26    0.95    0.01
  13  31  28    0.76    0.01
  13  31  30    0.10    0.00
  13  32  13    2.49    0.03
  13  32  15    4.94    0.03
  13  32  17    3.74    0.02
  13  32  19    1.64    0.02
  13  32  21    0.26    0.01
  13  32  23    0.11    0.01
  13  32  25    1.09    0.01
  13  32  27    1.27    0.01
  13  32  29    0.64    0.01
  13  33  14    0.74    0.01
  13  33  16    0.95    0.01
  13  33  18    0.44    0.01
  13  33  20    0.14    0.01
  13  33  22    0.04    0.01
  13  33  24    0.49    0.01
  13  33  26    1.43    0.01
  13  33  28    1.65    0.02
  13  34  13    2.03    0.02
  13  34  15    3.51    0.02
  13  34  17    2.79    0.02
  13  34  19    1.97    0.02
  13  34  21    0.44    0.01
  13  34  23    0.00    0.01
  13  34  25    0.60    0.01
  13  34  27    1.06    0.01
  13  35  14    1.51    0.01
  13  35  16    1.45    0.02
  13  35  18    1.15    0.01
  13  35  20    0.52    0.01
  13  35  22    0.04    0.01
  13  35  24    0.14    0.01
  13  36  13    0.42    0.01
  13  36  15    1.07    0.01
  13  36  17    1.13    0.01
  13  36  19    0.97    0.01
  13  36  21    0.27    0.01
  13  36  23    0.00    0.00
  13  37  14    0.01    0.01
  13  37  16    0.07    0.01
  13  37  18    0.14    0.01
  13  37  20    0.06    0.01
  13  37  22    0.00    0.01
  13  38  13    0.10    0.01
  13  38  15    0.04    0.01
  13  38  17    0.20    0.01
  13  38  19    0.27    0.01
  13  38  21    0.16    0.01
  13  39  14    0.04    0.01
  13  39  16    0.02    0.01
  13  39  18    0.00    0.01
  13  40  13    0.41    0.01
  13  40  15    0.09    0.01
  13  40  17    0.02    0.01
  13  41  14    0.00    0.01
  14  14  14   20.65    0.30
  14  15  15    4.59    0.05
  14  16  14   15.77    0.11
  14  16  16    7.92    0.06
  14  17  15    5.75    0.03
  14  17  17   10.95    0.07
  14  18  14   11.60    0.07
  14  18  16    7.75    0.04
  14  18  18    0.02    0.01
  14  19  15    8.40    0.04
  14  19  17    1.39    0.01
  14  19  19    3.27    0.03
  14  20  14   13.77    0.09
  14  20  16    0.90    0.01
  14  20  18    0.20    0.01
  14  20  20    0.47    0.02
  14  21  15    0.89    0.01
  14  21  17    1.06    0.01
  14  21  19    0.50    0.01
  14  21  21    1.56    0.02
  14  22  14    0.00    0.01
  14  22  16    0.38    0.01
  14  22  18    0.52    0.01
  14  22  20    0.32    0.01
  14  22  22    9.04    0.07
  14  23  15    0.24    0.01
  14  23  17    0.38    0.01
  14  23  19    0.17    0.01
  14  23  21    2.04    0.02
  14  23  23    0.52    0.01
  14  24  14    1.12    0.02
  14  24  16    0.78    0.01
  14  24  18    0.97    0.01
  14  24  20    4.70    0.03
  14  24  22    3.35    0.02
  14  24  24    6.44    0.05
  14  25  15    0.03    0.01
  14  25  17    0.07    0.01
  14  25  19    1.17    0.01
  14  25  21    1.74    0.02
  14  25  23    2.71    0.02
  14  25  25    0.80    0.02
  14  26  14    0.71    0.01
  14  26  16    1.13    0.01
  14  26  18    1.55    0.02
  14  26  20    2.42    0.02
  14  26  22    1.35    0.01
  14  26  24    0.85    0.01
  14  26  26    0.04    0.01
  14  27  15    0.35    0.01
  14  27  17    1.43    0.01
  14  27  19    2.30    0.02
  14  27  21    1.10    0.02
  14  27  23    1.23    0.01
  14  27  25    0.19    0.01
  14  27  27    0.30    0.01
  14  28  14    1.04    0.02
  14  28  16    3.24    0.02
  14  28  18    2.86    0.02
  14  28  20    1.17    0.01
  14  28  22    0.79    0.01
  14  28  24    0.03    0.01
  14  28  26    0.32    0.01
  14  28  28    1.61    0.02
  14  29  15    3.35    0.02
  14  29  17    3.31    0.02
  14  29  19    1.87    0.02
  14  29  21    1.70    0.02
  14  29  23    0.53    0.01
  14  29  25    0.01    0.01
  14  29  27    1.42    0.01
  14  29  29    2.77    0.03
  14  30  14    6.04    0.04
  14  30  16    4.59    0.03
  14  30  18    2.98    0.02
  14  30  20    1.74    0.02
  14  30  22    0.27    0.01
  14  30  24    0.16    0.01
  14  30  26    1.91    0.02
  14  30  28    2.53    0.02
  14  30  30    2.69    0.03
  14  31  15    2.03    0.02
  14  31  17    3.47    0.02
  14  31  19    2.18    0.02
  14  31  21    1.33    0.01
  14  31  23    0.01    0.01
  14  31  25    0.22    0.01
  14  31  27    1.42    0.01
  14  31  29    2.62    0.02
  14  32  14    0.94    0.01
  14  32  16    2.45    0.02
  14  32  18    0.85    0.01
  14  32  20    0.69    0.01
  14  32  22    0.10    0.01
  14  32  24    0.26    0.01
  14  32  26    1.72    0.01
  14  32  28    2.50    0.02
  14  33  15    3.64    0.02
  14  33  17    1.83    0.02
  14  33  19    1.99    0.02
  14  33  21    0.14    0.01
  14  33  23    0.02    0.00
  14  33  25    0.70    0.01
  14  33  27    1.36    0.01
  14  34  14    2.95    0.03
  14  34  16    0.92    0.01
  14  34  18    1.22    0.01
  14  34  20    0.07    0.01
  14  34  22    0.01    0.01
  14  34  24    0.59    0.01
  14  34  26    0.70    0.01
  14  35  15    0.58    0.01
  14  35  17    1.54    0.02
  14  35  19    0.22    0.01
  14  35  21    0.06    0.01
  14  35  23    0.31    0.01
  14  35  25    0.35    0.01
  14  36  14    0.17    0.01
  14  36  16    0.15    0.01
  14  36  18    0.04    0.01
  14  36  20    0.04    0.01
  14  36  22    0.46    0.01
  14  37  15    1.02    0.01
  14  37  17    0.14    0.01
  14  37  19    0.06    0.01
  14  37  21    0.01    0.01
  14  38  14    0.25    0.01
  14  38  16    0.00    0.01
  14  38  18    0.00    0.01
  14  38  20    0.06    0.01
  14  39  15    0.01    0.01
  14  39  17    0.03    0.01
  14  40  14    0.03    0.01
  14  40  16    0.04    0.01
  15  16  15    0.13    0.01
  15  17  16    0.47    0.01
  15  18  15    0.84    0.01
  15  18  17    0.71    0.01
  15  19  16    2.51    0.02
  15  19  18    0.01    0.01
  15  20  15    2.78    0.03
  15  20  17    1.97    0.02
  15  20  19    0.80    0.01
  15  21  16    0.17    0.01
  15  21  18    0.12    0.01
  15  21  20    0.83    0.01
  15  22  15    2.98    0.03
  15  22  17    1.88    0.02
  15  22  19    0.62    0.01
  15  22  21    0.70    0.01
  15  23  16    0.08    0.01
  15  23  18    0.01    0.01
  15  23  20    0.05    0.01
  15  23  22    0.23    0.01
  15  24  15    0.64    0.02
  15  24  17    0.46    0.01
  15  24  19    0.36    0.01
  15  24  21    0.26    0.01
  15  24  23    0.41    0.01
  15  25  16    0.12    0.01
  15  25  18    0.19    0.01
  15  25  20    0.26    0.01
  15  25  22    0.18    0.01
  15  25  24    0.00    0.01
  15  26  15    0.17    0.01
  15  26  17    0.05    0.01
  15  26  19    0.01    0.01
  15  26  21    0.06    0.01
  15  26  23    0.48    0.01
  15  26  25    0.29    0.01
  15  27  16    0.15    0.01
  15  27  18    0.03    0.01
  15  27  20    0.01    0.01
  15  27  22    0.13    0.01
  15  27  24    0.00    0.01
  15  27  26    0.20    0.01
  15  28  15    2.80    0.03
  15  28  17    2.03    0.02
  15  28  19    0.72    0.01
  15  28  21    0.05    0.01
  15  28  23    0.11    0.01
  15  28  25    0.32    0.01
  15  28  27    0.44    0.01
  15  29  16    2.45    0.02
  15  29  18    1.23    0.01
  15  29  20    0.23    0.01
  15  29  22    0.00    0.01
  15  29  24    0.15    0.01
  15  29  26    0.06    0.01
  15  29  28    0.00    0.01
  15  30  15    5.46    0.04
  15  30  17    4.72    0.03
  15  30  19    2.20    0.02
  15  30  21    0.35    0.01
  15  30  23    0.13    0.01
  15  30  25    0.48    0.01
  15  30  27    0.70    0.01
  15  30  29    0.18    0.01
  15  31  16    2.45    0.02
  15  31  18    1.50    0.01
  15  31  20    0.26    0.01
  15  31  22    0.00    0.01
  15  31  24    0.23    0.01
  15  31  26    0.58    0.01
  15  31  28    0.65    0.01
  15  32  15    7.47    0.06
  15  32  17    5.87    0.03
  15  32  19    2.27    0.02
  15  32  21    0.49    0.01
  15  32  23    0.11    0.01
  15  32  25    0.86    0.01
  15  32  27    1.33    0.01
  15  33  16    3.51    0.02
  15  33  18    1.82    0.02
  15  33  20    0.66    0.01
  15  33  22    0.01    0.01
  15  33  24    0.33    0.01
  15  33  26    1.07    0.01
  15  34  15    4.75    0.04
  15  34  17    3.54    0.02
  15  34  19    1.69    0.02
  15  34  21    0.23    0.01
  15  34  23    0.15    0.01
  15  34  25    0.91    0.01
  15  35  16    0.80    0.01
  15  35  18    0.51    0.01
  15  35  20    0.07    0.01
  15  35  22    0.07    0.01
  15  35  24    0.65    0.01
  15  36  15    1.79    0.02
  15  36  17    1.51    0.02
  15  36  19    0.61    0.01
  15  36  21    0.07    0.01
  15  36  23    0.09    0.01
  15  37  16    0.82    0.01
  15  37  18    0.36    0.01
  15  37  20    0.03    0.01
  15  38  15    0.15    0.01
  15  38  17    0.14    0.01
  15  38  19    0.00    0.01
  15  39  16    0.00    0.01
  15  40  15    0.11    0.01
  16  16  16    3.76    0.05
  16  17  17    3.17    0.03
  16  18  16    6.51    0.05
  16  18  18    0.43    0.01
  16  19  17    0.17    0.01
  16  19  19    1.42    0.02
  16  20  16    0.33    0.01
  16  20  18    0.01    0.01
  16  20  20    1.02    0.02
  16  21  17    0.65    0.01
  16  21  19    0.64    0.01
  16  21  21    2.37    0.03
  16  22  16    0.14    0.01
  16  22  18    0.03    0.01
  16  22  20    0.04    0.01
  16  22  22    2.32    0.03
  16  23  17    0.96    0.01
  16  23  19    1.01    0.01
  16  23  21    0.12    0.01
  16  23  23    0.39    0.01
  16  24  16    0.07    0.01
  16  24  18    0.31    0.01
  16  24  20    0.12    0.01
  16  24  22    0.00    0.01
  16  24  24    0.05    0.01
  16  25  17    0.09    0.01
  16  25  19    0.07    0.01
  16  25  21    0.07    0.01
  16  25  23    0.04    0.01
  16  25  25    0.09    0.01
  16  26  16    0.48    0.01
  16  26  18    0.44    0.01
  16  26  20    0.56    0.01
  16  26  22    0.16    0.01
  16  26  24    0.00    0.01
  16  26  26    0.01    0.01
  16  27  17    0.72    0.01
  16  27  19    1.35    0.01
  16  27  21    0.33    0.01
  16  27  23    0.25    0.01
  16  27  25    0.01    0.01
  16  27  27    0.27    0.01
  16  28  16    4.41    0.04
  16  28  18    3.07    0.02
  16  28  20    0.55    0.01
  16  28  22    0.35    0.01
  16  28  24    0.12    0.01
  16  28  26    0.21    0.01
  16  28  28    1.20    0.02
  16  29  17    2.57    0.02
  16  29  19    1.40    0.01
  16  29  21    1.28    0.01
  16  29  23    0.22    0.01
  16  29  25    0.00    0.01
  16  29  27    0.94    0.01
  16  29  29    1.68    0.02
  16  30  16    3.51    0.03
  16  30  18    2.08    0.02
  16  30  20    1.06    0.01
  16  30  22    0.24    0.01
  16  30  24    0.11    0.01
  16  30  26    0.71    0.01
  16  30  28    1.06    0.01
  16  30  30    0.76    0.02
  16  31  17    3.37    0.02
  16  31  19    2.29    0.02
  16  31  21    1.29    0.01
  16  31  23    0.03    0.01
  16  31  25    0.12    0.01
  16  31  27    0.59    0.01
  16  31  29    1.41    0.01
  16  32  16    3.54    0.03
  16  32  18    1.40    0.01
  16  32  20    0.69    0.01
  16  32  22    0.00    0.01
  16  32  24    0.07    0.01
  16  32  26    0.37    0.01
  16  32  28    0.94    0.01
  16  33  17    2.18    0.02
  16  33  19    2.17    0.02
  16  33  21    0.36    0.01
  16  33  23    0.16    0.01
  16  33  25    0.15    0.01
  16  34  16    0.21    0.01
  16  34  18    0.36    0.01
  16  34  20    0.01    0.01
  16  34  22    0.01    0.01
  16  34  24    0.42    0.01
  16  35  17    1.84    0.02
  16  35  19    0.50    0.01
  16  35  21    0.27    0.01
  16  35  23    0.00    0.01
  16  36  16    0.67    0.01
  16  36  18    0.02    0.01
  16  36  20    0.02    0.01
  16  36  22    0.17    0.01
  16  37  17    0.13    0.01
  16  37  19    0.03    0.01
  16  37  21    0.00    0.01
  16  38  16    0.26    0.01
  16  38  18    0.29    0.01
  16  39  17    0.00    0.01
  17  18  17    0.03    0.01
  17  19  18    0.29    0.01
  17  20  17    0.48    0.01
  17  20  19    1.17    0.01
  17  21  18    0.13    0.01
  17  21  20    0.05    0.01
  17  22  17    0.97    0.02
  17  22  19    1.04    0.01
  17  22  21    0.19    0.01
  17  23  18    0.89    0.01
  17  23  20    0.60    0.01
  17  23  22    0.15    0.01
  17  24  17    0.18    0.01
  17  24  19    0.31    0.01
  17  24  21    0.03    0.01
  17  24  23    0.05    0.01
  17  25  18    0.36    0.01
  17  25  20    0.32    0.01
  17  25  22    0.13    0.01
  17  25  24    0.01    0.01
  17  26  17    0.13    0.01
  17  26  19    0.03    0.01
  17  26  21    0.01    0.01
  17  26  23    0.00    0.01
  17  26  25    0.10    0.01
  17  27  18    0.12    0.01
  17  27  20    0.02    0.01
  17  27  22    0.22    0.01
  17  27  24    0.13    0.01
  17  27  26    0.00    0.01
  17  28  17    1.86    0.02
  17  28  19    0.74    0.01
  17  28  21    0.10    0.01
  17  28  23    0.00    0.01
  17  28  25    0.31    0.01
  17  28  27    0.10    0.01
  17  29  18    1.31    0.01
  17  29  20    0.33    0.01
  17  29  22    0.01    0.01
  17  29  24    0.08    0.01
  17  29  26    0.03    0.01
  17  29  28    0.01    0.01
  17  30  17    4.17    0.04
  17  30  19    1.75    0.02
  17  30  21    0.24    0.01
  17  30  23    0.05    0.01
  17  30  25    0.55    0.01
  17  30  27    0.31    0.01
  17  30  29    0.18    0.01
  17  31  18    2.05    0.02
  17  31  20    0.52    0.01
  17  31  22    0.01    0.01
  17  31  24    0.14    0.01
  17  31  26    0.35    0.01
  17  31  28    0.31    0.01
  17  32  17    5.02    0.04
  17  32  19    1.85    0.02
  17  32  21    0.29    0.01
  17  32  23    0.07    0.01
  17  32  25    0.76    0.01
  17  32  27    0.61    0.01
  17  33  18    1.35    0.01
  17  33  20    0.53    0.01
  17  33  22    0.00    0.01
  17  33  24    0.28    0.01
  17  33  26    0.84    0.01
  17  34  17    2.78    0.03
  17  34  19    1.15    0.01
  17  34  21    0.05    0.01
  17  34  23    0.22    0.01
  17  35  18    1.21    0.01
  17  35  20    0.21    0.01
  17  35  22    0.02    0.01
  17  36  17    0.98    0.02
  17  36  19    0.19    0.01
  17  36  21    0.01    0.01
  17  37  18    0.05    0.01
  17  37  20    0.02    0.01
  17  38  17    0.03    0.01
  18  18  18    3.27    0.06
  18  19  19    0.35    0.01
  18  20  18    0.05    0.01
  18  20  20    0.33    0.01
  18  21  19    0.83    0.01
  18  21  21    3.53    0.03
  18  22  18    0.53    0.02
  18  22  20    3.76    0.03
  18  22  22    0.98    0.02
  18  23  19    1.72    0.02
  18  23  21    0.26    0.01
  18  23  23    1.85    0.03
  18  24  18    0.77    0.02
  18  24  20    0.89    0.01
  18  24  22    2.31    0.02
  18  24  24    0.63    0.02
  18  25  19    0.25    0.01
  18  25  21    0.38    0.01
  18  25  23    0.60    0.01
  18  25  25    1.14    0.02
  18  26  18    0.07    0.01
  18  26  20    0.07    0.01
  18  26  22    1.00    0.01
  18  26  24    0.75    0.01
  18  26  26    0.85    0.02
  18  27  19    0.26    0.01
  18  27  21    0.02    0.01
  18  27  23    0.01    0.01
  18  27  25    0.39    0.01
  18  27  27    0.38    0.01
  18  28  18    2.20    0.03
  18  28  20    0.09    0.01
  18  28  22    0.04    0.01
  18  28  24    0.07    0.01
  18  28  26    0.16    0.01
  18  28  28    0.06    0.01
  18  29  19    0.46    0.01
  18  29  21    0.51    0.01
  18  29  23    0.02    0.01
  18  29  25    0.03    0.01
  18  29  27    0.53    0.01
  18  29  29    0.53    0.01
  18  30  18    1.07    0.02
  18  30  20    0.35    0.01
  18  30  22    0.02    0.01
  18  30  24    0.02    0.01
  18  30  26    0.41    0.01
  18  30  28    0.02    0.01
  18  31  19    1.63    0.01
  18  31  21    0.94    0.01
  18  31  23    0.10    0.01
  18  31  25    0.01    0.01
  18  31  27    0.05    0.01
  18  32  18    0.77    0.01
  18  32  20    0.31    0.01
  18  32  22    0.00    0.01
  18  32  24    0.01    0.01
  18  32  26    0.04    0.01
  18  33  19    1.50    0.02
  18  33  21    0.41    0.01
  18  33  23    0.30    0.01
  18  33  25    0.00    0.01
  18  34  18    0.44    0.01
  18  34  20    0.00    0.01
  18  34  22    0.00    0.00
  18  34  24    0.02    0.01
  18  35  19    0.57    0.01
  18  35  21    0.39    0.01
  18  36  18    0.06    0.01
  18  36  20    0.13    0.01
  18  37  19    0.02    0.01
  19  20  19    0.00    0.01
  19  21  20    0.47    0.01
  19  22  19    0.02    0.01
  19  22  21    0.18    0.01
  19  23  20    1.67    0.02
  19  23  22    0.87    0.02
  19  24  19    0.00    0.01
  19  24  21    0.12    0.01
  19  24  23    0.39    0.01
  19  25  20    0.65    0.01
  19  25  22    0.67    0.01
  19  25  24    0.45    0.01
  19  26  19    0.32    0.01
  19  26  21    0.24    0.01
  19  26  23    0.16    0.01
  19  26  25    0.18    0.01
  19  27  20    0.00    0.01
  19  27  22    0.12    0.01
  19  27  24    0.05    0.01
  19  27  26    0.01    0.01
  19  28  19    0.61    0.01
  19  28  21    0.09    0.01
  19  28  23    0.01    0.01
  19  28  25    0.01    0.01
  19  28  27    0.12    0.01
  19  29  20    0.01    0.01
  19  29  22    0.08    0.01
  19  29  24    0.28    0.01
  19  29  26    0.19    0.01
  19  29  28    0.00    0.01
  19  30  19    0.95    0.02
  19  30  21    0.06    0.01
  19  30  23    0.07    0.01
  19  30  25    0.15    0.01
  19  30  27    0.34    0.01
  19  31  20    0.59    0.01
  19  31  22    0.05    0.01
  19  31  24    0.05    0.01
  19  31  26    0.19    0.01
  19  32  19    0.77    0.01
  19  32  21    0.02    0.01
  19  32  23    0.18    0.01
  19  32  25    0.33    0.01
  19  33  20    0.74    0.01
  19  33  22    0.05    0.01
  19  33  24    0.08    0.01
  19  34  19    0.58    0.01
  19  34  21    0.00    0.01
  19  34  23    0.22    0.01
  19  35  20    0.19    0.01
  19  36  19    0.01    0.01
  20  20  20    2.17    0.04
  20  21  21    3.21    0.03
  20  22  20    9.28    0.07
  20  22  22    7.17    0.06
  20  23  21    1.04    0.01
  20  23  23    2.97    0.03
  20  24  20    2.44    0.03
  20  24  22    6.14    0.04
  20  24  24    3.31    0.04
  20  25  21    1.08    0.02
  20  25  23    1.47    0.02
  20  25  25    1.57    0.02
  20  26  20    0.43    0.01
  20  26  22    2.34    0.02
  20  26  24    1.51    0.02
  20  26  26    0.57    0.01
  20  27  21    0.66    0.01
  20  27  23    0.44    0.01
  20  27  25    0.97    0.01
  20  27  27    0.60    0.01
  20  28  20    0.35    0.01
  20  28  22    0.52    0.01
  20  28  24    1.08    0.01
  20  28  26    0.15    0.01
  20  28  28    0.11    0.01
  20  29  21    0.05    0.01
  20  29  23    0.06    0.01
  20  29  25    0.05    0.01
  20  29  27    0.32    0.01
  20  30  20    0.39    0.01
  20  30  22    0.00    0.01
  20  30  24    0.00    0.01
  20  30  26    0.00    0.01
  20  31  21    0.36    0.01
  20  31  23    0.10    0.01
  20  31  25    0.01    0.01
  20  32  20    0.30    0.01
  20  32  22    0.02    0.01
  20  32  24    0.04    0.01
  20  33  21    0.42    0.01
  20  33  23    0.45    0.01
  20  34  20    0.01    0.01
  20  34  22    0.05    0.01
  20  35  21    0.29    0.01
  21  22  21    2.09    0.03
  21  23  22    1.22    0.02
  21  24  21    1.15    0.02
  21  24  23    0.81    0.02
  21  25  22    1.26    0.02
  21  25  24    0.84    0.02
  21  26  21    0.66    0.02
  21  26  23    0.26    0.01
  21  26  25    0.28    0.01
  21  27  22    1.11    0.02
  21  27  24    0.59    0.01
  21  27  26    0.25    0.01
  21  28  21    0.18    0.01
  21  28  23    0.06    0.01
  21  28  25    0.00    0.01
  21  28  27    0.00    0.01
  21  29  22    0.01    0.01
  21  29  24    0.08    0.01
  21  29  26    0.04    0.01
  21  29  28    0.00    0.01
  21  30  21    0.03    0.01
  21  30  23    0.02    0.01
  21  30  25    0.07    0.01
  21  31  22    0.02    0.01
  21  31  24    0.04    0.01
  21  32  21    0.00    0.01
  21  32  23    0.13    0.01
  21  33  22    0.13    0.01
  21  34  21    0.05    0.01
  22  22  22    3.69    0.07
  22  23  23    3.12    0.04
  22  24  22    6.42    0.07
  22  24  24    5.41    0.06
  22  25  23    1.88    0.02
  22  25  25    1.56    0.03
  22  26  22    3.49    0.04
  22  26  24    2.92    0.03
  22  26  26    1.68    0.03
  22  27  23    0.80    0.01
  22  27  25    1.12    0.02
  22  27  27    0.47    0.01
  22  28  22    0.24    0.01
  22  28  24    0.84    0.01
  22  28  26    0.10    0.01
  22  28  28    0.00    0.01
  22  29  23    0.23    0.01
  22  29  25    0.04    0.01
  22  29  27    0.14    0.01
  22  30  22    0.05    0.01
  22  30  24    0.03    0.01
  22  30  26    0.02    0.01
  22  31  23    0.03    0.01
  22  32  22    0.08    0.01
  23  24  23    2.08    0.03
  23  25  24    1.44    0.02
  23  26  23    0.53    0.02
  23  26  25    0.37    0.01
  23  27  24    0.45    0.01
  23  27  26    0.12    0.01
  23  28  23    0.21    0.01
  23  28  25    0.03    0.01
  23  28  27    0.01    0.01
  23  29  24    0.31    0.01
  23  29  26    0.10    0.01
  23  30  23    0.00    0.01
  23  30  25    0.02    0.01
  23  31  24    0.00    0.01
  24  24  24    3.40    0.07
  24  25  25    1.30    0.02
  24  26  24    1.82    0.03
  24  26  26    1.35    0.02
  24  27  25    0.74    0.01
  24  27  27    0.09    0.01
  24  28  24    1.12    0.02
  24  28  26    0.33    0.01
  24  29  25    0.04    0.01
  24  30  24    0.02    0.01
  25  26  25    0.46    0.01
  25  27  26    0.37    0.01
  25  28  25    0.01    0.01
  26  26  26    1.65    0.04
   0   0   0    0.00    0.00
;
_shelx_hkl_checksum              47209
_olex2_computing_structure_refinement_long 'ShelXL (Sheldrick, 2008)'
_olex2_computing_structure_solution_long 'ShelXS (Sheldrick, 2008)'
_olex2_submission_special_instructions 'No special instructions were received'
#END Tags that were not found in dictionaries
loop_
_space_group_symop_operation_xyz
'x, y, z'
'-y, x, z'
'-x, -y, z'
'y, -x, z'
'x, -z, y'
'x, -y, -z'
'x, z, -y'
'z, y, -x'
'-x, y, -z'
'-z, y, x'
'z, x, y'
'y, z, x'
'-y, -z, x'
'z, -x, -y'
'-y, z, -x'
'-z, -x, y'
'-z, x, -y'
'y, -z, -x'
'y, x, -z'
'-y, -x, -z'
'-x, z, y'
'-x, -z, -y'
'z, -y, x'
'-z, -y, -x'
'x+1/2, y+1/2, z+1/2'
'-y+1/2, x+1/2, z+1/2'
'-x+1/2, -y+1/2, z+1/2'
'y+1/2, -x+1/2, z+1/2'
'x+1/2, -z+1/2, y+1/2'
'x+1/2, -y+1/2, -z+1/2'
'x+1/2, z+1/2, -y+1/2'
'z+1/2, y+1/2, -x+1/2'
'-x+1/2, y+1/2, -z+1/2'
'-z+1/2, y+1/2, x+1/2'
'z+1/2, x+1/2, y+1/2'
'y+1/2, z+1/2, x+1/2'
'-y+1/2, -z+1/2, x+1/2'
'z+1/2, -x+1/2, -y+1/2'
'-y+1/2, z+1/2, -x+1/2'
'-z+1/2, -x+1/2, y+1/2'
'-z+1/2, x+1/2, -y+1/2'
'y+1/2, -z+1/2, -x+1/2'
'y+1/2, x+1/2, -z+1/2'
'-y+1/2, -x+1/2, -z+1/2'
'-x+1/2, z+1/2, y+1/2'
'-x+1/2, -z+1/2, -y+1/2'
'z+1/2, -y+1/2, x+1/2'
'-z+1/2, -y+1/2, -x+1/2'
'-x, -y, -z'
'y, -x, -z'
'x, y, -z'
'-y, x, -z'
'-x, z, -y'
'-x, y, z'
'-x, -z, y'
'-z, -y, x'
'x, -y, z'
'z, -y, -x'
'-z, -x, -y'
'-y, -z, -x'
'y, z, -x'
'-z, x, y'
'y, -z, x'
'z, x, -y'
'z, -x, y'
'-y, z, x'
'-y, -x, z'
'y, x, z'
'x, -z, -y'
'x, z, y'
'-z, y, -x'
'z, y, x'
'-x+1/2, -y+1/2, -z+1/2'
'y+1/2, -x+1/2, -z+1/2'
'x+1/2, y+1/2, -z+1/2'
'-y+1/2, x+1/2, -z+1/2'
'-x+1/2, z+1/2, -y+1/2'
'-x+1/2, y+1/2, z+1/2'
'-x+1/2, -z+1/2, y+1/2'
'-z+1/2, -y+1/2, x+1/2'
'x+1/2, -y+1/2, z+1/2'
'z+1/2, -y+1/2, -x+1/2'
'-z+1/2, -x+1/2, -y+1/2'
'-y+1/2, -z+1/2, -x+1/2'
'y+1/2, z+1/2, -x+1/2'
'-z+1/2, x+1/2, y+1/2'
'y+1/2, -z+1/2, x+1/2'
'z+1/2, x+1/2, -y+1/2'
'z+1/2, -x+1/2, y+1/2'
'-y+1/2, z+1/2, x+1/2'
'-y+1/2, -x+1/2, z+1/2'
'y+1/2, x+1/2, z+1/2'
'x+1/2, -z+1/2, -y+1/2'
'x+1/2, z+1/2, y+1/2'
'-z+1/2, y+1/2, -x+1/2'
'z+1/2, y+1/2, x+1/2'
loop_
_atom_site_label
_atom_site_type_symbol
_atom_site_fract_x
_atom_site_fract_y
_atom_site_fract_z
_atom_site_U_iso_or_equiv
_atom_site_adp_type
_atom_site_occupancy
_atom_site_site_symmetry_order
_atom_site_calc_flag
_atom_site_refinement_flags_posn
_atom_site_refinement_flags_adp
_atom_site_refinement_flags_occupancy
_atom_site_disorder_assembly
_atom_site_disorder_group
O3 O 0.21738(6) 0.21738(6) 0.21738(6) 0.0368(8) Uani 1 6 d S TU P . .
O1 O 0.28976(9) 0.23492(9) 0.23492(9) 0.0377(9) Uani 0.5 2 d S TU P . 2
N6 N 0.5000 0.25017(10) 0.05216(6) 0.0635(9) Uani 1 2 d S TU P . .
C7 C 0.40964(5) 0.2500 0.09036(5) 0.0655(11) Uani 1 2 d S TU P . .
C10 C 0.48266(5) 0.24697(9) 0.10889(5) 0.0705(9) Uani 1 1 d . U . . .
H10 H 0.4681 0.2457 0.1286 0.085 Uiso 1 1 calc R . . . .
C13 C 0.47169(5) 0.24923(9) 0.07357(5) 0.0644(8) Uani 1 1 d . U . . .
C14 C 0.35887(5) 0.2500 0.14113(5) 0.0703(12) Uani 1 2 d S TU P . .
C15 C 0.39090(7) 0.22023(10) 0.09672(7) 0.0780(9) Uani 1 1 d . U . . .
H15 H 0.3954 0.1999 0.0837 0.094 Uiso 1 1 calc R . . . .
C16 C 0.36523(7) 0.22010(10) 0.12241(7) 0.0784(9) Uani 1 1 d . U . . .
H16 H 0.3523 0.1997 0.1269 0.094 Uiso 1 1 calc R . . . .
C19 C 0.43720(5) 0.2500 0.06280(5) 0.0654(11) Uani 1 2 d S TU P . .
Zr1 Zr 0.26622(2) 0.20159(2) 0.20159(2) 0.0373(2) Uani 0.5 2 d S TU P . 2
Zr2 Zr 0.27685(2) 0.21277(2) 0.21277(2) 0.0372(2) Uani 0.5 2 d S TU P . 1
O2 O 0.31463(5) 0.22219(6) 0.17251(5) 0.0926(8) Uani 1 1 d . U . . .
O4 O 0.25505(14) 0.15905(12) 0.21011(17) 0.0896(15) Uani 0.5 1 d . U . A 1
C6 C 0.33142(6) 0.2500 0.16858(6) 0.0839(15) Uani 1 2 d S TU P . .
Fe1 Fe 0.5000 0.26364(5) 0.0000 0.0674(9) Uani 0.5 4 d S TU P C .
O5 O 0.31625(12) 0.24552(9) 0.24552(9) 0.0510(11) Uani 0.5 2 d S TU P . 1
O9 O 0.2454(2) 0.1514(2) 0.1902(4) 0.220(5) Uani 0.5 1 d . U . B 2
O6 O 0.5000 0.3099(3) 0.0000 0.082(2) Uani 0.5 4 d S TU P . .
O7 O 0.4860(16) 0.324(2) -0.0219(12) 0.090(11) Uani 0.0312 1 d . U . C 2
O8 O 0.5260(15) 0.324(2) 0.0000 0.14(2) Uani 0.0625 2 d S TU P C 1
loop_
_atom_site_aniso_label
_atom_site_aniso_U_11
_atom_site_aniso_U_22
_atom_site_aniso_U_33
_atom_site_aniso_U_23
_atom_site_aniso_U_13
_atom_site_aniso_U_12
O3 0.0368(8) 0.0368(8) 0.0368(8) 0.0235(10) 0.0235(10) 0.0235(10)
O1 0.0231(18) 0.0449(15) 0.0449(15) 0.0265(19) 0.0127(13) 0.0127(13)
N6 0.0139(10) 0.159(3) 0.0174(10) 0.0010(13) 0.000 0.000
C7 0.0215(8) 0.153(4) 0.0215(8) 0.0058(12) 0.0015(11) 0.0058(12)
C10 0.0302(10) 0.166(3) 0.0154(9) 0.0020(12) 0.0050(8) -0.0005(14)
C13 0.0238(9) 0.149(3) 0.0201(9) 0.0010(12) 0.0049(8) 0.0018(12)
C14 0.0364(10) 0.138(4) 0.0364(10) 0.0372(15) 0.0228(14) 0.0372(15)
C15 0.0429(13) 0.149(3) 0.0419(13) -0.0021(15) 0.0217(11) 0.0055(15)
C16 0.0441(13) 0.140(3) 0.0514(14) 0.0228(16) 0.0275(12) 0.0187(15)
C19 0.0202(8) 0.156(4) 0.0202(8) 0.0005(12) 0.0062(11) 0.0005(12)
Zr1 0.0387(4) 0.0366(3) 0.0366(3) 0.0176(3) 0.0220(2) 0.0220(2)
Zr2 0.0393(4) 0.0362(3) 0.0362(3) 0.0158(3) 0.0215(2) 0.0215(2)
O2 0.0800(13) 0.1129(16) 0.0850(13) 0.0693(12) 0.0644(11) 0.0688(12)
O4 0.071(3) 0.053(2) 0.145(5) 0.020(3) 0.007(3) 0.024(2)
C6 0.0608(15) 0.130(4) 0.0608(15) 0.064(2) 0.0446(19) 0.064(2)
Fe1 0.0126(6) 0.177(3) 0.0123(6) 0.000 0.000 0.000
O5 0.060(3) 0.0464(14) 0.0464(14) 0.0315(18) 0.0301(16) 0.0301(16)
O9 0.128(5) 0.111(5) 0.421(16) -0.120(7) -0.108(7) 0.055(3)
O6 0.033(3) 0.188(6) 0.024(3) 0.000 0.000 0.000
O7 0.07(3) 0.172(17) 0.03(2) -0.01(2) -0.009(17) 0.02(2)
O8 0.08(3) 0.20(2) 0.14(5) 0.000 0.000 -0.04(3)
loop_
_atom_type_symbol
_atom_type_description
_atom_type_scat_dispersion_real
_atom_type_scat_dispersion_imag
_atom_type_scat_source
C C 0.0181 0.0091 'International Tables Vol C Tables 4.2.6.8 and 6.1.1.4'
H H 0.0000 0.0000 'International Tables Vol C Tables 4.2.6.8 and 6.1.1.4'
N N 0.0311 0.0180 'International Tables Vol C Tables 4.2.6.8 and 6.1.1.4'
O O 0.0492 0.0322 'International Tables Vol C Tables 4.2.6.8 and 6.1.1.4'
Fe Fe -1.1336 3.1974 'International Tables Vol C Tables 4.2.6.8 and 6.1.1.4'
Zr Zr -0.1862 2.2449 'International Tables Vol C Tables 4.2.6.8 and 6.1.1.4'
loop_
_geom_angle_atom_site_label_1
_geom_angle_atom_site_label_2
_geom_angle_atom_site_label_3
_geom_angle
_geom_angle_site_symmetry_1
_geom_angle_site_symmetry_3
Zr1 O3 Zr1 116.63(7) 12 11
Zr1 O3 Zr1 116.63(7) 12 .
Zr1 O3 Zr1 116.63(7) 11 .
Zr2 O3 Zr2 98.46(11) 12 11
Zr2 O3 Zr2 98.46(11) 12 .
Zr2 O3 Zr2 98.46(11) 11 .
O1 O1 O1 114.4(2) 84 83
O1 O1 Zr1 127.9(2) 83 84
O1 O1 Zr1 54.2(2) 84 84
O1 O1 Zr1 80.6(3) 84 .
O1 O1 Zr1 54.2(2) 83 83
O1 O1 Zr1 80.6(3) 83 .
O1 O1 Zr1 127.9(2) 84 83
Zr1 O1 Zr1 132.51(9) . 84
Zr1 O1 Zr1 90.98(16) 84 83
Zr1 O1 Zr1 132.51(9) . 83
C13 N6 C13 105.7(2) . 54_655
C13 N6 Fe1 126.19(13) . .
C13 N6 Fe1 125.17(14) 54_655 80_554
C13 N6 Fe1 126.19(13) 54_655 .
C13 N6 Fe1 125.18(14) . 80_554
Fe1 N6 Fe1 29.31(11) . 80_554
C15 C7 C15 120.5(3) 48 .
C15 C7 C19 119.76(16) . .
C15 C7 C19 119.76(16) 48 .
C10 C10 C13 107.21(12) 54_655 .
N6 C13 C10 109.91(17) . .
N6 C13 C19 125.51(19) . .
C19 C13 C10 124.59(19) . .
C16 C14 C16 120.7(3) . 48
C16 C14 C6 119.65(15) . .
C16 C14 C6 119.65(15) 48 .
C7 C15 C16 119.9(3) . .
C14 C16 C15 119.5(3) . .
C13 C19 C7 117.66(12) . .
C13 C19 C7 117.66(12) 48 .
C13 C19 C13 124.7(2) 48 .
O3 Zr1 O1 69.70(12) . 84
O3 Zr1 O1 69.70(12) . 83
O3 Zr1 Zr1 31.68(3) . 12
O3 Zr1 Zr1 31.68(3) . 11
O3 Zr1 O2 140.70(6) . 70
O3 Zr1 O2 140.70(6) . .
O3 Zr1 O9 89.2(3) . .
O3 Zr1 O9 89.2(3) . 70
O1 Zr1 O3 91.98(15) . .
O1 Zr1 O1 45.24(12) . 83
O1 Zr1 O1 45.24(12) . 84
O1 Zr1 O1 74.47(17) 83 84
O1 Zr1 Zr1 82.45(9) . 12
O1 Zr1 Zr1 44.51(8) 84 11
O1 Zr1 Zr1 83.80(8) 84 12
O1 Zr1 Zr1 83.80(8) 83 11
O1 Zr1 Zr1 44.51(8) 83 12
O1 Zr1 Zr1 82.45(9) . 11
O1 Zr1 O2 74.31(11) . .
O1 Zr1 O2 74.31(11) . 70
O1 Zr1 O9 150.4(3) . .
O1 Zr1 O9 150.4(3) . 70
Zr1 Zr1 Zr1 60.0 11 12
O2 Zr1 O1 74.93(10) . 84
O2 Zr1 O1 74.94(10) 70 83
O2 Zr1 O1 116.58(12) 70 84
O2 Zr1 O1 116.58(12) . 83
O2 Zr1 Zr1 155.72(7) 70 11
O2 Zr1 Zr1 109.09(4) 70 12
O2 Zr1 Zr1 109.09(4) . 11
O2 Zr1 Zr1 155.72(7) . 12
O2 Zr1 O2 71.54(8) . 70
O9 Zr1 O1 108.6(4) 70 84
O9 Zr1 O1 108.6(4) . 83
O9 Zr1 O1 156.5(2) . 84
O9 Zr1 O1 156.5(2) 70 83
O9 Zr1 Zr1 112.0(2) 70 12
O9 Zr1 Zr1 112.0(2) . 11
O9 Zr1 Zr1 83.2(3) 70 11
O9 Zr1 Zr1 83.2(3) . 12
O9 Zr1 O2 120.8(3) 70 70
O9 Zr1 O2 86.2(2) 70 .
O9 Zr1 O2 120.8(3) . .
O9 Zr1 O2 86.2(2) . 70
O9 Zr1 O9 59.2(7) 70 .
O3 Zr2 Zr2 40.77(6) . 11
O3 Zr2 Zr2 40.77(6) . 12
O3 Zr2 Zr2 92.86(7) . 83
O3 Zr2 Zr2 92.86(7) . 84
O3 Zr2 O5 124.13(13) . .
Zr2 Zr2 Zr2 53.34(2) 83 12
Zr2 Zr2 Zr2 90.0 83 11
Zr2 Zr2 Zr2 60.0 12 11
Zr2 Zr2 Zr2 90.0 84 12
Zr2 Zr2 Zr2 73.32(4) 83 84
Zr2 Zr2 Zr2 53.34(2) 84 11
O2 Zr2 O3 135.46(7) . .
O2 Zr2 O3 135.46(7) 70 .
O2 Zr2 Zr2 80.85(7) 70 83
O2 Zr2 Zr2 126.17(9) . 83
O2 Zr2 Zr2 170.15(6) 70 11
O2 Zr2 Zr2 80.85(7) . 84
O2 Zr2 Zr2 110.97(4) . 11
O2 Zr2 Zr2 126.17(9) 70 84
O2 Zr2 Zr2 170.14(6) . 12
O2 Zr2 Zr2 110.97(4) 70 12
O2 Zr2 O2 77.71(9) . 70
O2 Zr2 O4 112.09(17) 70 70
O2 Zr2 O4 66.15(14) . 70
O2 Zr2 O4 66.15(14) 70 .
O2 Zr2 O4 112.09(17) . .
O2 Zr2 O5 81.93(11) . .
O2 Zr2 O5 81.93(11) 70 .
O4 Zr2 O3 72.62(14) . .
O4 Zr2 O3 72.62(14) 70 .
O4 Zr2 Zr2 164.97(13) . 84
O4 Zr2 Zr2 164.97(13) 70 83
O4 Zr2 Zr2 112.88(13) . 11
O4 Zr2 Zr2 76.52(15) . 12
O4 Zr2 Zr2 76.51(15) 70 11
O4 Zr2 Zr2 102.88(17) 70 84
O4 Zr2 Zr2 112.88(13) 70 12
O4 Zr2 Zr2 102.89(17) . 83
O4 Zr2 O4 76.9(3) 70 .
O4 Zr2 O5 140.06(15) 70 .
O4 Zr2 O5 140.06(15) . .
O5 Zr2 O3 65.28(10) 84 .
O5 Zr2 O3 65.28(10) 83 .
O5 Zr2 Zr2 94.86(9) 83 11
O5 Zr2 Zr2 52.38(15) 84 84
O5 Zr2 Zr2 94.43(8) . 11
O5 Zr2 Zr2 94.86(9) 84 12
O5 Zr2 Zr2 35.30(9) 84 11
O5 Zr2 Zr2 35.30(9) 83 12
O5 Zr2 Zr2 46.32(6) . 83
O5 Zr2 Zr2 52.38(15) 83 83
O5 Zr2 Zr2 94.43(8) . 12
O5 Zr2 Zr2 46.32(6) . 84
O5 Zr2 Zr2 117.73(14) 83 84
O5 Zr2 Zr2 117.73(14) 84 83
O5 Zr2 O2 154.13(10) 84 70
O5 Zr2 O2 154.13(10) 83 .
O5 Zr2 O2 76.68(9) 84 .
O5 Zr2 O2 76.68(9) 83 70
O5 Zr2 O4 53.1(2) 83 .
O5 Zr2 O4 121.3(2) 84 .
O5 Zr2 O4 53.1(2) 84 70
O5 Zr2 O4 121.3(2) 83 70
O5 Zr2 O5 128.53(18) 84 83
O5 Zr2 O5 97.94(16) 83 .
O5 Zr2 O5 97.94(16) 84 .
C6 O2 Zr1 139.70(19) . .
C6 O2 Zr2 125.1(2) . .
O2 C6 C14 116.60(15) 48 .
O2 C6 C14 116.60(15) . .
O2 C6 O2 126.8(3) . 48
N6 Fe1 N6 151.0(2) . 51
N6 Fe1 N6 86.33(3) 51 82
N6 Fe1 N6 86.33(3) . 82
N6 Fe1 N6 150.3(2) 80_554 82
N6 Fe1 N6 86.33(3) 51 80_554
N6 Fe1 N6 86.33(3) . 80_554
Fe1 Fe1 N6 75.17(12) 80_554 82
Fe1 Fe1 N6 75.52(12) 80_554 51
Fe1 Fe1 N6 75.52(12) 80_554 .
Fe1 Fe1 N6 75.17(12) 80_554 80_554
Fe1 Fe1 O6 180.0 80_554 .
O6 Fe1 N6 104.83(12) . 82
O6 Fe1 N6 104.48(12) . .
O6 Fe1 N6 104.83(12) . 80_554
O6 Fe1 N6 104.48(12) . 51
Zr2 O5 Zr2 81.31(16) 84 .
Zr2 O5 Zr2 81.31(16) 83 .
Zr2 O5 Zr2 109.41(18) 84 83
O7 O6 Fe1 119(4) 51 .
O7 O6 Fe1 119(4) 9_655 .
O7 O6 Fe1 119(4) . .
O7 O6 Fe1 119(4) 54_655 .
O7 O6 O7 123(8) 51 54_655
O7 O6 O7 56(7) 9_655 51
O7 O6 O7 56(7) . 54_655
O7 O6 O7 95(6) . 51
O7 O6 O7 123(8) . 9_655
O7 O6 O7 95(6) 9_655 54_655
O8 O6 Fe1 119(5) 54_655 .
O8 O6 Fe1 119(5) . .
O8 O6 O8 122(10) 54_655 .
O6 O7 O7 42(3) . 51
O7 O7 O6 62(3) 54_655 .
O7 O7 O7 90.00(3) 54_655 51
loop_
_geom_bond_atom_site_label_1
_geom_bond_atom_site_label_2
_geom_bond_distance
_geom_bond_site_symmetry_2
O3 Zr1 2.0756(9) 12
O3 Zr1 2.0756(9) 11
O3 Zr1 2.0756(9) .
O3 Zr2 2.312(2) 11
O3 Zr2 2.312(2) .
O3 Zr2 2.312(2) 12
O1 O1 1.783(4) 83
O1 O1 1.783(4) 84
O1 Zr1 2.036(5) .
O1 Zr1 2.477(3) 84
O1 Zr1 2.477(3) 83
N6 C13 1.372(2) .
N6 C13 1.372(2) 54_655
N6 Fe1 2.085(2) 80_554
N6 Fe1 2.082(2) .
C7 C15 1.381(4) 48
C7 C15 1.381(4) .
C7 C19 1.506(4) .
C10 C10 1.341(4) 54_655
C10 C13 1.432(3) .
C13 C19 1.397(2) .
C14 C16 1.385(4) .
C14 C16 1.385(4) 48
C14 C6 1.500(4) .
C15 C16 1.404(3) .
C19 C13 1.397(2) 48
Zr1 O1 2.477(3) 84
Zr1 O1 2.477(3) 83
Zr1 Zr1 3.5325(11) 11
Zr1 Zr1 3.5325(11) 12
Zr1 O2 2.3231(19) .
Zr1 O2 2.3231(19) 70
Zr1 O9 2.146(7) .
Zr1 O9 2.146(7) 70
Zr2 Zr2 2.9330(15) 84
Zr2 Zr2 3.5025(10) 12
Zr2 Zr2 2.9330(15) 83
Zr2 Zr2 3.5025(10) 11
Zr2 O2 2.1646(16) 70
Zr2 O2 2.1645(16) .
Zr2 O4 2.243(5) 70
Zr2 O4 2.243(5) .
Zr2 O5 2.350(6) .
Zr2 O5 2.146(2) 84
Zr2 O5 2.146(2) 83
O2 C6 1.265(3) .
C6 O2 1.265(3) 48
Fe1 N6 2.085(2) 82
Fe1 N6 2.085(2) 80_554
Fe1 N6 2.082(2) 51
Fe1 Fe1 1.054(4) 80_554
Fe1 O6 1.789(12) .
O5 Zr2 2.146(2) 84
O5 Zr2 2.146(2) 83
O6 O7 1.15(4) .
O6 O7 1.15(4) 54_655
O6 O7 1.15(4) 51
O6 O7 1.15(4) 9_655
O6 O8 1.15(4) 54_655
O6 O8 1.15(4) .
O7 O7 1.08(12) 54_655
O7 O7 1.70(9) 51
loop_
_geom_torsion_atom_site_label_1
_geom_torsion_atom_site_label_2
_geom_torsion_atom_site_label_3
_geom_torsion_atom_site_label_4
_geom_torsion
_geom_torsion_site_symmetry_1
_geom_torsion_site_symmetry_4
N6 C13 C19 C7 -177.9(3) . .
N6 C13 C19 C13 2.1(3) . 48
N6 Fe1 O6 O7 -122(3) 82 51
N6 Fe1 O6 O7 58(3) 82 54_655
N6 Fe1 O6 O7 -32(3) . 51
N6 Fe1 O6 O7 -148(3) . .
N6 Fe1 O6 O7 -32(3) 51 54_655
N6 Fe1 O6 O7 32(3) 51 .
N6 Fe1 O6 O7 -58(3) 82 9_655
N6 Fe1 O6 O7 -58(3) 80_554 .
N6 Fe1 O6 O7 58(3) 80_554 51
N6 Fe1 O6 O7 122(3) 82 .
N6 Fe1 O6 O7 148(3) . 54_655
N6 Fe1 O6 O7 32(3) . 9_655
N6 Fe1 O6 O7 -122(3) 80_554 54_655
N6 Fe1 O6 O7 -148(3) 51 9_655
N6 Fe1 O6 O7 122(3) 80_554 9_655
N6 Fe1 O6 O7 148(3) 51 51
N6 Fe1 O6 O8 0.0 82 .
N6 Fe1 O6 O8 90.000(0) . .
N6 Fe1 O6 O8 180.0 80_554 .
N6 Fe1 O6 O8 -90.000(1) . 54_655
N6 Fe1 O6 O8 -90.000(0) 51 .
N6 Fe1 O6 O8 90.000(1) 51 54_655
N6 Fe1 O6 O8 180.0 82 54_655
N6 Fe1 O6 O8 0.0 80_554 54_655
C7 C15 C16 C14 0.2(4) . .
C10 C10 C13 N6 0.7(3) 54_655 .
C10 C10 C13 C19 -179.8(2) 54_655 .
C10 C13 C19 C7 2.8(4) . .
C10 C13 C19 C13 -177.2(4) . 48
C13 N6 C13 C10 -1.2(5) 54_655 .
C13 N6 C13 C19 179.42(13) 54_655 .
C15 C7 C15 C16 -0.08(19) 48 .
C15 C7 C19 C13 75.0(2) 48 .
C15 C7 C19 C13 -105.0(2) 48 48
C15 C7 C19 C13 -105.0(2) . .
C15 C7 C19 C13 75.0(2) . 48
C16 C14 C16 C15 -0.09(18) 48 .
C16 C14 C6 O2 178.19(17) 48 .
C16 C14 C6 O2 178.18(17) . 48
C16 C14 C6 O2 -1.81(17) 48 48
C16 C14 C6 O2 -1.82(17) . .
C19 C7 C15 C16 179.92(19) . .
Zr1 O2 C6 C14 -170.26(16) . .
Zr1 O2 C6 O2 9.74(15) . 48
Zr2 O2 C6 C14 174.23(8) . .
Zr2 O2 C6 O2 -5.77(8) . 48
C6 C14 C16 C15 179.92(18) . .
Fe1 N6 C13 C10 157.4(3) 80_554 .
Fe1 N6 C13 C10 -166.3(3) . .
Fe1 N6 C13 C19 14.3(5) . .
Fe1 N6 C13 C19 -22.0(5) 80_554 .
Fe1 O6 O7 O7 127(6) . 51
Fe1 O6 O7 O7 -107(3) . 54_655
O7 O6 O7 O7 -53(6) 9_655 51
O7 O6 O7 O7 -126(6) 54_655 51
O7 O6 O7 O7 73(3) 9_655 54_655
O7 O6 O7 O7 126(6) 51 54_655
O8 O6 O7 O7 148(7) 54_655 54_655
O8 O6 O7 O7 -102(6) . 51
O8 O6 O7 O7 24(4) . 54_655
O8 O6 O7 O7 22(11) 54_655 51
#BEGIN Loops that were not found in dictionaries:
loop_
_smtbx_masks_void_nr
_smtbx_masks_void_average_x
_smtbx_masks_void_average_y
_smtbx_masks_void_average_z
_smtbx_masks_void_volume
_smtbx_masks_void_count_electrons
1 -0.166 -0.023 -0.016 47016.5 6936.2
#END Loops that were not found in dictionaries
