#------------------------------------------------------------------------------
#$Date: 2016-02-16 22:30:59 +0200 (Tue, 16 Feb 2016) $
#$Revision: 176467 $
#$URL: svn://www.crystallography.net/cod/cif/4/12/24/4122441.cif $
#------------------------------------------------------------------------------
#
# This file is available in the Crystallography Open Database (COD),
# http://www.crystallography.net/
#
# All data on this site have been placed in the public domain by the
# contributors.
#
data_4122441
loop_
_publ_author_name
'Kapelewski, Matthew T.'
'Geier, Stephen J.'
'Hudson, Matthew R.'
'St\"uck, David'
'Mason, Jarad A.'
'Nelson, Jocienne N.'
'Xiao, Dianne J.'
'Hulvey, Zeric'
'Gilmour, Elizabeth'
'FitzGerald, Stephen A.'
'Head-Gordon, Martin'
'Brown, Craig M.'
'Long, Jeffrey R.'
_publ_section_title
;
 M2(m-dobdc) (M = Mg, Mn, Fe, Co, Ni) Metal-Organic Frameworks Exhibiting
 Increased Charge Density and Enhanced H2 Binding at the Open Metal Sites.
;
_journal_issue                   34
_journal_name_full               'Journal of the American Chemical Society'
_journal_page_first              12119
_journal_paper_doi               10.1021/ja506230r
_journal_volume                  136
_journal_year                    2014
_chemical_formula_sum            'C4 H Co D1.69 O3'
_chemical_formula_weight         159.39
_chemical_name_systematic        ' ?'
_space_group_IT_number           160
_symmetry_cell_setting           trigonal
_symmetry_space_group_name_Hall  'R 3 -2"'
_symmetry_space_group_name_H-M   'R 3 m :H'
_audit_creation_date             2013-05-16T13:05
_audit_creation_method           'from EXP file using GSAS2CIF'
_audit_update_record
' 2013-05-16T13:05  Initial CIF as created by GSAS2CIF'
_cell_angle_alpha                90.0
_cell_angle_beta                 90.0
_cell_angle_gamma                120.0
_cell_formula_units_Z            18
_cell_length_a                   25.8419(17)
_cell_length_b                   25.8419
_cell_length_c                   6.7810(7)
_cell_volume                     3921.7(5)
_computing_structure_refinement  GSAS
_diffrn_radiation_probe          neutron
_diffrn_radiation_wavelength     2.078
_exptl_absorpt_correction_T_max  1.00000
_exptl_absorpt_correction_T_min  1.00000
_exptl_absorpt_process_details
;   GSAS Absorption/surface roughness correction: function number 0
 No correction is applied.
;
_pd_block_id                     2013-05-16T13:05|CO_PRIME_0P75_D2_R||BT1
_pd_calc_method                  'Rietveld Refinement'
_pd_instr_location               ' ?'
_pd_meas_2theta_range_inc        0.05
_pd_meas_2theta_range_max        166.25
_pd_meas_2theta_range_min        1.5
_pd_meas_number_of_points        3296
_pd_phase_name                   Co_dobdc_prime_0.75_D2
_pd_proc_2theta_range_inc        0.05
_pd_proc_2theta_range_max        166.3563
_pd_proc_2theta_range_min        1.6063
_pd_proc_info_datetime           2013-05-16T13:05:43
_pd_proc_info_excluded_regions   ' ?'
_pd_proc_ls_background_function
;   GSAS Background function number 1 with 12 terms.
 Shifted Chebyshev function of 1st kind
      1:    334.730     2:   -133.854     3:    149.471     4:    27.4121    
      5:    48.5949     6:   -11.1564     7:    33.4228     8:    5.57354    
      9:    9.46352    10:   0.221949    11:    4.56803    12:   -2.14418    
;
_pd_proc_ls_peak_cutoff          0.00050
_pd_proc_ls_profile_function
;
 CW Profile function number 3 with  19 terms
 Pseudovoigt profile coefficients as parameterized in
 P. Thompson, D.E. Cox & J.B. Hastings (1987). J. Appl. Cryst.,20,79-83.
 Asymmetry correction of L.W. Finger, D.E. Cox & A. P. Jephcoat (1994).
 J. Appl. Cryst.,27,892-900.
 Peak tails are ignored  where the intensity is below 0.0005 times the peak
   Aniso. broadening axis   0.0   0.0   1.0
;
_pd_proc_ls_prof_R_factor        0.0391
_pd_proc_ls_prof_wR_expected     0.0552
_pd_proc_ls_prof_wR_factor       0.0498
_pd_proc_number_of_points        3296
_pd_spec_mounting                ' ?'
_refine_ls_goodness_of_fit_all   0.91
_refine_ls_matrix_type           full
_refine_ls_number_parameters     48
_refine_ls_number_restraints     16
_refine_ls_R_Fsqd_factor         0.05711
_refine_ls_shift/su_max          4.35
_refine_ls_shift/su_mean         1.26
_reflns_d_resolution_high        1.059
_reflns_d_resolution_low         12.921
_reflns_limit_h_max              21
_reflns_limit_h_min              0
_reflns_limit_k_max              12
_reflns_limit_k_min              0
_reflns_limit_l_max              6
_reflns_limit_l_min              -6
_reflns_number_total             430
_cod_data_source_file            CO_PRIME_0P75_D2_R.cif
_cod_data_source_block           CO_PRIME_0P75_D2_R_publ
_cod_depositor_comments
;
The following automatic conversions were performed:

'_geom_bond_publ_flag' value 'N' changed to 'n' according to
/usr/data/users/saulius/crontab/automatic-downloads/rss-feeds/ACS/lib/dictionaries/cif_core.dic
dictionary named 'cif_core.dic' version 2.4.2 from 2011-04-26 (51
time).

'_geom_angle_publ_flag' value 'N' changed to 'n' according to
/usr/data/users/saulius/crontab/automatic-downloads/rss-feeds/ACS/lib/dictionaries/cif_core.dic
dictionary named 'cif_core.dic' version 2.4.2 from 2011-04-26 (26
times).

Automatic conversion script
Id: cif_fix_values 2281 2013-09-26 08:29:07Z andrius 

 Adding full bibliography for 4122440--4122455.cif.
;
_cod_original_sg_symbol_H-M      'R 3 m'
_cod_original_formula_sum        'C4 H D1.69 Co O3'
_cod_database_code               4122441
#BEGIN Tags that were not found in dictionaries:
_gsas_exptl_extinct_corr_t_min   1.00000
_gsas_exptl_extinct_corr_t_max   1.00000
#END Tags that were not found in dictionaries
loop_
_symmetry_equiv_pos_site_id
_symmetry_equiv_pos_as_xyz
1 +x,+y,+z
2 -y,x-y,+z
3 y-x,-x,+z
4 y-x,+y,+z
5 -y,-x,+z
6 +x,x-y,+z
101 +x+1/3,+y+2/3,+z+2/3
102 -y+1/3,x-y+2/3,+z+2/3
103 y-x+1/3,-x+2/3,+z+2/3
104 y-x+1/3,+y+2/3,+z+2/3
105 -y+1/3,-x+2/3,+z+2/3
106 +x+1/3,x-y+2/3,+z+2/3
201 +x+2/3,+y+1/3,+z+1/3
202 -y+2/3,x-y+1/3,+z+1/3
203 y-x+2/3,-x+1/3,+z+1/3
204 y-x+2/3,+y+1/3,+z+1/3
205 -y+2/3,-x+1/3,+z+1/3
206 +x+2/3,x-y+1/3,+z+1/3
loop_
_atom_site_type_symbol
_atom_site_label
_atom_site_fract_x
_atom_site_fract_y
_atom_site_fract_z
_atom_site_occupancy
_atom_site_thermal_displace_type
_atom_site_U_iso_or_equiv
_atom_site_symmetry_multiplicity
C C1 0.6573(8) 0.8763(8) 0.8380(29) 1.0 Uiso 0.018(5) 18
C C2 0.6645(10) 0.8323(5) 0.747(4) 1.0 Uiso 0.013(8) 9
C C6 0.6399(7) 0.8669(7) 0.0453(29) 1.0 Uiso 0.015(5) 18
C C11 0.6321(6) 0.9089(6) 0.1640(24) 1.0 Uiso 0.0044(34) 18
Co Co2 0.3295(20) 0.3761(16) 0.559(6) 1.0 Uiso 0.001(9) 18
H H7 0.6776(25) 0.8388(13) 0.587(10) 1.0 Uiso 0.062(19) 9
O O9 0.6700(8) 0.9255(7) 0.7476(29) 1.0 Uiso 0.010(5) 18
O O12 0.6497(9) 0.9617(9) 0.0897(26) 1.0 Uiso 0.021(7) 18
O O15 0.6084(8) 0.8903(7) 0.3303(30) 1.0 Uiso 0.011(4) 18
C C2m 0.6285(11) 0.8142(6) 0.125(4) 1.0 Uiso 0.026(8) 9
H H7m 0.6159(22) 0.8080(11) 0.285(8) 1.0 Uiso 0.037(13) 9
D D1 0.2042(6) 0.2155(6) 0.0181(21) 1.69(5) Uiso 0.090(6) 18
loop_
_atom_type_symbol
_atom_type_number_in_cell
_atom_type_scat_length_neutron
_atom_type_scat_source
C 72.0 0.6646 International_Tables_Vol_C
Co 18.0 0.2490 International_Tables_Vol_C
H 18.0 -0.3739 International_Tables_Vol_C
O 54.0 0.5803 International_Tables_Vol_C
D 30.466 0.6671 International_Tables_Vol_C
loop_
_geom_angle_atom_site_label_1
_geom_angle_atom_site_label_2
_geom_angle_atom_site_label_3
_geom_angle
_geom_angle_site_symmetry_1
_geom_angle_site_symmetry_3
_geom_angle_publ_flag
C2 C1 C6 116.7(19) 1_555 1_556 n
C2 C1 O9 121.5(22) 1_555 1_555 n
C6 C1 O9 121.6(18) 1_556 1_555 n
C1 C2 C1 125.3(29) 1_555 6_565 n
C1 C2 H7 117.4(14) 1_555 1_555 n
C1 C2 H7 117.4(14) 6_565 1_555 n
C1 C6 C11 124.1(14) 1_554 1_555 n
C1 C6 C2m 116.6(17) 1_554 1_555 n
C11 C6 C2m 119.3(18) 1_555 1_555 n
C6 C11 O12 117.6(17) 1_555 1_555 n
C6 C11 O15 115.9(15) 1_555 1_555 n
O12 C11 O15 126.5(19) 1_555 1_555 n
O9 Co2 O9 167.3(29) 3_565 102_654 n
O9 Co2 O12 84.3(19) 3_565 102_655 n
O9 Co2 O15 95.9(21) 3_565 3_565 n
O9 Co2 O12 83.4(21) 102_654 102_655 n
O9 Co2 O15 96.1(20) 102_654 3_565 n
O12 Co2 O15 174.5(19) 102_655 3_565 n
C1 O9 Co2 135.5(17) 1_555 2_665 n
C1 O9 Co2 119.8(20) 1_555 203_565 n
Co2 O9 Co2 94.4(17) 2_665 203_565 n
C11 O12 Co2 126.8(18) 1_555 203_564 n
C11 O15 Co2 119.2(16) 1_555 2_665 n
C6 C2m C6 127.3(25) 1_555 6_565 n
C6 C2m H7m 115.9(13) 1_555 1_555 n
C6 C2m H7m 115.8(13) 6_565 1_555 n
loop_
_geom_bond_atom_site_label_1
_geom_bond_atom_site_label_2
_geom_bond_distance
_geom_bond_site_symmetry_2
_geom_bond_publ_flag
C1 C2 1.386(20) 1_555 n
C1 C6 1.459(21) 1_556 n
C1 Co2 3.16(5) 2_665 n
C1 Co2 2.89(5) 203_565 n
C1 O9 1.297(21) 1_555 n
C2 C1 1.386(20) 1_555 n
C2 C1 1.386(20) 6_565 n
C2 H7 1.12(8) 1_555 n
C6 C1 1.459(21) 1_554 n
C6 C11 1.444(24) 1_555 n
C6 Co2 3.24(5) 203_564 n
C6 C2m 1.354(17) 1_555 n
C6 H7m 2.10(5) 1_555 n
C11 C6 1.444(24) 1_555 n
C11 Co2 2.96(5) 2_665 n
C11 Co2 3.17(4) 101_554 n
C11 Co2 2.95(5) 203_564 n
C11 O12 1.304(22) 1_555 n
C11 O15 1.258(19) 1_555 n
Co2 C1 3.16(5) 3_565 n
Co2 C1 2.89(5) 102_654 n
Co2 C6 3.24(5) 102_655 n
Co2 C11 2.96(5) 3_565 n
Co2 C11 2.95(5) 102_655 n
Co2 C11 3.17(4) 201_445 n
Co2 Co2 3.02(4) 103_554 n
Co2 Co2 3.02(4) 202_555 n
Co2 O9 2.11(4) 3_565 n
Co2 O9 2.01(4) 102_654 n
Co2 O12 3.23(5) 3_565 n
Co2 O12 1.97(5) 102_655 n
Co2 O12 2.15(4) 201_445 n
Co2 O15 2.14(5) 3_565 n
Co2 D1 2.234(34) 103_555 n
H7 C2 1.12(8) 1_555 n
O9 C1 1.297(21) 1_555 n
O9 Co2 2.11(4) 2_665 n
O9 Co2 2.01(4) 203_565 n
O12 C11 1.304(22) 1_555 n
O12 Co2 3.23(5) 2_665 n
O12 Co2 2.15(4) 101_554 n
O12 Co2 1.97(5) 203_564 n
O15 C11 1.258(19) 1_555 n
O15 Co2 2.14(5) 2_665 n
C2m C6 1.354(17) 1_555 n
C2m C6 1.354(17) 6_565 n
C2m H7m 1.12(7) 1_555 n
H7m C6 2.10(5) 1_555 n
H7m C6 2.10(5) 6_565 n
H7m C2m 1.12(7) 1_555 n
D1 Co2 2.234(34) 202_554 n
loop_
_pd_meas_intensity_total
_pd_proc_ls_weight
_pd_proc_intensity_bkg_calc
_pd_calc_intensity_total
3860(140) 0.0 1123. .
3380(130) 0.0 1117. .
2920(120) 0.0 1111. .
2700(110) 0.0 1104. .
2560(110) 0.0 1098. .
2200(100) 0.0 1092. .
2170(100) 0.0 1086. .
2140(100) 0.0 1080. .
1807(91) 0.0 1074. .
1861(93) 0.0 1068. .
1701(89) 0.0 1062. .
1822(92) 0.0 1056. .
1662(88) 0.0 1050. .
1759(90) 0.0 1045. .
1575(85) 0.0 1039. .
1652(87) 0.0 1033. .
1507(83) 0.0 1028. .
1453(82) 0.0 1022. .
1376(79) 0.0 1017. .
1487(83) 0.0 1011. .
1531(84) 0.0 1006. .
1420(81) 0.0 1001. .
1313(77) 0.0 995. .
1298(77) 0.0 990. .
1298(77) 0.0 985. .
1269(76) 0.0 980. .
1361(79) 0.0 975. .
1327(78) 0.0 970. .
1279(76) 0.0 965. .
1143(72) 0.0 960. .
1357(79) 0.0 955. .
1211(74) 0.0 950. .
1255(75) 0.0 945. .
1216(74) 0.0 940. .
988(66) 0.0 935. .
1027(68) 0.0 931. .
988(66) 0.0 926. .
1061(69) 0.0 922. .
930(64) 0.0 917. .
969(66) 0.0 912. .
872(62) 0.0 908. .
896(63) 0.0 903. .
1022(68) 0.0 899. .
998(67) 0.0 895. .
925(64) 0.0 890. .
852(61) 0.0 886. .
940(65) 0.0 882. .
852(61) 0.0 878. .
833(60) 0.0 873. .
862(62) 0.0 869. .
891(63) 0.0 865. .
881(62) 0.0 861. .
949(65) 0.0 857. .
969(66) 0.0 853. .
707(55) 0.0 849. .
794(59) 0.0 845. .
877(62) 0.0 841. .
847(61) 0.0 838. .
818(60) 0.0 834. .
770(58) 0.0 830. .
639(52) 0.0 826. .
828(60) 0.0 822. .
944(65) 0.0 819. .
823(60) 0.0 815. .
794(59) 0.0 812. .
717(55) 0.0 808. .
828(60) 0.0 804. .
746(57) 0.0 801. .
741(57) 0.0 797. .
765(58) 0.0 794. .
741(57) 0.0 791. .
731(56) 0.0 787. .
775(58) 0.0 784. .
741(57) 0.0 781. .
823(60) 0.0 777. .
717(55) 0.0 774. .
741(57) 0.0 771. .
683(54) 0.0 768. .
721(56) 0.0 764. .
784(58) 0.0 761. .
668(53) 0.0 758. .
731(56) 0.0 755. .
663(53) 0.0 752. .
649(52) 0.0 749. .
644(52) 0.0 746. .
726(56) 0.0 743. .
726(56) 0.0 740. .
605(50) 0.0 737. .
649(52) 0.0 734. .
610(51) 0.0 732. .
663(53) 0.0 729. .
634(52) 0.0 726. .
746(57) 0.0 723. .
765(58) 0.0 720. .
712(55) 0.0 718. .
634(52) 0.0 715. .
678(54) 0.0 712. .
586(49) 0.0 710. .
595(50) 0.0 707. .
683(54) 0.0 704. .
797(40) 0.0 702. .
739(39) 0.0 699. .
738(39) 0.0 697. .
719(38) 0.000693 694. 702.
699(37) 0.000730 692. 700.
726(38) 0.000693 689. 698.
714(38) 0.000693 687. 696.
688(37) 0.000730 684. 694.
684(37) 0.000730 682. 692.
643(35) 0.000816 679.6 690.3
626(35) 0.000816 677.3 688.6
705(37) 0.000730 675. 687.
706(37) 0.000730 673. 685.
707(37) 0.000730 670. 684.
642(35) 0.000816 668.1 682.8
675(36) 0.000772 666. 682.
606(34) 0.000865 663.7 680.8
671(36) 0.000772 661. 680.
724(38) 0.000693 659. 680.
691(37) 0.000730 657. 680.
680(37) 0.000730 655. 682.
789(40) 0.000625 653. 685.
729(38) 0.000693 651. 692.
770(39) 0.000657 649. 704.
806(40) 0.000625 647. 722.
820(41) 0.000595 645. 746.
839(41) 0.000595 643. 776.
875(42) 0.000567 641. 812.
889(43) 0.000541 639. 852.
884(43) 0.000541 637. 897.
862(42) 0.000567 635. 946.
975(45) 0.000494 633. 999.
1016(46) 0.000473 631. 1056.
1067(47) 0.000453 629. 1118.
1166(50) 0.000400 627. 1185.
1181(50) 0.000400 625. 1259.
1313(53) 0.000356 623. 1340.
1383(55) 0.0003306 622. 1430.
1566(58) 0.0002973 620. 1530.
1576(58) 0.0002973 618. 1641.
1729(61) 0.0002687 616. 1767.
1748(62) 0.0002601 614. 1912.
2003(66) 0.0002296 613. 2079.
2303(71) 0.0001984 611. 2278.
2446(74) 0.0001826 609. 2519.
2897(81) 0.0001524 608. 2821.
3150(84) 0.0001417 606. 3208.
3603(90) 0.0001235 604. 3702.
4362(99) 0.0001020 603. 4299.
5100(110) 0.0000857 601. 4927.
5430(110) 0.0000812 599. 5432.
5790(120) 0.0000756 598. 5595.
5230(110) 0.0000842 596. 5244.
4450(100) 0.0001000 595. 4399.
3246(85) 0.0001384 593. 3327.
2302(71) 0.0001984 591. 2336.
1574(58) 0.0002973 590. 1599.
1152(49) 0.000416 588. 1141.
838(41) 0.000595 587. 894.
705(37) 0.000730 585. 774.
749(39) 0.000657 584. 717.
691(37) 0.000730 582. 686.
595(34) 0.000865 581.0 667.1
562(33) 0.000918 579.6 652.8
596(34) 0.000865 578.2 641.5
629(35) 0.000816 576.7 632.0
593(34) 0.000865 575.4 624.1
618(35) 0.000816 574.0 617.3
608(34) 0.000865 572.6 611.3
574(33) 0.000918 571.2 606.1
605(34) 0.000865 569.9 601.4
564(33) 0.000918 568.6 597.2
632(35) 0.000816 567.2 593.4
530(32) 0.000977 565.9 590.0
613(34) 0.000865 564.6 586.8
639(35) 0.000816 563.4 583.8
616(35) 0.000816 562.1 581.0
552(32) 0.000977 560.8 578.4
538(32) 0.000977 559.6 576.0
596(34) 0.000865 558.3 573.6
540(32) 0.000977 557.1 571.4
522(31) 0.001041 555.9 569.3
593(34) 0.000865 554.7 567.3
580(33) 0.000918 553.5 565.4
574(33) 0.000918 552.3 563.5
608(34) 0.000865 551.1 561.8
569(33) 0.000918 550.0 560.0
523(31) 0.001041 548.8 558.4
590(34) 0.000865 547.7 556.7
570(33) 0.000918 546.5 555.1
528(31) 0.001041 545.4 553.6
565(33) 0.000918 544.3 552.1
532(32) 0.000977 543.2 550.7
495(30) 0.001111 542.1 549.2
532(32) 0.000977 541.0 547.8
543(32) 0.000977 540.0 546.5
541(43) 0.000541 539. 545.
533(43) 0.000541 538. 544.
520(42) 0.000567 537. 543.
590(46) 0.000473 536. 541.
552(32) 0.000977 534.7 540.0
533(32) 0.000977 533.7 539.1
541(32) 0.000977 532.7 537.9
549(32) 0.000977 531.7 536.7
578(33) 0.000918 530.7 535.6
527(31) 0.001041 529.7 534.5
515(31) 0.001041 528.7 533.3
551(32) 0.000977 527.8 532.2
497(30) 0.001111 526.8 531.1
516(31) 0.001041 525.9 530.1
555(32) 0.000977 524.9 529.0
566(33) 0.000918 524.0 528.0
547(32) 0.000977 523.1 527.0
503(30) 0.001111 522.2 525.9
557(32) 0.000977 521.2 524.9
563(33) 0.000918 520.3 523.9
517(31) 0.001041 519.4 523.0
485(30) 0.001111 518.6 522.0
506(31) 0.001041 517.7 521.1
518(31) 0.001041 516.8 520.1
535(32) 0.000977 515.9 519.2
551(32) 0.000977 515.1 518.3
527(31) 0.001041 514.2 517.4
499(30) 0.001111 513.4 516.5
537(32) 0.000977 512.6 515.6
510(31) 0.001041 511.7 514.7
512(31) 0.001041 510.9 513.9
557(32) 0.000977 510.1 513.0
520(31) 0.001041 509.3 509.9
508(31) 0.001041 508.5 509.1
500(30) 0.001111 507.7 508.4
558(32) 0.000977 506.9 507.6
539(32) 0.000977 506.1 506.9
525(31) 0.001041 505.3 506.1
495(30) 0.001111 504.6 505.4
524(31) 0.001041 503.8 504.6
528(31) 0.001041 503.1 503.9
545(32) 0.000977 502.3 503.2
506(31) 0.001041 501.6 502.5
513(31) 0.001041 500.8 501.8
580(33) 0.000918 500.1 501.1
549(32) 0.000977 499.4 500.4
504(30) 0.001111 498.6 499.8
486(30) 0.001111 497.9 499.1
525(31) 0.001041 497.2 498.5
536(32) 0.000977 496.5 497.8
517(31) 0.001041 495.8 497.2
514(31) 0.001041 495.1 496.6
509(31) 0.001041 494.4 496.0
445(28) 0.001276 493.8 495.5
492(30) 0.001111 493.1 494.9
517(31) 0.001041 492.4 494.4
493(30) 0.001111 491.7 493.8
507(31) 0.001041 491.1 493.3
487(30) 0.001111 490.4 492.8
499(30) 0.001111 489.8 492.3
558(32) 0.000977 489.1 491.8
514(31) 0.001041 488.5 491.3
523(31) 0.001041 487.8 490.9
542(32) 0.000977 487.2 490.5
491(30) 0.001111 486.6 490.2
524(31) 0.001041 486.0 489.8
500(30) 0.001111 485.3 489.6
505(30) 0.001111 484.7 489.4
458(29) 0.001189 484.1 489.2
545(32) 0.000977 483.5 489.2
577(33) 0.000918 482.9 489.2
547(32) 0.000977 482.3 489.4
506(31) 0.001041 481.7 489.9
538(32) 0.000977 481.2 490.9
510(31) 0.001041 480.6 492.6
556(32) 0.000977 480.0 495.7
516(31) 0.001041 479.4 500.8
496(30) 0.001111 478.9 508.6
554(32) 0.000977 478.3 519.6
518(31) 0.001041 477.7 534.0
535(32) 0.000977 477.2 552.0
628(35) 0.000816 476.6 573.6
642(35) 0.000816 476.1 599.4
616(34) 0.000865 475.5 630.3
640(35) 0.000816 475.0 668.0
703(37) 0.000730 474. 715.
801(40) 0.000625 474. 776.
904(43) 0.000541 473. 854.
983(45) 0.000494 473. 948.
1046(47) 0.000453 472. 1047.
1063(47) 0.000453 472. 1126.
1024(46) 0.000473 471. 1149.
1014(46) 0.000473 471. 1090.
962(45) 0.000494 470. 960.
858(42) 0.000567 470. 809.
681(37) 0.000730 469. 679.
632(35) 0.000816 468.8 589.3
546(32) 0.000977 468.3 537.0
514(31) 0.001041 467.8 509.7
529(31) 0.001041 467.3 496.1
498(45) 0.000494 467. 489.
500(30) 0.001111 466.3 484.4
486(30) 0.001111 465.8 481.2
483(30) 0.001111 465.4 478.7
460(29) 0.001189 464.9 476.6
458(29) 0.001189 464.4 474.9
504(30) 0.001111 463.9 473.4
446(28) 0.001276 463.5 472.1
501(30) 0.001111 463.0 471.0
434(28) 0.001276 462.6 470.0
478(29) 0.001189 462.1 469.1
472(29) 0.001189 461.7 468.3
494(30) 0.001111 461.2 467.6
503(30) 0.001111 460.8 466.9
490(30) 0.001111 460.3 466.3
512(31) 0.001041 459.9 465.8
480(29) 0.001189 459.4 465.3
453(28) 0.001276 459.0 464.9
514(31) 0.001041 458.6 464.5
477(29) 0.001189 458.1 464.3
478(29) 0.001189 457.7 464.1
485(30) 0.001111 457.3 463.9
450(28) 0.001276 456.8 464.0
422(27) 0.001372 456.4 464.2
481(29) 0.001189 456.0 464.8
464(29) 0.001189 455.6 466.0
463(29) 0.001189 455.2 468.2
478(29) 0.001189 454.8 471.8
417(27) 0.001372 454.4 477.3
500(30) 0.001111 454.0 484.9
493(30) 0.001111 453.5 495.0
539(32) 0.000977 453.1 507.8
506(30) 0.001111 452.7 523.9
527(31) 0.001041 452.3 544.1
542(32) 0.000977 451.9 569.9
597(34) 0.000865 451.6 603.2
700(37) 0.000730 451. 645.
736(38) 0.000693 451. 692.
744(38) 0.000693 450. 737.
767(39) 0.000657 450. 765.
819(40) 0.000625 450. 761.
756(38) 0.000693 449. 720.
641(35) 0.000816 448.9 656.9
611(34) 0.000865 448.5 591.2
515(31) 0.001041 448.1 537.9
503(30) 0.001111 447.7 501.8
474(29) 0.001189 447.4 480.6
438(28) 0.001276 447.0 469.2
451(28) 0.001276 446.6 463.3
450(28) 0.001276 446.3 460.0
441(28) 0.001276 445.9 457.8
468(29) 0.001189 445.5 456.3
444(28) 0.001276 445.2 455.2
449(28) 0.001276 444.8 454.2
454(28) 0.001276 444.5 453.5
468(29) 0.001189 444.1 452.9
490(30) 0.001111 443.8 452.4
449(28) 0.001276 443.4 452.1
419(27) 0.001372 443.1 451.8
446(28) 0.001276 442.7 451.7
469(29) 0.001189 442.4 451.6
461(29) 0.001189 442.0 451.7
461(29) 0.001189 441.7 451.9
407(27) 0.001372 441.3 452.3
459(29) 0.001189 441.0 452.8
435(28) 0.001276 440.7 453.5
491(30) 0.001111 440.3 454.5
469(29) 0.001189 440.0 455.9
466(29) 0.001189 439.7 457.8
501(30) 0.001111 439.3 460.7
511(31) 0.001041 439.0 465.2
500(30) 0.001111 438.7 472.6
519(31) 0.001041 438.3 484.4
520(31) 0.001041 438.0 502.6
548(32) 0.000977 437.7 529.1
576(33) 0.000918 437.4 565.3
621(34) 0.000865 437.1 613.0
617(34) 0.000865 436.7 674.1
771(39) 0.000657 436. 753.
908(43) 0.000541 436. 856.
974(44) 0.000517 436. 986.
1079(47) 0.000453 435. 1138.
1279(51) 0.000384 435. 1288.
1330(53) 0.000356 435. 1390.
1380(54) 0.0003429 435. 1389.
1228(50) 0.000400 434. 1259.
1038(46) 0.000473 434. 1049.
830(41) 0.000595 434. 838.
603(34) 0.000865 433.3 676.5
521(31) 0.001041 433.0 573.4
453(28) 0.001276 432.7 516.5
440(28) 0.001276 432.4 487.5
470(29) 0.001189 432.1 472.6
386(26) 0.001479 431.8 463.9
436(28) 0.001276 431.5 458.1
425(27) 0.001372 431.2 453.8
451(28) 0.001276 430.9 450.5
481(30) 0.001111 430.6 447.7
432(28) 0.001276 430.3 445.5
412(27) 0.001372 430.1 443.6
414(26) 0.001479 429.8 442.0
460(27) 0.001372 429.5 440.7
439(27) 0.001372 429.2 439.5
446(27) 0.001372 428.9 438.5
450(27) 0.001372 428.6 437.7
410(26) 0.001479 428.3 436.9
436(27) 0.001372 428.0 436.3
470(28) 0.001276 427.8 435.8
442(27) 0.001372 427.5 435.4
456(27) 0.001372 427.2 435.1
441(27) 0.001372 426.9 435.1
440(27) 0.001372 426.7 435.3
458(27) 0.001372 426.4 436.0
476(28) 0.001276 426.1 437.5
426(26) 0.001479 425.8 440.1
427(26) 0.001479 425.6 444.2
453(27) 0.001372 425.3 450.2
428(26) 0.001479 425.0 458.5
429(26) 0.001479 424.7 469.7
475(28) 0.001276 424.5 484.5
511(29) 0.001189 424.2 503.6
486(28) 0.001276 423.9 526.5
523(30) 0.001111 423.7 550.0
575(31) 0.001041 423.4 567.8
588(32) 0.000977 423.1 571.1
559(31) 0.001041 422.9 554.5
519(30) 0.001111 422.6 523.5
479(28) 0.001276 422.4 490.7
438(27) 0.001372 422.1 464.7
426(26) 0.001479 421.8 447.6
449(27) 0.001372 421.6 437.8
432(26) 0.001479 421.3 432.6
437(27) 0.001372 421.1 429.8
405(25) 0.001600 420.8 428.3
373(24) 0.001736 420.5 427.2
406(26) 0.001479 420.3 426.3
445(27) 0.001372 420.0 425.6
459(27) 0.001372 419.8 425.0
411(26) 0.001479 419.5 424.5
403(25) 0.001600 419.3 424.0
397(25) 0.001600 419.0 423.7
430(26) 0.001479 418.8 423.4
422(26) 0.001479 418.5 423.1
417(26) 0.001479 418.3 423.0
391(25) 0.001600 418.0 422.8
424(26) 0.001479 417.8 422.8
449(27) 0.001372 417.6 422.8
415(26) 0.001479 417.3 422.9
419(26) 0.001479 417.1 423.2
401(25) 0.001600 416.8 423.7
420(26) 0.001479 416.6 424.6
385(25) 0.001600 416.4 426.1
433(27) 0.001372 416.1 428.8
430(26) 0.001479 415.9 433.1
471(28) 0.001276 415.6 439.9
440(27) 0.001372 415.4 449.7
449(27) 0.001372 415.2 463.5
466(28) 0.001276 414.9 482.4
471(28) 0.001276 414.7 507.2
505(29) 0.001189 414.5 538.0
577(31) 0.001041 414.2 571.9
582(32) 0.000977 414.0 601.6
593(32) 0.000977 413.8 615.6
557(31) 0.001041 413.5 603.2
563(31) 0.001041 413.3 565.9
477(28) 0.001276 413.1 520.2
498(29) 0.001189 412.8 480.9
443(27) 0.001372 412.6 453.6
450(27) 0.001372 412.4 437.3
455(27) 0.001372 412.2 428.6
427(26) 0.001479 411.9 424.0
443(27) 0.001372 411.7 421.4
430(26) 0.001479 411.5 419.7
443(27) 0.001372 411.3 418.4
421(26) 0.001479 411.0 417.4
446(27) 0.001372 410.8 416.6
427(26) 0.001479 410.6 415.9
458(27) 0.001372 410.4 415.4
422(26) 0.001479 410.2 414.9
408(26) 0.001479 409.9 414.5
407(26) 0.001479 409.7 414.2
409(26) 0.001479 409.5 413.9
395(25) 0.001600 409.3 413.8
446(27) 0.001372 409.1 413.7
448(27) 0.001372 408.9 413.8
427(26) 0.001479 408.7 414.1
415(26) 0.001479 408.4 414.8
400(25) 0.001600 408.2 416.1
414(26) 0.001479 408.0 418.2
435(27) 0.001372 407.8 421.4
442(27) 0.001372 407.6 426.0
436(27) 0.001372 407.4 432.4
483(28) 0.001276 407.2 440.6
417(26) 0.001479 407.0 450.2
447(27) 0.001372 406.8 459.5
496(29) 0.001189 406.6 465.5
483(28) 0.001276 406.3 464.7
495(29) 0.001189 406.1 456.0
475(28) 0.001276 405.9 443.2
401(25) 0.001600 405.7 431.2
458(27) 0.001372 405.5 422.4
437(27) 0.001372 405.3 416.9
414(26) 0.001479 405.1 413.9
426(26) 0.001479 404.9 412.3
451(27) 0.001372 404.7 411.5
452(27) 0.001372 404.5 411.1
459(27) 0.001372 404.3 410.9
418(26) 0.001479 404.1 410.8
471(28) 0.001276 403.9 410.9
426(26) 0.001479 403.7 411.0
373(24) 0.001736 403.5 411.3
425(26) 0.001479 403.3 411.8
457(27) 0.001372 403.1 412.4
416(26) 0.001479 402.9 413.2
430(26) 0.001479 402.7 414.3
407(25) 0.001600 402.5 415.7
398(25) 0.001600 402.4 417.7
439(27) 0.001372 402.2 420.6
408(25) 0.001600 402.0 425.1
451(27) 0.001372 401.8 432.3
443(27) 0.001372 401.6 443.9
482(28) 0.001276 401.4 462.6
515(29) 0.001189 401.2 491.0
536(30) 0.001111 401.0 532.3
603(32) 0.000977 400.8 590.1
688(35) 0.000816 400.6 665.9
771(37) 0.000730 400. 756.
804(38) 0.000693 400. 846.
896(40) 0.000625 400. 912.
938(41) 0.000595 400. 923.
881(40) 0.000625 400. 864.
740(36) 0.000772 400. 757.
630(33) 0.000918 399.3 643.6
605(32) 0.000977 399.2 552.7
551(30) 0.001111 399.0 492.1
478(28) 0.001276 398.8 456.7
482(28) 0.001276 398.6 437.5
431(26) 0.001479 398.4 427.2
438(27) 0.001372 398.3 421.0
441(27) 0.001372 398.1 416.9
438(27) 0.001372 397.9 413.9
425(26) 0.001479 397.7 411.6
433(26) 0.001479 397.5 409.7
435(26) 0.001479 397.4 408.2
415(26) 0.001479 397.2 407.0
430(26) 0.001479 397.0 406.0
421(26) 0.001479 396.8 405.2
412(26) 0.001479 396.7 404.6
388(25) 0.001600 396.5 404.2
377(24) 0.001736 396.3 404.0
395(25) 0.001600 396.2 404.1
404(25) 0.001600 396.0 404.8
400(25) 0.001600 395.8 406.1
434(26) 0.001479 395.6 408.4
401(25) 0.001600 395.5 412.0
404(25) 0.001600 395.3 417.1
383(24) 0.001736 395.1 423.7
422(26) 0.001479 395.0 430.8
472(28) 0.001276 394.8 436.8
423(26) 0.001479 394.6 439.1
466(28) 0.001276 394.5 435.5
411(25) 0.001600 394.3 427.0
419(26) 0.001479 394.1 417.6
423(26) 0.001479 394.0 409.8
424(26) 0.001479 393.8 404.4
412(26) 0.001479 393.6 401.2
423(26) 0.001479 393.5 399.4
432(26) 0.001479 393.3 398.3
396(25) 0.001600 393.2 397.6
410(25) 0.001600 393.0 397.1
418(26) 0.001479 392.8 396.7
376(24) 0.001736 392.7 396.3
388(25) 0.001600 392.5 396.0
391(25) 0.001600 392.3 395.8
401(25) 0.001600 392.2 395.5
413(26) 0.001479 392.0 395.6
394(25) 0.001600 391.9 395.4
399(25) 0.001600 391.7 395.2
401(25) 0.001600 391.6 395.1
385(25) 0.001600 391.4 394.9
404(25) 0.001600 391.2 394.8
377(24) 0.001736 391.1 394.7
436(26) 0.001479 390.9 394.6
407(25) 0.001600 390.8 394.5
418(26) 0.001479 390.6 394.5
412(26) 0.001479 390.5 394.4
438(27) 0.001372 390.3 394.4
443(27) 0.001372 390.2 394.4
454(27) 0.001372 390.0 394.4
420(26) 0.001479 389.9 394.5
392(25) 0.001600 389.7 394.5
399(25) 0.001600 389.6 394.6
353(23) 0.001890 389.4 394.7
380(24) 0.001736 389.3 394.9
399(25) 0.001600 389.1 395.1
408(25) 0.001600 389.0 395.4
402(25) 0.001600 388.8 395.7
421(26) 0.001479 388.7 396.1
407(25) 0.001600 388.5 396.6
425(26) 0.001479 388.4 397.2
394(24) 0.001736 388.3 397.9
425(25) 0.001600 388.1 398.8
396(24) 0.001736 388.0 400.0
387(24) 0.001736 387.8 401.4
408(25) 0.001600 387.7 403.2
417(25) 0.001600 387.5 405.5
387(24) 0.001736 387.4 408.6
397(24) 0.001736 387.3 413.2
418(25) 0.001600 387.1 420.3
453(26) 0.001479 387.0 431.7
467(27) 0.001372 386.8 450.4
486(28) 0.001276 386.7 480.5
532(29) 0.001189 386.6 526.4
600(31) 0.001041 386.4 592.1
694(34) 0.000865 386.3 678.3
753(35) 0.000816 386.1 777.5
836(38) 0.000693 386. 870.
927(40) 0.000625 386. 924.
927(40) 0.000625 386. 909.
816(37) 0.000730 386. 824.
677(33) 0.000918 385.5 707.5
555(30) 0.001111 385.3 599.9
527(29) 0.001189 385.2 520.8
438(26) 0.001479 385.1 470.7
434(26) 0.001479 384.9 442.2
399(24) 0.001736 384.8 426.6
402(25) 0.001600 384.7 418.0
412(25) 0.001600 384.5 412.7
406(25) 0.001600 384.4 409.2
385(24) 0.001736 384.3 406.7
390(24) 0.001736 384.1 405.1
382(24) 0.001736 384.0 404.1
388(24) 0.001736 383.9 403.7
413(25) 0.001600 383.8 403.9
410(25) 0.001600 383.6 404.9
447(26) 0.001479 383.5 407.2
444(26) 0.001479 383.4 411.4
439(26) 0.001479 383.2 418.9
437(26) 0.001479 383.1 431.5
490(28) 0.001276 383.0 451.6
501(28) 0.001276 382.9 480.9
489(28) 0.001276 382.7 519.8
555(30) 0.001111 382.6 566.2
634(32) 0.000977 382.5 612.0
638(32) 0.000977 382.4 641.5
629(32) 0.000977 382.2 639.5
637(32) 0.000977 382.1 603.4
537(29) 0.001189 382.0 549.0
503(28) 0.001276 381.9 496.8
486(28) 0.001276 381.7 457.5
437(26) 0.001479 381.6 432.2
437(26) 0.001479 381.5 417.7
432(26) 0.001479 381.4 410.0
405(25) 0.001600 381.3 405.9
404(25) 0.001600 381.1 403.8
407(25) 0.001600 381.0 402.9
410(25) 0.001600 380.9 402.7
393(24) 0.001736 380.8 403.2
385(24) 0.001736 380.7 404.4
398(24) 0.001736 380.5 406.6
424(25) 0.001600 380.4 410.1
414(25) 0.001600 380.3 415.8
421(25) 0.001600 380.2 425.2
457(27) 0.001372 380.1 441.3
497(28) 0.001276 380.0 467.9
491(28) 0.001276 379.8 510.5
549(30) 0.001111 379.7 573.2
645(33) 0.000918 379.6 656.2
766(36) 0.000772 380. 754.
884(39) 0.000657 379. 850.
933(40) 0.000625 379. 906.
917(40) 0.000625 379. 892.
827(37) 0.000730 379. 805.
697(34) 0.000865 378.9 688.6
583(31) 0.001041 378.8 584.1
499(28) 0.001276 378.7 508.5
470(27) 0.001372 378.6 461.0
412(25) 0.001600 378.5 433.8
403(25) 0.001600 378.4 418.7
425(26) 0.001479 378.3 410.0
412(25) 0.001600 378.2 404.4
394(24) 0.001736 378.0 400.5
413(25) 0.001600 377.9 397.7
410(25) 0.001600 377.8 395.6
405(25) 0.001600 377.7 394.2
413(25) 0.001600 377.6 393.4
417(25) 0.001600 377.5 393.7
409(25) 0.001600 377.4 395.0
412(25) 0.001600 377.3 397.8
393(24) 0.001736 377.2 402.6
395(24) 0.001736 377.1 409.0
421(25) 0.001600 377.0 416.6
471(27) 0.001372 376.9 423.4
445(26) 0.001479 376.8 426.4
437(26) 0.001479 376.6 423.3
465(27) 0.001372 376.5 414.9
411(25) 0.001600 376.4 405.1
413(25) 0.001600 376.3 396.9
413(25) 0.001600 376.2 391.1
420(25) 0.001600 376.1 387.5
397(19) 0.002770 376.0 385.5
408(24) 0.001736 375.9 384.3
379(23) 0.001890 375.8 383.6
366(22) 0.002066 375.7 383.1
418(24) 0.001736 375.6 382.9
354(22) 0.002066 375.5 382.9
342(21) 0.002268 375.4 382.9
377(23) 0.001890 375.3 383.2
409(24) 0.001736 375.2 383.8
359(22) 0.002066 375.1 384.6
370(22) 0.002066 375.0 386.0
383(23) 0.001890 374.9 388.4
401(23) 0.001890 374.8 392.5
400(23) 0.001890 374.7 399.0
426(24) 0.001736 374.6 408.9
435(25) 0.001600 374.5 422.6
442(25) 0.001600 374.4 439.8
444(25) 0.001600 374.3 458.2
480(26) 0.001479 374.2 473.4
501(27) 0.001372 374.1 481.5
466(25) 0.001600 374.0 480.1
482(26) 0.001479 373.9 469.3
484(26) 0.001479 373.8 451.0
422(24) 0.001736 373.7 430.3
417(24) 0.001736 373.6 412.8
410(24) 0.001736 373.5 400.2
431(24) 0.001736 373.4 392.2
376(23) 0.001890 373.3 387.5
373(22) 0.002066 373.2 384.8
355(22) 0.002066 373.1 383.3
367(22) 0.002066 373.0 382.5
381(23) 0.001890 372.9 382.0
388(23) 0.001890 372.8 382.0
397(23) 0.001890 372.7 382.3
413(24) 0.001736 372.6 383.3
407(24) 0.001736 372.5 385.3
407(24) 0.001736 372.4 388.9
391(23) 0.001890 372.3 394.9
429(24) 0.001736 372.2 403.9
435(25) 0.001600 372.1 415.7
471(26) 0.001479 372.0 428.9
456(25) 0.001600 372.0 440.6
458(25) 0.001600 371.9 445.5
458(25) 0.001600 371.8 440.3
444(25) 0.001600 371.7 426.9
423(24) 0.001736 371.6 411.7
422(24) 0.001736 371.5 399.0
388(23) 0.001890 371.4 390.1
369(22) 0.002066 371.3 384.5
375(23) 0.001890 371.2 381.3
398(23) 0.001890 371.1 379.4
377(23) 0.001890 371.0 378.2
356(22) 0.002066 370.9 377.5
365(22) 0.002066 370.8 376.9
389(23) 0.001890 370.7 376.5
369(22) 0.002066 370.6 376.1
377(23) 0.001890 370.5 375.9
404(23) 0.001890 370.4 375.7
387(23) 0.001890 370.4 375.6
363(22) 0.002066 370.3 375.5
360(22) 0.002066 370.2 375.5
361(22) 0.002066 370.1 375.5
374(22) 0.002066 370.0 375.7
375(23) 0.001890 369.9 376.0
371(22) 0.002066 369.8 376.4
384(23) 0.001890 369.7 377.0
364(22) 0.002066 369.6 377.7
361(22) 0.002066 369.5 378.3
386(23) 0.001890 369.4 378.6
399(23) 0.001890 369.3 378.6
416(24) 0.001736 369.2 378.3
396(23) 0.001890 369.2 378.1
414(24) 0.001736 369.1 378.0
404(23) 0.001890 369.0 378.2
372(22) 0.002066 368.9 378.6
415(24) 0.001736 368.8 379.3
370(22) 0.002066 368.7 380.2
383(23) 0.001890 368.6 381.3
383(23) 0.001890 368.5 382.7
402(23) 0.001890 368.4 384.6
416(24) 0.001736 368.3 387.0
389(23) 0.001890 368.2 390.4
407(24) 0.001736 368.2 395.3
428(24) 0.001736 368.1 402.8
445(25) 0.001600 368.0 414.7
432(24) 0.001736 367.9 433.4
482(26) 0.001479 367.8 462.2
512(27) 0.001372 367.7 503.8
542(28) 0.001276 367.6 559.1
613(30) 0.001111 367.5 621.9
708(32) 0.000977 367.4 680.7
780(34) 0.000865 367.3 722.2
766(33) 0.000918 367.2 724.9
721(32) 0.000977 367.1 677.5
655(31) 0.001041 367.1 603.9
553(28) 0.001276 367.0 533.5
509(27) 0.001372 366.9 479.8
438(25) 0.001600 366.8 444.2
382(23) 0.001890 366.7 423.1
381(23) 0.001890 366.6 411.6
401(22) 0.002066 366.5 405.8
378(22) 0.002066 366.4 403.4
394(22) 0.002066 366.3 403.5
391(22) 0.002066 366.2 406.0
414(23) 0.001890 366.1 411.8
414(23) 0.001890 366.1 422.7
421(23) 0.001890 366.0 441.2
415(23) 0.001890 365.9 470.1
477(25) 0.001600 365.8 511.0
572(27) 0.001372 365.7 562.7
629(29) 0.001189 365.6 619.7
699(30) 0.001111 365.5 669.5
720(31) 0.001041 365.4 697.0
726(31) 0.001041 365.3 695.5
638(29) 0.001189 365.2 660.0
601(28) 0.001276 365.1 598.8
533(26) 0.001479 365.0 534.9
474(25) 0.001600 365.0 483.0
427(23) 0.001890 364.9 446.7
408(23) 0.001890 364.8 423.9
378(22) 0.002066 364.7 410.8
375(22) 0.002066 364.6 403.6
364(21) 0.002268 364.5 400.1
367(21) 0.002268 364.4 398.7
395(22) 0.002066 364.3 399.3
383(22) 0.002066 364.2 401.8
390(22) 0.002066 364.1 407.3
418(23) 0.001890 364.0 417.4
448(24) 0.001736 363.9 434.4
450(24) 0.001736 363.8 461.5
481(25) 0.001600 363.7 501.0
535(26) 0.001479 363.7 553.0
590(28) 0.001276 363.6 613.3
692(30) 0.001111 363.5 669.9
747(31) 0.001041 363.4 707.5
732(31) 0.001041 363.3 714.4
676(30) 0.001111 363.2 680.7
574(27) 0.001372 363.1 616.1
523(26) 0.001479 363.0 546.4
500(25) 0.001600 362.9 488.5
425(23) 0.001890 362.8 447.0
388(22) 0.002066 362.7 420.2
404(23) 0.001890 362.6 404.0
398(22) 0.002066 362.5 394.2
385(22) 0.002066 362.4 388.0
379(22) 0.002066 362.3 383.8
363(21) 0.002268 362.2 380.8
373(22) 0.002066 362.1 378.4
361(21) 0.002268 362.0 376.5
365(21) 0.002268 361.9 374.9
341(20) 0.002500 361.8 373.6
357(21) 0.002268 361.8 372.6
374(22) 0.002066 361.7 371.7
387(22) 0.002066 361.6 370.9
326(20) 0.002500 361.5 370.3
346(21) 0.002268 361.4 369.7
359(21) 0.002268 361.3 369.3
387(22) 0.002066 361.2 368.9
353(21) 0.002268 361.1 368.6
364(21) 0.002268 361.0 368.3
365(21) 0.002268 360.9 368.2
369(21) 0.002268 360.8 368.2
348(21) 0.002268 360.7 368.2
342(20) 0.002500 360.6 368.3
387(22) 0.002066 360.5 368.5
385(22) 0.002066 360.4 368.9
369(21) 0.002268 360.3 369.6
357(21) 0.002268 360.2 370.8
387(22) 0.002066 360.1 372.9
344(21) 0.002268 360.0 376.3
384(22) 0.002066 359.9 381.9
405(23) 0.001890 359.8 390.4
388(22) 0.002066 359.7 401.8
418(23) 0.001890 359.6 415.0
472(25) 0.001600 359.5 427.3
465(24) 0.001736 359.4 434.5
456(24) 0.001736 359.3 432.6
426(23) 0.001890 359.2 421.6
399(22) 0.002066 359.1 407.1
388(22) 0.002066 359.0 393.9
401(22) 0.002066 358.9 384.0
363(21) 0.002268 358.8 377.4
341(20) 0.002500 358.7 373.4
372(21) 0.002268 358.5 371.2
352(21) 0.002268 358.4 370.0
340(20) 0.002500 358.3 369.4
350(21) 0.002268 358.2 369.3
326(20) 0.002500 358.1 369.6
343(21) 0.002268 358.0 370.3
366(21) 0.002268 357.9 371.7
363(21) 0.002268 357.8 373.9
353(21) 0.002268 357.7 377.8
382(22) 0.002066 357.6 384.2
406(23) 0.001890 357.5 394.4
415(23) 0.001890 357.4 409.2
438(24) 0.001736 357.3 428.7
457(24) 0.001736 357.2 450.5
452(24) 0.001736 357.1 469.7
491(25) 0.001600 357.0 479.8
505(25) 0.001600 356.9 474.9
437(22) 0.002066 356.7 456.2
420(22) 0.002066 356.6 432.6
410(21) 0.002268 356.5 411.5
390(21) 0.002268 356.4 395.8
383(21) 0.002268 356.3 385.3
378(21) 0.002268 356.2 379.2
371(20) 0.002500 356.1 375.9
379(21) 0.002268 356.0 374.6
365(20) 0.002500 355.9 374.7
362(20) 0.002500 355.7 376.4
397(21) 0.002268 355.6 380.1
390(21) 0.002268 355.5 386.6
379(21) 0.002268 355.4 397.0
397(21) 0.002268 355.3 411.7
438(22) 0.002066 355.2 430.0
421(22) 0.002066 355.1 449.1
426(22) 0.002066 355.0 464.4
466(23) 0.001890 354.8 470.3
469(23) 0.001890 354.7 464.8
438(22) 0.002066 354.6 451.4
386(21) 0.002268 354.5 434.0
390(21) 0.002268 354.4 415.8
404(21) 0.002268 354.3 399.9
406(21) 0.002268 354.2 387.9
387(21) 0.002268 354.0 379.7
377(20) 0.002500 353.9 374.5
396(21) 0.002268 353.8 371.5
382(21) 0.002268 353.7 369.8
363(20) 0.002500 353.6 369.2
368(20) 0.002500 353.4 369.5
384(21) 0.002268 353.3 370.7
362(20) 0.002500 353.2 373.4
372(20) 0.002500 353.1 378.3
387(21) 0.002268 353.0 386.7
385(21) 0.002268 352.8 399.3
413(22) 0.002066 352.7 416.3
438(22) 0.002066 352.6 435.7
463(23) 0.001890 352.5 452.0
471(23) 0.001890 352.4 456.7
441(22) 0.002066 352.2 446.6
425(22) 0.002066 352.1 428.1
437(22) 0.002066 352.0 409.1
398(21) 0.002268 351.9 393.5
373(20) 0.002500 351.7 382.5
368(20) 0.002500 351.6 375.5
391(21) 0.002268 351.5 371.4
353(20) 0.002500 351.4 369.3
364(20) 0.002500 351.2 368.5
370(20) 0.002500 351.1 368.6
355(20) 0.002500 351.0 369.7
341(19) 0.002770 350.9 371.9
364(20) 0.002500 350.7 376.0
374(20) 0.002500 350.6 382.9
389(21) 0.002268 350.5 393.7
396(21) 0.002268 350.4 409.4
429(22) 0.002066 350.2 429.7
467(23) 0.001890 350.1 452.7
493(24) 0.001736 350.0 473.8
483(23) 0.001890 349.8 484.9
463(23) 0.001890 349.7 478.4
478(23) 0.001890 349.6 458.0
466(23) 0.001890 349.4 433.7
429(22) 0.002066 349.3 412.2
422(22) 0.002066 349.2 396.2
390(21) 0.002268 349.1 385.7
384(21) 0.002268 348.9 379.6
350(20) 0.002500 348.8 376.8
343(19) 0.002770 348.7 376.3
367(20) 0.002500 348.5 377.6
369(20) 0.002500 348.4 381.3
375(20) 0.002500 348.2 388.2
410(21) 0.002268 348.1 400.2
405(21) 0.002268 348.0 419.8
448(23) 0.001890 347.8 449.2
465(23) 0.001890 347.7 488.9
536(25) 0.001600 347.6 535.7
557(25) 0.001600 347.4 578.8
582(26) 0.001479 347.3 599.5
600(26) 0.001479 347.2 585.2
584(26) 0.001479 347.0 544.9
555(25) 0.001600 346.9 497.6
527(25) 0.001600 346.7 455.9
449(23) 0.001890 346.6 424.2
431(22) 0.002066 346.5 402.5
390(21) 0.002268 346.3 389.0
359(20) 0.002500 346.2 381.1
338(19) 0.002770 346.0 376.9
354(20) 0.002500 345.9 375.1
356(20) 0.002500 345.7 375.4
389(21) 0.002268 345.6 378.1
384(21) 0.002268 345.5 384.1
407(21) 0.002268 345.3 394.7
394(21) 0.002268 345.2 411.0
427(22) 0.002066 345.0 433.5
430(22) 0.002066 344.9 460.1
456(23) 0.001890 344.7 485.0
484(23) 0.001890 344.6 497.5
475(23) 0.001890 344.4 489.5
455(23) 0.001890 344.3 465.9
448(23) 0.001890 344.1 437.8
414(20) 0.002500 344.0 412.6
394(20) 0.002500 343.8 393.2
384(19) 0.002770 343.7 379.6
365(19) 0.002770 343.5 370.8
340(18) 0.003086 343.4 365.3
338(18) 0.003086 343.2 361.9
349(18) 0.003086 343.1 359.7
363(19) 0.002770 342.9 358.3
373(19) 0.002770 342.8 357.4
371(19) 0.002770 342.6 357.0
357(19) 0.002770 342.5 357.1
343(18) 0.003086 342.3 357.8
337(18) 0.003086 342.2 358.9
324(18) 0.003086 342.0 360.4
347(18) 0.003086 341.9 361.9
364(19) 0.002770 341.7 362.8
344(18) 0.003086 341.5 362.8
358(19) 0.002770 341.4 362.1
340(18) 0.003086 341.2 361.5
361(19) 0.002770 341.1 361.3
343(18) 0.003086 340.9 362.0
399(20) 0.002500 340.8 363.5
369(19) 0.002770 340.6 366.3
370(19) 0.002770 340.4 370.8
390(20) 0.002500 340.3 378.2
347(18) 0.003086 340.1 390.1
411(20) 0.002500 340.0 409.0
441(21) 0.002268 339.8 437.6
488(22) 0.002066 339.6 477.5
538(23) 0.001890 339.5 527.8
589(25) 0.001600 339.3 582.3
606(25) 0.001600 339.2 625.4
596(25) 0.001600 339.0 636.6
613(25) 0.001600 338.8 609.8
583(24) 0.001736 338.7 560.6
552(24) 0.001736 338.5 507.7
489(22) 0.002066 338.3 461.5
453(21) 0.002268 338.2 425.8
404(20) 0.002500 338.0 400.6
369(19) 0.002770 337.8 384.0
383(19) 0.002770 337.7 373.4
387(19) 0.002770 337.5 366.8
356(19) 0.002770 337.3 362.5
344(18) 0.003086 337.2 359.8
340(18) 0.003086 337.0 358.3
321(18) 0.003086 336.8 357.8
372(19) 0.002770 336.6 358.3
330(18) 0.003086 336.5 359.7
325(18) 0.003086 336.3 361.8
365(19) 0.002770 336.1 363.9
359(19) 0.002770 336.0 365.0
365(19) 0.002770 335.8 364.2
383(19) 0.002770 335.6 361.7
352(18) 0.003086 335.4 358.9
336(18) 0.003086 335.3 356.6
351(18) 0.003086 335.1 355.2
343(18) 0.003086 334.9 355.1
357(19) 0.002770 334.7 356.4
366(19) 0.002770 334.6 359.7
347(18) 0.003086 334.4 365.6
338(18) 0.003086 334.2 375.0
359(19) 0.002770 334.0 388.7
404(20) 0.002500 333.9 406.7
423(20) 0.002500 333.7 427.5
463(22) 0.002066 333.5 446.6
476(22) 0.002066 333.3 456.6
471(22) 0.002066 333.1 451.8
449(21) 0.002268 333.0 435.1
396(20) 0.002500 332.8 414.2
387(19) 0.002770 332.6 394.8
386(19) 0.002770 332.4 379.5
368(19) 0.002770 332.2 368.5
363(19) 0.002770 332.0 361.4
365(19) 0.002770 331.9 357.4
343(18) 0.003086 331.7 355.6
336(18) 0.003086 331.5 355.7
346(18) 0.003086 331.3 357.6
365(19) 0.002770 331.1 361.7
326(18) 0.003086 330.9 368.7
372(19) 0.002770 330.8 379.0
426(21) 0.002268 330.6 393.0
409(20) 0.002500 330.4 410.0
450(21) 0.002268 330.2 427.6
478(22) 0.002066 330.0 441.0
458(21) 0.002268 329.8 446.6
464(22) 0.002066 329.6 445.8
478(22) 0.002066 329.4 443.5
466(22) 0.002066 329.3 441.6
455(21) 0.002268 329.1 438.0
443(21) 0.002268 328.9 428.8
430(21) 0.002268 328.7 413.9
423(20) 0.002500 328.5 397.1
389(20) 0.002500 328.3 381.7
352(18) 0.003086 328.1 369.4
386(19) 0.002770 327.9 360.3
371(19) 0.002770 327.7 354.3
357(19) 0.002770 327.5 350.7
347(18) 0.003086 327.3 349.2
331(18) 0.003086 327.1 349.5
334(18) 0.003086 326.9 351.7
350(18) 0.003086 326.7 355.6
361(18) 0.003086 326.5 361.4
381(19) 0.002770 326.3 368.4
411(19) 0.002770 326.2 375.2
379(19) 0.002770 326.0 379.3
386(19) 0.002770 325.8 378.3
401(19) 0.002770 325.6 372.6
361(18) 0.003086 325.4 364.8
383(19) 0.002770 325.2 357.2
382(19) 0.002770 325.0 350.9
358(18) 0.003086 324.8 346.3
318(17) 0.003460 324.6 343.4
363(18) 0.003086 324.4 342.1
364(18) 0.003086 324.2 342.0
327(17) 0.003460 324.0 343.2
331(17) 0.003460 323.8 345.5
362(18) 0.003086 323.5 348.8
380(19) 0.002770 323.3 352.9
370(18) 0.003086 323.1 356.9
362(18) 0.003086 322.9 359.6
403(19) 0.002770 322.7 360.6
361(18) 0.003086 322.5 360.1
338(17) 0.003460 322.3 358.7
316(17) 0.003460 322.1 356.5
360(18) 0.003086 321.9 354.0
340(17) 0.003460 321.7 351.8
348(18) 0.003086 321.5 350.3
340(17) 0.003460 321.3 350.1
333(17) 0.003460 321.1 351.5
381(19) 0.002770 320.9 355.2
378(19) 0.002770 320.7 361.8
372(18) 0.003086 320.5 372.2
412(19) 0.002770 320.2 387.4
442(20) 0.002500 320.0 407.9
462(21) 0.002268 319.8 433.6
530(22) 0.002066 319.6 462.4
509(22) 0.002066 319.4 489.6
553(23) 0.001890 319.2 510.4
521(22) 0.002066 319.0 523.7
567(23) 0.001890 318.8 531.4
568(23) 0.001890 318.6 533.0
561(23) 0.001890 318.3 525.3
478(21) 0.002268 318.1 506.3
479(21) 0.002268 317.9 478.0
458(21) 0.002268 317.7 446.9
404(19) 0.002770 317.5 418.4
401(19) 0.002770 317.3 395.4
382(19) 0.002770 317.0 378.4
357(18) 0.003086 316.8 366.8
360(18) 0.003086 316.6 359.8
379(19) 0.002770 316.4 356.6
369(18) 0.003086 316.2 356.6
377(19) 0.002770 316.0 360.1
348(18) 0.003086 315.7 367.2
383(19) 0.002770 315.5 378.6
409(19) 0.002770 315.3 394.2
435(20) 0.002500 315.1 413.3
459(21) 0.002268 314.9 433.2
460(21) 0.002268 314.6 448.5
474(21) 0.002268 314.4 452.6
464(21) 0.002268 314.2 443.2
422(20) 0.002500 314.0 425.0
445(20) 0.002500 313.8 404.6
388(19) 0.002770 313.5 386.3
368(18) 0.003086 313.3 372.1
360(18) 0.003086 313.1 362.5
349(18) 0.003086 312.9 357.5
348(18) 0.003086 312.6 356.7
368(18) 0.003086 312.4 360.0
357(18) 0.003086 312.2 367.3
371(18) 0.003086 312.0 378.7
375(18) 0.003086 311.7 393.5
432(20) 0.002500 311.5 410.2
433(20) 0.002500 311.3 425.2
477(21) 0.002268 311.1 433.4
433(20) 0.002500 310.8 431.3
421(20) 0.002500 310.6 420.6
441(20) 0.002500 310.4 406.2
423(20) 0.002500 310.2 392.2
376(18) 0.003086 309.9 381.3
355(18) 0.003086 309.7 375.1
393(19) 0.002770 309.5 374.4
380(19) 0.002770 309.2 380.1
388(19) 0.002770 309.0 392.6
435(20) 0.002500 308.8 412.5
422(20) 0.002500 308.6 439.6
466(21) 0.002268 308.3 472.5
499(22) 0.002066 308.1 507.0
562(23) 0.001890 307.9 536.1
561(23) 0.001890 307.6 553.9
582(24) 0.001736 307.4 558.8
546(23) 0.001890 307.2 550.6
560(23) 0.001890 306.9 529.3
502(22) 0.002066 306.7 498.1
473(21) 0.002268 306.5 463.4
428(20) 0.002500 306.2 430.6
436(20) 0.002500 306.0 403.1
367(18) 0.003086 305.8 381.9
360(18) 0.003086 305.5 367.0
314(17) 0.003460 305.3 357.5
374(18) 0.003086 305.1 352.6
335(17) 0.003460 304.8 351.8
337(17) 0.003460 304.6 355.0
368(18) 0.003086 304.4 362.3
397(19) 0.002770 304.1 373.7
409(19) 0.002770 303.9 388.8
362(18) 0.003086 303.7 406.4
413(19) 0.002770 303.4 423.4
441(20) 0.002500 303.2 434.9
427(19) 0.002770 302.9 436.8
445(20) 0.002500 302.7 428.4
422(19) 0.002770 302.5 412.3
389(19) 0.002770 302.2 392.8
389(19) 0.002770 302.0 374.0
385(18) 0.003086 301.8 358.1
356(18) 0.003086 301.5 345.9
315(16) 0.00391 301.3 337.3
364(18) 0.003086 301.0 331.9
306(16) 0.00391 300.8 328.9
334(17) 0.003460 300.6 327.7
333(17) 0.003460 300.3 327.4
316(17) 0.003460 300.1 327.2
340(17) 0.003460 299.8 326.1
346(17) 0.003460 299.6 323.9
344(17) 0.003460 299.3 320.9
347(17) 0.003460 299.1 317.7
310(16) 0.00391 298.9 314.7
293(16) 0.00391 298.6 312.1
326(17) 0.003460 298.4 310.1
302(16) 0.00391 298.1 308.4
326(17) 0.003460 297.9 307.2
323(17) 0.003460 297.7 306.2
308(16) 0.00391 297.4 305.5
289(16) 0.00391 297.2 304.9
309(16) 0.00391 296.9 304.5
329(17) 0.003460 296.7 304.1
332(17) 0.003460 296.4 304.0
325(17) 0.003460 296.2 304.0
326(17) 0.003460 295.9 304.3
327(17) 0.003460 295.7 304.8
310(16) 0.00391 295.4 305.6
310(16) 0.00391 295.2 306.5
329(17) 0.003460 295.0 307.5
309(16) 0.00391 294.7 308.2
320(17) 0.003460 294.5 308.3
307(16) 0.00391 294.2 307.6
305(16) 0.00391 294.0 306.3
294(16) 0.00391 293.7 304.7
310(16) 0.00391 293.5 303.3
319(17) 0.003460 293.2 302.1
291(16) 0.00391 293.0 301.1
315(17) 0.003460 292.7 300.4
296(16) 0.00391 292.5 300.0
294(16) 0.00391 292.2 299.7
308(16) 0.00391 292.0 299.7
306(16) 0.00391 291.7 299.8
320(17) 0.003460 291.5 300.1
311(16) 0.00391 291.2 300.5
314(16) 0.00391 291.0 301.0
311(16) 0.00391 290.7 301.6
332(17) 0.003460 290.5 302.2
328(17) 0.003460 290.2 302.8
281(16) 0.00391 290.0 303.7
307(16) 0.00391 289.7 305.2
302(16) 0.00391 289.5 307.5
312(16) 0.00391 289.2 311.1
292(16) 0.00391 289.0 316.2
309(16) 0.00391 288.7 323.3
314(16) 0.00391 288.5 332.3
348(17) 0.003460 288.2 343.1
354(18) 0.003086 288.0 354.7
367(18) 0.003086 287.7 365.4
343(17) 0.003460 287.5 373.2
377(18) 0.003086 287.2 377.0
366(18) 0.003086 287.0 376.7
352(18) 0.003086 286.7 372.1
364(18) 0.003086 286.5 364.0
356(18) 0.003086 286.2 353.6
363(18) 0.003086 286.0 342.8
358(18) 0.003086 285.7 333.2
345(17) 0.003460 285.5 325.9
320(17) 0.003460 285.2 321.2
300(16) 0.00391 285.0 319.1
311(16) 0.00391 284.7 319.6
295(16) 0.00391 284.5 322.2
300(16) 0.00391 284.2 326.3
318(17) 0.003460 284.0 330.8
311(16) 0.00391 283.7 334.3
320(17) 0.003460 283.4 335.0
290(16) 0.00391 283.2 332.4
323(17) 0.003460 282.9 327.5
304(16) 0.00391 282.7 321.6
309(16) 0.00391 282.4 316.0
314(16) 0.00391 282.2 311.0
323(17) 0.003460 281.9 307.0
296(16) 0.00391 281.7 304.0
286(16) 0.00391 281.4 302.2
293(16) 0.00391 281.2 301.5
300(16) 0.00391 280.9 302.0
313(16) 0.00391 280.6 303.9
321(24) 0.001736 280.4 307.3
304(16) 0.00391 280.1 312.4
336(17) 0.003460 279.9 319.4
338(17) 0.003460 279.6 328.3
361(17) 0.003460 279.4 338.3
373(18) 0.003086 279.1 348.4
376(18) 0.003086 278.9 356.2
383(18) 0.003086 278.6 359.3
357(17) 0.003460 278.4 356.5
367(17) 0.003460 278.1 349.1
368(17) 0.003460 277.8 339.8
340(17) 0.003460 277.6 330.9
316(16) 0.00391 277.3 323.7
319(16) 0.00391 277.1 319.0
324(16) 0.00391 276.8 317.0
315(16) 0.00391 276.6 318.3
326(16) 0.00391 276.3 323.1
332(16) 0.00391 276.0 331.8
357(17) 0.003460 275.8 344.6
378(18) 0.003086 275.5 361.5
387(18) 0.003086 275.3 381.8
417(19) 0.002770 275.0 403.8
449(19) 0.002770 274.8 423.9
452(19) 0.002770 274.5 437.5
454(19) 0.002770 274.3 440.6
472(20) 0.002500 274.0 432.3
424(19) 0.002770 273.7 415.3
390(18) 0.003086 273.5 393.8
382(18) 0.003086 273.2 371.9
374(18) 0.003086 273.0 352.5
335(17) 0.003460 272.7 336.9
331(16) 0.00391 272.5 325.6
319(16) 0.00391 272.2 318.4
321(16) 0.00391 271.9 314.9
326(16) 0.00391 271.7 314.6
319(16) 0.00391 271.4 316.9
318(16) 0.00391 271.2 320.9
325(16) 0.00391 270.9 325.8
340(17) 0.003460 270.7 330.1
329(16) 0.00391 270.4 332.1
324(16) 0.00391 270.1 330.7
348(17) 0.003460 269.9 326.2
333(17) 0.003460 269.6 319.5
303(16) 0.00391 269.4 311.9
320(16) 0.00391 269.1 304.4
307(16) 0.00391 268.9 297.6
275(15) 0.00444 268.6 292.1
291(15) 0.00444 268.4 287.7
277(15) 0.00444 268.1 284.3
274(15) 0.00444 267.8 281.9
280(15) 0.00444 267.6 280.2
275(15) 0.00444 267.3 279.1
283(15) 0.00444 267.1 278.4
257(14) 0.00510 266.8 277.9
244(14) 0.00510 266.6 277.7
263(15) 0.00444 266.3 277.6
274(15) 0.00444 266.0 277.4
262(14) 0.00510 265.8 277.0
265(15) 0.00444 265.5 276.4
281(15) 0.00444 265.3 275.7
298(16) 0.00391 265.0 275.0
295(15) 0.00444 264.8 274.5
261(14) 0.00510 264.5 274.1
250(14) 0.00510 264.3 274.1
279(15) 0.00444 264.0 274.5
284(15) 0.00444 263.7 275.2
278(15) 0.00444 263.5 276.3
287(15) 0.00444 263.2 277.8
298(16) 0.00391 263.0 279.5
290(15) 0.00444 262.7 281.2
287(15) 0.00444 262.5 282.4
281(15) 0.00444 262.2 282.9
282(15) 0.00444 262.0 282.5
291(15) 0.00444 261.7 281.6
286(15) 0.00444 261.4 280.5
287(15) 0.00444 261.2 279.9
292(15) 0.00444 260.9 280.0
291(15) 0.00444 260.7 281.2
281(15) 0.00444 260.4 283.5
291(15) 0.00444 260.2 287.1
284(15) 0.00444 259.9 291.9
293(15) 0.00444 259.7 297.7
314(16) 0.00391 259.4 303.9
315(16) 0.00391 259.1 309.5
305(16) 0.00391 258.9 313.7
315(16) 0.00391 258.6 315.7
313(16) 0.00391 258.4 315.6
307(16) 0.00391 258.1 313.6
314(16) 0.00391 257.9 310.0
304(16) 0.00391 257.6 305.0
311(16) 0.00391 257.4 299.0
292(15) 0.00444 257.1 292.9
292(15) 0.00444 256.9 287.2
279(15) 0.00444 256.6 282.4
282(15) 0.00444 256.4 278.7
272(15) 0.00444 256.1 276.3
266(15) 0.00444 255.9 275.0
280(15) 0.00444 255.6 274.9
275(15) 0.00444 255.3 275.9
286(15) 0.00444 255.1 277.9
267(15) 0.00444 254.8 280.7
262(15) 0.00444 254.6 284.0
289(15) 0.00444 254.3 287.3
294(16) 0.00391 254.1 289.8
323(16) 0.00391 253.8 290.8
279(15) 0.00444 253.6 289.8
267(15) 0.00444 253.3 287.4
289(15) 0.00444 253.1 284.4
284(15) 0.00444 252.8 281.7
246(14) 0.00510 252.6 279.6
273(15) 0.00444 252.3 278.7
268(15) 0.00444 252.1 278.7
264(15) 0.00444 251.8 279.6
286(15) 0.00444 251.6 280.9
290(15) 0.00444 251.3 282.0
278(15) 0.00444 251.1 282.2
298(16) 0.00391 250.8 281.0
286(15) 0.00444 250.6 278.7
295(16) 0.00391 250.3 275.7
304(16) 0.00391 250.1 272.5
288(15) 0.00444 249.8 269.7
282(15) 0.00444 249.6 267.3
266(15) 0.00444 249.3 265.5
277(15) 0.00444 249.1 264.4
271(15) 0.00444 248.8 264.1
280(15) 0.00444 248.6 264.5
274(15) 0.00444 248.3 265.8
262(15) 0.00444 248.1 268.0
279(15) 0.00444 247.8 271.0
301(16) 0.00391 247.6 274.9
306(16) 0.00391 247.3 279.3
290(16) 0.00391 247.1 283.8
305(16) 0.00391 246.8 287.7
307(16) 0.00391 246.6 290.0
281(15) 0.00444 246.3 290.0
248(14) 0.00510 246.1 287.8
278(15) 0.00444 245.9 284.2
301(16) 0.00391 245.6 280.3
285(15) 0.00444 245.4 276.8
299(16) 0.00391 245.1 274.4
253(14) 0.00510 244.9 273.4
260(15) 0.00444 244.6 274.0
269(15) 0.00444 244.4 276.4
276(15) 0.00444 244.1 280.7
297(16) 0.00391 243.9 286.7
318(16) 0.00391 243.6 294.2
295(16) 0.00391 243.4 302.4
321(16) 0.00391 243.2 310.2
343(17) 0.003460 242.9 316.0
331(17) 0.003460 242.7 318.1
316(16) 0.00391 242.4 315.7
298(16) 0.00391 242.2 309.6
311(16) 0.00391 241.9 301.2
306(16) 0.00391 241.7 292.1
290(15) 0.00444 241.5 283.5
289(15) 0.00444 241.2 276.1
262(15) 0.00444 241.0 270.0
252(14) 0.00510 240.7 265.4
278(15) 0.00444 240.5 262.2
273(15) 0.00444 240.2 260.3
258(14) 0.00510 240.0 259.3
261(15) 0.00444 239.8 259.3
259(15) 0.00444 239.5 259.9
257(15) 0.00444 239.3 261.0
263(15) 0.00444 239.0 262.3
259(15) 0.00444 238.8 263.5
289(15) 0.00444 238.6 264.3
287(15) 0.00444 238.3 264.6
302(16) 0.00391 238.1 264.3
289(15) 0.00444 237.8 263.9
273(15) 0.00444 237.6 263.8
253(14) 0.00510 237.4 264.3
272(15) 0.00444 237.1 265.6
279(15) 0.00444 236.9 267.7
259(15) 0.00444 236.7 270.5
279(15) 0.00444 236.4 273.7
279(15) 0.00444 236.2 276.5
251(14) 0.00510 235.9 278.5
270(15) 0.00444 235.7 279.3
294(16) 0.00391 235.5 278.9
287(15) 0.00444 235.2 277.4
291(15) 0.00444 235.0 275.1
285(15) 0.00444 234.8 272.2
281(15) 0.00444 234.5 268.7
269(15) 0.00444 234.3 265.2
275(15) 0.00444 234.1 262.1
262(15) 0.00444 233.8 259.8
265(15) 0.00444 233.6 258.4
250(14) 0.00510 233.4 258.0
261(15) 0.00444 233.1 258.6
270(15) 0.00444 232.9 260.2
253(14) 0.00510 232.7 262.5
286(15) 0.00444 232.4 265.3
280(15) 0.00444 232.2 268.3
253(14) 0.00510 232.0 270.8
280(15) 0.00444 231.7 272.3
286(15) 0.00444 231.5 272.6
300(16) 0.00391 231.3 272.0
287(15) 0.00444 231.0 271.1
285(15) 0.00444 230.8 270.6
259(12) 0.00694 230.6 271.0
272(15) 0.00444 230.3 272.5
266(15) 0.00444 230.1 275.1
262(15) 0.00444 229.9 278.6
277(16) 0.00391 229.6 282.7
276(15) 0.00444 229.4 286.9
300(16) 0.00391 229.2 290.9
304(16) 0.00391 229.0 293.9
316(17) 0.003460 228.7 295.7
297(16) 0.00391 228.5 296.0
302(16) 0.00391 228.3 295.3
304(16) 0.00391 228.1 294.0
279(16) 0.00391 227.8 292.3
270(15) 0.00444 227.6 290.6
278(16) 0.00391 227.4 289.5
268(15) 0.00444 227.1 289.4
279(16) 0.00391 226.9 291.0
291(16) 0.00391 226.7 294.3
294(16) 0.00391 226.5 299.3
300(16) 0.00391 226.2 305.7
320(17) 0.003460 226.0 313.2
336(17) 0.003460 225.8 321.4
325(17) 0.003460 225.6 329.9
354(18) 0.003086 225.3 337.9
339(17) 0.003460 225.1 344.7
356(18) 0.003086 224.9 349.4
329(17) 0.003460 224.7 351.0
332(17) 0.003460 224.5 348.3
342(17) 0.003460 224.2 340.8
336(17) 0.003460 224.0 329.5
276(15) 0.00444 223.8 316.0
312(16) 0.00391 223.6 302.0
262(15) 0.00444 223.4 288.9
262(15) 0.00444 223.1 277.3
279(16) 0.00391 222.9 267.5
262(15) 0.00444 222.7 259.6
258(15) 0.00444 222.5 253.4
252(15) 0.00444 222.3 248.8
257(15) 0.00444 222.0 245.4
247(15) 0.00444 221.8 243.0
246(15) 0.00444 221.6 241.3
239(14) 0.00510 221.4 240.1
252(15) 0.00444 221.2 239.2
236(14) 0.00510 220.9 238.4
249(15) 0.00444 220.7 237.7
237(14) 0.00510 220.5 237.1
237(14) 0.00510 220.3 236.7
230(14) 0.00510 220.1 236.3
239(14) 0.00510 219.9 236.2
242(14) 0.00510 219.7 236.1
243(15) 0.00444 219.4 236.1
228(14) 0.00510 219.2 236.3
236(14) 0.00510 219.0 236.7
264(15) 0.00444 218.8 237.4
242(14) 0.00510 218.6 238.4
238(14) 0.00510 218.4 239.9
256(15) 0.00444 218.2 241.7
269(15) 0.00444 217.9 244.0
245(15) 0.00444 217.7 246.6
244(15) 0.00444 217.5 249.8
233(14) 0.00510 217.3 253.5
250(15) 0.00444 217.1 258.0
262(15) 0.00444 216.9 263.5
274(15) 0.00444 216.7 269.7
282(16) 0.00391 216.5 276.6
282(16) 0.00391 216.3 283.8
294(16) 0.00391 216.1 290.9
298(16) 0.00391 215.8 297.4
291(16) 0.00391 215.6 302.6
312(16) 0.00391 215.4 306.1
300(16) 0.00391 215.2 307.5
293(16) 0.00391 215.0 306.6
278(16) 0.00391 214.8 303.4
305(16) 0.00391 214.6 297.9
295(16) 0.00391 214.4 290.6
287(16) 0.00391 214.2 282.2
278(16) 0.00391 214.0 273.7
270(15) 0.00444 213.8 265.7
275(15) 0.00444 213.6 258.5
248(15) 0.00444 213.4 252.4
261(15) 0.00444 213.2 247.3
252(15) 0.00444 213.0 243.1
219(14) 0.00510 212.8 239.7
238(14) 0.00510 212.6 237.0
228(14) 0.00510 212.4 234.9
243(15) 0.00444 212.2 233.0
223(14) 0.00510 212.0 231.3
219(14) 0.00510 211.8 229.7
215(14) 0.00510 211.6 228.0
234(14) 0.00510 211.4 226.4
210(13) 0.00592 211.2 224.9
238(14) 0.00510 211.0 223.5
243(14) 0.00510 210.8 222.3
223(14) 0.00510 210.6 221.3
231(14) 0.00510 210.4 220.4
235(14) 0.00510 210.2 219.8
228(14) 0.00510 210.0 219.3
233(14) 0.00510 209.8 219.0
207(13) 0.00592 209.6 218.9
216(14) 0.00510 209.4 219.0
232(20) 0.002500 209.2 219.3
238(14) 0.00510 209.0 219.8
202(13) 0.00592 208.8 220.5
237(14) 0.00510 208.6 221.6
218(13) 0.00592 208.4 222.9
241(14) 0.00510 208.2 224.5
223(14) 0.00510 208.0 226.4
215(13) 0.00592 207.8 228.6
215(13) 0.00592 207.6 230.9
221(14) 0.00510 207.4 233.2
239(14) 0.00510 207.2 235.4
247(14) 0.00510 207.0 237.6
265(15) 0.00444 206.8 239.7
243(14) 0.00510 206.7 241.8
236(14) 0.00510 206.5 243.8
229(14) 0.00510 206.3 245.6
257(15) 0.00444 206.1 246.7
261(15) 0.00444 205.9 246.9
257(15) 0.00444 205.7 246.1
243(14) 0.00510 205.5 244.3
230(14) 0.00510 205.3 241.8
224(14) 0.00510 205.1 239.1
251(14) 0.00510 205.0 236.4
258(15) 0.00444 204.8 234.1
240(14) 0.00510 204.6 232.3
231(14) 0.00510 204.4 231.0
198(13) 0.00592 204.2 230.4
231(14) 0.00510 204.0 230.3
235(14) 0.00510 203.8 230.9
222(14) 0.00510 203.6 232.0
254(14) 0.00510 203.5 233.6
211(13) 0.00592 203.3 235.5
239(14) 0.00510 203.1 237.3
249(14) 0.00510 202.9 239.1
264(15) 0.00444 202.7 240.7
275(15) 0.00444 202.5 242.3
240(14) 0.00510 202.4 243.9
243(14) 0.00510 202.2 245.6
229(14) 0.00510 202.0 247.4
234(14) 0.00510 201.8 249.0
252(14) 0.00510 201.6 250.3
267(15) 0.00444 201.5 251.1
252(14) 0.00510 201.3 251.7
259(15) 0.00444 201.1 252.1
267(15) 0.00444 200.9 252.2
244(14) 0.00510 200.7 252.0
253(14) 0.00510 200.6 251.1
249(14) 0.00510 200.4 249.5
258(15) 0.00444 200.2 247.1
234(14) 0.00510 200.0 244.4
253(14) 0.00510 199.8 241.7
250(14) 0.00510 199.7 239.4
237(14) 0.00510 199.5 237.7
263(15) 0.00444 199.3 236.8
255(14) 0.00510 199.1 236.6
232(14) 0.00510 199.0 237.1
258(15) 0.00444 198.8 237.9
268(15) 0.00444 198.6 238.6
252(14) 0.00510 198.4 239.0
243(14) 0.00510 198.3 238.7
248(14) 0.00510 198.1 237.8
236(14) 0.00510 197.9 236.3
226(14) 0.00510 197.7 234.4
225(14) 0.00510 197.6 232.2
229(14) 0.00510 197.4 230.1
236(14) 0.00510 197.2 228.2
242(14) 0.00510 197.1 226.6
251(14) 0.00510 196.9 225.6
215(13) 0.00592 196.7 225.1
232(14) 0.00510 196.5 225.2
251(14) 0.00510 196.4 225.7
251(14) 0.00510 196.2 226.7
238(14) 0.00510 196.0 227.9
222(14) 0.00510 195.9 229.2
228(14) 0.00510 195.7 230.2
230(14) 0.00510 195.5 230.7
233(14) 0.00510 195.4 230.3
238(14) 0.00510 195.2 229.1
230(14) 0.00510 195.0 227.1
240(14) 0.00510 194.9 224.7
236(14) 0.00510 194.7 222.3
219(13) 0.00592 194.5 220.0
222(14) 0.00510 194.4 218.1
199(13) 0.00592 194.2 216.6
224(14) 0.00510 194.0 215.5
211(13) 0.00592 193.9 214.8
201(13) 0.00592 193.7 214.4
224(14) 0.00510 193.6 214.2
216(13) 0.00592 193.4 214.0
216(13) 0.00592 193.2 213.8
220(13) 0.00592 193.1 213.5
225(14) 0.00510 192.9 213.2
236(14) 0.00510 192.7 212.9
211(13) 0.00592 192.6 212.8
194(13) 0.00592 192.4 213.0
219(13) 0.00592 192.3 213.6
198(13) 0.00592 192.1 214.7
208(13) 0.00592 191.9 216.4
207(13) 0.00592 191.8 218.6
210(13) 0.00592 191.6 221.3
221(14) 0.00510 191.5 224.5
226(14) 0.00510 191.3 228.0
228(14) 0.00510 191.2 231.7
242(14) 0.00510 191.0 235.3
248(14) 0.00510 190.8 238.4
228(14) 0.00510 190.7 240.5
241(14) 0.00510 190.5 241.3
236(14) 0.00510 190.4 240.6
252(14) 0.00510 190.2 238.6
252(14) 0.00510 190.1 235.8
247(14) 0.00510 189.9 232.6
212(13) 0.00592 189.8 229.5
222(14) 0.00510 189.6 226.8
216(13) 0.00592 189.5 224.9
251(14) 0.00510 189.3 223.8
231(14) 0.00510 189.2 223.6
233(14) 0.00510 189.0 224.2
219(14) 0.00510 188.8 225.7
238(14) 0.00510 188.7 227.8
230(14) 0.00510 188.5 230.3
233(14) 0.00510 188.4 232.8
251(14) 0.00510 188.2 234.8
230(14) 0.00510 188.1 236.1
239(14) 0.00510 187.9 236.5
229(14) 0.00510 187.8 236.1
258(15) 0.00444 187.7 235.1
236(14) 0.00510 187.5 233.8
222(14) 0.00510 187.4 232.4
212(13) 0.00592 187.2 230.9
252(14) 0.00510 187.1 229.4
220(14) 0.00510 186.9 227.9
269(15) 0.00444 186.8 226.5
249(14) 0.00510 186.6 225.3
223(14) 0.00510 186.5 224.3
214(13) 0.00592 186.3 223.5
211(13) 0.00592 186.2 223.0
201(13) 0.00592 186.0 222.6
206(13) 0.00592 185.9 222.6
222(14) 0.00510 185.8 223.0
222(14) 0.00510 185.6 223.9
204(13) 0.00592 185.5 225.5
228(14) 0.00510 185.3 227.8
227(14) 0.00510 185.2 230.9
219(14) 0.00510 185.0 234.6
227(14) 0.00510 184.9 238.9
255(15) 0.00444 184.8 243.5
256(15) 0.00444 184.6 248.3
247(14) 0.00510 184.5 253.0
252(14) 0.00510 184.3 257.3
246(14) 0.00510 184.2 260.7
241(14) 0.00510 184.1 262.9
244(14) 0.00510 183.9 263.3
254(15) 0.00444 183.8 261.5
254(15) 0.00444 183.6 257.7
245(14) 0.00510 183.5 252.2
228(14) 0.00510 183.4 245.6
235(14) 0.00510 183.2 238.5
230(14) 0.00510 183.1 231.4
228(14) 0.00510 183.0 224.8
213(13) 0.00592 182.8 218.8
193(13) 0.00592 182.7 213.6
195(13) 0.00592 182.6 209.2
202(13) 0.00592 182.4 205.5
198(13) 0.00592 182.3 202.5
207(13) 0.00592 182.2 200.1
210(13) 0.00592 182.0 198.3
192(13) 0.00592 181.9 196.9
210(13) 0.00592 181.8 195.9
184(12) 0.00694 181.6 195.3
191(13) 0.00592 181.5 195.0
186(12) 0.00694 181.4 194.9
196(13) 0.00592 181.2 195.1
218(13) 0.00592 181.1 195.6
186(12) 0.00694 181.0 196.3
194(13) 0.00592 180.8 197.2
205(13) 0.00592 180.7 198.4
196(13) 0.00592 180.6 199.8
209(13) 0.00592 180.4 201.4
178(12) 0.00694 180.3 203.0
186(12) 0.00694 180.2 204.7
211(13) 0.00592 180.1 206.2
197(13) 0.00592 179.9 207.4
222(14) 0.00510 179.8 208.3
219(14) 0.00510 179.7 208.9
215(13) 0.00592 179.5 209.2
194(13) 0.00592 179.4 209.4
227(14) 0.00510 179.3 209.5
208(13) 0.00592 179.2 209.5
211(13) 0.00592 179.0 209.5
194(13) 0.00592 178.9 209.5
209(13) 0.00592 178.8 209.4
210(13) 0.00592 178.7 209.4
219(14) 0.00510 178.5 209.6
199(13) 0.00592 178.4 209.9
205(13) 0.00592 178.3 210.3
196(13) 0.00592 178.2 210.9
226(14) 0.00510 178.1 211.7
210(13) 0.00592 177.9 212.7
214(13) 0.00592 177.8 214.1
207(13) 0.00592 177.7 216.1
194(13) 0.00592 177.6 218.7
202(13) 0.00592 177.4 222.2
205(14) 0.00510 177.3 226.5
236(14) 0.00510 177.2 231.9
249(15) 0.00444 177.1 238.1
243(15) 0.00444 177.0 245.0
232(14) 0.00510 176.9 252.4
284(16) 0.00391 176.7 259.7
269(15) 0.00444 176.6 266.4
291(16) 0.00391 176.5 271.7
274(16) 0.00391 176.4 275.0
269(15) 0.00444 176.3 275.9
269(15) 0.00444 176.1 274.4
274(16) 0.00391 176.0 270.9
266(15) 0.00444 175.9 266.1
244(15) 0.00444 175.8 260.7
248(15) 0.00444 175.7 255.1
278(16) 0.00391 175.6 249.9
236(15) 0.00444 175.4 245.2
256(15) 0.00444 175.3 241.1
210(14) 0.00510 175.2 237.5
259(15) 0.00444 175.1 234.4
219(14) 0.00510 175.0 231.4
208(14) 0.00510 174.9 228.6
220(14) 0.00510 174.8 225.9
240(15) 0.00444 174.7 223.2
228(14) 0.00510 174.5 220.6
224(14) 0.00510 174.4 218.3
232(14) 0.00510 174.3 216.3
222(14) 0.00510 174.2 214.8
223(14) 0.00510 174.1 213.8
222(14) 0.00510 174.0 213.4
207(14) 0.00510 173.9 213.4
218(14) 0.00510 173.8 213.6
204(13) 0.00592 173.7 214.1
231(14) 0.00510 173.5 214.4
216(14) 0.00510 173.4 214.5
223(14) 0.00510 173.3 214.2
234(14) 0.00510 173.2 213.4
235(14) 0.00510 173.1 212.3
225(14) 0.00510 173.0 211.1
230(14) 0.00510 172.9 209.8
224(14) 0.00510 172.8 208.7
215(14) 0.00510 172.7 207.7
225(14) 0.00510 172.6 206.8
186(13) 0.00592 172.5 206.1
238(15) 0.00444 172.4 205.3
191(13) 0.00592 172.3 204.4
185(13) 0.00592 172.2 203.2
202(13) 0.00592 172.1 201.8
217(14) 0.00510 172.0 200.2
203(13) 0.00592 171.8 198.4
185(13) 0.00592 171.7 196.7
229(14) 0.00510 171.6 195.2
193(13) 0.00592 171.5 193.9
186(13) 0.00592 171.4 192.8
201(13) 0.00592 171.3 192.1
187(13) 0.00592 171.2 191.8
188(13) 0.00592 171.1 191.8
195(13) 0.00592 171.0 192.3
176(13) 0.00592 170.9 193.2
181(13) 0.00592 170.8 194.6
214(14) 0.00510 170.7 196.5
205(14) 0.00510 170.6 198.8
196(13) 0.00592 170.5 201.6
201(13) 0.00592 170.4 204.8
213(14) 0.00510 170.3 208.4
213(14) 0.00510 170.2 212.3
192(13) 0.00592 170.1 216.4
229(14) 0.00510 170.0 220.5
217(14) 0.00510 169.9 224.5
230(14) 0.00510 169.8 228.2
232(14) 0.00510 169.7 231.6
241(15) 0.00444 169.7 234.7
246(15) 0.00444 169.6 237.5
246(15) 0.00444 169.5 240.0
258(15) 0.00444 169.4 242.2
240(15) 0.00444 169.3 243.9
235(14) 0.00510 169.2 245.0
257(15) 0.00444 169.1 245.4
235(14) 0.00510 169.0 244.9
229(14) 0.00510 168.9 243.6
232(14) 0.00510 168.8 241.4
271(16) 0.00391 168.7 238.3
255(15) 0.00444 168.6 234.6
220(14) 0.00510 168.5 230.3
229(14) 0.00510 168.4 225.6
233(14) 0.00510 168.3 220.7
208(14) 0.00510 168.2 215.9
213(14) 0.00510 168.1 211.4
213(14) 0.00510 168.1 207.3
189(13) 0.00592 168.0 203.7
193(13) 0.00592 167.9 200.7
180(13) 0.00592 167.8 198.3
193(13) 0.00592 167.7 196.4
185(13) 0.00592 167.6 194.9
182(13) 0.00592 167.5 193.9
190(13) 0.00592 167.4 193.2
181(13) 0.00592 167.3 192.7
227(14) 0.00510 167.3 192.2
206(14) 0.00510 167.2 191.6
195(13) 0.00592 167.1 190.8
179(13) 0.00592 167.0 189.9
192(13) 0.00592 166.9 188.8
205(14) 0.00510 166.8 187.7
180(13) 0.00592 166.7 186.5
191(13) 0.00592 166.6 185.4
184(13) 0.00592 166.6 184.3
165(12) 0.00694 166.5 183.4
167(12) 0.00694 166.4 182.6
186(13) 0.00592 166.3 181.9
178(13) 0.00592 166.2 181.4
165(12) 0.00694 166.1 180.9
202(14) 0.00510 166.1 180.4
199(13) 0.00592 166.0 180.0
171(12) 0.00694 165.9 179.6
207(14) 0.00510 165.8 179.2
162(12) 0.00694 165.7 178.9
178(13) 0.00592 165.6 178.6
185(13) 0.00592 165.6 178.5
169(12) 0.00694 165.5 178.4
202(13) 0.00592 165.4 178.6
194(13) 0.00592 165.3 178.9
184(13) 0.00592 165.2 179.4
178(13) 0.00592 165.2 180.1
169(12) 0.00694 165.1 181.1
190(13) 0.00592 165.0 182.4
172(12) 0.00694 164.9 184.0
208(14) 0.00510 164.8 185.9
214(14) 0.00510 164.8 188.1
174(13) 0.00592 164.7 190.5
209(14) 0.00510 164.6 193.3
184(13) 0.00592 164.5 196.2
200(13) 0.00592 164.4 199.2
202(13) 0.00592 164.4 202.1
190(13) 0.00592 164.3 204.8
200(13) 0.00592 164.2 207.2
204(14) 0.00510 164.1 209.0
206(14) 0.00510 164.1 210.2
217(14) 0.00510 164.0 210.7
218(14) 0.00510 163.9 210.8
209(14) 0.00510 163.8 210.4
205(14) 0.00510 163.8 209.6
205(14) 0.00510 163.7 208.6
190(13) 0.00592 163.6 207.5
214(14) 0.00510 163.5 206.3
220(14) 0.00510 163.5 205.0
183(13) 0.00592 163.4 203.9
190(13) 0.00592 163.3 203.1
206(14) 0.00510 163.2 202.6
206(14) 0.00510 163.2 202.5
208(14) 0.00510 163.1 202.8
227(14) 0.00510 163.0 203.6
206(14) 0.00510 163.0 204.8
192(13) 0.00592 162.9 206.3
203(14) 0.00510 162.8 208.0
220(14) 0.00510 162.7 209.8
191(13) 0.00592 162.7 211.4
236(15) 0.00444 162.6 212.9
223(14) 0.00510 162.5 214.1
229(14) 0.00510 162.5 214.9
224(14) 0.00510 162.4 215.3
217(14) 0.00510 162.3 215.3
211(14) 0.00510 162.3 215.1
205(14) 0.00510 162.2 214.9
236(15) 0.00444 162.1 214.8
215(14) 0.00510 162.1 215.0
202(14) 0.00510 162.0 215.6
222(14) 0.00510 161.9 216.7
214(14) 0.00510 161.9 218.3
248(15) 0.00444 161.8 220.4
222(14) 0.00510 161.7 222.9
197(13) 0.00592 161.7 225.6
266(15) 0.00444 161.6 228.5
232(14) 0.00510 161.5 231.3
234(15) 0.00444 161.5 234.0
219(14) 0.00510 161.4 236.4
227(14) 0.00510 161.3 238.6
243(15) 0.00444 161.3 240.4
265(15) 0.00444 161.2 241.9
252(15) 0.00444 161.2 242.9
284(16) 0.00391 161.1 243.4
270(16) 0.00391 161.0 243.2
266(16) 0.00391 161.0 242.5
257(15) 0.00444 160.9 241.3
253(15) 0.00444 160.8 239.8
264(15) 0.00444 160.8 238.3
228(14) 0.00510 160.7 237.0
244(15) 0.00444 160.7 236.3
234(15) 0.00444 160.6 236.1
247(15) 0.00444 160.5 236.6
258(15) 0.00444 160.5 237.7
258(15) 0.00444 160.4 239.3
280(16) 0.00391 160.4 241.3
275(16) 0.00391 160.3 243.4
265(15) 0.00444 160.2 245.1
257(15) 0.00444 160.2 246.3
265(15) 0.00444 160.1 246.5
254(15) 0.00444 160.1 245.7
263(15) 0.00444 160.0 243.7
261(15) 0.00444 160.0 240.7
261(15) 0.00444 159.9 237.0
239(14) 0.00510 159.9 232.9
245(14) 0.00510 159.8 228.5
229(14) 0.00510 159.7 224.1
222(13) 0.00592 159.7 219.8
214(13) 0.00592 159.6 215.7
205(13) 0.00592 159.6 211.9
224(14) 0.00510 159.5 208.4
202(13) 0.00592 159.5 205.3
193(13) 0.00592 159.4 202.6
191(12) 0.00694 159.4 200.5
185(12) 0.00694 159.3 198.8
194(13) 0.00592 159.3 197.6
205(13) 0.00592 159.2 196.8
166(12) 0.00694 159.2 196.5
194(13) 0.00592 159.1 196.5
209(13) 0.00592 159.1 196.7
193(13) 0.00592 159.0 197.2
195(13) 0.00592 158.9 197.9
204(13) 0.00592 158.9 198.7
202(13) 0.00592 158.8 199.5
213(13) 0.00592 158.8 200.4
199(13) 0.00592 158.8 201.4
193(13) 0.00592 158.7 202.4
203(13) 0.00592 158.7 203.4
210(13) 0.00592 158.6 204.5
209(13) 0.00592 158.6 205.6
213(13) 0.00592 158.5 206.7
216(13) 0.00592 158.5 207.8
221(13) 0.00592 158.4 209.0
212(13) 0.00592 158.4 210.2
215(13) 0.00592 158.3 211.4
195(13) 0.00592 158.3 212.7
228(14) 0.00510 158.2 214.0
216(13) 0.00592 158.2 215.3
217(13) 0.00592 158.1 216.6
218(13) 0.00592 158.1 217.8
229(14) 0.00510 158.1 219.0
231(14) 0.00510 158.0 220.0
227(14) 0.00510 158.0 220.9
251(14) 0.00510 157.9 221.6
220(13) 0.00592 157.9 221.8
193(13) 0.00592 157.8 221.6
212(13) 0.00592 157.8 220.8
239(14) 0.00510 157.7 219.5
215(13) 0.00592 157.7 217.7
219(13) 0.00592 157.7 215.5
226(14) 0.00510 157.6 213.1
201(13) 0.00592 157.6 210.4
203(13) 0.00592 157.5 207.6
225(14) 0.00510 157.5 204.9
203(13) 0.00592 157.5 202.2
187(12) 0.00694 157.4 199.6
206(13) 0.00592 157.4 197.2
192(13) 0.00592 157.3 195.0
187(12) 0.00694 157.3 193.0
158(11) 0.00826 157.3 191.3
164(12) 0.00694 157.2 189.8
174(12) 0.00694 157.2 188.5
180(12) 0.00694 157.2 187.4
188(12) 0.00694 157.1 186.5
200(13) 0.00592 157.1 185.7
186(12) 0.00694 157.0 184.9
176(12) 0.00694 157.0 184.1
169(12) 0.00694 157.0 183.3
187(12) 0.00694 156.9 182.5
199(13) 0.00592 156.9 181.7
184(12) 0.00694 156.9 180.8
203(13) 0.00592 156.8 180.0
172(12) 0.00694 156.8 179.1
206(13) 0.00592 156.8 178.3
179(12) 0.00694 156.7 177.6
172(12) 0.00694 156.7 176.9
162(11) 0.00826 156.7 176.3
187(12) 0.00694 156.6 175.9
200(13) 0.00592 156.6 175.6
164(12) 0.00694 156.6 175.4
180(12) 0.00694 156.5 175.4
179(12) 0.00694 156.5 175.4
185(12) 0.00694 156.5 175.6
182(12) 0.00694 156.5 175.8
177(12) 0.00694 156.4 176.1
176(12) 0.00694 156.4 176.5
183(12) 0.00694 156.4 177.0
179(12) 0.00694 156.3 177.6
172(12) 0.00694 156.3 178.2
184(12) 0.00694 156.3 179.0
170(12) 0.00694 156.3 180.0
181(12) 0.00694 156.2 181.0
187(12) 0.00694 156.2 182.3
193(13) 0.00592 156.2 183.7
177(12) 0.00694 156.1 185.4
190(12) 0.00694 156.1 187.3
183(12) 0.00694 156.1 189.5
187(12) 0.00694 156.1 192.0
198(13) 0.00592 156.0 194.7
205(13) 0.00592 156.0 197.6
212(13) 0.00592 156.0 200.8
187(12) 0.00694 156.0 204.1
194(17) 0.003460 155.9 207.6
206(13) 0.00592 155.9 211.1
216(13) 0.00592 155.9 214.7
219(13) 0.00592 155.9 218.4
225(13) 0.00592 155.9 222.0
223(13) 0.00592 155.8 225.4
230(13) 0.00592 155.8 228.7
236(14) 0.00510 155.8 231.7
236(14) 0.00510 155.8 234.2
241(14) 0.00510 155.7 236.1
243(14) 0.00510 155.7 237.4
228(13) 0.00592 155.7 237.9
234(14) 0.00510 155.7 237.6
230(14) 0.00510 155.7 236.6
219(13) 0.00592 155.6 235.0
209(13) 0.00592 155.6 232.7
224(13) 0.00592 155.6 229.9
212(13) 0.00592 155.6 226.9
219(13) 0.00592 155.6 223.7
229(13) 0.00592 155.6 220.5
207(13) 0.00592 155.5 217.3
206(13) 0.00592 155.5 214.3
203(13) 0.00592 155.5 211.5
211(13) 0.00592 155.5 208.9
214(13) 0.00592 155.5 206.4
208(13) 0.00592 155.5 204.2
206(13) 0.00592 155.5 202.0
188(12) 0.00694 155.4 199.9
180(12) 0.00694 155.4 197.9
196(12) 0.00694 155.4 195.8
186(12) 0.00694 155.4 193.8
187(12) 0.00694 155.4 191.9
174(12) 0.00694 155.4 190.0
186(12) 0.00694 155.4 188.3
188(12) 0.00694 155.3 186.7
184(12) 0.00694 155.3 185.4
189(12) 0.00694 155.3 184.2
182(12) 0.00694 155.3 183.3
174(12) 0.00694 155.3 182.7
176(12) 0.00694 155.3 182.4
177(12) 0.00694 155.3 182.4
176(12) 0.00694 155.3 182.7
189(12) 0.00694 155.3 183.2
186(12) 0.00694 155.3 184.1
194(12) 0.00694 155.3 185.1
191(12) 0.00694 155.2 186.4
188(12) 0.00694 155.2 187.9
181(12) 0.00694 155.2 189.5
188(12) 0.00694 155.2 191.1
196(12) 0.00694 155.2 192.7
199(13) 0.00592 155.2 194.3
194(12) 0.00694 155.2 195.7
203(13) 0.00592 155.2 197.0
178(12) 0.00694 155.2 198.1
187(12) 0.00694 155.2 198.9
193(12) 0.00694 155.2 199.7
193(12) 0.00694 155.2 200.3
185(12) 0.00694 155.2 200.7
201(13) 0.00592 155.2 201.0
200(13) 0.00592 155.2 201.2
204(13) 0.00592 155.2 201.2
201(13) 0.00592 155.2 201.0
203(13) 0.00592 155.2 200.7
191(12) 0.00694 155.2 200.3
191(12) 0.00694 155.2 199.8
204(13) 0.00592 155.2 199.3
207(13) 0.00592 155.2 198.9
210(13) 0.00592 155.2 198.5
210(13) 0.00592 155.2 198.4
216(13) 0.00592 155.2 198.3
194(12) 0.00694 155.2 198.5
186(12) 0.00694 155.2 198.7
184(12) 0.00694 155.2 199.0
196(12) 0.00694 155.2 199.3
216(13) 0.00592 155.2 199.5
201(13) 0.00592 155.2 199.7
197(12) 0.00694 155.2 199.8
191(12) 0.00694 155.2 199.7
194(12) 0.00694 155.2 199.5
196(12) 0.00694 155.2 199.2
189(12) 0.00694 155.2 198.8
210(13) 0.00592 155.2 198.4
211(13) 0.00592 155.2 197.9
202(13) 0.00592 155.2 197.4
198(12) 0.00694 155.2 196.8
194(12) 0.00694 155.2 196.2
187(12) 0.00694 155.2 195.6
207(13) 0.00592 155.3 195.0
210(13) 0.00592 155.3 194.3
188(12) 0.00694 155.3 193.7
190(12) 0.00694 155.3 193.0
183(12) 0.00694 155.3 192.3
196(12) 0.00694 155.3 191.5
198(12) 0.00694 155.3 190.7
195(12) 0.00694 155.3 189.9
193(12) 0.00694 155.3 189.0
179(12) 0.00694 155.3 188.2
178(12) 0.00694 155.4 187.4
179(12) 0.00694 155.4 186.7
178(12) 0.00694 155.4 186.1
179(12) 0.00694 155.4 185.5
188(12) 0.00694 155.4 185.0
178(12) 0.00694 155.4 184.6
187(12) 0.00694 155.4 184.1
188(12) 0.00694 155.5 183.7
195(12) 0.00694 155.5 183.2
187(12) 0.00694 155.5 182.8
181(12) 0.00694 155.5 182.4
168(11) 0.00826 155.5 181.9
176(12) 0.00694 155.5 181.5
170(11) 0.00826 155.5 181.1
177(12) 0.00694 155.6 180.8
199(12) 0.00694 155.6 180.5
202(12) 0.00694 155.6 180.4
192(12) 0.00694 155.6 180.3
179(12) 0.00694 155.6 180.4
200(12) 0.00694 155.7 180.6
194(12) 0.00694 155.7 180.9
189(12) 0.00694 155.7 181.3
182(12) 0.00694 155.7 181.8
186(12) 0.00694 155.7 182.4
179(12) 0.00694 155.8 183.1
182(12) 0.00694 155.8 183.7
199(12) 0.00694 155.8 184.4
192(12) 0.00694 155.8 185.1
177(12) 0.00694 155.8 185.8
179(12) 0.00694 155.9 186.5
190(12) 0.00694 155.9 187.3
189(12) 0.00694 155.9 188.0
170(11) 0.00826 155.9 188.8
188(12) 0.00694 156.0 189.7
211(13) 0.00592 156.0 190.7
188(12) 0.00694 156.0 191.7
185(12) 0.00694 156.0 192.9
202(12) 0.00694 156.1 194.2
214(13) 0.00592 156.1 195.6
213(13) 0.00592 156.1 197.1
197(12) 0.00694 156.1 198.7
207(13) 0.00592 156.2 200.4
211(13) 0.00592 156.2 202.1
195(12) 0.00694 156.2 203.8
190(12) 0.00694 156.3 205.6
197(12) 0.00694 156.3 207.2
213(13) 0.00592 156.3 208.7
217(13) 0.00592 156.4 210.0
207(13) 0.00592 156.4 211.1
211(13) 0.00592 156.4 211.8
211(13) 0.00592 156.4 212.2
195(12) 0.00694 156.5 212.2
208(13) 0.00592 156.5 211.8
199(12) 0.00694 156.5 211.1
210(13) 0.00592 156.6 210.0
203(12) 0.00694 156.6 208.7
203(12) 0.00694 156.6 207.1
210(13) 0.00592 156.7 205.3
207(13) 0.00592 156.7 203.4
216(13) 0.00592 156.7 201.4
197(12) 0.00694 156.8 199.3
188(12) 0.00694 156.8 197.1
206(13) 0.00592 156.8 195.0
194(12) 0.00694 156.9 192.9
188(12) 0.00694 156.9 190.9
205(13) 0.00592 157.0 189.0
199(12) 0.00694 157.0 187.3
185(12) 0.00694 157.0 185.8
197(12) 0.00694 157.1 184.5
190(12) 0.00694 157.1 183.5
199(12) 0.00694 157.1 182.7
197(12) 0.00694 157.2 182.1
195(12) 0.00694 157.2 181.8
199(12) 0.00694 157.3 181.7
207(13) 0.00592 157.3 182.0
210(13) 0.00592 157.4 182.4
199(12) 0.00694 157.4 183.2
176(12) 0.00694 157.4 184.2
177(12) 0.00694 157.5 185.4
191(12) 0.00694 157.5 187.0
223(13) 0.00592 157.6 188.7
191(12) 0.00694 157.6 190.7
202(12) 0.00694 157.6 192.9
220(13) 0.00592 157.7 195.3
220(13) 0.00592 157.7 197.8
222(13) 0.00592 157.8 200.5
198(12) 0.00694 157.8 203.3
196(12) 0.00694 157.9 206.1
200(12) 0.00694 157.9 208.9
210(13) 0.00592 158.0 211.6
213(13) 0.00592 158.0 214.1
209(13) 0.00592 158.1 216.5
214(13) 0.00592 158.1 218.5
231(13) 0.00592 158.2 220.3
237(14) 0.00510 158.2 221.8
220(13) 0.00592 158.3 223.1
206(13) 0.00592 158.3 224.1
218(13) 0.00592 158.3 225.0
231(13) 0.00592 158.4 225.6
233(13) 0.00592 158.4 226.1
226(13) 0.00592 158.5 226.5
232(13) 0.00592 158.5 226.7
223(13) 0.00592 158.6 226.7
223(13) 0.00592 158.7 226.5
227(14) 0.00510 158.7 226.0
224(13) 0.00592 158.8 225.3
210(13) 0.00592 158.8 224.3
232(14) 0.00510 158.9 223.1
233(14) 0.00510 158.9 221.6
219(13) 0.00592 159.0 219.9
235(14) 0.00510 159.0 218.1
236(14) 0.00510 159.1 216.3
214(13) 0.00592 159.1 214.4
178(12) 0.00694 159.2 212.5
202(13) 0.00592 159.2 210.8
215(13) 0.00592 159.3 209.3
223(13) 0.00592 159.4 207.9
199(13) 0.00592 159.4 206.7
195(13) 0.00592 159.5 205.8
209(13) 0.00592 159.5 205.2
219(13) 0.00592 159.6 204.8
227(14) 0.00510 159.6 204.6
202(13) 0.00592 159.7 204.6
211(13) 0.00592 159.8 204.8
201(13) 0.00592 159.8 205.2
215(13) 0.00592 159.9 205.7
208(13) 0.00592 159.9 206.3
216(13) 0.00592 160.0 206.9
196(13) 0.00592 160.1 207.6
215(13) 0.00592 160.1 208.3
222(13) 0.00592 160.2 209.1
204(13) 0.00592 160.3 209.8
222(13) 0.00592 160.3 210.5
204(13) 0.00592 160.4 211.3
210(13) 0.00592 160.4 212.0
214(13) 0.00592 160.5 212.7
215(13) 0.00592 160.6 213.4
193(12) 0.00694 160.6 214.0
190(12) 0.00694 160.7 214.5
194(12) 0.00694 160.8 214.9
213(13) 0.00592 160.8 215.3
213(13) 0.00592 160.9 215.5
198(13) 0.00592 161.0 215.7
212(13) 0.00592 161.0 215.8
218(13) 0.00592 161.1 215.8
210(13) 0.00592 161.2 215.8
208(13) 0.00592 161.2 215.8
206(13) 0.00592 161.3 215.8
198(13) 0.00592 161.4 215.8
222(13) 0.00592 161.4 215.8
194(12) 0.00694 161.5 215.9
183(12) 0.00694 161.6 216.1
208(13) 0.00592 161.6 216.4
196(13) 0.00592 161.7 216.9
206(13) 0.00592 161.8 217.4
206(13) 0.00592 161.8 218.2
200(13) 0.00592 161.9 219.1
216(13) 0.00592 162.0 220.2
228(14) 0.00510 162.1 221.5
235(14) 0.00510 162.1 223.0
241(14) 0.00510 162.2 224.5
233(14) 0.00510 162.3 226.2
209(13) 0.00592 162.4 227.9
220(13) 0.00592 162.4 229.7
224(14) 0.00510 162.5 231.4
256(14) 0.00510 162.6 233.0
233(14) 0.00510 162.6 234.5
212(13) 0.00592 162.7 235.9
233(14) 0.00510 162.8 237.1
255(14) 0.00510 162.9 238.2
239(14) 0.00510 162.9 239.1
267(15) 0.00444 163.0 239.9
246(14) 0.00510 163.1 240.7
236(14) 0.00510 163.2 241.4
249(14) 0.00510 163.3 242.0
243(14) 0.00510 163.3 242.5
243(14) 0.00510 163.4 243.0
233(14) 0.00510 163.5 243.4
236(14) 0.00510 163.6 243.7
236(14) 0.00510 163.6 244.0
246(14) 0.00510 163.7 244.2
236(14) 0.00510 163.8 244.4
240(14) 0.00510 163.9 244.6
221(13) 0.00592 164.0 244.8
242(14) 0.00510 164.0 245.1
248(14) 0.00510 164.1 245.3
232(14) 0.00510 164.2 245.5
241(14) 0.00510 164.3 245.7
244(14) 0.00510 164.4 245.9
248(14) 0.00510 164.4 245.9
245(14) 0.00510 164.5 245.8
221(13) 0.00592 164.6 245.6
254(14) 0.00510 164.7 245.1
236(14) 0.00510 164.8 244.3
244(14) 0.00510 164.9 243.3
234(14) 0.00510 164.9 242.0
245(14) 0.00510 165.0 240.5
217(13) 0.00592 165.1 238.7
224(13) 0.00592 165.2 236.9
242(14) 0.00510 165.3 235.0
239(14) 0.00510 165.4 233.0
223(13) 0.00592 165.4 231.1
198(13) 0.00592 165.5 229.3
234(11) 0.00826 165.6 227.5
224(14) 0.00510 165.7 225.9
218(14) 0.00510 165.8 224.4
206(13) 0.00592 165.9 223.1
213(13) 0.00592 166.0 221.9
195(13) 0.00592 166.0 220.8
207(13) 0.00592 166.1 219.7
209(13) 0.00592 166.2 218.8
215(13) 0.00592 166.3 217.9
219(14) 0.00510 166.4 217.1
235(14) 0.00510 166.5 216.3
222(14) 0.00510 166.6 215.5
219(14) 0.00510 166.7 214.7
182(12) 0.00694 166.8 213.8
210(13) 0.00592 166.8 213.0
205(13) 0.00592 166.9 212.1
195(13) 0.00592 167.0 211.1
189(13) 0.00592 167.1 210.2
212(13) 0.00592 167.2 209.1
198(13) 0.00592 167.3 208.1
198(13) 0.00592 167.4 207.1
198(13) 0.00592 167.5 206.0
201(13) 0.00592 167.6 205.1
236(14) 0.00510 167.7 204.1
223(14) 0.00510 167.7 203.2
208(13) 0.00592 167.8 202.4
219(14) 0.00510 167.9 201.7
208(13) 0.00592 168.0 201.1
232(14) 0.00510 168.1 200.5
199(13) 0.00592 168.2 200.1
200(13) 0.00592 168.3 199.8
183(12) 0.00694 168.4 199.6
204(13) 0.00592 168.5 199.5
213(13) 0.00592 168.6 199.5
198(13) 0.00592 168.7 199.7
181(12) 0.00694 168.8 199.9
201(13) 0.00592 168.9 200.1
216(14) 0.00510 169.0 200.4
211(13) 0.00592 169.1 200.8
202(13) 0.00592 169.2 201.2
208(13) 0.00592 169.3 201.6
211(13) 0.00592 169.3 202.0
221(14) 0.00510 169.4 202.4
229(14) 0.00510 169.5 202.8
221(14) 0.00510 169.6 203.2
214(13) 0.00592 169.7 203.6
212(13) 0.00592 169.8 204.0
207(13) 0.00592 169.9 204.5
200(13) 0.00592 170.0 205.0
219(14) 0.00510 170.1 205.6
212(13) 0.00592 170.2 206.2
198(13) 0.00592 170.3 206.9
226(14) 0.00510 170.4 207.6
213(13) 0.00592 170.5 208.4
213(13) 0.00592 170.6 209.2
209(13) 0.00592 170.7 210.0
226(14) 0.00510 170.8 210.8
237(14) 0.00510 170.9 211.6
207(13) 0.00592 171.0 212.3
218(14) 0.00510 171.1 212.9
219(14) 0.00510 171.2 213.3
224(14) 0.00510 171.3 213.6
196(13) 0.00592 171.4 213.8
206(13) 0.00592 171.5 213.8
211(13) 0.00592 171.6 213.6
216(13) 0.00592 171.7 213.2
245(14) 0.00510 171.8 212.7
228(14) 0.00510 171.9 212.0
209(13) 0.00592 172.0 211.3
198(13) 0.00592 172.1 210.6
212(13) 0.00592 172.2 209.8
212(13) 0.00592 172.3 209.0
199(13) 0.00592 172.4 208.3
188(13) 0.00592 172.5 207.7
197(13) 0.00592 172.6 207.1
219(14) 0.00510 172.7 206.7
224(14) 0.00510 172.8 206.4
206(13) 0.00592 172.9 206.3
215(13) 0.00592 173.0 206.4
203(13) 0.00592 173.1 206.7
203(13) 0.00592 173.2 207.1
209(13) 0.00592 173.3 207.8
216(14) 0.00510 173.4 208.6
207(13) 0.00592 173.5 209.7
197(13) 0.00592 173.7 211.0
221(14) 0.00510 173.8 212.6
210(13) 0.00592 173.9 214.3
216(14) 0.00510 174.0 216.3
216(14) 0.00510 174.1 218.5
210(13) 0.00592 174.2 220.9
229(14) 0.00510 174.3 223.5
230(14) 0.00510 174.4 226.2
205(13) 0.00592 174.5 229.2
229(14) 0.00510 174.6 232.3
239(14) 0.00510 174.7 235.4
233(14) 0.00510 174.8 238.7
254(15) 0.00444 174.9 242.1
247(15) 0.00444 175.0 245.4
235(14) 0.00510 175.1 248.8
260(15) 0.00444 175.2 252.1
242(14) 0.00510 175.3 255.3
275(15) 0.00444 175.4 258.5
275(15) 0.00444 175.5 261.5
278(15) 0.00444 175.6 264.4
285(15) 0.00444 175.7 267.1
286(15) 0.00444 175.8 269.6
296(15) 0.00444 176.0 272.0
265(14) 0.00510 176.1 274.1
272(15) 0.00444 176.2 276.0
269(15) 0.00444 176.3 277.6
285(15) 0.00444 176.4 279.0
267(15) 0.00444 176.5 280.2
249(14) 0.00510 176.6 281.1
256(14) 0.00510 176.7 281.8
285(15) 0.00444 176.8 282.2
282(15) 0.00444 176.9 282.3
292(15) 0.00444 177.0 282.1
242(14) 0.00510 177.1 281.7
267(15) 0.00444 177.2 281.0
271(15) 0.00444 177.3 280.2
274(15) 0.00444 177.4 279.1
283(15) 0.00444 177.5 278.0
302(16) 0.00391 177.7 276.8
273(15) 0.00444 177.8 275.5
276(15) 0.00444 177.9 274.3
265(14) 0.00510 178.0 273.0
277(15) 0.00444 178.1 271.8
282(15) 0.00444 178.2 270.7
275(15) 0.00444 178.3 269.6
279(15) 0.00444 178.4 268.5
266(14) 0.00510 178.5 267.5
243(14) 0.00510 178.6 266.4
285(15) 0.00444 178.7 265.4
272(15) 0.00444 178.8 264.2
236(14) 0.00510 178.9 263.0
266(15) 0.00444 179.0 261.6
263(14) 0.00510 179.2 260.1
220(13) 0.00592 179.3 258.4
244(14) 0.00510 179.4 256.6
266(15) 0.00444 179.5 254.7
241(14) 0.00510 179.6 252.6
270(15) 0.00444 179.7 250.5
256(14) 0.00510 179.8 248.2
265(14) 0.00510 179.9 246.0
251(14) 0.00510 180.0 243.7
241(14) 0.00510 180.1 241.4
236(14) 0.00510 180.2 239.2
238(14) 0.00510 180.3 237.0
227(13) 0.00592 180.4 234.9
222(13) 0.00592 180.6 232.8
208(13) 0.00592 180.7 230.9
217(13) 0.00592 180.8 229.1
233(14) 0.00510 180.9 227.4
248(14) 0.00510 181.0 225.8
225(13) 0.00592 181.1 224.4
219(13) 0.00592 181.2 223.1
232(13) 0.00592 181.3 222.0
229(13) 0.00592 181.4 221.0
233(13) 0.00592 181.5 220.2
231(13) 0.00592 181.6 219.5
218(13) 0.00592 181.7 218.9
217(13) 0.00592 181.8 218.5
230(13) 0.00592 182.0 218.2
225(13) 0.00592 182.1 218.0
205(13) 0.00592 182.2 217.9
222(13) 0.00592 182.3 217.9
210(13) 0.00592 182.4 218.0
217(13) 0.00592 182.5 218.1
219(13) 0.00592 182.6 218.4
212(13) 0.00592 182.7 218.6
224(13) 0.00592 182.8 218.9
207(13) 0.00592 182.9 219.3
228(13) 0.00592 183.0 219.6
198(12) 0.00694 183.1 220.0
213(13) 0.00592 183.2 220.4
206(13) 0.00592 183.3 220.8
231(13) 0.00592 183.5 221.3
217(13) 0.00592 183.6 221.8
243(14) 0.00510 183.7 222.3
225(13) 0.00592 183.8 222.9
234(14) 0.00510 183.9 223.5
229(13) 0.00592 184.0 224.2
217(13) 0.00592 184.1 224.9
225(13) 0.00592 184.2 225.7
211(13) 0.00592 184.3 226.5
221(13) 0.00592 184.4 227.4
248(14) 0.00510 184.5 228.3
253(14) 0.00510 184.6 229.3
227(13) 0.00592 184.7 230.2
208(13) 0.00592 184.8 231.2
244(14) 0.00510 184.9 232.2
243(14) 0.00510 185.0 233.2
245(14) 0.00510 185.2 234.1
255(14) 0.00510 185.3 235.0
225(13) 0.00592 185.4 235.9
231(13) 0.00592 185.5 236.7
226(13) 0.00592 185.6 237.4
252(14) 0.00510 185.7 238.1
236(14) 0.00510 185.8 238.7
240(14) 0.00510 185.9 239.3
249(20) 0.002500 186.0 239.9
257(14) 0.00510 186.1 240.4
247(14) 0.00510 186.2 240.9
240(13) 0.00592 186.3 241.3
235(13) 0.00592 186.4 241.8
245(14) 0.00510 186.5 242.2
246(14) 0.00510 186.6 242.6
233(13) 0.00592 186.7 243.0
232(13) 0.00592 186.8 243.3
236(13) 0.00592 186.9 243.7
246(14) 0.00510 187.0 244.0
243(14) 0.00510 187.1 244.4
246(14) 0.00510 187.3 244.7
228(13) 0.00592 187.4 245.0
239(13) 0.00592 187.5 245.3
243(14) 0.00510 187.6 245.6
254(14) 0.00510 187.7 246.0
246(14) 0.00510 187.8 246.3
258(14) 0.00510 187.9 246.7
261(14) 0.00510 188.0 247.1
247(14) 0.00510 188.1 247.5
257(14) 0.00510 188.2 248.0
268(14) 0.00510 188.3 248.4
254(14) 0.00510 188.4 248.9
261(14) 0.00510 188.5 249.3
270(14) 0.00510 188.6 249.7
262(14) 0.00510 188.7 250.2
265(14) 0.00510 188.8 250.5
270(14) 0.00510 188.9 250.9
258(14) 0.00510 189.0 251.2
247(14) 0.00510 189.1 251.5
258(14) 0.00510 189.2 251.8
262(14) 0.00510 189.3 252.0
246(14) 0.00510 189.4 252.3
263(14) 0.00510 189.5 252.4
256(14) 0.00510 189.6 252.6
249(14) 0.00510 189.7 252.7
250(14) 0.00510 189.8 252.8
252(14) 0.00510 189.9 252.9
272(14) 0.00510 190.0 253.0
258(14) 0.00510 190.1 253.0
265(14) 0.00510 190.2 253.1
252(14) 0.00510 190.3 253.1
248(14) 0.00510 190.4 253.1
251(14) 0.00510 190.5 253.1
255(14) 0.00510 190.6 253.0
268(14) 0.00510 190.7 253.0
267(14) 0.00510 190.8 253.0
269(14) 0.00510 190.9 253.0
259(14) 0.00510 191.0 253.1
263(14) 0.00510 191.1 253.1
231(13) 0.00592 191.2 253.2
242(14) 0.00510 191.3 253.2
262(14) 0.00510 191.4 253.4
261(14) 0.00510 191.5 253.5
259(14) 0.00510 191.6 253.7
288(15) 0.00444 191.7 253.9
270(14) 0.00510 191.8 254.2
240(13) 0.00592 191.9 254.6
264(14) 0.00510 192.0 255.0
256(14) 0.00510 192.1 255.4
247(14) 0.00510 192.2 256.0
281(15) 0.00444 192.3 256.6
281(15) 0.00444 192.4 257.3
275(14) 0.00510 192.5 258.1
260(14) 0.00510 192.6 259.0
272(14) 0.00510 192.7 259.9
262(14) 0.00510 192.8 260.9
275(15) 0.00444 192.9 262.0
265(14) 0.00510 193.0 263.1
275(15) 0.00444 193.1 264.3
274(14) 0.00510 193.2 265.4
275(14) 0.00510 193.3 266.6
281(15) 0.00444 193.4 267.7
283(15) 0.00444 193.5 268.8
278(15) 0.00444 193.6 269.9
270(14) 0.00510 193.7 270.9
267(14) 0.00510 193.8 271.8
271(14) 0.00510 193.9 272.7
287(15) 0.00444 194.0 273.4
289(15) 0.00444 194.1 274.1
285(15) 0.00444 194.2 274.6
263(14) 0.00510 194.3 275.1
273(14) 0.00510 194.4 275.5
299(15) 0.00444 194.5 275.7
282(15) 0.00444 194.6 275.9
265(14) 0.00510 194.7 275.9
280(15) 0.00444 194.8 275.8
286(15) 0.00444 194.9 275.6
292(15) 0.00444 195.0 275.2
262(14) 0.00510 195.1 274.7
282(15) 0.00444 195.2 274.1
270(14) 0.00510 195.3 273.4
268(14) 0.00510 195.4 272.5
279(15) 0.00444 195.5 271.5
253(14) 0.00510 195.6 270.4
261(14) 0.00510 195.7 269.2
243(14) 0.00510 195.8 267.9
278(15) 0.00444 195.9 266.5
269(14) 0.00510 196.0 265.1
274(12) 0.00694 196.1 263.6
272(15) 0.00444 196.2 262.2
263(14) 0.00510 196.3 260.7
264(14) 0.00510 196.3 259.2
274(15) 0.00444 196.4 257.8
274(15) 0.00444 196.5 256.4
243(14) 0.00510 196.6 255.1
245(14) 0.00510 196.7 253.9
235(13) 0.00592 196.8 252.7
239(14) 0.00510 196.9 251.6
251(14) 0.00510 197.0 250.7
255(14) 0.00510 197.1 249.8
250(14) 0.00510 197.2 249.0
254(14) 0.00510 197.3 248.3
257(14) 0.00510 197.4 247.8
246(14) 0.00510 197.5 247.3
240(14) 0.00510 197.6 247.0
241(14) 0.00510 197.7 246.7
235(13) 0.00592 197.8 246.5
231(13) 0.00592 197.9 246.5
247(14) 0.00510 198.0 246.5
234(13) 0.00592 198.1 246.6
232(13) 0.00592 198.2 246.7
244(14) 0.00510 198.3 246.9
242(14) 0.00510 198.4 247.2
256(14) 0.00510 198.5 247.5
247(14) 0.00510 198.6 247.9
249(14) 0.00510 198.7 248.3
252(14) 0.00510 198.8 248.7
256(14) 0.00510 198.9 249.1
252(14) 0.00510 199.0 249.5
260(14) 0.00510 199.1 249.9
264(14) 0.00510 199.2 250.3
275(15) 0.00444 199.3 250.8
251(14) 0.00510 199.4 251.2
253(14) 0.00510 199.5 251.6
266(14) 0.00510 199.6 251.9
256(14) 0.00510 199.7 252.3
246(14) 0.00510 199.8 252.6
250(14) 0.00510 199.9 252.9
259(14) 0.00510 200.0 253.2
259(14) 0.00510 200.1 253.5
264(14) 0.00510 200.2 253.7
266(14) 0.00510 200.3 253.9
249(14) 0.00510 200.4 254.2
262(14) 0.00510 200.5 254.3
264(14) 0.00510 200.6 254.5
265(14) 0.00510 200.7 254.7
250(14) 0.00510 200.8 254.8
228(13) 0.00592 200.9 255.0
234(13) 0.00592 201.0 255.1
239(14) 0.00510 201.1 255.2
252(14) 0.00510 201.2 255.2
239(14) 0.00510 201.3 255.2
238(14) 0.00510 201.4 255.2
264(14) 0.00510 201.5 255.2
255(14) 0.00510 201.6 255.1
253(14) 0.00510 201.7 255.0
264(14) 0.00510 201.8 254.8
264(14) 0.00510 201.9 254.6
244(14) 0.00510 202.0 254.4
267(14) 0.00510 202.1 254.1
248(14) 0.00510 202.2 253.8
248(14) 0.00510 202.4 253.5
243(14) 0.00510 202.5 253.2
260(14) 0.00510 202.6 252.8
254(14) 0.00510 202.7 252.5
249(14) 0.00510 202.8 252.2
256(14) 0.00510 202.9 251.8
261(14) 0.00510 203.0 251.5
265(14) 0.00510 203.1 251.3
252(14) 0.00510 203.2 251.0
244(14) 0.00510 203.3 250.8
241(14) 0.00510 203.4 250.5
239(14) 0.00510 203.6 250.4
240(14) 0.00510 203.7 250.2
245(14) 0.00510 203.8 250.1
241(14) 0.00510 203.9 249.9
259(14) 0.00510 204.0 249.8
253(14) 0.00510 204.1 249.8
244(14) 0.00510 204.2 249.7
230(13) 0.00592 204.3 249.6
240(14) 0.00510 204.5 249.5
236(13) 0.00592 204.6 249.5
259(14) 0.00510 204.7 249.4
268(14) 0.00510 204.8 249.3
244(14) 0.00510 204.9 249.3
240(14) 0.00510 205.0 249.2
248(14) 0.00510 205.2 249.1
237(13) 0.00592 205.3 249.0
258(14) 0.00510 205.4 248.9
251(14) 0.00510 205.5 248.8
247(14) 0.00510 205.6 248.7
248(14) 0.00510 205.8 248.7
248(14) 0.00510 205.9 248.6
245(14) 0.00510 206.0 248.5
238(14) 0.00510 206.1 248.4
244(14) 0.00510 206.3 248.3
233(13) 0.00592 206.4 248.2
228(13) 0.00592 206.5 248.1
233(13) 0.00592 206.6 248.0
263(14) 0.00510 206.8 247.8
228(13) 0.00592 206.9 247.7
254(14) 0.00510 207.0 247.5
230(13) 0.00592 207.1 247.4
245(14) 0.00510 207.3 247.2
235(14) 0.00510 207.4 247.0
243(14) 0.00510 207.5 246.8
254(14) 0.00510 207.7 246.6
261(14) 0.00510 207.8 246.3
253(14) 0.00510 207.9 246.1
249(14) 0.00510 208.1 245.9
233(14) 0.00510 208.2 245.7
214(13) 0.00592 208.4 245.4
252(14) 0.00510 208.5 245.2
251(14) 0.00510 208.6 245.1
268(15) 0.00444 208.8 244.9
253(14) 0.00510 208.9 244.8
242(14) 0.00510 209.1 244.6
241(14) 0.00510 209.2 244.6
245(14) 0.00510 209.3 244.5
248(14) 0.00510 209.5 244.5
260(14) 0.00510 209.6 244.6
244(14) 0.00510 209.8 244.6
244(14) 0.00510 209.9 244.8
242(14) 0.00510 210.1 244.9
251(14) 0.00510 210.2 245.1
238(14) 0.00510 210.4 245.4
265(15) 0.00444 210.5 245.7
242(14) 0.00510 210.7 246.0
255(14) 0.00510 210.8 246.4
257(14) 0.00510 211.0 246.8
240(14) 0.00510 211.2 247.3
239(14) 0.00510 211.3 247.8
238(14) 0.00510 211.5 248.3
261(14) 0.00510 211.6 248.9
260(14) 0.00510 211.8 249.5
251(14) 0.00510 212.0 250.1
239(14) 0.00510 212.1 250.8
263(14) 0.00510 212.3 251.5
265(14) 0.00510 212.5 252.3
254(14) 0.00510 212.6 253.0
248(14) 0.00510 212.8 253.8
252(14) 0.00510 213.0 254.6
254(14) 0.00510 213.2 255.5
258(14) 0.00510 213.3 256.4
256(14) 0.00510 213.5 257.2
252(14) 0.00510 213.7 258.1
252(14) 0.00510 213.9 259.1
260(14) 0.00510 214.1 260.0
244(14) 0.00510 214.2 260.9
254(14) 0.00510 214.4 261.8
307(16) 0.00391 214.6 262.8
285(15) 0.00444 214.8 263.7
286(15) 0.00444 215.0 264.7
273(15) 0.00444 215.2 265.6
288(15) 0.00444 215.4 266.5
276(15) 0.00444 215.6 267.4
267(15) 0.00444 215.8 268.3
259(14) 0.00510 216.0 269.2
270(15) 0.00444 216.2 270.0
270(15) 0.00444 216.4 270.9
260(14) 0.00510 216.6 271.7
273(15) 0.00444 216.8 272.5
277(15) 0.00444 217.0 273.2
292(15) 0.00444 217.2 273.9
271(15) 0.00444 217.4 274.6
268(15) 0.00444 217.6 275.2
280(15) 0.00444 217.9 275.7
280(15) 0.00444 218.1 276.2
272(15) 0.00444 218.3 276.7
293(15) 0.00444 218.5 277.1
280(15) 0.00444 218.7 277.4
308(16) 0.00391 219.0 277.7
285(15) 0.00444 219.2 277.9
267(15) 0.00444 219.4 278.0
284(15) 0.00444 219.7 278.1
267(15) 0.00444 219.9 278.1
276(15) 0.00444 220.1 278.1
279(15) 0.00444 220.4 278.0
284(15) 0.00444 220.6 277.8
264(14) 0.00510 220.9 277.6
267(15) 0.00444 221.1 277.4
290(15) 0.00444 221.3 277.1
280(15) 0.00444 221.6 276.7
268(15) 0.00444 221.9 276.3
284(15) 0.00444 222.1 275.9
274(15) 0.00444 222.4 275.4
280(15) 0.00444 222.6 275.0
280(15) 0.00444 222.9 274.5
289(15) 0.00444 223.2 274.0
279(15) 0.00444 223.4 273.5
284(15) 0.00444 223.7 273.0
278(15) 0.00444 224.0 272.5
268(15) 0.00444 224.3 272.0
281(15) 0.00444 224.5 271.6
274(15) 0.00444 224.8 271.2
263(14) 0.00510 225.1 270.8
262(14) 0.00510 225.4 270.4
260(14) 0.00510 225.7 270.1
269(15) 0.00444 226.0 269.8
259(15) 0.00444 226.3 269.5
256(15) 0.00444 226.6 269.3
255(14) 0.00510 226.9 269.1
272(15) 0.00444 227.2 269.0
267(15) 0.00444 227.5 269.0
281(15) 0.00444 227.8 268.9
273(15) 0.00444 228.1 269.0
280(15) 0.00444 228.4 269.1
269(15) 0.00444 228.7 269.2
248(14) 0.00510 229.1 269.4
274(15) 0.00444 229.4 269.6
286(15) 0.00444 229.7 269.9
284(15) 0.00444 230.0 270.3
270(15) 0.00444 230.4 270.7
268(15) 0.00444 230.7 271.1
276(15) 0.00444 231.1 271.6
270(15) 0.00444 231.4 272.2
253(14) 0.00510 231.8 272.8
245(14) 0.00510 232.1 273.4
279(15) 0.00444 232.5 274.1
279(15) 0.00444 232.8 274.8
278(15) 0.00444 233.2 275.5
272(15) 0.00444 233.6 276.3
273(15) 0.00444 233.9 277.1
290(15) 0.00444 234.3 277.9
303(16) 0.00391 234.7 278.7
297(16) 0.00391 235.1 279.6
293(16) 0.00391 235.5 280.5
294(16) 0.00391 235.8 281.4
305(16) 0.00391 236.2 282.3
306(16) 0.00391 236.6 283.2
312(16) 0.00391 237.0 284.2
306(16) 0.00391 237.4 285.1
308(16) 0.00391 237.8 286.1
296(16) 0.00391 238.3 287.1
300(16) 0.00391 238.7 288.1
289(15) 0.00444 239.1 289.1
273(15) 0.00444 239.5 290.1
287(15) 0.00444 240.0 291.1
299(16) 0.00391 240.4 292.1
311(16) 0.00391 240.8 293.1
307(16) 0.00391 241.3 294.1
301(16) 0.00391 241.7 295.2
288(15) 0.00444 242.2 296.2
290(15) 0.00444 242.6 297.3
304(16) 0.00391 243.1 298.3
290(15) 0.00444 243.5 299.4
293(16) 0.00391 244.0 300.4
308(16) 0.00391 244.5 301.4
319(16) 0.00391 245.0 302.4
314(16) 0.00391 245.4 303.4
301(16) 0.00391 245.9 304.4
305(16) 0.00391 246.4 305.3
314(16) 0.00391 246.9 306.3
333(17) 0.003460 247.4 307.2
311(16) 0.00391 247.9 308.1
317(16) 0.00391 248.4 308.9
326(16) 0.00391 249.0 309.7
315(16) 0.00391 249.5 310.5
327(16) 0.00391 250.0 311.2
321(16) 0.00391 250.5 311.9
325(16) 0.00391 251.1 312.5
332(17) 0.003460 251.6 313.1
336(17) 0.003460 252.2 313.7
332(17) 0.003460 252.7 314.2
305(16) 0.00391 253.3 314.7
304(16) 0.00391 253.8 315.2
326(16) 0.00391 254.4 315.6
322(16) 0.00391 255.0 316.0
300(16) 0.00391 255.6 316.4
307(16) 0.00391 256.1 316.7
337(17) 0.003460 256.7 317.0
320(16) 0.00391 257.3 317.3
339(17) 0.003460 257.9 317.6
310(16) 0.00391 258.5 317.8
285(15) 0.00444 259.2 318.0
325(16) 0.00391 259.8 318.2
311(16) 0.00391 260.4 318.4
307(16) 0.00391 261.0 318.6
306(16) 0.00391 261.7 318.7
314(16) 0.00391 262.3 318.8
308(16) 0.00391 263.0 319.0
307(16) 0.00391 263.6 319.1
314(16) 0.00391 264.3 319.2
355(17) 0.003460 264.9 319.3
337(17) 0.003460 265.6 319.4
299(16) 0.00391 266.3 319.5
313(16) 0.00391 267.0 319.5
311(16) 0.00391 267.7 319.6
307(16) 0.00391 268.4 319.7
311(16) 0.00391 269.1 319.8
329(16) 0.00391 269.8 319.8
332(17) 0.003460 270.5 319.9
328(16) 0.00391 271.2 320.0
302(16) 0.00391 272.0 320.1
320(16) 0.00391 272.7 320.2
320(16) 0.00391 273.5 320.4
321(16) 0.00391 274.2 320.5
327(16) 0.00391 275.0 320.7
322(13) 0.00592 275.7 320.8
324(17) 0.003460 276.5 321.0
317(17) 0.003460 277.3 321.2
308(16) 0.00391 278.1 321.5
317(17) 0.003460 278.9 321.7
329(17) 0.003460 279.7 322.0
338(17) 0.003460 280.5 322.3
334(17) 0.003460 281.3 322.6
322(17) 0.003460 282.1 323.0
325(17) 0.003460 283.0 323.4
341(17) 0.003460 283.8 323.8
329(17) 0.003460 284.7 324.3
341(17) 0.003460 285.5 324.8
335(17) 0.003460 286.4 325.3
308(16) 0.00391 287.2 325.8
313(17) 0.003460 288.1 326.4
317(17) 0.003460 289.0 327.0
333(17) 0.003460 289.9 327.7
339(17) 0.003460 290.8 328.3
337(17) 0.003460 291.7 329.1
342(17) 0.003460 292.6 329.8
343(17) 0.003460 293.6 330.6
345(17) 0.003460 294.5 331.4
333(17) 0.003460 295.4 332.3
327(17) 0.003460 296.4 333.2
331(17) 0.003460 297.4 334.1
332(17) 0.003460 298.3 335.0
343(17) 0.003460 299.3 336.0
338(17) 0.003460 300.3 337.0
330(17) 0.003460 301.3 338.1
343(17) 0.003460 302.3 339.1
346(17) 0.003460 303.3 340.3
352(18) 0.003086 304.3 341.4
346(17) 0.003460 305.4 342.6
340(17) 0.003460 306.4 343.8
330(17) 0.003460 307.5 345.0
354(18) 0.003086 308.5 346.3
373(18) 0.003086 309.6 347.6
358(18) 0.003086 310.7 349.0
370(18) 0.003086 311.7 350.4
359(18) 0.003086 312.8 351.8
346(17) 0.003460 313.9 353.2
350(18) 0.003086 315.1 354.7
354(18) 0.003086 316.2 356.2
344(17) 0.003460 317.3 357.8
351(18) 0.003086 318.5 359.3
346(17) 0.003460 319.6 361.0
365(18) 0.003086 320.8 362.6
362(18) 0.003086 322.0 364.3
347(17) 0.003460 323.1 366.0
374(18) 0.003086 324.3 367.7
382(18) 0.003086 325.5 369.5
371(18) 0.003086 326.8 371.3
380(18) 0.003086 328.0 373.1
383(18) 0.003086 329.2 374.9
391(18) 0.003086 330.5 376.8
385(18) 0.003086 331.7 378.7
379(18) 0.003086 333.0 380.6
378(18) 0.003086 334.3 382.5
385(18) 0.003086 335.5 384.5
386(18) 0.003086 336.8 386.4
387(18) 0.003086 338.2 388.4
407(19) 0.002770 339.5 390.4
405(19) 0.002770 340.8 392.5
410(19) 0.002770 342.2 394.5
412(19) 0.002770 343.5 396.5
380(18) 0.003086 344.9 398.6
385(18) 0.003086 346.3 400.7
411(19) 0.002770 347.6 402.7
407(19) 0.002770 349.0 404.8
434(19) 0.002770 350.5 406.9
434(19) 0.002770 351.9 409.0
416(19) 0.002770 353.3 411.1
416(19) 0.002770 354.8 413.2
422(19) 0.002770 356.2 415.4
435(19) 0.002770 357.7 417.5
426(19) 0.002770 359.2 419.6
415(19) 0.002770 360.7 421.7
413(19) 0.002770 362.2 423.8
425(19) 0.002770 363.7 425.9
443(20) 0.002500 365.2 428.0
439(20) 0.002500 366.8 430.1
443(20) 0.002500 368.3 432.2
450(20) 0.002500 369.9 434.3
431(19) 0.002770 371.5 436.3
432(19) 0.002770 373.1 438.3
443(20) 0.002500 374.7 440.4
453(20) 0.002500 376.3 442.4
444(20) 0.002500 377.9 444.4
441(20) 0.002500 379.6 446.3
428(19) 0.002770 381.2 448.2
458(20) 0.002500 382.9 450.2
473(20) 0.002500 384.6 452.0
454(20) 0.002500 386.3 453.9
447(20) 0.002500 388.0 455.7
450(20) 0.002500 389.7 457.5
460(20) 0.002500 391.5 459.3
457(20) 0.002500 393.2 461.0
460(20) 0.002500 395.0 462.8
503(21) 0.002268 396.8 464.5
495(21) 0.002268 398.6 466.1
456(20) 0.002500 400.4 467.8
495(21) 0.002268 402.2 469.4
480(21) 0.002268 404.1 471.0
495(21) 0.002268 405.9 472.5
497(21) 0.002268 407.8 474.1
495(21) 0.002268 409.7 475.6
484(21) 0.002268 411.6 477.2
492(21) 0.002268 413.5 478.7
487(21) 0.002268 415.4 480.2
493(21) 0.002268 417.3 481.7
462(20) 0.002500 419.3 483.1
473(21) 0.002268 421.3 484.6
482(21) 0.002268 423.2 486.1
473(21) 0.002268 425.2 487.6
476(21) 0.002268 427.3 489.1
507(21) 0.002268 429.3 490.6
472(21) 0.002268 431.3 492.1
493(21) 0.002268 433.4 493.6
488(21) 0.002268 435.5 495.1
509(21) 0.002268 437.6 496.6
500(21) 0.002268 439.7 498.2
494(21) 0.002268 441.8 499.8
516(22) 0.002066 444.0 501.3
511(21) 0.002268 446.1 502.9
515(22) 0.002066 448.3 504.6
514(22) 0.002066 450.5 506.2
514(22) 0.002066 452.7 507.9
505(21) 0.002268 454.9 509.6
506(21) 0.002268 457.2 511.3
504(21) 0.002268 459.4 513.0
515(22) 0.002066 461.7 514.8
506(21) 0.002268 464.0 516.6
520(22) 0.002066 466.3 518.4
504(21) . . .
490(21) . . .
528(22) . . .
522(22) . . .
524(22) . . .
509(21) . . .
529(22) . . .
517(22) . . .
526(22) . . .
537(22) . . .
530(22) . . .
537(22) . . .
541(22) . . .
544(22) . . .
553(22) . . .
537(22) . . .
557(22) . . .
512(21) . . .
509(21) . . .
544(22) . . .
541(22) . . .
550(22) . . .
545(22) . . .
570(23) . . .
585(23) . . .
582(23) . . .
577(23) . . .
601(23) . . .
610(23) . . .
583(23) . . .
583(23) . . .
567(23) . . .
571(23) . . .
580(23) . . .
595(23) . . .
625(24) . . .
620(24) . . .
590(23) . . .
628(24) . . .
595(23) . . .
578(23) . . .
607(23) . . .
632(24) . . .
652(24) . . .
628(24) . . .
649(24) . . .
649(24) . . .
652(24) . . .
659(24) . . .
637(24) . . .
621(24) . . .
641(24) . . .
669(24) . . .
653(24) . . .
626(24) . . .
634(24) . . .
649(24) . . .
663(24) . . .
651(24) . . .
690(25) . . .
703(25) . . .
690(25) . . .
695(25) . . .
684(25) . . .
679(25) . . .
682(25) . . .
667(35) . . .
667(35) . . .
698(36) . . .
710(36) . . .
705(36) . . .
709(36) . . .
659(35) . . .
739(37) . . .
768(37) . . .
764(37) . . .
804(38) . . .
742(37) . . .
696(36) . . .
745(37) . . .
798(38) . . .
795(38) . . .
787(38) . . .
807(38) . . .
807(38) . . .
802(38) . . .
787(38) . . .
819(38) . . .
831(39) . . .
759(37) . . .
770(37) . . .
785(38) . . .
790(38) . . .
775(37) . . .
809(38) . . .
751(37) . . .
789(38) . . .
837(39) . . .
820(38) . . .
846(39) . . .
790(38) . . .
854(39) . . .
854(39) . . .
804(38) . . .
846(39) . . .
876(40) . . .
890(40) . . .
900(40) . . .
881(40) . . .
846(39) . . .
856(39) . . .
905(40) . . .
856(39) . . .
906(40) . . .
858(39) . . .
844(39) . . .
804(38) . . .
837(39) . . .
858(39) . . .
889(40) . . .
920(41) . . .
923(41) . . .
913(40) . . .
879(40) . . .
911(40) . . .
922(41) . . .
880(40) . . .
882(40) . . .
843(39) . . .
951(41) . . .
918(40) . . .
865(39) . . .
873(40) . . .
925(41) . . .
936(41) . . .
940(41) . . .
891(40) . . .
910(40) . . .
959(41) . . .
993(42) . . .
950(41) . . .
895(40) . . .
887(40) . . .
958(41) . . .
949(41) . . .
945(41) . . .
914(40) . . .
998(42) . . .
946(41) . . .
1002(42) . . .
995(42) . . .
1046(43) . . .
1003(42) . . .
1002(42) . . .
970(42) . . .
970(42) . . .
987(42) . . .
929(41) . . .
971(42) . . .
987(42) . . .
1002(42) . . .
1034(43) . . .
1026(43) . . .
1014(42) . . .
1006(42) . . .
1059(43) . . .
loop_
_refln_index_h
_refln_index_k
_refln_index_l
_refln_observed_status
_refln_F_squared_meas
_refln_F_squared_calc
_refln_phase_calc
_refln_d_spacing
_gsas_i100_meas
1 1 0 o 1032.172 1037.193 -180.00 12.92099 100.00
3 0 0 o 402.885 343.231 -26.43 7.45994 13.10
1 0 1 o 171.129 162.574 30.68 6.48985 4.22
2 2 0 o 46.655 45.123 0.00 6.46049 1.14
2 0 -1 o 727.748 753.034 134.37 5.79942 14.39
2 1 1 o 57.290 66.744 66.29 5.29092 1.89
4 1 0 o 98.483 105.430 91.23 4.88367 2.78
3 1 -1 o 50.188 33.500 -56.17 4.57860 1.25
4 0 1 o 336.857 298.152 -130.94 4.31566 3.74
3 3 0 o 470.676 412.206 180.00 4.30700 5.20
3 2 1 o 35.593 29.907 -165.51 4.09337 0.71
5 0 -1 o 485.830 475.268 28.56 3.73559 4.08
6 0 0 o 476.570 474.666 -73.89 3.72997 3.99
4 2 -1 o 137.192 126.517 -140.47 3.58862 2.14
5 2 0 o 127.342 117.495 -19.78 3.58364 1.98
5 1 1 o 557.299 532.183 19.04 3.45774 8.08
1 0 -2 o 138.010 92.234 -26.56 3.35236 0.94
2 0 2 o 124.793 118.232 -105.90 3.24493 0.80
4 3 1 o 85.031 78.116 -93.72 3.23390 1.09
4 4 0 o 0.046 0.042 180.00 3.23025 0.00
2 1 -2 o 114.306 85.764 -164.69 3.14720 1.39
6 1 -1 o 6.201 3.782 -119.35 3.04857 0.07
3 1 2 o 35.994 31.731 87.76 2.97561 0.39
7 1 0 o 527.613 480.525 126.53 2.96428 5.73
4 0 -2 o 314.836 337.718 3.16 2.89971 1.64
7 0 1 o 647.425 687.817 159.02 2.89183 3.36
5 3 -1 o 10.826 11.502 163.72 2.89183 0.11
3 2 -2 o 114.210 124.879 110.49 2.82934 1.14
6 2 1 o 388.541 426.461 -151.78 2.82202 3.85
6 3 0 o 22.470 24.983 -110.31 2.81959 0.22
5 0 2 o 239.244 243.131 3.87 2.70271 1.09
4 2 2 o 7.170 8.221 175.98 2.64546 0.06
5 4 1 o 188.251 207.423 47.54 2.63947 1.65
5 1 -2 o 132.960 154.206 -103.78 2.59170 1.13
8 0 -1 o 38.229 43.477 48.48 2.58607 0.16
5 5 0 o 94.963 106.257 0.00 2.58420 0.40
7 2 -1 o 186.187 185.571 -177.46 2.53578 1.52
4 3 -2 o 19.299 21.139 -23.18 2.49332 0.15
9 0 0 o 485.903 480.559 -36.14 2.48665 1.91
8 1 1 o 427.684 423.844 -12.20 2.44341 3.26
8 2 0 o 93.428 90.268 -89.91 2.44184 0.71
6 1 2 o 1.681 1.929 -146.36 2.40536 0.01
6 4 -1 o 277.291 315.365 2.77 2.40086 2.05
7 3 1 o 9.382 19.001 58.96 2.36046 0.07
7 0 -2 o 955.766 967.264 76.74 2.32610 3.34
5 3 2 o 195.988 198.345 -150.82 2.32610 1.37
7 4 0 o 27.689 26.963 116.42 2.32068 0.19
6 2 -2 o 29.189 40.405 -164.25 2.28930 0.20
0 0 3 o 1696.910 1787.374 89.92 2.26041 1.88
1 1 3 o 250.751 227.181 -75.22 2.22660 1.63
6 5 1 o 141.731 123.063 -135.40 2.21711 0.91
9 1 -1 o 90.123 78.252 -13.86 2.21711 0.58
5 4 -2 o 151.688 124.825 -46.00 2.18857 0.95
3 0 3 o 34.730 29.737 92.29 2.16328 0.11
3 0 -3 o 91.033 77.945 -176.77 2.16328 0.28
8 0 2 o 53.016 54.015 -132.65 2.15783 0.16
8 3 -1 o 9.673 10.538 145.69 2.15458 0.06
6 6 0 o 0.393 0.429 0.00 2.15350 0.00
2 2 3 o 364.465 312.795 128.17 2.13359 2.20
7 2 2 o 185.102 166.848 82.35 2.12836 1.11
10 0 1 o 598.182 554.519 105.69 2.12523 1.79
10 1 0 o 68.297 63.815 83.38 2.12420 0.41
9 2 1 o 435.722 391.361 -145.30 2.09706 2.55
8 1 -2 o 345.463 319.298 -99.22 2.07286 1.98
9 3 0 o 28.545 26.078 151.10 2.06901 0.16
6 4 2 o 439.639 421.317 -31.90 2.04669 2.47
7 5 -1 o 95.549 92.273 -173.19 2.04391 0.54
4 1 -3 o 312.406 300.484 18.03 2.05134 1.76
4 1 3 o 140.687 135.318 -45.52 2.05134 0.79
7 3 -2 o 286.421 273.118 113.32 2.02148 1.58
8 4 1 o 191.870 177.738 62.03 2.01881 1.06
3 3 3 o 70.407 51.977 -142.12 2.00151 0.38
8 5 0 o 52.194 32.095 128.33 1.97043 0.28
11 0 -1 o 27.032 16.133 20.75 1.94871 0.07
6 0 -3 o 172.223 179.646 -102.58 1.93314 0.44
6 0 3 o 160.249 167.156 92.85 1.93314 0.41
6 5 -2 o 92.517 93.284 -96.48 1.92925 0.47
9 1 2 o 57.894 58.373 -37.15 1.92925 0.30
5 2 3 o 6.593 8.796 77.53 1.91186 0.03
5 2 -3 o 117.063 156.197 177.45 1.91186 0.59
10 2 -1 o 68.108 67.077 -160.80 1.92692 0.35
7 6 1 o 9.840 11.429 -148.38 1.90584 0.05
8 3 2 o 350.114 299.128 178.26 1.88762 1.73
10 0 -2 o 949.648 866.008 68.05 1.86780 2.31
9 4 -1 o 9.877 9.032 -91.41 1.86569 0.05
11 1 1 o 246.833 225.708 -33.52 1.86569 1.20
12 0 0 o 133.654 122.387 -177.29 1.86498 0.32
4 4 3 o 6.242 5.945 35.32 1.85201 0.03
9 2 -2 o 189.996 183.244 -58.30 1.84858 0.91
11 2 0 o 51.597 50.699 -78.52 1.84586 0.25
7 7 0 o 5.627 5.529 180.00 1.84586 0.01
10 3 1 o 11.090 18.188 -102.95 1.82796 0.05
7 1 3 o 117.465 113.537 -130.21 1.79744 0.54
7 1 -3 o 37.729 36.467 72.94 1.79744 0.17
7 5 2 o 78.764 64.246 156.58 1.81187 0.37
8 4 -2 o 75.332 73.651 82.71 1.79431 0.34
10 4 0 o 85.919 84.024 -37.96 1.79182 0.39
8 6 -1 o 141.081 149.562 33.25 1.77544 0.63
6 3 3 o 34.094 28.345 -57.08 1.76364 0.15
6 3 -3 o 107.231 89.148 13.12 1.76364 0.48
9 5 1 o 7.538 5.240 -34.57 1.75891 0.03
11 0 2 o 457.551 390.002 110.86 1.74456 1.00
10 2 2 o 398.167 357.183 -36.06 1.72887 1.72
12 1 -1 o 34.949 31.265 143.24 1.72720 0.15
7 6 -2 o 13.712 10.934 -150.35 1.71360 0.06
9 6 0 o 99.061 75.579 -24.70 1.71143 0.42
5 5 3 o 160.089 143.938 81.87 1.70138 0.68
11 3 -1 o 112.095 96.809 20.37 1.69714 0.47
1 0 4 o 1.132 0.991 0.65 1.69047 0.00
11 1 -2 o 148.226 129.958 -152.75 1.68423 0.62
9 4 2 o 35.051 30.732 63.99 1.68423 0.15
2 0 -4 o 120.549 118.132 23.30 1.67618 0.25
9 0 -3 o 86.831 85.812 92.44 1.67263 0.18
9 0 3 o 328.282 324.430 55.85 1.67263 0.68
8 7 1 o 66.039 68.082 103.55 1.66859 0.27
13 0 1 o 120.320 124.043 154.70 1.66859 0.25
2 1 4 o 104.894 108.037 146.18 1.66225 0.43
8 2 3 o 11.926 12.057 80.49 1.65879 0.05
8 2 -3 o 176.594 178.544 -108.33 1.65879 0.72
10 3 -2 o 73.761 74.988 -155.72 1.65633 0.30
12 2 1 o 449.107 458.471 129.71 1.65485 1.83
13 1 0 o 63.816 65.183 46.59 1.65436 0.26
3 1 -4 o 21.094 18.255 152.49 1.63541 0.08
10 5 -1 o 23.627 20.533 -32.83 1.64145 0.10
12 3 0 o 50.781 45.625 178.90 1.62789 0.20
4 0 4 o 175.000 171.743 -50.35 1.62246 0.35
7 4 3 o 85.010 84.293 -120.05 1.61924 0.34
7 4 -3 o 171.795 170.347 121.05 1.61924 0.68
8 6 2 o 79.846 78.838 -64.32 1.61695 0.32
11 4 1 o 218.693 214.042 -19.30 1.61558 0.86
8 8 0 o 137.415 134.001 -180.00 1.61512 0.27
3 2 4 o 36.009 34.631 -43.77 1.60982 0.14
9 5 -2 o 46.507 44.042 20.54 1.60443 0.18
5 0 -4 o 163.540 155.181 -27.43 1.58540 0.31
12 1 2 o 112.923 106.320 -172.76 1.58025 0.43
9 7 -1 o 124.456 116.643 -147.94 1.56732 0.47
11 5 0 o 128.449 121.124 102.02 1.57855 0.49
4 2 -4 o 24.824 24.010 -146.31 1.57360 0.09
5 1 4 o 172.287 161.227 91.21 1.56206 0.65
6 6 3 o 18.524 17.110 9.51 1.55918 0.07
11 3 2 o 159.975 145.053 177.73 1.55713 0.60
14 0 -1 o 110.150 98.308 2.36 1.55591 0.21
10 6 1 o 41.707 37.223 -151.42 1.55591 0.16
10 1 -3 o 77.198 64.442 -20.87 1.54795 0.29
10 1 3 o 131.746 109.977 -88.61 1.54795 0.49
13 2 -1 o 85.768 72.780 -130.22 1.54475 0.32
4 3 4 o 31.560 26.037 -115.34 1.53972 0.12
8 7 -2 o 0.761 0.660 -177.96 1.53500 0.00
13 0 -2 o 460.911 399.821 15.71 1.53500 0.85
9 3 3 o 30.081 28.219 128.44 1.52620 0.11
9 3 -3 o 23.451 21.999 177.09 1.52620 0.09
10 5 2 o 239.057 237.783 23.51 1.51379 0.87
12 2 -2 o 30.283 28.819 103.01 1.52428 0.11
12 4 -1 o 78.714 76.886 -161.44 1.51266 0.29
10 7 0 o 38.590 37.493 -40.96 1.51229 0.14
6 1 -4 o 19.281 20.584 82.50 1.51831 0.07
14 1 1 o 283.916 267.532 -36.83 1.50240 1.03
7 0 4 o 152.676 146.553 -101.63 1.49777 0.28
5 3 -4 o 42.733 41.020 -117.56 1.49777 0.15
11 4 -2 o 89.321 94.428 -3.60 1.49343 0.32
15 0 0 o 15.173 16.591 -49.41 1.49199 0.03
6 2 4 o 62.186 69.264 -111.77 1.48780 0.22
8 5 -3 o 42.936 47.688 27.48 1.48532 0.15
8 5 3 o 65.035 72.232 73.63 1.48532 0.23
9 8 1 o 181.675 203.285 -60.28 1.48249 0.65
13 3 1 o 220.683 246.932 -93.90 1.48249 0.79
14 2 0 o 73.579 82.385 -96.79 1.48214 0.26
11 6 -1 o 124.738 131.185 76.82 1.46335 0.44
5 4 4 o 79.993 83.438 -5.61 1.45907 0.28
9 7 2 o 45.649 49.407 156.08 1.45506 0.16
13 4 0 o 56.270 61.548 70.64 1.45372 0.20
8 0 -4 o 10.343 11.128 -122.55 1.44986 0.02
10 6 -2 o 104.747 106.403 -116.78 1.44592 0.36
14 0 2 o 337.196 342.525 -18.32 1.44592 0.59
12 5 1 o 551.226 555.784 116.69 1.44494 1.92
7 2 -4 o 38.429 37.905 120.17 1.44081 0.13
12 0 3 o 195.268 188.844 80.57 1.43855 0.34
12 0 -3 o 85.814 82.991 -158.80 1.43855 0.15
13 2 2 o 134.867 127.498 22.98 1.43695 0.47
9 9 0 o 2.374 2.198 -180.00 1.43567 0.00
11 2 -3 o 164.221 140.288 100.89 1.42972 0.57
7 7 3 o 93.223 79.637 178.54 1.42972 0.32
11 2 3 o 29.420 25.132 179.29 1.42972 0.10
6 4 -4 o 9.210 9.269 -107.49 1.41467 0.03
8 1 4 o 189.273 168.585 56.19 1.42322 0.65
12 4 2 o 45.211 45.322 -107.13 1.41101 0.15
15 1 -1 o 9.198 9.172 10.67 1.41010 0.03
12 6 0 o 228.461 227.385 -121.36 1.40980 0.78
7 3 4 o 258.538 254.050 168.07 1.40627 0.88
10 4 3 o 78.676 77.557 -40.73 1.40416 0.27
10 4 -3 o 180.227 177.664 -67.01 1.40416 0.61
14 1 -2 o 104.663 104.024 -153.51 1.40267 0.35
10 8 -1 o 113.520 113.794 -116.38 1.40178 0.38
11 7 1 o 65.190 63.927 -69.20 1.39360 0.22
14 3 -1 o 73.617 72.191 67.28 1.39360 0.25
13 3 -2 o 15.088 13.510 -103.92 1.38643 0.05
9 8 -2 o 28.990 25.958 70.84 1.38643 0.10
9 1 -4 o 43.709 43.122 -58.06 1.37409 0.15
6 5 4 o 277.516 273.790 7.44 1.37409 0.93
11 6 2 o 131.693 131.743 -157.13 1.37073 0.44
16 0 1 o 86.327 86.100 131.63 1.36990 0.14
9 6 -3 o 11.064 10.571 147.77 1.36446 0.04
9 6 3 o 81.184 77.562 -98.52 1.36446 0.27
13 5 -1 o 16.217 15.350 -72.42 1.36227 0.05
15 2 1 o 320.888 303.743 112.15 1.36227 1.07
8 3 -4 o 27.754 26.226 39.50 1.35881 0.09
12 5 -2 o 215.655 200.531 116.96 1.35556 0.71
2 0 5 o 33.750 29.235 2.49 1.34639 0.06
11 8 0 o 83.561 76.833 110.88 1.35449 0.28
16 1 0 o 81.250 74.708 110.96 1.35449 0.27
1 0 -5 o 13.592 12.384 -105.98 1.35376 0.02
9 2 4 o 879.692 773.206 -10.22 1.34403 2.90
10 0 4 o 1230.746 1088.560 -154.12 1.35136 2.03
14 4 1 o 71.174 67.561 -55.89 1.34010 0.23
15 3 0 o 32.668 31.204 -77.97 1.33984 0.11
2 1 -5 o 33.678 32.692 97.71 1.33914 0.11
13 1 3 o 26.078 26.237 -134.75 1.33501 0.09
13 1 -3 o 16.128 16.226 -5.93 1.33501 0.05
10 9 1 o 134.093 132.400 76.88 1.33295 0.44
7 5 -4 o 173.961 167.262 172.48 1.32972 0.57
15 1 2 o 198.455 189.810 161.45 1.32667 0.65
4 0 -5 o 103.386 107.881 -126.73 1.31808 0.17
3 1 5 o 39.289 37.720 165.22 1.32499 0.13
8 4 4 o 407.124 397.368 179.00 1.32273 1.33
8 8 3 o 69.867 69.989 46.63 1.31413 0.23
12 3 -3 o 57.629 57.468 -132.77 1.32098 0.19
12 3 3 o 70.613 70.417 -13.29 1.32098 0.23
14 3 2 o 38.078 36.598 -143.05 1.31291 0.12
11 7 -2 o 13.689 13.157 -59.45 1.31291 0.04
10 8 2 o 6.640 6.751 -18.47 1.31974 0.02
14 5 0 o 14.172 13.206 41.79 1.31193 0.05
3 2 -5 o 43.732 40.063 -9.77 1.31127 0.14
12 7 -1 o 46.613 47.980 -30.79 1.31899 0.15
13 6 1 o 55.918 51.296 -19.04 1.30546 0.18
11 0 -4 o 86.745 83.940 54.93 1.30241 0.14
17 0 -1 o 238.224 250.238 161.44 1.29233 0.39
10 10 0 o 306.141 322.167 0.00 1.29210 0.50
4 2 5 o 121.522 128.456 -117.46 1.29147 0.39
5 0 5 o 317.817 321.689 34.43 1.29797 0.52
7 6 4 o 53.337 56.925 -97.57 1.28938 0.17
10 2 -4 o 69.564 71.184 179.78 1.29585 0.23
11 5 3 o 193.288 199.893 118.32 1.29420 0.63
11 5 -3 o 108.314 112.015 62.85 1.29420 0.35
13 5 2 o 136.577 147.174 65.30 1.28661 0.44
15 2 -2 o 8.060 8.686 158.62 1.28661 0.03
16 2 -1 o 60.367 65.160 -89.88 1.28592 0.20
16 0 -2 o 360.853 376.830 12.30 1.29303 0.59
5 1 -5 o 42.082 45.435 31.80 1.28507 0.14
11 1 4 o 215.396 225.424 82.09 1.27673 0.70
9 4 -4 o 44.967 47.061 -31.52 1.27673 0.15
14 4 -2 o 94.358 93.874 -45.92 1.26789 0.31
11 9 -1 o 213.607 212.251 105.08 1.26723 0.69
15 4 -1 o 0.375 0.373 -35.61 1.26723 0.00
13 7 0 o 217.104 223.184 34.78 1.27314 0.70
4 3 -5 o 92.985 94.960 -131.60 1.27254 0.30
10 3 4 o 153.661 151.668 -114.77 1.26444 0.50
10 9 -2 o 15.513 15.387 -44.56 1.26183 0.05
12 8 1 o 193.315 192.301 -170.97 1.26118 0.63
6 1 5 o 9.608 9.588 -175.74 1.26038 0.03
10 7 -3 o 1.773 1.734 -72.86 1.25693 0.01
10 7 3 o 89.539 87.598 -11.23 1.25693 0.29
17 1 1 o 105.218 99.691 -78.96 1.25521 0.34
8 6 -4 o 35.605 33.696 -25.81 1.24666 0.12
15 0 -3 o 7.651 7.304 154.77 1.24520 0.01
15 0 3 o 112.804 107.690 8.83 1.24520 0.18
16 3 1 o 28.526 27.539 -85.31 1.24353 0.09
18 0 0 o 103.029 99.591 6.84 1.24332 0.17
12 7 2 o 74.718 68.371 6.07 1.24996 0.24
6 2 -5 o 23.017 22.312 71.73 1.24276 0.07
7 0 -5 o 106.825 99.427 -159.55 1.24855 0.17
5 3 5 o 68.261 63.534 5.86 1.24855 0.22
9 5 4 o 483.348 467.435 38.62 1.24090 1.57
14 2 3 o 1.512 1.433 109.12 1.23946 0.00
14 2 -3 o 65.277 61.844 -36.36 1.23946 0.21
13 6 -2 o 14.342 13.248 125.66 1.23843 0.05
14 6 -1 o 79.279 71.892 146.60 1.23781 0.26
17 2 0 o 127.356 114.734 -137.61 1.23761 0.42
19 2 2 o 33.340 31.901 -151.73 1.05904 0.22
14 9 2 o 6.436 6.158 50.60 1.05904 0.04
12 1 -4 o 7.594 6.356 -114.44 1.22961 0.02
17 0 2 o 91.233 82.337 -38.94 1.22720 0.15
12 9 0 o 512.528 472.501 -147.16 1.22641 1.68
5 4 -5 o 55.878 52.141 140.03 1.22587 0.18
10 9 4 o 102.375 97.301 -70.32 1.06059 0.66
13 4 3 o 169.246 163.794 -174.76 1.22269 0.56
13 4 -3 o 150.995 146.131 126.26 1.22269 0.50
16 2 2 o 189.854 184.244 -19.83 1.22171 0.62
15 5 1 o 8.009 7.779 125.98 1.22112 0.03
16 4 0 o 184.507 179.226 48.66 1.22092 0.61
8 0 5 o 68.501 66.561 16.61 1.22039 0.11
11 3 -4 o 0.879 0.855 70.42 1.21862 0.00
13 11 -1 o 77.640 73.317 37.16 1.06223 0.49
9 9 3 o 179.695 191.316 -162.21 1.21189 0.59
20 2 0 o 297.094 280.665 77.69 1.06210 1.87
12 2 -5 o 328.131 310.349 49.82 1.06175 2.08
11 10 1 o 220.020 241.154 10.90 1.21035 0.73
7 2 5 o 265.238 264.236 -166.04 1.21498 0.87
13 0 4 o 342.553 381.231 -14.35 1.20793 0.57
8 7 4 o 24.049 26.765 178.11 1.20793 0.08
15 4 2 o 17.851 19.349 158.24 1.20565 0.06
11 9 2 o 21.630 23.445 -124.31 1.20565 0.07
8 1 -5 o 0.007 0.008 126.51 1.20438 0.00
10 5 -4 o 13.041 13.651 101.13 1.19751 0.04
20 0 2 o 1108.589 1045.787 -31.91 1.06262 3.45
12 2 4 o 570.565 591.830 -147.16 1.20268 1.90
12 6 -3 o 108.214 114.143 -105.63 1.19621 0.36
12 6 3 o 27.803 29.327 -59.13 1.19621 0.09
17 1 -2 o 45.582 48.322 175.88 1.19528 0.15
15 6 0 o 509.997 542.760 -139.88 1.19455 1.71
12 8 -2 o 1.724 1.775 -174.04 1.20043 0.01
7 3 -5 o 193.997 206.985 -36.74 1.19405 0.65
13 8 -1 o 80.583 83.160 -59.31 1.19987 0.27
6 4 5 o 424.975 440.173 31.87 1.19918 1.42
14 4 4 o 42.987 40.470 -169.52 1.06418 0.26
14 7 1 o 35.869 38.101 21.10 1.18966 0.12
18 1 -1 o 168.234 178.704 24.00 1.18966 0.57
4 4 6 o 2.636 2.492 -2.78 1.06679 0.02
12 11 -2 o 22.547 21.287 -20.49 1.06623 0.13
11 4 4 o 281.514 286.391 60.15 1.18735 0.95
14 6 2 o 181.449 158.993 -102.01 1.18023 0.62
21 0 0 o 275.240 259.549 -99.33 1.06571 0.81
15 9 0 o 53.196 50.163 -26.90 1.06571 0.31
17 3 -1 o 101.549 88.768 -166.27 1.17970 0.35
16 3 -2 o 68.991 65.872 140.31 1.18518 0.23
13 0 -5 o 77.434 72.970 -175.86 1.06535 0.23
8 7 -5 o 69.551 65.541 124.25 1.06535 0.41
11 11 0 o 101.002 92.999 0.00 1.17464 0.17
9 1 5 o 102.467 95.099 28.70 1.17416 0.35
6 5 -5 o 415.744 385.850 153.38 1.17416 1.42
9 7 -4 o 2.046 2.037 -49.99 1.16779 0.01
17 6 -1 o 150.987 143.549 -12.21 1.06948 0.84
19 3 1 o 50.634 48.140 -99.47 1.06948 0.28
19 0 1 o 77.353 77.959 99.68 1.16051 0.14
16 5 -1 o 268.209 270.311 -2.41 1.16051 0.94
14 8 0 o 342.994 345.758 21.57 1.16034 1.20
15 5 -2 o 50.178 50.066 -34.71 1.16573 0.17
10 0 -5 o 729.170 735.230 15.27 1.15988 1.28
8 3 5 o 297.479 296.579 -118.41 1.16459 1.03
13 2 -4 o 22.320 22.468 -61.88 1.15837 0.08
14 0 -4 o 52.723 52.680 78.27 1.16305 0.09
10 6 4 o 460.672 460.299 -122.58 1.16305 1.60
13 9 1 o 15.615 15.370 -105.27 1.15126 0.06
11 8 3 o 32.159 32.281 -149.51 1.16186 0.11
16 1 -3 o 29.752 29.865 136.77 1.16186 0.10
16 1 3 o 52.287 52.486 158.82 1.16186 0.18
11 8 -3 o 27.206 27.310 59.29 1.16186 0.09
11 10 -2 o 3.936 3.947 -108.70 1.15636 0.01
12 10 -1 o 169.828 170.102 155.14 1.15586 0.60
18 2 1 o 40.196 40.260 69.93 1.15586 0.14
16 4 3 o 278.556 268.652 160.23 1.07423 1.46
16 4 -3 o 2.849 2.748 109.71 1.07423 0.01
9 2 -5 o 717.713 717.555 -176.32 1.15524 2.53
20 1 1 o 37.810 35.738 -92.54 1.07688 0.19
17 4 1 o 16.972 16.474 89.62 1.14223 0.06
12 12 0 o 430.977 407.977 0.00 1.07675 1.10
15 3 3 o 107.812 106.639 -42.42 1.15258 0.38
15 3 -3 o 7.690 7.607 -96.63 1.15258 0.03
13 8 2 o 177.443 175.565 122.45 1.14720 0.64
8 4 -5 o 441.549 428.096 17.30 1.14163 1.61
11 3 5 o 182.597 175.705 -64.12 1.07267 0.98
19 1 0 o 11.729 11.599 55.01 1.14655 0.04
7 5 5 o 92.595 91.462 53.32 1.14611 0.33
14 1 4 o 47.332 45.811 108.53 1.14019 0.17
14 5 3 o 278.578 260.023 21.00 1.13466 1.03
14 5 -3 o 111.369 103.951 -9.80 1.13466 0.41
12 4 -4 o 0.770 0.755 67.09 1.14465 0.00
15 2 4 o 157.359 151.180 -135.14 1.07517 0.82
13 5 -4 o 30.220 29.033 14.72 1.07517 0.16
16 0 4 o 59.688 55.315 -13.71 1.07892 0.15
15 7 -1 o 191.172 177.706 179.13 1.13340 0.71
18 1 2 o 306.804 295.039 136.93 1.13827 1.13
14 7 -2 o 20.581 19.792 -66.11 1.13827 0.08
18 3 0 o 87.349 83.608 -128.51 1.13763 0.32
12 9 -3 o 233.123 217.786 88.36 1.07797 1.18
12 9 3 o 180.601 168.720 -6.36 1.07797 0.91
5 2 6 o 92.086 86.110 43.08 1.07787 0.47
5 2 -6 o 13.337 12.471 24.36 1.07787 0.07
6 0 6 o 325.040 300.787 -126.94 1.08164 0.79
6 0 -6 o 485.194 448.991 -127.97 1.08164 1.18
9 8 4 o 41.575 38.578 53.03 1.13141 0.16
13 3 4 o 331.164 307.297 22.19 1.13141 1.24
16 6 -2 o 123.463 116.167 135.36 1.07729 0.63
1 1 6 o 18.892 17.527 -105.90 1.12591 0.07
16 6 1 o 20.824 20.321 -146.82 1.12054 0.08
17 5 0 o 236.960 231.570 51.61 1.12039 0.92
13 10 0 o 266.376 260.316 150.66 1.12039 1.03
0 0 6 o 295.545 273.870 53.52 1.13021 0.18
18 4 -1 o 398.331 384.417 158.04 1.08828 1.83
7 6 -5 o 97.349 95.488 -151.55 1.11998 0.38
12 1 5 o 9.151 8.435 -146.14 1.08014 0.05
17 3 2 o 42.252 39.114 -78.55 1.12953 0.16
10 2 5 o 692.474 650.342 73.84 1.12421 2.65
9 5 -5 o 5.169 4.995 -14.91 1.08777 0.02
12 5 4 o 234.855 233.251 -125.51 1.11445 0.93
8 6 5 o 84.357 80.605 5.71 1.09164 0.38
13 7 -3 o 9.638 9.759 -158.34 1.10929 0.04
13 7 3 o 169.636 171.770 -179.62 1.10929 0.69
11 0 5 o 734.652 679.034 -118.19 1.12849 1.39
13 9 -2 o 40.383 42.056 113.85 1.10450 0.17
2 2 6 o 28.194 27.911 50.96 1.11330 0.11
20 0 -1 o 637.099 664.329 -149.71 1.10406 1.33
11 6 -4 o 24.497 23.331 -128.42 1.12283 0.09
12 10 2 o 11.126 11.322 -68.07 1.10855 0.05
18 2 -2 o 192.625 196.007 -8.15 1.10855 0.79
12 11 1 o 215.242 219.616 130.52 1.10811 0.88
3 0 6 o 53.151 52.994 -137.75 1.11745 0.10
3 0 -6 o 71.627 71.415 -153.11 1.11745 0.14
10 3 -5 o 4.599 4.800 -136.16 1.10352 0.02
19 0 -2 o 63.593 62.975 -127.36 1.11266 0.13
16 5 2 o 187.759 185.935 80.13 1.11266 0.75
14 3 -4 o 61.412 58.850 152.02 1.09038 0.28
11 7 4 o 337.239 323.169 63.26 1.09038 1.53
10 10 3 o 455.775 439.199 47.01 1.12176 1.76
10 8 -4 o 46.974 45.103 145.91 1.09428 0.21
15 1 -4 o 6.135 6.086 -80.11 1.09823 0.03
17 2 -3 o 95.375 91.881 -98.89 1.08555 0.45
17 2 3 o 0.909 0.876 84.88 1.08555 0.00
9 4 5 o 151.421 150.576 -132.77 1.11166 0.61
11 1 -5 o 24.008 23.874 -88.66 1.11166 0.10
18 0 3 o 26.305 25.293 -39.89 1.08940 0.06
18 0 -3 o 124.198 119.418 52.45 1.08940 0.28
3 3 6 o 211.505 202.303 -159.66 1.09319 0.94
15 7 2 o 190.632 183.739 -64.04 1.08870 0.88
4 1 6 o 60.991 62.967 37.96 1.10110 0.26
4 1 -6 o 100.988 104.259 29.36 1.10110 0.43
17 4 -2 o 3.421 3.330 170.66 1.09651 0.01
15 8 1 o 18.558 17.727 161.98 1.09216 0.08
16 7 0 o 123.710 119.888 -156.27 1.09594 0.54
19 2 -1 o 92.898 94.643 3.29 1.10005 0.40
14 9 -1 o 160.625 163.642 -14.37 1.10005 0.68
