#------------------------------------------------------------------------------
#$Date: 2016-02-16 22:30:59 +0200 (Tue, 16 Feb 2016) $
#$Revision: 176467 $
#$URL: svn://www.crystallography.net/cod/cif/4/12/24/4122445.cif $
#------------------------------------------------------------------------------
#
# This file is available in the Crystallography Open Database (COD),
# http://www.crystallography.net/
#
# All data on this site have been placed in the public domain by the
# contributors.
#
data_4122445
loop_
_publ_author_name
'Kapelewski, Matthew T.'
'Geier, Stephen J.'
'Hudson, Matthew R.'
'St\"uck, David'
'Mason, Jarad A.'
'Nelson, Jocienne N.'
'Xiao, Dianne J.'
'Hulvey, Zeric'
'Gilmour, Elizabeth'
'FitzGerald, Stephen A.'
'Head-Gordon, Martin'
'Brown, Craig M.'
'Long, Jeffrey R.'
_publ_section_title
;
 M2(m-dobdc) (M = Mg, Mn, Fe, Co, Ni) Metal-Organic Frameworks Exhibiting
 Increased Charge Density and Enhanced H2 Binding at the Open Metal Sites.
;
_journal_issue                   34
_journal_name_full               'Journal of the American Chemical Society'
_journal_page_first              12119
_journal_paper_doi               10.1021/ja506230r
_journal_volume                  136
_journal_year                    2014
_chemical_formula_sum            'C4 H Co D5.63 O3'
_chemical_formula_weight         167.32
_chemical_name_systematic        ' ?'
_space_group_IT_number           160
_symmetry_cell_setting           trigonal
_symmetry_space_group_name_Hall  'R 3 -2"'
_symmetry_space_group_name_H-M   'R 3 m :H'
_audit_creation_date             2013-06-06T16:20
_audit_creation_method           'from EXP file using GSAS2CIF'
_audit_update_record
' 2013-06-06T16:20  Initial CIF as created by GSAS2CIF'
_cell_angle_alpha                90.0
_cell_angle_beta                 90.0
_cell_angle_gamma                120.0
_cell_formula_units_Z            18
_cell_length_a                   25.8923(17)
_cell_length_b                   25.8923
_cell_length_c                   6.8115(6)
_cell_volume                     3954.7(4)
_computing_structure_refinement  GSAS
_diffrn_radiation_probe          neutron
_diffrn_radiation_wavelength     2.078
_exptl_absorpt_correction_T_max  1.00000
_exptl_absorpt_correction_T_min  1.00000
_exptl_absorpt_process_details
;   GSAS Absorption/surface roughness correction: function number 0
 No correction is applied.
;
_pd_block_id                     2013-06-06T16:20|CO_PRIME_3P0_D2_R||BT1
_pd_calc_method                  'Rietveld Refinement'
_pd_instr_location               ' ?'
_pd_meas_2theta_range_inc        0.05
_pd_meas_2theta_range_max        166.25
_pd_meas_2theta_range_min        1.5
_pd_meas_number_of_points        3296
_pd_phase_name                   Co_dobdc_prime_3.0_D2
_pd_proc_2theta_range_inc        0.05
_pd_proc_2theta_range_max        166.3443
_pd_proc_2theta_range_min        1.5943
_pd_proc_info_datetime           2013-06-06T16:20:30
_pd_proc_info_excluded_regions   ' ?'
_pd_proc_ls_background_function
;   GSAS Background function number 1 with 12 terms.
 Shifted Chebyshev function of 1st kind
      1:    343.054     2:   -150.104     3:    136.360     4:    34.4770    
      5:    43.1279     6:   -10.2056     7:    34.2335     8:    3.43357    
      9:    4.67762    10:    4.16419    11:    2.42876    12:   -1.67863    
;
_pd_proc_ls_peak_cutoff          0.00050
_pd_proc_ls_profile_function
;
 CW Profile function number 3 with  19 terms
 Pseudovoigt profile coefficients as parameterized in
 P. Thompson, D.E. Cox & J.B. Hastings (1987). J. Appl. Cryst.,20,79-83.
 Asymmetry correction of L.W. Finger, D.E. Cox & A. P. Jephcoat (1994).
 J. Appl. Cryst.,27,892-900.
 Peak tails are ignored  where the intensity is below 0.0005 times the peak
   Aniso. broadening axis   0.0   0.0   1.0
;
_pd_proc_ls_prof_R_factor        0.0400
_pd_proc_ls_prof_wR_expected     0.0543
_pd_proc_ls_prof_wR_factor       0.0501
_pd_proc_number_of_points        3296
_pd_spec_mounting                ' ?'
_refine_ls_goodness_of_fit_all   0.93
_refine_ls_matrix_type           full
_refine_ls_number_parameters     72
_refine_ls_number_restraints     16
_refine_ls_R_Fsqd_factor         0.05497
_refine_ls_shift/su_max          4.43
_refine_ls_shift/su_mean         0.56
_reflns_d_resolution_high        1.059
_reflns_d_resolution_low         12.946
_reflns_limit_h_max              21
_reflns_limit_h_min              0
_reflns_limit_k_max              12
_reflns_limit_k_min              0
_reflns_limit_l_max              6
_reflns_limit_l_min              -6
_reflns_number_total             436
_cod_data_source_file            CO_PRIME_3P0_D2_R.cif
_cod_data_source_block           CO_PRIME_3P0_D2_R_publ
_cod_depositor_comments
;
The following automatic conversions were performed:

'_geom_bond_publ_flag' value 'N' changed to 'n' according to
/usr/data/users/saulius/crontab/automatic-downloads/rss-feeds/ACS/lib/dictionaries/cif_core.dic
dictionary named 'cif_core.dic' version 2.4.2 from 2011-04-26 (53
times).

'_geom_angle_publ_flag' value 'N' changed to 'n' according
to
/usr/data/users/saulius/crontab/automatic-downloads/rss-feeds/ACS/lib/dictionaries/cif_core.dic
dictionary named 'cif_core.dic' version 2.4.2 from 2011-04-26 (32
times).

Automatic conversion script
Id: cif_fix_values 2281 2013-09-26 08:29:07Z andrius 

 Adding full bibliography for 4122440--4122455.cif.
;
_cod_original_cell_volume        3954.7(6)
_cod_original_sg_symbol_H-M      'R 3 m'
_cod_original_formula_sum        'C4 H D5.63 Co O3'
_cod_database_code               4122445
#BEGIN Tags that were not found in dictionaries:
_gsas_exptl_extinct_corr_t_min   1.00000
_gsas_exptl_extinct_corr_t_max   1.00000
#END Tags that were not found in dictionaries
loop_
_symmetry_equiv_pos_site_id
_symmetry_equiv_pos_as_xyz
1 +x,+y,+z
2 -y,x-y,+z
3 y-x,-x,+z
4 y-x,+y,+z
5 -y,-x,+z
6 +x,x-y,+z
101 +x+1/3,+y+2/3,+z+2/3
102 -y+1/3,x-y+2/3,+z+2/3
103 y-x+1/3,-x+2/3,+z+2/3
104 y-x+1/3,+y+2/3,+z+2/3
105 -y+1/3,-x+2/3,+z+2/3
106 +x+1/3,x-y+2/3,+z+2/3
201 +x+2/3,+y+1/3,+z+1/3
202 -y+2/3,x-y+1/3,+z+1/3
203 y-x+2/3,-x+1/3,+z+1/3
204 y-x+2/3,+y+1/3,+z+1/3
205 -y+2/3,-x+1/3,+z+1/3
206 +x+2/3,x-y+1/3,+z+1/3
loop_
_atom_site_type_symbol
_atom_site_label
_atom_site_fract_x
_atom_site_fract_y
_atom_site_fract_z
_atom_site_occupancy
_atom_site_thermal_displace_type
_atom_site_U_iso_or_equiv
_atom_site_symmetry_multiplicity
C C1 0.6593(10) 0.8766(10) 0.8366(33) 1.0 Uiso 0.018(6) 18
C C2 0.6671(12) 0.8335(6) 0.752(5) 1.0 Uiso 0.012(8) 9
C C6 0.6440(10) 0.8692(9) 0.0469(34) 1.0 Uiso 0.023(6) 18
C C11 0.6365(8) 0.9117(9) 0.1632(29) 1.0 Uiso 0.024(6) 18
Co Co2 0.3272(24) 0.3708(20) 0.564(7) 1.0 Uiso 0.001(13) 18
H H7 0.6781(22) 0.8391(11) 0.583(9) 1.0 Uiso 0.029(18) 9
O O9 0.6745(9) 0.9275(9) 0.7514(31) 1.0 Uiso 0.009(6) 18
O O12 0.6533(9) 0.9635(10) 0.0923(29) 1.0 Uiso 0.015(7) 18
O O15 0.6143(10) 0.8967(10) 0.3329(30) 1.0 Uiso 0.025(6) 18
C C2m 0.6290(12) 0.8145(6) 0.131(4) 1.0 Uiso 0.011(8) 9
H H7m 0.6151(22) 0.8076(11) 0.271(8) 1.0 Uiso 0.017(15) 9
D D1 0.2088(7) 0.2169(7) 0.0037(23) 2.00262 Uiso 0.093(6) 18
D D2 0.7752(8) 0.9466(9) 0.4289(32) 1.91(5) Uiso 0.120(8) 18
D D3 0.5789(7) 0.1578(14) 0.525(4) 2.00(9) Uiso 0.192(19) 9
D D4 0.5855(6) 0.1711(13) 0.045(4) 1.43(6) Uiso 0.112(16) 9
loop_
_atom_type_symbol
_atom_type_number_in_cell
_atom_type_scat_length_neutron
_atom_type_scat_source
C 72.0 0.6646 International_Tables_Vol_C
Co 18.0 0.2490 International_Tables_Vol_C
H 18.0 -0.3739 International_Tables_Vol_C
O 54.0 0.5803 International_Tables_Vol_C
D 101.349 0.6671 International_Tables_Vol_C
loop_
_geom_angle_atom_site_label_1
_geom_angle_atom_site_label_2
_geom_angle_atom_site_label_3
_geom_angle
_geom_angle_site_symmetry_1
_geom_angle_site_symmetry_3
_geom_angle_publ_flag
C2 C1 C6 116.5(25) 1_555 1_556 n
C2 C1 O9 123.2(27) 1_555 1_555 n
C6 C1 O9 119.2(19) 1_556 1_555 n
C1 C2 C1 127(4) 1_555 6_565 n
C1 C2 H7 116.2(19) 1_555 1_555 n
C1 C2 H7 116.2(19) 6_565 1_555 n
C1 C6 C11 124.3(19) 1_554 1_555 n
C1 C6 C2m 116.9(21) 1_554 1_555 n
C11 C6 C2m 118.3(20) 1_555 1_555 n
C6 C11 O12 119.1(22) 1_555 1_555 n
C6 C11 O15 118.8(22) 1_555 1_555 n
O12 C11 O15 122.1(23) 1_555 1_555 n
O9 Co2 O9 171(4) 3_565 102_654 n
O9 Co2 O12 85.7(22) 3_565 102_655 n
O9 Co2 O12 97.2(19) 3_565 201_445 n
O9 Co2 O15 97.1(27) 3_565 3_565 n
O9 Co2 O12 85.7(27) 102_654 102_655 n
O9 Co2 O12 83.3(18) 102_654 201_445 n
O9 Co2 O15 91.5(22) 102_654 3_565 n
O12 Co2 O12 85.9(21) 102_655 201_445 n
O12 Co2 O15 176.4(26) 102_655 3_565 n
O12 Co2 O15 91.5(20) 201_445 3_565 n
C1 O9 Co2 133.3(19) 1_555 2_665 n
C1 O9 Co2 123.4(23) 1_555 203_565 n
Co2 O9 Co2 89.8(23) 2_665 203_565 n
C11 O12 Co2 128.9(22) 1_555 101_554 n
C11 O12 Co2 129.7(25) 1_555 203_564 n
Co2 O12 Co2 95.6(11) 101_554 203_564 n
C11 O15 Co2 124.9(21) 1_555 2_665 n
C6 C2m C6 123.0(28) 1_555 6_565 n
C6 C2m H7m 117.8(14) 1_555 1_555 n
C6 C2m H7m 117.8(14) 6_565 1_555 n
loop_
_geom_bond_atom_site_label_1
_geom_bond_atom_site_label_2
_geom_bond_distance
_geom_bond_site_symmetry_2
_geom_bond_publ_flag
C1 C2 1.355(24) 1_555 n
C1 C6 1.472(23) 1_556 n
C1 Co2 3.15(5) 2_665 n
C1 Co2 2.96(5) 203_565 n
C1 O9 1.309(24) 1_555 n
C2 C1 1.355(24) 1_555 n
C2 C1 1.355(24) 6_565 n
C2 H7 1.18(8) 1_555 n
C6 C1 1.472(23) 1_554 n
C6 C11 1.446(28) 1_555 n
C6 Co2 3.24(6) 203_564 n
C6 C2m 1.389(20) 1_555 n
C6 H7m 2.06(5) 1_555 n
C11 C6 1.446(28) 1_555 n
C11 Co2 3.01(6) 2_665 n
C11 Co2 3.03(5) 101_554 n
C11 Co2 2.87(6) 203_564 n
C11 O12 1.279(25) 1_555 n
C11 O15 1.263(23) 1_555 n
Co2 C1 3.15(5) 3_565 n
Co2 C1 2.96(5) 102_654 n
Co2 C6 3.24(6) 102_655 n
Co2 C11 3.01(6) 3_565 n
Co2 C11 2.87(6) 102_655 n
Co2 C11 3.03(5) 201_445 n
Co2 Co2 2.92(5) 103_554 n
Co2 Co2 2.92(5) 202_555 n
Co2 O9 2.11(5) 3_565 n
Co2 O9 2.03(4) 102_654 n
Co2 O12 3.26(5) 3_565 n
Co2 O12 1.88(6) 102_655 n
Co2 O12 2.06(5) 201_445 n
Co2 O15 2.10(6) 3_565 n
Co2 O15 3.29(6) 201_445 n
Co2 D1 2.22(4) 103_555 n
H7 C2 1.18(8) 1_555 n
O9 C1 1.309(24) 1_555 n
O9 Co2 2.11(5) 2_665 n
O9 Co2 2.03(4) 203_565 n
O12 C11 1.279(25) 1_555 n
O12 Co2 3.26(5) 2_665 n
O12 Co2 2.06(5) 101_554 n
O12 Co2 1.88(6) 203_564 n
O15 C11 1.263(23) 1_555 n
O15 Co2 2.10(6) 2_665 n
O15 Co2 3.29(6) 101_554 n
C2m C6 1.389(20) 1_555 n
C2m C6 1.390(20) 6_565 n
C2m H7m 1.01(8) 1_555 n
H7m C6 2.06(5) 1_555 n
H7m C6 2.06(5) 6_565 n
H7m C2m 1.01(8) 1_555 n
D1 Co2 2.22(4) 202_554 n
loop_
_pd_meas_intensity_total
_pd_proc_ls_weight
_pd_proc_intensity_bkg_calc
_pd_calc_intensity_total
4130(140) 0.0 969. .
3650(130) 0.0 965. .
3230(120) 0.0 961. .
2920(120) 0.0 957. .
2730(110) 0.0 953. .
2330(100) 0.0 949. .
2430(110) 0.0 945. .
2152(98) 0.0 942. .
2200(100) 0.0 938. .
2062(96) 0.0 934. .
1987(94) 0.0 931. .
1949(93) 0.0 927. .
1830(90) 0.0 923. .
2034(95) 0.0 920. .
1759(88) 0.0 916. .
1759(88) 0.0 912. .
1726(87) 0.0 909. .
1665(86) 0.0 905. .
1750(88) 0.0 902. .
1755(88) 0.0 899. .
1570(83) 0.0 895. .
1608(84) 0.0 892. .
1551(83) 0.0 888. .
1381(77) 0.0 885. .
1551(83) 0.0 882. .
1528(82) 0.0 878. .
1300(75) 0.0 875. .
1575(83) 0.0 872. .
1390(78) 0.0 869. .
1362(77) 0.0 865. .
1253(73) 0.0 862. .
1064(67) 0.0 859. .
1139(70) 0.0 856. .
1144(70) 0.0 853. .
1286(75) 0.0 850. .
974(64) 0.0 847. .
1168(71) 0.0 844. .
1049(67) 0.0 841. .
1045(66) 0.0 838. .
955(63) 0.0 835. .
912(62) 0.0 832. .
1106(69) 0.0 829. .
983(64) 0.0 826. .
988(64) 0.0 823. .
893(61) 0.0 820. .
879(60) 0.0 817. .
960(63) 0.0 815. .
917(62) 0.0 812. .
983(64) 0.0 809. .
993(65) 0.0 806. .
950(63) 0.0 803. .
855(59) 0.0 801. .
1012(65) 0.0 798. .
827(58) 0.0 795. .
879(60) 0.0 793. .
851(59) 0.0 790. .
855(59) 0.0 787. .
917(62) 0.0 785. .
874(60) 0.0 782. .
808(57) 0.0 780. .
813(58) 0.0 777. .
832(58) 0.0 775. .
751(55) 0.0 772. .
766(56) 0.0 770. .
704(53) 0.0 767. .
784(56) 0.0 765. .
851(59) 0.0 762. .
690(52) 0.0 760. .
775(56) 0.0 758. .
784(56) 0.0 755. .
799(57) 0.0 753. .
723(54) 0.0 750. .
605(48) 0.0 748. .
732(54) 0.0 746. .
775(56) 0.0 744. .
732(54) 0.0 741. .
761(55) 0.0 739. .
699(53) 0.0 737. .
799(57) 0.0 735. .
713(53) 0.0 732. .
794(57) 0.0 730. .
742(55) 0.0 728. .
818(58) 0.0 726. .
799(57) 0.0 724. .
775(56) 0.0 722. .
775(56) 0.0 719. .
709(53) 0.0 717. .
709(53) 0.0 715. .
709(53) 0.0 713. .
690(52) 0.0 711. .
704(53) 0.0 709. .
718(54) 0.0 707. .
756(55) 0.0 705. .
860(59) 0.0 703. .
704(53) 0.0 701. .
718(54) 0.0 699. .
661(51) 0.0 697. .
690(52) 0.0 695. .
728(54) 0.0 693. .
657(51) 0.0 691. .
787(39) 0.0 689. .
696(36) 0.0 688. .
739(38) 0.0 686. .
736(38) 0.000693 684. 689.
648(35) 0.000816 681.9 687.5
707(37) 0.000730 680. 686.
767(39) 0.000657 678. 684.
750(38) 0.000693 676. 683.
670(36) 0.000772 675. 682.
682(36) 0.000772 673. 680.
671(36) 0.000772 671. 679.
718(37) 0.000730 669. 678.
681(36) 0.000772 668. 677.
700(36) 0.000772 666. 676.
655(35) 0.000816 664.2 674.5
722(37) 0.000730 662. 674.
723(37) 0.000730 661. 673.
634(34) 0.000865 659.1 672.4
705(37) 0.000730 657. 672.
725(37) 0.000730 656. 672.
666(35) 0.000816 654.1 673.5
695(36) 0.000772 652. 676.
632(34) 0.000865 650.9 681.6
701(36) 0.000772 649. 691.
746(38) 0.000693 648. 704.
709(37) 0.000730 646. 722.
766(38) 0.000693 644. 744.
760(38) 0.000693 643. 770.
782(39) 0.000657 641. 800.
836(40) 0.000625 640. 832.
856(41) 0.000595 638. 868.
920(43) 0.000541 637. 906.
880(42) 0.000567 635. 947.
876(42) 0.000567 634. 992.
947(43) 0.000541 632. 1041.
1064(46) 0.000473 631. 1095.
1104(47) 0.000453 629. 1154.
1067(47) 0.000453 628. 1220.
1172(49) 0.000416 626. 1292.
1211(50) 0.000400 625. 1374.
1329(53) 0.000356 623. 1466.
1425(55) 0.0003306 622. 1572.
1589(58) 0.0002973 621. 1695.
1720(60) 0.0002778 619. 1841.
1983(65) 0.0002367 618. 2020.
2215(69) 0.0002100 616. 2244.
2374(72) 0.0001929 615. 2532.
2919(80) 0.0001562 614. 2899.
3460(87) 0.0001321 612. 3336.
3887(92) 0.0001181 611. 3785.
4076(95) 0.0001108 610. 4126.
4052(94) 0.0001132 608. 4202.
3743(91) 0.0001208 607. 3897.
3076(82) 0.0001487 606. 3254.
2492(73) 0.0001877 604. 2478.
1730(60) 0.0002778 603. 1782.
1188(49) 0.000416 602. 1277.
969(44) 0.000517 601. 969.
813(40) 0.000625 599. 806.
734(38) 0.000693 598. 727.
652(35) 0.000816 596.8 688.9
655(35) 0.000816 595.6 668.2
660(35) 0.000816 594.4 654.6
639(35) 0.000816 593.1 644.5
593(33) 0.000918 591.9 636.3
593(33) 0.000918 590.7 629.4
596(33) 0.000918 589.5 623.6
625(34) 0.000865 588.3 618.6
625(34) 0.000865 587.1 614.2
586(33) 0.000918 586.0 610.3
612(34) 0.000865 584.8 606.8
590(33) 0.000918 583.6 603.6
617(34) 0.000865 582.5 600.7
583(33) 0.000918 581.3 598.0
599(33) 0.000918 580.2 595.5
599(33) 0.000918 579.1 593.2
614(34) 0.000865 578.0 591.0
636(34) 0.000865 576.8 588.9
617(34) 0.000865 575.7 587.0
551(32) 0.000977 574.6 585.1
628(34) 0.000865 573.5 583.3
579(33) 0.000918 572.5 581.6
569(32) 0.000977 571.4 580.0
581(33) 0.000918 570.3 578.4
569(32) 0.000977 569.2 576.8
625(34) 0.000865 568.2 575.3
600(33) 0.000918 567.1 573.9
592(33) 0.000918 566.1 572.5
600(33) 0.000918 565.1 571.1
610(34) 0.000865 564.0 569.8
557(32) 0.000977 563.0 568.4
489(29) 0.001189 562.0 567.2
583(33) 0.000918 561.0 565.9
554(32) 0.000977 560.0 564.7
602(33) 0.000918 559.0 563.4
623(34) 0.000865 558.0 562.2
573(45) 0.000494 557. 561.
558(44) 0.000517 556. 560.
514(42) 0.000567 555. 559.
566(44) 0.000517 554. 558.
570(33) 0.000918 553.2 556.6
588(33) 0.000918 552.2 555.5
586(33) 0.000918 551.3 554.4
590(33) 0.000918 550.3 553.4
550(32) 0.000977 549.4 552.3
524(31) 0.001041 548.5 551.3
577(33) 0.000918 547.6 550.3
587(33) 0.000918 546.6 549.2
566(33) 0.000918 545.7 548.2
530(31) 0.001041 544.8 547.3
552(32) 0.000977 543.9 546.3
561(32) 0.000977 543.0 545.3
538(31) 0.001041 542.2 544.3
524(31) 0.001041 541.3 543.4
562(32) 0.000977 540.4 542.4
526(31) 0.001041 539.5 541.5
550(32) 0.000977 538.7 540.6
554(32) 0.000977 537.8 539.7
534(31) 0.001041 537.0 538.8
607(34) 0.000865 536.1 537.9
611(34) 0.000865 535.3 537.0
538(32) 0.000977 534.5 536.1
514(31) 0.001041 533.6 535.2
542(32) 0.000977 532.8 534.3
564(32) 0.000977 532.0 533.5
529(31) 0.001041 531.2 532.6
497(30) 0.001111 530.4 531.8
485(29) 0.001189 529.6 530.9
512(31) 0.001041 528.8 530.1
517(31) 0.001041 528.0 529.3
495(30) 0.001111 527.2 528.5
490(30) 0.001111 526.4 527.7
516(31) 0.001041 525.6 526.9
519(31) 0.001041 524.8 526.1
529(31) 0.001041 524.1 525.3
483(29) 0.001189 523.3 524.5
542(32) 0.000977 522.6 523.7
541(32) 0.000977 521.8 522.9
540(32) 0.000977 521.1 522.2
516(31) 0.001041 520.3 521.4
522(31) 0.001041 519.6 520.6
509(30) 0.001111 518.8 519.9
551(32) 0.000977 518.1 519.1
529(31) 0.001041 517.4 518.4
488(30) 0.001111 516.7 517.7
530(31) 0.001041 515.9 517.0
561(32) 0.000977 515.2 516.2
484(29) 0.001189 514.5 515.5
479(29) 0.001189 513.8 514.9
522(31) 0.001041 513.1 514.2
550(32) 0.000977 512.4 513.5
506(30) 0.001111 511.7 512.8
494(30) 0.001111 511.1 512.2
544(32) 0.000977 510.4 511.5
561(32) 0.000977 509.7 510.8
505(30) 0.001111 509.0 510.2
523(31) 0.001041 508.4 509.6
524(31) 0.001041 507.7 508.9
556(32) 0.000977 507.0 508.3
541(32) 0.000977 506.4 507.7
503(30) 0.001111 505.7 507.1
472(29) 0.001189 505.1 506.5
516(31) 0.001041 504.4 505.9
540(32) 0.000977 503.8 505.4
511(30) 0.001111 503.2 504.8
503(30) 0.001111 502.5 504.3
511(31) 0.001041 501.9 503.8
544(32) 0.000977 501.3 503.4
480(29) 0.001189 500.7 503.0
513(31) 0.001041 500.0 502.8
545(32) 0.000977 499.4 502.8
532(31) 0.001041 498.8 503.1
505(30) 0.001111 498.2 504.0
497(30) 0.001111 497.6 505.4
500(30) 0.001111 497.0 507.6
532(31) 0.001041 496.4 510.5
539(32) 0.000977 495.8 514.2
504(30) 0.001111 495.2 518.8
504(30) 0.001111 494.7 524.3
535(31) 0.001041 494.1 531.0
563(32) 0.000977 493.5 539.4
555(32) 0.000977 492.9 550.2
584(33) 0.000918 492.4 564.2
628(35) 0.000816 491.8 582.0
626(35) 0.000816 491.2 602.7
618(34) 0.000865 490.7 622.7
641(35) 0.000816 490.1 635.4
626(34) 0.000865 489.6 633.4
623(34) 0.000865 489.0 613.3
620(34) 0.000865 488.5 581.6
553(32) 0.000977 488.0 549.5
538(32) 0.000977 487.4 524.4
447(28) 0.001276 486.9 508.2
455(28) 0.001276 486.4 499.0
499(30) 0.001111 485.8 494.1
527(31) 0.001041 485.3 491.4
436(41) 0.000595 485. 490.
487(29) 0.001189 484.3 488.5
482(29) 0.001189 483.7 487.5
492(30) 0.001111 483.2 486.6
468(29) 0.001189 482.7 485.8
445(28) 0.001276 482.2 485.1
490(30) 0.001111 481.7 484.4
456(28) 0.001276 481.2 483.8
472(29) 0.001189 480.7 483.2
485(29) 0.001189 480.2 482.6
481(29) 0.001189 479.8 482.1
490(30) 0.001111 479.3 481.6
486(29) 0.001189 478.8 481.1
512(30) 0.001111 478.3 480.7
470(29) 0.001189 477.8 480.2
487(29) 0.001189 477.4 479.8
487(29) 0.001189 476.9 479.4
497(30) 0.001111 476.4 479.1
512(30) 0.001111 475.9 478.8
469(29) 0.001189 475.5 478.5
469(29) 0.001189 475.0 478.3
514(30) 0.001111 474.6 478.2
477(29) 0.001189 474.1 478.3
477(29) 0.001189 473.7 478.6
463(29) 0.001189 473.2 479.3
524(31) 0.001041 472.8 480.8
522(31) 0.001041 472.3 483.1
488(29) 0.001189 471.9 486.7
452(28) 0.001276 471.4 491.6
502(30) 0.001111 471.0 497.9
531(31) 0.001041 470.6 506.0
522(31) 0.001041 470.2 516.2
522(31) 0.001041 469.7 529.2
565(32) 0.000977 469.3 545.9
550(32) 0.000977 468.9 567.3
602(33) 0.000918 468.5 593.3
625(34) 0.000865 468.0 621.2
623(34) 0.000865 467.6 644.8
740(38) 0.000693 467. 655.
673(36) 0.000772 467. 644.
595(33) 0.000918 466.4 614.0
549(32) 0.000977 466.0 576.5
530(31) 0.001041 465.6 541.1
534(31) 0.001041 465.2 513.3
474(29) 0.001189 464.8 494.4
495(30) 0.001111 464.4 483.0
473(29) 0.001189 464.0 476.5
454(28) 0.001276 463.6 472.8
446(28) 0.001276 463.3 470.7
467(29) 0.001189 462.9 469.3
450(28) 0.001276 462.5 468.2
456(28) 0.001276 462.1 467.3
450(28) 0.001276 461.7 466.6
449(28) 0.001276 461.4 466.0
476(29) 0.001189 461.0 465.4
520(31) 0.001041 460.6 465.0
479(29) 0.001189 460.3 464.5
485(29) 0.001189 459.9 464.2
444(28) 0.001276 459.5 463.9
500(30) 0.001111 459.2 463.7
518(31) 0.001041 458.8 463.5
508(30) 0.001111 458.5 463.4
490(30) 0.001111 458.1 463.3
466(29) 0.001189 457.8 463.3
492(30) 0.001111 457.4 463.5
492(30) 0.001111 457.1 463.8
455(28) 0.001276 456.7 464.2
440(28) 0.001276 456.4 465.0
473(29) 0.001189 456.0 466.3
452(28) 0.001276 455.7 468.4
502(30) 0.001111 455.4 472.1
520(31) 0.001041 455.0 478.0
500(30) 0.001111 454.7 487.1
528(31) 0.001041 454.4 499.9
518(31) 0.001041 454.1 517.3
525(31) 0.001041 453.7 540.0
612(34) 0.000865 453.4 569.2
657(35) 0.000816 453.1 607.0
686(36) 0.000772 453. 656.
775(39) 0.000657 452. 717.
870(41) 0.000595 452. 784.
904(42) 0.000567 452. 845.
923(43) 0.000541 452. 877.
884(42) 0.000567 451. 857.
778(39) 0.000657 451. 783.
660(35) 0.000816 450.6 687.3
576(33) 0.000918 450.3 600.7
534(31) 0.001041 450.0 538.6
514(30) 0.001111 449.7 501.1
505(30) 0.001111 449.4 481.0
486(29) 0.001189 449.1 470.8
453(28) 0.001276 448.8 465.3
484(29) 0.001189 448.5 461.9
455(28) 0.001276 448.3 459.5
488(29) 0.001189 448.0 457.6
465(29) 0.001189 447.7 456.1
482(29) 0.001189 447.4 454.8
467(29) 0.001189 447.1 453.8
456(28) 0.001276 446.8 452.9
456(28) 0.001276 446.6 452.1
457(27) 0.001372 446.3 451.5
439(26) 0.001479 446.0 450.8
465(27) 0.001372 445.7 450.3
471(28) 0.001276 445.5 449.8
438(26) 0.001479 445.2 449.4
440(27) 0.001372 444.9 449.1
446(27) 0.001372 444.7 448.8
428(26) 0.001479 444.4 448.6
411(25) 0.001600 444.2 448.5
442(27) 0.001372 443.9 448.5
440(27) 0.001372 443.6 448.7
456(27) 0.001372 443.4 449.4
461(27) 0.001372 443.1 450.6
475(28) 0.001276 442.9 452.7
483(28) 0.001276 442.6 455.9
435(26) 0.001479 442.4 460.5
447(27) 0.001372 442.1 466.7
537(30) 0.001111 441.9 475.0
463(27) 0.001372 441.7 485.9
498(29) 0.001189 441.4 499.8
592(32) 0.000977 441.2 515.6
554(30) 0.001111 440.9 530.7
507(29) 0.001189 440.7 539.7
562(31) 0.001041 440.5 537.3
551(30) 0.001111 440.2 521.7
515(29) 0.001189 440.0 499.4
535(30) 0.001111 439.8 478.5
441(27) 0.001372 439.5 463.1
450(27) 0.001372 439.3 453.5
436(26) 0.001479 439.1 448.2
463(27) 0.001372 438.9 445.3
443(27) 0.001372 438.7 443.9
457(27) 0.001372 438.4 442.9
399(25) 0.001600 438.2 442.1
459(27) 0.001372 438.0 441.5
445(27) 0.001372 437.8 441.0
473(28) 0.001276 437.6 440.5
424(26) 0.001479 437.4 440.1
505(29) 0.001189 437.1 439.8
469(28) 0.001276 436.9 439.5
460(27) 0.001372 436.7 439.2
468(28) 0.001276 436.5 438.9
440(27) 0.001372 436.3 438.7
417(26) 0.001479 436.1 438.5
458(27) 0.001372 435.9 438.3
485(28) 0.001276 435.7 438.2
464(27) 0.001372 435.5 438.1
423(26) 0.001479 435.3 438.0
461(27) 0.001372 435.1 438.0
445(27) 0.001372 434.9 438.1
437(26) 0.001479 434.7 438.3
425(26) 0.001479 434.5 438.9
437(26) 0.001479 434.3 439.8
450(27) 0.001372 434.2 441.5
434(26) 0.001479 434.0 443.9
473(28) 0.001276 433.8 447.4
481(28) 0.001276 433.6 452.3
462(27) 0.001372 433.4 458.8
460(27) 0.001372 433.2 467.1
527(30) 0.001111 433.1 476.6
493(28) 0.001276 432.9 485.5
505(29) 0.001189 432.7 490.9
507(29) 0.001189 432.5 489.5
487(28) 0.001276 432.3 480.3
479(28) 0.001276 432.2 467.3
427(26) 0.001479 432.0 455.4
437(26) 0.001479 431.8 446.6
475(28) 0.001276 431.7 441.2
436(26) 0.001479 431.5 438.3
448(27) 0.001372 431.3 436.7
494(28) 0.001276 431.2 435.9
491(28) 0.001276 431.0 435.3
476(28) 0.001276 430.8 435.0
437(26) 0.001479 430.7 434.8
437(26) 0.001479 430.5 434.6
414(26) 0.001479 430.3 434.5
466(27) 0.001372 430.2 434.5
454(27) 0.001372 430.0 434.6
398(25) 0.001600 429.9 434.8
410(25) 0.001600 429.7 435.0
412(26) 0.001479 429.6 435.4
422(26) 0.001479 429.4 436.0
427(26) 0.001479 429.3 436.9
469(28) 0.001276 429.1 438.4
474(28) 0.001276 429.0 440.9
460(27) 0.001372 428.8 444.9
459(27) 0.001372 428.7 451.3
460(27) 0.001372 428.5 460.9
465(27) 0.001372 428.4 474.8
532(30) 0.001111 428.2 494.2
519(29) 0.001189 428.1 519.9
530(30) 0.001111 427.9 551.8
528(30) 0.001111 427.8 586.7
597(32) 0.000977 427.7 616.5
609(32) 0.000977 427.5 629.4
587(31) 0.001041 427.4 614.9
531(30) 0.001111 427.2 576.4
496(29) 0.001189 427.1 531.2
498(29) 0.001189 427.0 493.4
433(26) 0.001479 426.8 467.5
438(26) 0.001479 426.7 452.4
489(28) 0.001276 426.6 444.4
446(27) 0.001372 426.5 440.3
433(26) 0.001479 426.3 438.0
443(27) 0.001372 426.2 436.6
422(26) 0.001479 426.1 435.7
428(26) 0.001479 426.0 435.2
477(28) 0.001276 425.8 434.8
471(28) 0.001276 425.7 434.7
430(26) 0.001479 425.6 434.8
418(26) 0.001479 425.5 435.0
441(27) 0.001372 425.3 435.5
401(25) 0.001600 425.2 436.2
418(26) 0.001479 425.1 437.2
434(26) 0.001479 425.0 438.7
467(27) 0.001372 424.9 440.9
433(26) 0.001479 424.8 444.3
462(27) 0.001372 424.6 449.7
448(27) 0.001372 424.5 458.5
420(26) 0.001479 424.4 472.6
466(27) 0.001372 424.3 494.4
533(30) 0.001111 424.2 526.5
585(31) 0.001041 424.1 571.9
636(33) 0.000918 424.0 632.6
682(34) 0.000865 423.9 706.4
805(37) 0.000730 424. 785.
793(37) 0.000730 424. 848.
861(39) 0.000657 424. 872.
892(40) 0.000625 423. 837.
795(37) 0.000730 423. 758.
661(34) 0.000865 423.2 663.7
595(32) 0.000977 423.1 580.7
548(30) 0.001111 423.0 520.8
508(29) 0.001189 422.9 483.5
467(27) 0.001372 422.8 462.3
439(26) 0.001479 422.7 450.8
438(26) 0.001479 422.6 444.2
461(27) 0.001372 422.5 440.2
439(26) 0.001479 422.4 437.3
451(27) 0.001372 422.4 435.2
435(26) 0.001479 422.3 433.6
459(27) 0.001372 422.2 432.3
448(27) 0.001372 422.1 431.2
418(26) 0.001479 422.0 430.4
408(25) 0.001600 421.9 429.8
435(26) 0.001479 421.8 429.4
433(26) 0.001479 421.7 429.1
443(27) 0.001372 421.6 429.3
399(25) 0.001600 421.5 429.7
449(27) 0.001372 421.4 430.8
417(26) 0.001479 421.4 432.7
395(25) 0.001600 421.3 435.9
414(25) 0.001600 421.2 440.8
460(27) 0.001372 421.1 448.0
448(27) 0.001372 421.0 457.7
457(27) 0.001372 420.9 469.1
478(28) 0.001276 420.9 480.5
456(27) 0.001372 420.8 488.2
421(26) 0.001479 420.7 488.0
485(28) 0.001276 420.6 478.4
448(27) 0.001372 420.5 463.7
422(26) 0.001479 420.5 449.7
424(26) 0.001479 420.4 439.2
440(27) 0.001372 420.3 432.5
448(27) 0.001372 420.2 428.7
426(26) 0.001479 420.1 426.7
396(25) 0.001600 420.1 425.5
435(26) 0.001479 420.0 424.7
430(26) 0.001479 419.9 424.2
442(27) 0.001372 419.8 423.8
423(26) 0.001479 419.8 423.4
446(27) 0.001372 419.7 423.1
392(25) 0.001600 419.6 422.9
399(25) 0.001600 419.6 422.7
413(26) 0.001479 419.5 422.7
426(26) 0.001479 419.4 422.6
454(27) 0.001372 419.3 422.5
440(26) 0.001479 419.3 422.4
418(26) 0.001479 419.2 422.3
430(26) 0.001479 419.1 422.2
416(26) 0.001479 419.1 422.1
398(25) 0.001600 419.0 422.1
420(26) 0.001479 418.9 422.0
393(25) 0.001600 418.9 422.0
428(26) 0.001479 418.8 422.0
435(26) 0.001479 418.7 422.0
402(25) 0.001600 418.7 422.0
391(25) 0.001600 418.6 422.1
437(26) 0.001479 418.6 422.1
486(28) 0.001276 418.5 422.2
424(26) 0.001479 418.4 422.2
427(26) 0.001479 418.4 422.3
422(26) 0.001479 418.3 422.5
438(26) 0.001479 418.2 422.6
410(25) 0.001600 418.2 422.8
448(27) 0.001372 418.1 423.1
459(27) 0.001372 418.1 423.3
445(27) 0.001372 418.0 423.7
420(26) 0.001479 418.0 424.1
440(26) 0.001479 417.9 424.6
451(26) 0.001479 417.8 425.1
425(25) 0.001600 417.8 425.9
417(25) 0.001600 417.7 426.8
370(23) 0.001890 417.7 427.9
378(24) 0.001736 417.6 429.4
425(25) 0.001600 417.6 431.5
457(26) 0.001479 417.5 434.7
446(26) 0.001479 417.4 439.6
403(24) 0.001736 417.4 447.6
432(25) 0.001600 417.3 460.4
472(27) 0.001372 417.3 480.4
454(26) 0.001479 417.2 509.7
521(28) 0.001276 417.2 549.8
597(31) 0.001041 417.1 598.8
625(32) 0.000977 417.1 649.5
640(32) 0.000977 417.0 688.7
694(34) 0.000865 417.0 699.4
661(33) 0.000918 416.9 674.0
613(31) 0.001041 416.9 622.5
561(30) 0.001111 416.8 564.1
504(28) 0.001276 416.8 514.8
524(29) 0.001189 416.7 480.5
437(26) 0.001479 416.7 459.5
449(26) 0.001479 416.6 448.0
446(26) 0.001479 416.6 441.8
455(26) 0.001479 416.5 438.6
451(26) 0.001479 416.5 436.9
426(25) 0.001600 416.4 436.1
430(25) 0.001600 416.4 436.0
412(25) 0.001600 416.3 436.4
457(26) 0.001479 416.3 437.4
453(26) 0.001479 416.2 439.2
427(25) 0.001600 416.2 441.9
420(25) 0.001600 416.2 446.1
461(27) 0.001372 416.1 453.1
479(27) 0.001372 416.1 464.4
532(29) 0.001189 416.0 483.1
505(28) 0.001276 416.0 513.2
556(30) 0.001111 415.9 558.7
633(32) 0.000977 415.9 622.7
744(35) 0.000816 415.8 704.7
845(37) 0.000730 416. 797.
891(38) 0.000693 416. 879.
928(39) 0.000657 416. 922.
947(40) 0.000625 416. 902.
840(37) 0.000730 416. 824.
711(34) 0.000865 415.6 717.8
635(32) 0.000977 415.5 619.8
594(31) 0.001041 415.5 547.4
471(27) 0.001372 415.4 501.2
417(25) 0.001600 415.4 474.7
458(26) 0.001479 415.4 460.4
452(26) 0.001479 415.3 452.6
457(26) 0.001479 415.3 448.1
461(26) 0.001479 415.2 445.6
431(25) 0.001600 415.2 444.4
432(25) 0.001600 415.1 444.2
443(26) 0.001479 415.1 445.1
416(25) 0.001600 415.1 447.3
434(26) 0.001479 415.0 451.5
459(26) 0.001479 415.0 458.8
450(26) 0.001479 414.9 471.6
491(27) 0.001372 414.9 493.3
578(30) 0.001111 414.8 528.9
606(31) 0.001041 414.8 583.1
648(32) 0.000977 414.8 657.9
754(35) 0.000816 414.7 750.1
812(37) 0.000730 415. 848.
894(39) 0.000657 415. 922.
937(40) 0.000625 415. 935.
869(38) 0.000693 415. 872.
773(36) 0.000772 415. 762.
679(33) 0.000918 414.5 651.0
575(30) 0.001111 414.4 565.8
501(28) 0.001276 414.4 509.7
473(27) 0.001372 414.4 476.8
459(26) 0.001479 414.3 458.4
442(26) 0.001479 414.3 448.1
416(25) 0.001600 414.2 441.6
417(25) 0.001600 414.2 437.2
421(25) 0.001600 414.2 434.1
357(23) 0.001890 414.1 431.6
421(25) 0.001600 414.1 429.7
417(25) 0.001600 414.0 428.4
434(26) 0.001479 414.0 427.6
432(26) 0.001479 413.9 427.8
400(24) 0.001736 413.9 428.2
435(26) 0.001479 413.9 429.0
406(25) 0.001600 413.8 430.2
419(25) 0.001600 413.8 431.2
444(26) 0.001479 413.7 431.4
431(25) 0.001600 413.7 430.3
389(24) 0.001736 413.7 428.0
395(24) 0.001736 413.6 425.5
399(24) 0.001736 413.6 423.4
402(24) 0.001736 413.5 421.9
411(25) 0.001600 413.5 420.9
426(25) 0.001600 413.4 420.3
454(26) 0.001479 413.4 419.9
409(25) 0.001600 413.4 419.7
439(20) 0.002500 413.3 419.5
441(24) 0.001736 413.3 419.4
427(24) 0.001736 413.2 419.3
469(25) 0.001600 413.2 419.4
437(24) 0.001736 413.2 419.4
439(24) 0.001736 413.1 419.4
445(24) 0.001736 413.1 419.7
445(24) 0.001736 413.0 419.9
451(24) 0.001736 413.0 420.3
468(25) 0.001600 412.9 420.8
410(23) 0.001890 412.9 421.6
419(23) 0.001890 412.9 422.8
446(24) 0.001736 412.8 424.7
444(24) 0.001736 412.8 427.4
426(24) 0.001736 412.7 431.5
468(25) 0.001600 412.7 437.1
476(25) 0.001600 412.6 444.4
475(25) 0.001600 412.6 453.1
469(25) 0.001600 412.5 462.2
479(25) 0.001600 412.5 469.0
445(24) 0.001736 412.4 470.5
467(25) 0.001600 412.4 465.5
469(25) 0.001600 412.4 456.0
467(25) 0.001600 412.3 445.9
463(25) 0.001600 412.3 438.1
464(25) 0.001600 412.2 433.1
436(24) 0.001736 412.2 430.6
423(23) 0.001890 412.1 429.9
442(24) 0.001736 412.1 430.6
431(24) 0.001736 412.0 432.4
397(23) 0.001890 412.0 435.7
456(24) 0.001736 411.9 441.3
464(25) 0.001600 411.9 450.8
474(25) 0.001600 411.8 466.8
509(26) 0.001479 411.8 492.2
520(26) 0.001479 411.7 529.4
614(29) 0.001189 411.7 577.3
638(30) 0.001111 411.6 630.5
724(32) 0.000977 411.6 676.3
682(31) 0.001041 411.5 694.6
679(31) 0.001041 411.5 672.2
589(28) 0.001276 411.4 618.8
595(28) 0.001276 411.4 559.3
502(26) 0.001479 411.3 510.4
473(25) 0.001600 411.3 476.4
457(25) 0.001600 411.2 455.5
427(24) 0.001736 411.2 443.5
405(23) 0.001890 411.1 436.7
415(23) 0.001890 411.1 432.7
427(24) 0.001736 411.0 430.1
422(23) 0.001890 411.0 428.2
425(24) 0.001736 410.9 426.9
444(24) 0.001736 410.9 425.9
431(24) 0.001736 410.8 425.2
459(25) 0.001600 410.8 424.8
430(24) 0.001736 410.7 424.5
438(24) 0.001736 410.6 424.3
446(24) 0.001736 410.6 424.4
462(25) 0.001600 410.5 424.6
419(23) 0.001890 410.5 425.0
433(24) 0.001736 410.4 425.6
418(23) 0.001890 410.4 426.6
418(23) 0.001890 410.3 428.0
424(23) 0.001890 410.2 429.7
414(23) 0.001890 410.2 431.7
408(23) 0.001890 410.1 433.7
405(23) 0.001890 410.1 435.3
457(25) 0.001600 410.0 436.1
449(24) 0.001736 410.0 436.2
431(24) 0.001736 409.9 436.4
440(24) 0.001736 409.8 437.1
472(25) 0.001600 409.8 438.5
476(25) 0.001600 409.7 440.7
464(25) 0.001600 409.6 443.7
466(25) 0.001600 409.6 447.6
455(24) 0.001736 409.5 452.7
447(24) 0.001736 409.5 459.3
459(25) 0.001600 409.4 468.5
505(26) 0.001479 409.3 481.6
521(26) 0.001479 409.3 501.2
566(28) 0.001276 409.2 530.7
612(29) 0.001189 409.1 574.4
684(31) 0.001041 409.1 635.9
783(33) 0.000918 409.0 717.0
932(36) 0.000772 409. 819.
1019(38) 0.000693 409. 944.
1169(41) 0.000595 409. 1086.
1300(43) 0.000541 409. 1245.
1502(47) 0.000453 409. 1414.
1563(48) 0.000434 409. 1565.
1648(49) 0.000416 409. 1643.
1526(47) 0.000453 408. 1567.
1419(46) 0.000473 408. 1350.
1144(41) 0.000595 408. 1094.
927(36) 0.000772 408. 876.
770(33) 0.000918 408.2 719.8
619(29) 0.001189 408.1 620.8
559(28) 0.001276 408.0 563.6
516(26) 0.001479 407.9 532.4
497(26) 0.001479 407.9 516.5
523(25) 0.001600 407.8 510.6
504(25) 0.001600 407.7 513.5
513(25) 0.001600 407.7 526.6
573(26) 0.001479 407.6 552.7
631(28) 0.001276 407.5 594.5
697(29) 0.001189 407.4 651.1
700(30) 0.001111 407.3 717.0
803(32) 0.000977 407.3 783.4
869(33) 0.000918 407.2 834.0
884(34) 0.000865 407.1 853.4
833(32) 0.000977 407.0 847.0
858(33) 0.000918 406.9 822.5
811(32) 0.000977 406.9 772.3
754(31) 0.001041 406.8 698.6
656(28) 0.001276 406.7 622.9
589(27) 0.001372 406.6 561.2
540(26) 0.001479 406.5 517.4
496(24) 0.001736 406.5 489.5
431(22) 0.002066 406.4 473.0
467(23) 0.001890 406.3 464.0
445(23) 0.001890 406.2 459.8
458(23) 0.001890 406.1 458.7
425(22) 0.002066 406.0 460.9
432(22) 0.002066 405.9 467.2
471(24) 0.001736 405.9 479.2
500(24) 0.001736 405.8 499.5
530(25) 0.001600 405.7 530.3
615(27) 0.001372 405.6 572.1
636(28) 0.001276 405.5 622.9
728(30) 0.001111 405.4 678.1
762(31) 0.001041 405.3 728.5
789(32) 0.000977 405.2 764.1
800(32) 0.000977 405.1 784.2
788(32) 0.000977 405.0 785.3
779(31) 0.001041 404.9 755.3
678(29) 0.001189 404.8 695.0
653(28) 0.001276 404.8 623.7
594(27) 0.001372 404.7 560.0
545(26) 0.001479 404.6 511.8
504(25) 0.001600 404.5 479.2
509(25) 0.001600 404.4 458.7
481(24) 0.001736 404.3 446.2
453(23) 0.001890 404.2 438.4
440(23) 0.001890 404.1 433.2
466(23) 0.001890 404.0 429.5
457(23) 0.001890 403.9 426.6
437(23) 0.001890 403.8 424.4
409(22) 0.002066 403.7 422.6
442(23) 0.001890 403.6 421.2
431(22) 0.002066 403.5 420.0
404(22) 0.002066 403.4 419.0
405(22) 0.002066 403.3 418.3
409(22) 0.002066 403.2 417.7
421(22) 0.002066 403.1 417.2
393(21) 0.002268 402.9 416.9
407(22) 0.002066 402.8 416.8
431(22) 0.002066 402.7 416.8
404(22) 0.002066 402.6 417.0
406(22) 0.002066 402.5 417.3
408(22) 0.002066 402.4 418.0
419(22) 0.002066 402.3 418.9
427(22) 0.002066 402.2 420.1
437(23) 0.001890 402.1 422.0
462(23) 0.001890 402.0 424.8
427(22) 0.002066 401.9 429.2
450(23) 0.001890 401.7 436.5
482(24) 0.001736 401.6 448.5
511(25) 0.001600 401.5 467.7
550(26) 0.001479 401.4 496.2
571(26) 0.001479 401.3 534.1
589(27) 0.001372 401.2 576.6
665(29) 0.001189 401.0 614.3
707(30) 0.001111 400.9 634.1
630(28) 0.001276 400.8 623.3
585(27) 0.001372 400.7 585.3
564(26) 0.001479 400.6 539.0
532(25) 0.001600 400.5 498.4
467(23) 0.001890 400.3 468.3
458(23) 0.001890 400.2 448.4
452(23) 0.001890 400.1 436.4
430(22) 0.002066 400.0 429.5
407(22) 0.002066 399.8 425.5
439(23) 0.001890 399.7 423.3
454(23) 0.001890 399.6 422.2
405(22) 0.002066 399.5 421.9
398(21) 0.002268 399.3 422.4
430(22) 0.002066 399.2 423.9
406(22) 0.002066 399.1 426.9
432(22) 0.002066 399.0 432.1
438(23) 0.001890 398.8 440.6
474(24) 0.001736 398.7 454.1
494(24) 0.001736 398.6 474.2
529(25) 0.001600 398.4 501.9
531(25) 0.001600 398.3 536.5
619(28) 0.001276 398.2 573.2
633(28) 0.001276 398.0 604.2
616(28) 0.001276 397.9 619.1
640(28) 0.001276 397.8 607.5
607(27) 0.001372 397.6 572.2
523(25) 0.001600 397.5 529.6
486(23) 0.001890 397.4 492.1
454(22) 0.002066 397.2 464.1
429(21) 0.002268 397.1 445.6
409(21) 0.002268 396.9 434.3
422(21) 0.002268 396.8 427.9
432(21) 0.002268 396.7 424.6
396(20) 0.002500 396.5 423.5
406(21) 0.002268 396.4 424.3
415(21) 0.002268 396.2 427.0
426(21) 0.002268 396.1 432.3
437(21) 0.002268 396.0 440.8
467(22) 0.002066 395.8 452.9
478(23) 0.001890 395.7 468.4
482(23) 0.001890 395.5 486.3
513(23) 0.001890 395.4 504.5
560(25) 0.001600 395.2 520.3
556(25) 0.001600 395.1 530.9
538(24) 0.001736 394.9 531.4
554(25) 0.001600 394.8 519.0
528(24) 0.001736 394.6 497.1
496(23) 0.001890 394.5 473.4
453(22) 0.002066 394.3 453.3
420(21) 0.002268 394.2 438.5
434(21) 0.002268 394.0 429.0
402(20) 0.002500 393.9 423.4
410(21) 0.002268 393.7 420.7
428(21) 0.002268 393.6 420.1
418(21) 0.002268 393.4 421.1
417(21) 0.002268 393.2 424.2
409(21) 0.002268 393.1 430.4
417(21) 0.002268 392.9 441.5
448(22) 0.002066 392.8 459.7
487(23) 0.001890 392.6 486.6
492(23) 0.001890 392.5 522.0
561(25) 0.001600 392.3 561.4
604(26) 0.001479 392.1 592.3
589(25) 0.001600 392.0 597.7
547(24) 0.001736 391.8 573.9
539(24) 0.001736 391.6 535.6
523(24) 0.001736 391.5 497.9
499(23) 0.001890 391.3 467.8
498(23) 0.001890 391.1 446.8
447(22) 0.002066 391.0 433.8
440(22) 0.002066 390.8 426.5
430(21) 0.002268 390.6 423.3
428(21) 0.002268 390.5 423.3
425(21) 0.002268 390.3 426.3
442(22) 0.002066 390.1 433.1
436(21) 0.002268 390.0 444.6
476(23) 0.001890 389.8 461.5
495(23) 0.001890 389.6 483.2
510(23) 0.001890 389.4 506.2
555(25) 0.001600 389.3 523.3
544(24) 0.001736 389.1 528.7
540(24) 0.001736 388.9 525.2
516(24) 0.001736 388.7 519.1
499(23) 0.001890 388.6 510.7
487(23) 0.001890 388.4 496.6
458(22) 0.002066 388.2 477.3
482(23) 0.001890 388.0 457.8
431(21) 0.002268 387.9 441.5
434(21) 0.002268 387.7 429.7
436(21) 0.002268 387.5 421.9
398(20) 0.002500 387.3 417.4
399(20) 0.002500 387.1 415.3
405(21) 0.002268 387.0 415.1
399(20) 0.002500 386.8 416.7
413(21) 0.002268 386.6 420.4
433(21) 0.002268 386.4 427.6
425(21) 0.002268 386.2 439.9
460(22) 0.002066 386.0 459.9
482(23) 0.001890 385.8 489.4
532(24) 0.001736 385.7 528.6
563(25) 0.001600 385.5 573.5
552(24) 0.001736 385.3 612.5
579(25) 0.001600 385.1 627.6
633(26) 0.001479 384.9 609.8
578(25) 0.001600 384.7 569.9
549(24) 0.001736 384.5 524.8
492(23) 0.001890 384.3 485.5
463(22) 0.002066 384.1 455.8
458(22) 0.002066 383.9 435.6
461(22) 0.002066 383.7 422.8
427(21) 0.002268 383.5 415.1
374(20) 0.002500 383.3 410.6
411(21) 0.002268 383.1 408.3
410(21) 0.002268 382.9 407.7
417(21) 0.002268 382.8 408.8
412(21) 0.002268 382.6 411.8
396(20) 0.002500 382.4 417.1
419(21) 0.002268 382.2 424.9
432(21) 0.002268 382.0 434.5
434(21) 0.002268 381.7 444.7
458(22) 0.002066 381.5 452.7
416(21) 0.002268 381.3 454.5
458(22) 0.002066 381.1 448.0
452(22) 0.002066 380.9 436.4
439(21) 0.002268 380.7 424.2
438(21) 0.002268 380.5 414.0
413(21) 0.002268 380.3 406.4
402(19) 0.002770 380.1 401.3
393(19) 0.002770 379.9 398.1
371(18) 0.003086 379.7 396.3
385(19) 0.002770 379.5 395.4
389(19) 0.002770 379.3 395.1
397(19) 0.002770 379.1 395.4
389(19) 0.002770 378.9 396.4
412(20) 0.002500 378.6 398.5
404(19) 0.002770 378.4 401.8
400(19) 0.002770 378.2 406.7
421(20) 0.002500 378.0 413.0
410(20) 0.002500 377.8 420.0
440(20) 0.002500 377.6 426.0
428(20) 0.002500 377.4 428.2
409(20) 0.002500 377.1 426.1
406(19) 0.002770 376.9 421.5
422(20) 0.002500 376.7 417.1
406(19) 0.002770 376.5 414.4
433(20) 0.002500 376.3 414.1
392(19) 0.002770 376.1 416.4
378(19) 0.002770 375.8 422.4
414(20) 0.002500 375.6 433.5
430(20) 0.002500 375.4 452.3
470(21) 0.002268 375.2 482.1
532(23) 0.001890 374.9 526.4
619(25) 0.001600 374.7 586.5
664(26) 0.001479 374.5 659.0
751(27) 0.001372 374.3 731.0
784(28) 0.001276 374.0 777.1
794(28) 0.001276 373.8 771.9
753(27) 0.001372 373.6 719.3
711(27) 0.001372 373.4 647.1
642(25) 0.001600 373.1 577.6
547(23) 0.001890 372.9 520.7
486(22) 0.002066 372.7 478.3
487(22) 0.002066 372.5 449.1
431(20) 0.002500 372.2 430.1
399(19) 0.002770 372.0 418.0
409(20) 0.002500 371.8 410.3
407(19) 0.002770 371.5 405.5
403(19) 0.002770 371.3 402.8
394(19) 0.002770 371.1 401.8
395(19) 0.002770 370.8 402.4
385(19) 0.002770 370.6 404.7
365(18) 0.003086 370.4 408.4
411(20) 0.002500 370.1 413.0
429(20) 0.002500 369.9 416.9
413(20) 0.002500 369.6 418.1
377(19) 0.002770 369.4 415.7
420(20) 0.002500 369.2 411.5
392(19) 0.002770 368.9 407.4
386(19) 0.002770 368.7 405.0
371(18) 0.003086 368.5 405.2
400(19) 0.002770 368.2 408.9
417(20) 0.002500 368.0 417.4
430(20) 0.002500 367.7 432.0
461(21) 0.002268 367.5 453.6
497(22) 0.002066 367.2 482.1
521(22) 0.002066 367.0 514.9
544(23) 0.001890 366.8 544.7
555(23) 0.001890 366.5 559.3
561(23) 0.001890 366.3 550.3
543(23) 0.001890 366.0 522.8
488(22) 0.002066 365.8 489.3
457(21) 0.002268 365.5 458.5
423(20) 0.002500 365.3 434.1
380(19) 0.002770 365.0 416.7
415(20) 0.002500 364.8 405.2
397(19) 0.002770 364.5 398.3
391(19) 0.002770 364.3 394.6
414(20) 0.002500 364.0 393.2
404(19) 0.002770 363.8 394.0
390(19) 0.002770 363.5 397.1
394(19) 0.002770 363.3 402.9
427(20) 0.002500 363.0 412.0
435(20) 0.002500 362.8 424.2
455(21) 0.002268 362.5 438.8
472(21) 0.002268 362.3 452.8
471(21) 0.002268 362.0 461.7
470(21) 0.002268 361.8 462.1
459(21) 0.002268 361.5 456.3
459(21) 0.002268 361.3 450.2
468(21) 0.002268 361.0 448.4
497(22) 0.002066 360.7 452.3
492(22) 0.002066 360.5 460.7
488(22) 0.002066 360.2 469.3
506(22) 0.002066 360.0 471.5
500(22) 0.002066 359.7 463.3
492(22) 0.002066 359.4 447.5
462(21) 0.002268 359.2 429.9
425(20) 0.002500 358.9 414.1
411(20) 0.002500 358.7 401.9
404(19) 0.002770 358.4 393.5
409(20) 0.002500 358.1 388.6
392(19) 0.002770 357.9 386.7
363(18) 0.003086 357.6 387.7
395(19) 0.002770 357.4 391.3
384(19) 0.002770 357.1 397.6
423(20) 0.002500 356.8 406.1
413(20) 0.002500 356.6 415.6
409(19) 0.002770 356.3 423.4
430(20) 0.002500 356.0 426.0
424(19) 0.002770 355.8 421.4
397(19) 0.002770 355.5 412.0
435(20) 0.002500 355.2 401.4
416(19) 0.002770 355.0 391.9
415(19) 0.002770 354.7 384.5
398(19) 0.002770 354.4 379.3
358(18) 0.003086 354.2 376.1
371(18) 0.003086 353.9 374.5
339(17) 0.003460 353.6 374.1
397(19) 0.002770 353.3 374.6
383(18) 0.003086 353.1 376.0
358(18) 0.003086 352.8 378.0
364(18) 0.003086 352.5 380.8
395(19) 0.002770 352.3 384.7
394(19) 0.002770 352.0 390.3
422(19) 0.002770 351.7 398.3
418(19) 0.002770 351.4 408.9
427(20) 0.002500 351.2 421.5
451(20) 0.002500 350.9 434.2
468(21) 0.002268 350.6 443.8
480(21) 0.002268 350.3 446.7
457(20) 0.002500 350.1 442.3
448(20) 0.002500 349.8 434.1
444(20) 0.002500 349.5 426.8
429(20) 0.002500 349.2 423.7
434(20) 0.002500 349.0 426.6
458(20) 0.002500 348.7 435.5
461(20) 0.002500 348.4 449.2
464(21) 0.002268 348.1 464.4
490(21) 0.002268 347.8 476.0
488(21) 0.002268 347.6 479.8
506(22) 0.002066 347.3 477.2
508(22) 0.002066 347.0 473.8
515(22) 0.002066 346.7 473.8
538(22) 0.002066 346.4 477.8
512(22) 0.002066 346.2 484.1
548(23) 0.001890 345.9 488.4
515(22) 0.002066 345.6 485.4
494(21) 0.002268 345.3 472.4
433(20) 0.002500 345.0 452.9
464(21) 0.002268 344.8 432.3
402(19) 0.002770 344.5 414.2
380(18) 0.003086 344.2 400.2
370(18) 0.003086 343.9 390.4
361(18) 0.003086 343.6 384.4
359(18) 0.003086 343.3 381.9
410(19) 0.002770 343.1 382.5
343(17) 0.003460 342.8 386.5
391(19) 0.002770 342.5 394.4
409(19) 0.002770 342.2 406.9
413(19) 0.002770 341.9 424.5
442(20) 0.002500 341.6 446.7
465(21) 0.002268 341.3 471.3
475(21) 0.002268 341.0 493.1
519(22) 0.002066 340.8 504.1
489(21) 0.002268 340.5 498.7
503(21) 0.002268 340.2 479.7
506(22) 0.002066 339.9 455.4
446(20) 0.002500 339.6 432.1
416(19) 0.002770 339.3 413.3
412(19) 0.002770 339.0 400.1
373(18) 0.003086 338.7 392.6
394(19) 0.002770 338.5 390.5
360(18) 0.003086 338.2 393.5
399(19) 0.002770 337.9 401.2
426(20) 0.002500 337.6 413.0
441(20) 0.002500 337.3 427.8
462(20) 0.002500 337.0 442.8
445(20) 0.002500 336.7 453.8
480(21) 0.002268 336.4 456.2
484(21) 0.002268 336.1 449.8
419(19) 0.002770 335.8 438.6
456(20) 0.002500 335.5 426.9
415(19) 0.002770 335.2 417.2
433(20) 0.002500 335.0 411.4
434(20) 0.002500 334.7 410.9
412(19) 0.002770 334.4 416.9
415(19) 0.002770 334.1 429.5
449(20) 0.002500 333.8 448.2
464(21) 0.002268 333.5 471.5
500(21) 0.002268 333.2 495.2
514(22) 0.002066 332.9 514.2
543(22) 0.002066 332.6 525.5
563(23) 0.001890 332.3 531.0
562(23) 0.001890 332.0 533.2
539(22) 0.002066 331.7 530.0
491(21) 0.002268 331.4 517.6
541(22) 0.002066 331.1 495.5
489(21) 0.002268 330.8 468.9
441(20) 0.002500 330.5 442.6
459(20) 0.002500 330.2 420.0
395(19) 0.002770 329.9 402.2
407(19) 0.002770 329.6 389.5
370(18) 0.003086 329.3 381.7
366(18) 0.003086 329.0 378.5
357(18) 0.003086 328.7 379.5
395(19) 0.002770 328.4 385.2
402(19) 0.002770 328.1 395.7
388(18) 0.003086 327.9 411.4
471(20) 0.002500 327.6 431.9
476(21) 0.002268 327.3 455.6
477(21) 0.002268 327.0 478.6
502(21) 0.002268 326.7 494.0
507(21) 0.002268 326.4 495.9
477(21) 0.002268 326.1 484.0
469(20) 0.002500 325.8 463.3
473(20) 0.002500 325.5 439.5
440(20) 0.002500 325.2 416.6
425(19) 0.002770 324.9 397.2
369(18) 0.003086 324.6 382.5
366(18) 0.003086 324.3 372.5
347(17) 0.003460 324.0 366.5
382(18) 0.003086 323.7 363.4
368(18) 0.003086 323.4 362.1
370(18) 0.003086 323.1 361.0
379(18) 0.003086 322.8 358.9
367(18) 0.003086 322.5 355.2
353(18) 0.003086 322.2 350.6
359(18) 0.003086 321.9 345.9
345(17) 0.003460 321.6 341.7
343(17) 0.003460 321.2 338.2
317(17) 0.003460 320.9 335.4
318(17) 0.003460 320.6 333.3
306(16) 0.00391 320.3 331.6
307(16) 0.00391 320.0 330.3
334(17) 0.003460 319.7 329.3
320(17) 0.003460 319.4 328.5
323(17) 0.003460 319.1 327.8
307(16) 0.00391 318.8 327.2
305(16) 0.00391 318.5 326.7
314(16) 0.00391 318.2 326.4
290(16) 0.00391 317.9 326.2
318(17) 0.003460 317.6 326.2
314(16) 0.00391 317.3 326.4
335(17) 0.003460 317.0 327.0
342(17) 0.003460 316.7 327.8
321(17) 0.003460 316.4 329.0
322(17) 0.003460 316.1 330.3
315(16) 0.00391 315.8 331.4
335(17) 0.003460 315.5 332.0
314(16) 0.00391 315.2 331.6
325(17) 0.003460 314.9 330.3
315(16) 0.00391 314.6 328.5
314(16) 0.00391 314.3 326.7
329(17) 0.003460 314.0 325.1
314(16) 0.00391 313.7 323.8
325(17) 0.003460 313.4 323.0
306(16) 0.00391 313.1 322.4
311(16) 0.00391 312.8 322.2
325(17) 0.003460 312.5 322.3
320(17) 0.003460 312.2 322.7
345(17) 0.003460 311.9 323.4
295(16) 0.00391 311.6 324.4
317(17) 0.003460 311.3 325.6
334(17) 0.003460 311.0 326.8
332(17) 0.003460 310.7 328.0
292(16) 0.00391 310.3 329.3
313(16) 0.00391 310.0 330.9
297(16) 0.00391 309.7 333.4
321(17) 0.003460 309.4 337.2
320(17) 0.003460 309.1 342.7
343(17) 0.003460 308.8 349.9
349(17) 0.003460 308.5 358.8
388(18) 0.003086 308.2 368.6
395(19) 0.002770 307.9 378.1
385(18) 0.003086 307.6 386.2
397(19) 0.002770 307.3 393.0
400(19) 0.002770 307.0 398.3
381(18) 0.003086 306.7 401.1
381(18) 0.003086 306.4 399.8
396(19) 0.002770 306.1 394.0
383(18) 0.003086 305.8 385.5
371(18) 0.003086 305.5 376.5
379(18) 0.003086 305.2 368.9
358(18) 0.003086 304.9 364.3
364(18) 0.003086 304.6 363.5
341(17) 0.003460 304.3 366.6
386(18) 0.003086 304.0 373.3
367(18) 0.003086 303.7 382.2
388(18) 0.003086 303.4 391.0
397(19) 0.002770 303.1 396.3
368(18) 0.003086 302.8 395.0
355(18) 0.003086 302.5 387.0
359(18) 0.003086 302.2 374.8
338(17) 0.003460 301.9 361.7
348(17) 0.003460 301.6 349.7
333(17) 0.003460 301.3 339.6
342(17) 0.003460 301.0 331.6
331(17) 0.003460 300.7 325.6
307(16) 0.00391 300.4 321.2
323(17) 0.003460 300.0 318.1
295(16) 0.00391 299.7 315.9
301(16) 0.00391 299.4 314.5
293(16) 0.00391 299.1 313.8
280(15) 0.00444 298.8 313.7
314(16) 0.00391 298.5 314.1
332(17) 0.003460 298.2 315.1
314(16) 0.00391 297.9 316.7
331(24) 0.001736 297.6 318.7
324(16) 0.00391 297.3 320.8
327(16) 0.00391 297.0 322.6
325(16) 0.00391 296.7 323.4
334(17) 0.003460 296.4 322.8
326(16) 0.00391 296.1 321.2
310(16) 0.00391 295.8 319.1
319(16) 0.00391 295.5 317.3
294(15) 0.00444 295.2 316.1
323(16) 0.00391 294.9 315.8
311(16) 0.00391 294.6 316.6
308(16) 0.00391 294.3 319.0
317(16) 0.00391 294.0 323.1
323(16) 0.00391 293.7 329.5
328(16) 0.00391 293.4 338.4
363(17) 0.003460 293.1 350.2
365(17) 0.003460 292.8 364.5
378(18) 0.003086 292.5 380.5
397(18) 0.003086 292.2 396.2
412(18) 0.003086 291.9 408.7
418(19) 0.002770 291.6 415.2
435(19) 0.002770 291.3 414.5
432(19) 0.002770 291.1 406.8
381(18) 0.003086 290.8 393.6
376(18) 0.003086 290.5 377.6
355(17) 0.003460 290.2 361.8
349(17) 0.003460 289.9 348.1
330(16) 0.00391 289.6 337.2
321(16) 0.00391 289.3 329.4
335(17) 0.003460 289.0 324.2
317(16) 0.00391 288.7 321.2
339(17) 0.003460 288.4 319.7
330(16) 0.00391 288.1 319.1
301(16) 0.00391 287.8 319.1
302(16) 0.00391 287.5 319.2
309(16) 0.00391 287.2 318.7
331(16) 0.00391 286.9 317.4
334(17) 0.003460 286.6 315.1
323(16) 0.00391 286.3 312.2
312(16) 0.00391 286.0 309.1
309(16) 0.00391 285.7 305.9
298(16) 0.00391 285.4 302.8
318(16) 0.00391 285.1 300.1
318(16) 0.00391 284.8 297.9
311(16) 0.00391 284.5 296.1
293(15) 0.00444 284.3 294.8
307(16) 0.00391 284.0 293.9
302(16) 0.00391 283.7 293.3
293(15) 0.00444 283.4 293.1
294(15) 0.00444 283.1 293.0
306(16) 0.00391 282.8 293.2
292(15) 0.00444 282.5 293.5
285(15) 0.00444 282.2 293.9
284(15) 0.00444 281.9 294.0
293(15) 0.00444 281.6 293.9
290(15) 0.00444 281.3 293.5
308(16) 0.00391 281.0 293.0
304(16) 0.00391 280.8 292.5
299(16) 0.00391 280.5 292.2
289(15) 0.00444 280.2 292.4
293(15) 0.00444 279.9 293.0
283(15) 0.00444 279.6 294.0
293(15) 0.00444 279.3 295.7
310(16) 0.00391 279.0 297.8
303(16) 0.00391 278.7 300.2
300(16) 0.00391 278.4 302.7
311(16) 0.00391 278.2 304.8
305(16) 0.00391 277.9 306.1
298(16) 0.00391 277.6 306.6
305(16) 0.00391 277.3 306.9
308(16) 0.00391 277.0 307.8
295(15) 0.00444 276.7 309.8
296(16) 0.00391 276.4 313.6
300(16) 0.00391 276.2 319.5
318(16) 0.00391 275.9 327.6
318(16) 0.00391 275.6 337.7
342(17) 0.003460 275.3 348.9
345(17) 0.003460 275.0 359.7
365(17) 0.003460 274.7 368.0
376(18) 0.003086 274.4 372.3
365(17) 0.003460 274.2 372.6
392(18) 0.003086 273.9 369.6
382(18) 0.003086 273.6 364.1
362(17) 0.003460 273.3 356.2
329(16) 0.00391 273.0 346.5
341(17) 0.003460 272.7 335.9
320(16) 0.00391 272.5 325.5
326(16) 0.00391 272.2 316.1
314(16) 0.00391 271.9 307.9
293(15) 0.00444 271.6 301.3
300(16) 0.00391 271.3 296.1
297(16) 0.00391 271.1 292.2
284(15) 0.00444 270.8 289.5
270(15) 0.00444 270.5 287.8
276(15) 0.00444 270.2 287.0
287(15) 0.00444 269.9 286.9
300(16) 0.00391 269.7 287.4
297(16) 0.00391 269.4 288.4
315(16) 0.00391 269.1 289.7
318(16) 0.00391 268.8 291.0
268(15) 0.00444 268.6 291.9
302(16) 0.00391 268.3 292.0
294(16) 0.00391 268.0 291.3
302(16) 0.00391 267.7 290.1
281(15) 0.00444 267.4 288.7
284(15) 0.00444 267.2 287.6
291(15) 0.00444 266.9 286.9
290(15) 0.00444 266.6 286.7
314(16) 0.00391 266.3 286.7
280(15) 0.00444 266.1 286.8
284(15) 0.00444 265.8 286.7
275(15) 0.00444 265.5 286.4
308(16) 0.00391 265.3 286.1
294(16) 0.00391 265.0 285.9
279(15) 0.00444 264.7 285.8
289(15) 0.00444 264.4 285.8
310(16) 0.00391 264.2 285.8
293(16) 0.00391 263.9 285.7
298(16) 0.00391 263.6 285.6
283(15) 0.00444 263.4 285.9
296(16) 0.00391 263.1 287.0
287(15) 0.00444 262.8 289.2
314(16) 0.00391 262.5 292.9
322(16) 0.00391 262.3 298.2
326(16) 0.00391 262.0 305.3
334(17) 0.003460 261.7 313.9
337(17) 0.003460 261.5 323.5
354(17) 0.003460 261.2 333.1
355(17) 0.003460 260.9 340.8
372(18) 0.003086 260.7 344.6
353(17) 0.003460 260.4 343.1
343(17) 0.003460 260.1 337.0
341(17) 0.003460 259.9 328.0
313(16) 0.00391 259.6 318.1
313(16) 0.00391 259.3 308.9
308(16) 0.00391 259.1 301.2
297(16) 0.00391 258.8 295.4
285(15) 0.00444 258.6 291.7
295(16) 0.00391 258.3 290.1
282(15) 0.00444 258.0 290.3
283(15) 0.00444 257.8 292.1
314(16) 0.00391 257.5 295.1
307(16) 0.00391 257.2 298.8
307(16) 0.00391 257.0 302.3
308(16) 0.00391 256.7 304.6
323(16) 0.00391 256.5 304.9
305(16) 0.00391 256.2 302.8
299(16) 0.00391 255.9 298.9
310(16) 0.00391 255.7 294.0
291(16) 0.00391 255.4 289.0
290(15) 0.00444 255.2 284.3
266(15) 0.00444 254.9 280.5
282(15) 0.00444 254.6 277.6
278(15) 0.00444 254.4 275.7
261(15) 0.00444 254.1 274.8
270(15) 0.00444 253.9 274.9
262(15) 0.00444 253.6 276.1
263(15) 0.00444 253.4 278.2
271(15) 0.00444 253.1 281.3
266(15) 0.00444 252.9 285.1
300(16) 0.00391 252.6 289.4
289(15) 0.00444 252.3 293.8
306(16) 0.00391 252.1 297.6
314(16) 0.00391 251.8 300.1
302(16) 0.00391 251.6 300.7
315(16) 0.00391 251.3 299.6
311(16) 0.00391 251.1 297.5
296(16) 0.00391 250.8 295.2
304(16) 0.00391 250.6 293.4
274(15) 0.00444 250.3 292.2
279(15) 0.00444 250.1 291.5
299(16) 0.00391 249.8 291.2
317(16) 0.00391 249.6 291.1
296(16) 0.00391 249.3 291.0
284(15) 0.00444 249.1 291.4
294(16) 0.00391 248.8 292.3
268(15) 0.00444 248.6 293.6
281(15) 0.00444 248.4 295.2
310(16) 0.00391 248.1 296.6
315(16) 0.00391 247.9 297.6
330(17) 0.003460 247.6 298.4
320(16) 0.00391 247.4 299.2
319(16) 0.00391 247.1 300.5
313(16) 0.00391 246.9 303.0
328(16) 0.00391 246.6 307.2
320(16) 0.00391 246.4 313.5
333(17) 0.003460 246.2 322.0
351(17) 0.003460 245.9 332.1
356(17) 0.003460 245.7 343.0
355(17) 0.003460 245.4 352.9
363(17) 0.003460 245.2 359.6
357(17) 0.003460 244.9 361.4
355(17) 0.003460 244.7 357.8
344(17) 0.003460 244.5 350.4
364(17) 0.003460 244.2 341.3
345(17) 0.003460 244.0 332.3
309(16) 0.00391 243.8 324.6
303(16) 0.00391 243.5 318.8
316(16) 0.00391 243.3 315.2
320(16) 0.00391 243.0 313.9
305(13) 0.00592 242.8 314.5
299(16) 0.00391 242.6 316.5
297(16) 0.00391 242.3 319.5
310(16) 0.00391 242.1 323.2
336(17) 0.003460 241.9 327.7
337(17) 0.003460 241.6 333.2
333(17) 0.003460 241.4 339.7
336(17) 0.003460 241.2 346.3
351(17) 0.003460 240.9 352.3
348(17) 0.003460 240.7 356.6
364(18) 0.003086 240.5 359.1
344(17) 0.003460 240.2 360.1
391(18) 0.003086 240.0 360.6
349(17) 0.003460 239.8 361.3
350(17) 0.003460 239.5 362.9
368(18) 0.003086 239.3 365.6
395(18) 0.003086 239.1 368.8
368(18) 0.003086 238.9 371.5
380(18) 0.003086 238.6 373.3
377(18) 0.003086 238.4 374.2
364(18) 0.003086 238.2 374.8
378(18) 0.003086 237.9 374.8
353(17) 0.003460 237.7 373.6
357(17) 0.003460 237.5 369.9
363(18) 0.003086 237.3 362.8
339(17) 0.003460 237.0 352.1
324(17) 0.003460 236.8 338.9
321(17) 0.003460 236.6 324.8
318(16) 0.00391 236.4 311.3
283(16) 0.00391 236.2 299.2
274(15) 0.00444 235.9 288.9
280(15) 0.00444 235.7 280.6
278(15) 0.00444 235.5 274.2
277(15) 0.00444 235.3 269.5
277(15) 0.00444 235.0 266.3
276(15) 0.00444 234.8 264.3
268(15) 0.00444 234.6 263.1
278(15) 0.00444 234.4 262.4
273(15) 0.00444 234.2 261.9
272(15) 0.00444 233.9 261.2
268(15) 0.00444 233.7 260.2
251(15) 0.00444 233.5 258.9
258(15) 0.00444 233.3 257.4
286(16) 0.00391 233.1 256.0
292(16) 0.00391 232.9 254.7
265(15) 0.00444 232.7 253.8
262(15) 0.00444 232.4 253.4
247(15) 0.00444 232.2 253.5
250(15) 0.00444 232.0 254.3
251(15) 0.00444 231.8 255.8
268(15) 0.00444 231.6 258.1
258(15) 0.00444 231.4 260.9
286(16) 0.00391 231.2 264.3
276(15) 0.00444 230.9 267.9
298(16) 0.00391 230.7 271.6
291(16) 0.00391 230.5 274.8
273(15) 0.00444 230.3 277.4
295(16) 0.00391 230.1 279.4
281(16) 0.00391 229.9 281.0
277(15) 0.00444 229.7 282.4
289(16) 0.00391 229.5 283.8
268(15) 0.00444 229.3 285.2
285(16) 0.00391 229.1 286.2
287(16) 0.00391 228.9 286.5
299(16) 0.00391 228.6 286.3
304(16) 0.00391 228.4 285.5
310(16) 0.00391 228.2 284.2
278(15) 0.00444 228.0 282.3
276(15) 0.00444 227.8 279.7
276(15) 0.00444 227.6 276.3
265(15) 0.00444 227.4 272.2
278(15) 0.00444 227.2 267.6
271(15) 0.00444 227.0 262.9
244(14) 0.00510 226.8 258.3
268(15) 0.00444 226.6 254.2
247(15) 0.00444 226.4 250.5
242(14) 0.00510 226.2 247.5
245(14) 0.00510 226.0 245.0
245(14) 0.00510 225.8 243.1
244(14) 0.00510 225.6 241.6
241(14) 0.00510 225.4 240.5
234(14) 0.00510 225.2 239.4
236(14) 0.00510 225.0 238.4
230(14) 0.00510 224.8 237.5
241(14) 0.00510 224.6 236.5
263(15) 0.00444 224.4 235.6
234(14) 0.00510 224.2 234.8
249(15) 0.00444 224.0 234.2
241(14) 0.00510 223.8 233.7
241(14) 0.00510 223.6 233.4
244(14) 0.00510 223.4 233.2
250(15) 0.00444 223.3 233.4
241(14) 0.00510 223.1 233.8
227(14) 0.00510 222.9 234.4
243(14) 0.00510 222.7 235.4
230(14) 0.00510 222.5 236.7
242(14) 0.00510 222.3 238.2
262(15) 0.00444 222.1 240.1
225(14) 0.00510 221.9 242.0
232(14) 0.00510 221.7 244.0
239(20) 0.002500 221.5 245.6
246(14) 0.00510 221.3 246.8
259(14) 0.00510 221.2 247.2
248(14) 0.00510 221.0 247.1
251(14) 0.00510 220.8 246.4
268(15) 0.00444 220.6 245.7
256(14) 0.00510 220.4 245.2
253(14) 0.00510 220.2 245.1
243(14) 0.00510 220.0 245.4
224(13) 0.00592 219.8 246.1
235(14) 0.00510 219.7 247.1
232(14) 0.00510 219.5 248.3
255(14) 0.00510 219.3 249.3
256(14) 0.00510 219.1 249.9
248(14) 0.00510 218.9 249.9
277(15) 0.00444 218.7 249.2
262(15) 0.00444 218.6 247.9
252(14) 0.00510 218.4 246.3
248(14) 0.00510 218.2 244.6
238(14) 0.00510 218.0 243.3
226(13) 0.00592 217.8 242.5
232(14) 0.00510 217.7 242.3
231(14) 0.00510 217.5 243.0
234(14) 0.00510 217.3 244.4
273(15) 0.00444 217.1 246.6
259(14) 0.00510 216.9 249.5
257(14) 0.00510 216.8 252.8
251(14) 0.00510 216.6 256.2
258(14) 0.00510 216.4 259.4
264(15) 0.00444 216.2 261.9
272(15) 0.00444 216.1 263.4
264(15) 0.00444 215.9 263.9
242(14) 0.00510 215.7 263.6
260(14) 0.00510 215.5 262.5
282(15) 0.00444 215.4 261.3
267(15) 0.00444 215.2 260.3
256(14) 0.00510 215.0 259.8
253(14) 0.00510 214.8 259.8
266(15) 0.00444 214.7 260.4
257(14) 0.00510 214.5 261.2
264(15) 0.00444 214.3 262.0
258(14) 0.00510 214.2 262.4
274(15) 0.00444 214.0 262.1
274(15) 0.00444 213.8 261.2
240(14) 0.00510 213.6 259.7
227(14) 0.00510 213.5 257.9
224(13) 0.00592 213.3 256.3
261(15) 0.00444 213.1 255.1
272(15) 0.00444 213.0 254.4
268(15) 0.00444 212.8 254.3
250(14) 0.00510 212.6 254.6
263(15) 0.00444 212.5 255.0
241(14) 0.00510 212.3 255.3
252(14) 0.00510 212.1 255.4
228(14) 0.00510 212.0 255.3
246(14) 0.00510 211.8 255.0
238(14) 0.00510 211.6 254.6
258(14) 0.00510 211.5 254.2
251(14) 0.00510 211.3 253.4
262(15) 0.00444 211.1 252.1
225(13) 0.00592 211.0 250.4
246(14) 0.00510 210.8 248.1
246(14) 0.00510 210.7 245.6
246(14) 0.00510 210.5 243.0
260(14) 0.00510 210.3 240.5
232(14) 0.00510 210.2 238.3
242(14) 0.00510 210.0 236.6
222(13) 0.00592 209.9 235.2
238(14) 0.00510 209.7 234.3
248(14) 0.00510 209.5 233.5
223(13) 0.00592 209.4 232.8
233(14) 0.00510 209.2 232.0
215(13) 0.00592 209.1 231.1
234(14) 0.00510 208.9 230.1
224(13) 0.00592 208.7 229.2
229(14) 0.00510 208.6 228.4
232(14) 0.00510 208.4 227.8
262(15) 0.00444 208.3 227.4
223(13) 0.00592 208.1 227.4
239(14) 0.00510 208.0 227.5
212(13) 0.00592 207.8 227.8
224(13) 0.00592 207.7 228.1
249(14) 0.00510 207.5 228.3
226(14) 0.00510 207.3 228.4
249(14) 0.00510 207.2 228.3
241(14) 0.00510 207.0 228.0
239(14) 0.00510 206.9 227.6
248(14) 0.00510 206.7 227.2
232(14) 0.00510 206.6 226.7
234(14) 0.00510 206.4 226.4
240(14) 0.00510 206.3 226.2
201(13) 0.00592 206.1 226.3
222(13) 0.00592 206.0 226.7
224(13) 0.00592 205.8 227.5
229(14) 0.00510 205.7 228.8
199(13) 0.00592 205.5 230.5
231(14) 0.00510 205.4 232.6
247(14) 0.00510 205.2 235.2
225(13) 0.00592 205.1 238.0
258(14) 0.00510 204.9 240.8
257(14) 0.00510 204.8 243.4
241(14) 0.00510 204.7 245.4
243(14) 0.00510 204.5 246.6
257(14) 0.00510 204.4 246.9
249(14) 0.00510 204.2 246.3
226(14) 0.00510 204.1 245.1
252(14) 0.00510 203.9 243.8
265(15) 0.00444 203.8 242.7
252(14) 0.00510 203.6 242.2
264(15) 0.00444 203.5 242.6
244(14) 0.00510 203.4 243.9
263(15) 0.00444 203.2 246.3
253(14) 0.00510 203.1 249.7
271(15) 0.00444 202.9 254.0
285(15) 0.00444 202.8 258.9
274(15) 0.00444 202.6 263.9
281(15) 0.00444 202.5 268.5
287(15) 0.00444 202.4 272.1
278(15) 0.00444 202.2 274.2
285(15) 0.00444 202.1 274.5
276(15) 0.00444 201.9 273.3
302(16) 0.00391 201.8 270.9
263(15) 0.00444 201.7 267.9
269(15) 0.00444 201.5 264.9
271(15) 0.00444 201.4 262.2
260(15) 0.00444 201.3 260.3
251(14) 0.00510 201.1 259.1
295(16) 0.00391 201.0 258.6
246(14) 0.00510 200.8 258.6
286(15) 0.00444 200.7 258.7
256(14) 0.00510 200.6 258.5
237(14) 0.00510 200.4 257.9
265(15) 0.00444 200.3 256.7
239(14) 0.00510 200.2 255.1
266(15) 0.00444 200.0 253.3
280(15) 0.00444 199.9 251.7
259(15) 0.00444 199.8 250.4
238(14) 0.00510 199.6 249.8
232(14) 0.00510 199.5 249.9
248(14) 0.00510 199.4 251.1
272(15) 0.00444 199.2 253.2
263(15) 0.00444 199.1 256.3
257(14) 0.00510 199.0 260.1
255(14) 0.00510 198.8 264.4
242(14) 0.00510 198.7 268.8
258(14) 0.00510 198.6 272.7
248(14) 0.00510 198.5 275.3
258(14) 0.00510 198.3 276.0
290(15) 0.00444 198.2 274.5
255(14) 0.00510 198.1 270.7
242(14) 0.00510 197.9 265.2
260(15) 0.00444 197.8 258.7
248(14) 0.00510 197.7 251.7
248(14) 0.00510 197.6 244.9
251(14) 0.00510 197.4 238.5
245(14) 0.00510 197.3 232.8
222(13) 0.00592 197.2 227.8
235(14) 0.00510 197.0 223.6
251(14) 0.00510 196.9 220.1
231(14) 0.00510 196.8 217.3
229(14) 0.00510 196.7 215.1
215(13) 0.00592 196.5 213.4
199(13) 0.00592 196.4 212.2
220(13) 0.00592 196.3 211.3
233(14) 0.00510 196.2 210.8
221(13) 0.00592 196.0 210.5
231(14) 0.00510 195.9 210.5
200(13) 0.00592 195.8 210.8
199(13) 0.00592 195.7 211.3
199(13) 0.00592 195.6 212.1
218(13) 0.00592 195.4 213.2
210(13) 0.00592 195.3 214.6
212(13) 0.00592 195.2 216.1
220(13) 0.00592 195.1 217.9
226(14) 0.00510 194.9 219.9
208(13) 0.00592 194.8 221.9
226(14) 0.00510 194.7 223.9
213(13) 0.00592 194.6 225.6
225(14) 0.00510 194.5 227.1
223(13) 0.00592 194.3 228.1
239(14) 0.00510 194.2 228.8
211(13) 0.00592 194.1 229.1
222(13) 0.00592 194.0 229.3
233(14) 0.00510 193.9 229.5
252(14) 0.00510 193.8 229.9
248(14) 0.00510 193.6 230.5
243(14) 0.00510 193.5 231.5
204(13) 0.00592 193.4 232.8
225(14) 0.00510 193.3 234.2
253(14) 0.00510 193.2 235.7
236(14) 0.00510 193.1 237.2
257(14) 0.00510 192.9 238.7
246(14) 0.00510 192.8 240.0
248(14) 0.00510 192.7 241.4
229(14) 0.00510 192.6 242.9
230(14) 0.00510 192.5 244.7
249(14) 0.00510 192.4 247.0
236(14) 0.00510 192.3 249.9
239(14) 0.00510 192.1 253.8
238(14) 0.00510 192.0 258.5
258(15) 0.00444 191.9 264.0
291(16) 0.00391 191.8 270.1
298(16) 0.00391 191.7 276.4
294(16) 0.00391 191.6 282.5
310(16) 0.00391 191.5 287.6
302(16) 0.00391 191.4 291.2
296(16) 0.00391 191.2 292.8
278(16) 0.00391 191.1 292.4
286(16) 0.00391 191.0 290.0
267(15) 0.00444 190.9 286.2
275(15) 0.00444 190.8 281.4
261(15) 0.00444 190.7 276.1
274(15) 0.00444 190.6 270.9
263(15) 0.00444 190.5 265.8
268(15) 0.00444 190.4 261.1
262(15) 0.00444 190.3 256.7
246(15) 0.00444 190.1 252.7
243(15) 0.00444 190.0 249.0
258(15) 0.00444 189.9 245.7
256(15) 0.00444 189.8 242.9
238(14) 0.00510 189.7 240.5
226(14) 0.00510 189.6 238.6
237(14) 0.00510 189.5 237.3
229(14) 0.00510 189.4 236.7
245(15) 0.00444 189.3 236.6
236(14) 0.00510 189.2 237.0
254(15) 0.00444 189.1 237.9
241(14) 0.00510 189.0 239.0
259(15) 0.00444 188.9 240.1
254(15) 0.00444 188.8 241.0
255(15) 0.00444 188.7 241.4
245(15) 0.00444 188.5 241.3
256(15) 0.00444 188.4 240.8
244(15) 0.00444 188.3 240.1
250(15) 0.00444 188.2 239.2
231(14) 0.00510 188.1 238.4
206(13) 0.00592 188.0 237.5
246(15) 0.00444 187.9 236.4
235(14) 0.00510 187.8 235.0
230(14) 0.00510 187.7 233.1
240(14) 0.00510 187.6 230.7
223(14) 0.00510 187.5 228.0
220(14) 0.00510 187.4 225.1
205(13) 0.00592 187.3 222.1
209(13) 0.00592 187.2 219.3
219(14) 0.00510 187.1 216.7
196(13) 0.00592 187.0 214.5
201(13) 0.00592 186.9 212.7
189(13) 0.00592 186.8 211.4
211(14) 0.00510 186.7 210.5
225(14) 0.00510 186.6 210.2
193(13) 0.00592 186.5 210.4
199(13) 0.00592 186.4 211.2
202(13) 0.00592 186.3 212.5
227(14) 0.00510 186.2 214.5
202(13) 0.00592 186.1 217.1
231(14) 0.00510 186.0 220.4
243(15) 0.00444 185.9 224.3
214(14) 0.00510 185.8 228.9
239(14) 0.00510 185.7 234.2
232(14) 0.00510 185.6 239.9
229(14) 0.00510 185.5 245.9
245(15) 0.00444 185.4 252.1
247(15) 0.00444 185.3 258.0
243(15) 0.00444 185.2 263.5
281(16) 0.00391 185.1 268.2
251(15) 0.00444 185.0 271.9
278(16) 0.00391 184.9 274.4
287(16) 0.00391 184.8 275.6
292(16) 0.00391 184.8 275.5
294(16) 0.00391 184.7 274.4
274(15) 0.00444 184.6 272.3
286(16) 0.00391 184.5 269.5
283(16) 0.00391 184.4 266.0
285(16) 0.00391 184.3 262.1
258(15) 0.00444 184.2 257.6
263(15) 0.00444 184.1 252.8
229(14) 0.00510 184.0 247.9
232(14) 0.00510 183.9 242.9
250(15) 0.00444 183.8 238.1
239(14) 0.00510 183.7 233.5
208(13) 0.00592 183.6 229.4
219(14) 0.00510 183.5 225.6
207(13) 0.00592 183.4 222.4
214(14) 0.00510 183.3 219.8
203(13) 0.00592 183.3 217.7
222(14) 0.00510 183.2 216.3
200(13) 0.00592 183.1 215.6
208(13) 0.00592 183.0 215.3
225(14) 0.00510 182.9 215.6
196(13) 0.00592 182.8 216.3
221(14) 0.00510 182.7 217.2
212(14) 0.00510 182.6 218.2
212(14) 0.00510 182.5 219.1
219(14) 0.00510 182.4 219.7
214(14) 0.00510 182.4 219.7
213(14) 0.00510 182.3 219.1
222(14) 0.00510 182.2 217.9
219(14) 0.00510 182.1 216.2
219(14) 0.00510 182.0 214.2
194(13) 0.00592 181.9 212.0
207(14) 0.00510 181.8 209.7
196(13) 0.00592 181.7 207.6
192(13) 0.00592 181.6 205.6
205(13) 0.00592 181.6 203.8
198(13) 0.00592 181.5 202.2
212(14) 0.00510 181.4 200.8
195(13) 0.00592 181.3 199.6
198(13) 0.00592 181.2 198.5
205(13) 0.00592 181.1 197.6
177(13) 0.00592 181.0 196.9
216(14) 0.00510 180.9 196.3
209(14) 0.00510 180.9 195.8
212(14) 0.00510 180.8 195.6
202(13) 0.00592 180.7 195.5
249(15) 0.00444 180.6 195.7
196(13) 0.00592 180.5 196.0
190(13) 0.00592 180.4 196.6
191(13) 0.00592 180.3 197.5
210(14) 0.00510 180.3 198.6
209(14) 0.00510 180.2 199.9
195(13) 0.00592 180.1 201.5
186(13) 0.00592 180.0 203.2
217(14) 0.00510 179.9 205.0
224(14) 0.00510 179.8 206.8
225(14) 0.00510 179.8 208.6
205(13) 0.00592 179.7 210.1
208(14) 0.00510 179.6 211.3
237(14) 0.00510 179.5 212.1
205(13) 0.00592 179.4 212.4
199(13) 0.00592 179.3 212.3
227(14) 0.00510 179.3 212.0
197(13) 0.00592 179.2 211.4
242(15) 0.00444 179.1 210.7
229(14) 0.00510 179.0 210.1
198(13) 0.00592 178.9 209.5
200(13) 0.00592 178.9 209.0
214(14) 0.00510 178.8 208.5
224(14) 0.00510 178.7 208.1
218(14) 0.00510 178.6 207.6
207(14) 0.00510 178.5 207.2
200(13) 0.00592 178.4 206.9
200(13) 0.00592 178.4 206.7
197(13) 0.00592 178.3 206.6
205(13) 0.00592 178.2 206.7
205(13) 0.00592 178.1 207.1
218(14) 0.00510 178.1 207.7
214(14) 0.00510 178.0 208.5
220(14) 0.00510 177.9 209.6
202(13) 0.00592 177.8 210.8
202(13) 0.00592 177.7 212.1
248(15) 0.00444 177.7 213.5
210(14) 0.00510 177.6 214.9
252(15) 0.00444 177.5 216.2
199(13) 0.00592 177.4 217.4
207(14) 0.00510 177.3 218.3
219(14) 0.00510 177.3 219.1
220(14) 0.00510 177.2 219.7
223(14) 0.00510 177.1 220.2
227(14) 0.00510 177.0 220.9
198(13) 0.00592 177.0 221.8
224(14) 0.00510 176.9 223.1
218(14) 0.00510 176.8 224.8
200(13) 0.00592 176.7 227.0
220(14) 0.00510 176.7 229.5
234(14) 0.00510 176.6 232.4
242(15) 0.00444 176.5 235.4
232(14) 0.00510 176.4 238.5
271(15) 0.00444 176.4 241.5
271(15) 0.00444 176.3 244.1
221(14) 0.00510 176.2 246.2
254(15) 0.00444 176.1 247.6
262(15) 0.00444 176.1 248.3
253(15) 0.00444 176.0 248.2
255(15) 0.00444 175.9 247.4
269(15) 0.00444 175.8 246.1
248(15) 0.00444 175.8 244.5
264(15) 0.00444 175.7 243.0
260(15) 0.00444 175.6 241.7
263(15) 0.00444 175.5 240.9
226(14) 0.00510 175.5 240.6
232(14) 0.00510 175.4 240.9
240(15) 0.00444 175.3 241.7
246(15) 0.00444 175.3 243.0
275(16) 0.00391 175.2 244.4
255(15) 0.00444 175.1 245.8
267(15) 0.00444 175.0 246.9
220(14) 0.00510 175.0 247.3
242(15) 0.00444 174.9 246.9
269(15) 0.00444 174.8 245.6
278(16) 0.00391 174.8 243.4
248(15) 0.00444 174.7 240.6
266(15) 0.00444 174.6 237.3
240(15) 0.00444 174.5 233.7
205(13) 0.00592 174.5 230.2
218(14) 0.00510 174.4 226.7
245(15) 0.00444 174.3 223.4
210(14) 0.00510 174.3 220.3
204(13) 0.00592 174.2 217.6
195(13) 0.00592 174.1 215.2
199(13) 0.00592 174.1 213.1
214(13) 0.00592 174.0 211.3
210(13) 0.00592 173.9 210.0
209(13) 0.00592 173.8 208.9
200(13) 0.00592 173.8 208.3
205(13) 0.00592 173.7 208.0
198(12) 0.00694 173.6 208.1
203(13) 0.00592 173.6 208.5
206(13) 0.00592 173.5 209.2
194(12) 0.00694 173.4 210.1
211(13) 0.00592 173.4 211.2
210(13) 0.00592 173.3 212.5
233(14) 0.00510 173.2 213.9
229(13) 0.00592 173.2 215.4
197(12) 0.00694 173.1 216.9
208(13) 0.00592 173.0 218.3
223(13) 0.00592 173.0 219.6
235(14) 0.00510 172.9 220.8
203(13) 0.00592 172.8 221.8
206(13) 0.00592 172.8 222.7
217(13) 0.00592 172.7 223.6
215(13) 0.00592 172.6 224.5
254(14) 0.00510 172.6 225.5
226(13) 0.00592 172.5 226.6
206(13) 0.00592 172.5 228.0
225(13) 0.00592 172.4 229.5
219(13) 0.00592 172.3 231.1
225(13) 0.00592 172.3 232.7
226(13) 0.00592 172.2 234.3
241(14) 0.00510 172.1 235.7
220(13) 0.00592 172.1 236.8
223(13) 0.00592 172.0 237.5
232(14) 0.00510 171.9 237.7
257(14) 0.00510 171.9 237.4
247(14) 0.00510 171.8 236.4
231(14) 0.00510 171.8 234.9
241(14) 0.00510 171.7 232.9
236(14) 0.00510 171.6 230.6
251(14) 0.00510 171.6 228.1
232(14) 0.00510 171.5 225.4
216(13) 0.00592 171.5 222.7
201(13) 0.00592 171.4 220.1
213(13) 0.00592 171.3 217.5
224(13) 0.00592 171.3 215.1
233(14) 0.00510 171.2 212.9
199(13) 0.00592 171.2 211.0
218(13) 0.00592 171.1 209.2
214(13) 0.00592 171.0 207.8
211(13) 0.00592 171.0 206.6
208(13) 0.00592 170.9 205.6
205(13) 0.00592 170.9 204.9
194(12) 0.00694 170.8 204.3
195(12) 0.00694 170.7 203.9
216(13) 0.00592 170.7 203.4
223(13) 0.00592 170.6 203.0
216(13) 0.00592 170.6 202.4
209(13) 0.00592 170.5 201.7
187(12) 0.00694 170.4 200.9
194(12) 0.00694 170.4 200.0
210(13) 0.00592 170.3 198.9
216(13) 0.00592 170.3 197.8
199(13) 0.00592 170.2 196.7
202(13) 0.00592 170.2 195.6
201(13) 0.00592 170.1 194.5
202(13) 0.00592 170.1 193.5
177(12) 0.00694 170.0 192.7
201(13) 0.00592 169.9 192.0
194(12) 0.00694 169.9 191.5
207(13) 0.00592 169.8 191.2
210(13) 0.00592 169.8 191.0
175(12) 0.00694 169.7 191.1
182(12) 0.00694 169.7 191.4
199(13) 0.00592 169.6 191.8
200(13) 0.00592 169.6 192.4
192(12) 0.00694 169.5 193.1
191(12) 0.00694 169.4 193.9
215(13) 0.00592 169.4 194.7
196(12) 0.00694 169.3 195.6
190(12) 0.00694 169.3 196.5
215(13) 0.00592 169.2 197.4
199(13) 0.00592 169.2 198.4
198(12) 0.00694 169.1 199.4
182(12) 0.00694 169.1 200.5
194(12) 0.00694 169.0 201.6
191(12) 0.00694 169.0 202.8
204(13) 0.00592 168.9 204.0
222(13) 0.00592 168.9 205.1
205(13) 0.00592 168.8 206.3
219(13) 0.00592 168.8 207.5
203(13) 0.00592 168.7 208.7
203(13) 0.00592 168.7 209.9
192(12) 0.00694 168.6 211.2
217(13) 0.00592 168.6 212.7
231(14) 0.00510 168.5 214.2
239(14) 0.00510 168.5 215.9
217(13) 0.00592 168.4 217.6
223(13) 0.00592 168.4 219.4
226(13) 0.00592 168.3 221.1
204(13) 0.00592 168.3 222.7
235(14) 0.00510 168.2 224.1
247(19) 0.002770 168.2 225.3
228(13) 0.00592 168.1 226.0
213(13) 0.00592 168.1 226.4
230(13) 0.00592 168.0 226.4
223(13) 0.00592 168.0 226.0
205(12) 0.00694 167.9 225.3
208(13) 0.00592 167.9 224.2
221(13) 0.00592 167.9 222.9
230(13) 0.00592 167.8 221.4
225(13) 0.00592 167.8 219.8
206(12) 0.00694 167.7 218.2
222(13) 0.00592 167.7 216.6
217(13) 0.00592 167.6 215.1
204(12) 0.00694 167.6 213.7
218(13) 0.00592 167.5 212.5
205(12) 0.00694 167.5 211.5
221(13) 0.00592 167.4 210.6
224(13) 0.00592 167.4 209.8
190(12) 0.00694 167.4 209.0
202(12) 0.00694 167.3 208.2
211(13) 0.00592 167.3 207.2
201(12) 0.00694 167.2 206.2
211(13) 0.00592 167.2 205.1
206(12) 0.00694 167.1 203.9
214(13) 0.00592 167.1 202.6
191(12) 0.00694 167.1 201.4
205(12) 0.00694 167.0 200.2
207(12) 0.00694 167.0 199.1
190(12) 0.00694 166.9 198.3
195(12) 0.00694 166.9 197.6
193(12) 0.00694 166.9 197.2
198(12) 0.00694 166.8 197.1
185(12) 0.00694 166.8 197.2
194(12) 0.00694 166.7 197.5
204(12) 0.00694 166.7 198.1
207(12) 0.00694 166.7 198.9
207(12) 0.00694 166.6 199.8
212(13) 0.00592 166.6 200.8
205(12) 0.00694 166.5 201.8
227(13) 0.00592 166.5 202.7
202(12) 0.00694 166.5 203.5
203(12) 0.00694 166.4 204.1
202(12) 0.00694 166.4 204.5
208(13) 0.00592 166.3 204.7
198(12) 0.00694 166.3 204.7
206(12) 0.00694 166.3 204.6
207(13) 0.00592 166.2 204.3
203(12) 0.00694 166.2 204.1
213(13) 0.00592 166.2 203.7
215(13) 0.00592 166.1 203.4
205(12) 0.00694 166.1 203.1
196(12) 0.00694 166.1 202.7
216(13) 0.00592 166.0 202.4
220(13) 0.00592 166.0 202.1
209(13) 0.00592 166.0 201.9
206(12) 0.00694 165.9 201.6
207(13) 0.00592 165.9 201.5
199(12) 0.00694 165.9 201.5
196(12) 0.00694 165.8 201.6
225(13) 0.00592 165.8 201.8
218(13) 0.00592 165.8 202.2
200(12) 0.00694 165.7 202.7
213(13) 0.00592 165.7 203.3
204(12) 0.00694 165.7 204.0
210(13) 0.00592 165.6 204.8
221(13) 0.00592 165.6 205.5
212(13) 0.00592 165.6 206.1
204(12) 0.00694 165.5 206.5
218(13) 0.00592 165.5 206.7
224(13) 0.00592 165.5 206.6
217(13) 0.00592 165.4 206.3
200(12) 0.00694 165.4 205.7
202(12) 0.00694 165.4 205.0
222(13) 0.00592 165.4 204.0
218(13) 0.00592 165.3 203.0
213(13) 0.00592 165.3 201.9
213(13) 0.00592 165.3 200.9
211(13) 0.00592 165.2 199.9
209(13) 0.00592 165.2 199.0
217(13) 0.00592 165.2 198.1
214(13) 0.00592 165.2 197.3
204(12) 0.00694 165.1 196.6
186(12) 0.00694 165.1 195.9
212(13) 0.00592 165.1 195.3
202(12) 0.00694 165.1 194.6
187(12) 0.00694 165.0 194.0
174(11) 0.00826 165.0 193.3
176(11) 0.00826 165.0 192.6
183(12) 0.00694 165.0 191.9
192(12) 0.00694 164.9 191.2
184(12) 0.00694 164.9 190.5
195(12) 0.00694 164.9 189.9
197(12) 0.00694 164.9 189.3
183(12) 0.00694 164.8 188.8
198(12) 0.00694 164.8 188.4
195(12) 0.00694 164.8 188.1
182(12) 0.00694 164.8 187.8
182(12) 0.00694 164.7 187.6
198(12) 0.00694 164.7 187.5
206(12) 0.00694 164.7 187.6
178(12) 0.00694 164.7 187.7
190(12) 0.00694 164.7 187.9
194(12) 0.00694 164.6 188.3
195(12) 0.00694 164.6 188.7
187(12) 0.00694 164.6 189.3
204(12) 0.00694 164.6 190.0
194(12) 0.00694 164.6 190.7
192(12) 0.00694 164.5 191.5
199(12) 0.00694 164.5 192.4
206(12) 0.00694 164.5 193.3
203(12) 0.00694 164.5 194.1
212(13) 0.00592 164.5 194.9
202(12) 0.00694 164.4 195.7
202(12) 0.00694 164.4 196.3
204(12) 0.00694 164.4 197.0
210(13) 0.00592 164.4 197.6
223(13) 0.00592 164.4 198.2
207(12) 0.00694 164.4 198.8
197(12) 0.00694 164.3 199.5
201(12) 0.00694 164.3 200.3
185(12) 0.00694 164.3 201.2
184(12) 0.00694 164.3 202.3
211(13) 0.00592 164.3 203.4
214(13) 0.00592 164.3 204.7
222(13) 0.00592 164.3 206.1
226(13) 0.00592 164.2 207.6
213(13) 0.00592 164.2 209.2
219(13) 0.00592 164.2 210.9
208(12) 0.00694 164.2 212.5
223(13) 0.00592 164.2 214.2
205(12) 0.00694 164.2 215.8
201(12) 0.00694 164.2 217.3
219(13) 0.00592 164.2 218.6
218(13) 0.00592 164.2 219.6
209(12) 0.00694 164.1 220.4
222(13) 0.00592 164.1 220.8
221(13) 0.00592 164.1 220.8
205(12) 0.00694 164.1 220.5
224(13) 0.00592 164.1 219.8
229(13) 0.00592 164.1 218.8
222(13) 0.00592 164.1 217.6
212(13) 0.00592 164.1 216.2
210(12) 0.00694 164.1 214.7
210(13) 0.00592 164.1 213.1
205(12) 0.00694 164.1 211.4
205(12) 0.00694 164.0 209.7
207(12) 0.00694 164.0 208.0
210(13) 0.00592 164.0 206.3
213(13) 0.00592 164.0 204.6
215(13) 0.00592 164.0 202.9
213(13) 0.00592 164.0 201.2
196(12) 0.00694 164.0 199.5
200(12) 0.00694 164.0 197.8
192(12) 0.00694 164.0 196.3
186(12) 0.00694 164.0 194.8
203(12) 0.00694 164.0 193.5
214(13) 0.00592 164.0 192.3
193(12) 0.00694 164.0 191.3
184(12) 0.00694 164.0 190.5
188(12) 0.00694 164.0 190.0
202(12) 0.00694 164.0 189.6
192(12) 0.00694 164.0 189.6
208(12) 0.00694 164.0 189.8
211(13) 0.00592 164.0 190.2
219(13) 0.00592 164.0 190.9
215(13) 0.00592 164.0 191.9
203(12) 0.00694 164.0 193.2
208(12) 0.00694 164.0 194.7
226(13) 0.00592 164.0 196.6
225(13) 0.00592 164.0 198.6
227(13) 0.00592 164.0 201.0
231(13) 0.00592 164.0 203.5
227(13) 0.00592 164.0 206.3
217(13) 0.00592 164.0 209.2
220(13) 0.00592 164.0 212.3
224(13) 0.00592 164.0 215.4
217(13) 0.00592 164.0 218.5
226(13) 0.00592 164.0 221.6
223(13) 0.00592 164.0 224.5
223(13) 0.00592 164.0 227.2
218(13) 0.00592 164.0 229.6
226(13) 0.00592 164.0 231.7
218(13) 0.00592 164.0 233.4
224(13) 0.00592 164.0 234.6
229(13) 0.00592 164.0 235.5
206(12) 0.00694 164.0 235.9
211(13) 0.00592 164.0 236.1
230(13) 0.00592 164.1 236.0
233(13) 0.00592 164.1 235.6
226(13) 0.00592 164.1 235.1
231(13) 0.00592 164.1 234.4
230(13) 0.00592 164.1 233.6
217(13) 0.00592 164.1 232.6
212(13) 0.00592 164.1 231.5
210(13) 0.00592 164.1 230.3
210(13) 0.00592 164.1 229.0
225(13) 0.00592 164.1 227.5
226(13) 0.00592 164.1 225.9
226(13) 0.00592 164.2 224.2
236(13) 0.00592 164.2 222.5
242(14) 0.00510 164.2 220.7
221(13) 0.00592 164.2 218.9
206(13) 0.00592 164.2 217.2
219(13) 0.00592 164.2 215.5
229(14) 0.00510 164.2 213.8
199(13) 0.00592 164.2 212.3
192(12) 0.00694 164.3 210.8
193(13) 0.00592 164.3 209.4
208(13) 0.00592 164.3 208.1
191(12) 0.00694 164.3 206.8
199(13) 0.00592 164.3 205.6
216(13) 0.00592 164.3 204.5
201(13) 0.00592 164.3 203.5
211(13) 0.00592 164.4 202.6
189(12) 0.00694 164.4 201.8
204(13) 0.00592 164.4 201.2
212(13) 0.00592 164.4 200.7
188(12) 0.00694 164.4 200.4
178(12) 0.00694 164.4 200.3
183(12) 0.00694 164.5 200.5
186(12) 0.00694 164.5 200.8
199(13) 0.00592 164.5 201.3
208(13) 0.00592 164.5 201.9
210(13) 0.00592 164.5 202.8
206(13) 0.00592 164.6 203.8
193(13) 0.00592 164.6 204.9
213(13) 0.00592 164.6 206.1
196(13) 0.00592 164.6 207.3
196(13) 0.00592 164.6 208.7
193(13) 0.00592 164.7 210.0
179(12) 0.00694 164.7 211.3
195(13) 0.00592 164.7 212.5
220(13) 0.00592 164.7 213.6
195(13) 0.00592 164.8 214.7
199(13) 0.00592 164.8 215.6
206(13) 0.00592 164.8 216.3
233(14) 0.00510 164.8 217.0
213(13) 0.00592 164.8 217.6
210(13) 0.00592 164.9 218.2
215(13) 0.00592 164.9 218.8
209(13) 0.00592 164.9 219.4
210(13) 0.00592 164.9 220.1
226(14) 0.00510 165.0 220.9
218(13) 0.00592 165.0 221.8
212(13) 0.00592 165.0 222.7
218(13) 0.00592 165.1 223.7
217(13) 0.00592 165.1 224.8
230(14) 0.00510 165.1 225.8
233(14) 0.00510 165.1 226.8
210(13) 0.00592 165.2 227.8
230(14) 0.00510 165.2 228.6
237(14) 0.00510 165.2 229.2
243(14) 0.00510 165.3 229.7
221(13) 0.00592 165.3 230.0
229(14) 0.00510 165.3 230.1
232(14) 0.00510 165.3 230.2
251(14) 0.00510 165.4 230.1
224(14) 0.00510 165.4 229.9
238(14) 0.00510 165.4 229.7
220(13) 0.00592 165.5 229.4
204(13) 0.00592 165.5 229.0
214(13) 0.00592 165.5 228.7
216(13) 0.00592 165.6 228.4
239(14) 0.00510 165.6 228.2
238(14) 0.00510 165.6 228.0
214(13) 0.00592 165.7 227.9
239(14) 0.00510 165.7 227.9
237(14) 0.00510 165.7 228.0
221(13) 0.00592 165.8 228.2
229(14) 0.00510 165.8 228.6
216(13) 0.00592 165.8 229.1
229(14) 0.00510 165.9 229.6
208(13) 0.00592 165.9 230.2
254(14) 0.00510 165.9 230.7
241(14) 0.00510 166.0 231.3
216(13) 0.00592 166.0 231.7
225(14) 0.00510 166.1 232.1
214(13) 0.00592 166.1 232.2
212(13) 0.00592 166.1 232.2
237(14) 0.00510 166.2 232.0
234(14) 0.00510 166.2 231.5
242(14) 0.00510 166.2 230.8
233(14) 0.00510 166.3 229.8
241(14) 0.00510 166.3 228.7
228(14) 0.00510 166.4 227.4
208(13) 0.00592 166.4 225.9
236(14) 0.00510 166.4 224.3
212(13) 0.00592 166.5 222.7
223(14) 0.00510 166.5 221.0
213(13) 0.00592 166.6 219.4
221(13) 0.00592 166.6 217.8
201(13) 0.00592 166.6 216.3
213(13) 0.00592 166.7 214.9
230(14) 0.00510 166.7 213.7
219(13) 0.00592 166.8 212.5
193(13) 0.00592 166.8 211.5
204(13) 0.00592 166.9 210.5
200(13) 0.00592 166.9 209.7
185(12) 0.00694 167.0 208.9
202(13) 0.00592 167.0 208.1
200(10) 0.01000 167.0 207.3
201(13) 0.00592 167.1 206.5
212(14) 0.00510 167.1 205.7
198(13) 0.00592 167.2 204.9
204(13) 0.00592 167.2 204.0
220(14) 0.00510 167.3 203.1
194(13) 0.00592 167.3 202.3
197(13) 0.00592 167.4 201.4
186(13) 0.00592 167.4 200.6
194(13) 0.00592 167.5 199.8
186(13) 0.00592 167.5 199.0
174(12) 0.00694 167.6 198.4
177(13) 0.00592 167.6 197.8
196(13) 0.00592 167.6 197.3
184(13) 0.00592 167.7 196.9
190(13) 0.00592 167.7 196.6
206(14) 0.00510 167.8 196.4
200(13) 0.00592 167.8 196.4
227(14) 0.00510 167.9 196.4
197(13) 0.00592 167.9 196.6
192(13) 0.00592 168.0 196.9
186(13) 0.00592 168.0 197.4
208(14) 0.00510 168.1 198.0
219(14) 0.00510 168.2 198.6
208(14) 0.00510 168.2 199.4
190(13) 0.00592 168.3 200.3
214(14) 0.00510 168.3 201.3
192(13) 0.00592 168.4 202.3
195(13) 0.00592 168.4 203.4
181(13) 0.00592 168.5 204.5
213(14) 0.00510 168.5 205.6
207(14) 0.00510 168.6 206.6
197(13) 0.00592 168.6 207.7
208(14) 0.00510 168.7 208.7
222(14) 0.00510 168.7 209.6
182(13) 0.00592 168.8 210.5
223(14) 0.00510 168.8 211.3
217(14) 0.00510 168.9 212.1
224(14) 0.00510 169.0 212.9
228(14) 0.00510 169.0 213.5
226(14) 0.00510 169.1 214.2
240(15) 0.00444 169.1 214.7
235(14) 0.00510 169.2 215.1
213(14) 0.00510 169.2 215.5
233(14) 0.00510 169.3 215.6
237(15) 0.00444 169.4 215.7
233(14) 0.00510 169.4 215.5
208(14) 0.00510 169.5 215.2
212(14) 0.00510 169.5 214.7
200(13) 0.00592 169.6 214.0
201(13) 0.00592 169.6 213.1
215(14) 0.00510 169.7 212.1
207(14) 0.00510 169.8 211.0
196(13) 0.00592 169.8 209.8
207(14) 0.00510 169.9 208.6
227(14) 0.00510 169.9 207.4
211(14) 0.00510 170.0 206.1
215(14) 0.00510 170.1 204.9
193(13) 0.00592 170.1 203.7
199(13) 0.00592 170.2 202.7
218(14) 0.00510 170.2 201.7
195(13) 0.00592 170.3 200.8
192(13) 0.00592 170.4 200.1
197(13) 0.00592 170.4 199.6
174(12) 0.00694 170.5 199.2
183(13) 0.00592 170.6 198.9
188(13) 0.00592 170.6 198.8
190(13) 0.00592 170.7 199.0
193(13) 0.00592 170.7 199.3
188(13) 0.00592 170.8 199.7
200(13) 0.00592 170.9 200.4
217(14) 0.00510 170.9 201.3
171(12) 0.00694 171.0 202.3
183(13) 0.00592 171.1 203.5
188(13) 0.00592 171.1 204.9
204(13) 0.00592 171.2 206.5
193(13) 0.00592 171.3 208.2
199(13) 0.00592 171.3 210.1
212(14) 0.00510 171.4 212.1
213(14) 0.00510 171.4 214.3
198(13) 0.00592 171.5 216.5
217(14) 0.00510 171.6 218.9
231(14) 0.00510 171.6 221.3
230(14) 0.00510 171.7 223.8
246(15) 0.00444 171.8 226.3
236(14) 0.00510 171.8 228.8
233(14) 0.00510 171.9 231.3
253(15) 0.00444 172.0 233.8
257(15) 0.00444 172.0 236.2
241(15) 0.00444 172.1 238.6
232(14) 0.00510 172.2 240.8
233(14) 0.00510 172.2 242.9
232(14) 0.00510 172.3 244.9
276(16) 0.00391 172.4 246.8
242(15) 0.00444 172.5 248.5
251(15) 0.00444 172.5 250.1
253(15) 0.00444 172.6 251.5
247(15) 0.00444 172.7 252.7
206(14) 0.00510 172.7 253.8
245(15) 0.00444 172.8 254.8
260(15) 0.00444 172.9 255.5
271(15) 0.00444 172.9 256.2
242(14) 0.00510 173.0 256.6
253(14) 0.00510 173.1 256.9
256(15) 0.00444 173.1 257.1
269(15) 0.00444 173.2 257.1
244(14) 0.00510 173.3 256.9
253(14) 0.00510 173.4 256.6
260(15) 0.00444 173.4 256.1
281(15) 0.00444 173.5 255.5
278(15) 0.00444 173.6 254.8
249(14) 0.00510 173.6 254.0
244(14) 0.00510 173.7 253.1
251(14) 0.00510 173.8 252.2
253(14) 0.00510 173.9 251.1
236(14) 0.00510 173.9 250.0
218(13) 0.00592 174.0 248.7
233(14) 0.00510 174.1 247.4
223(14) 0.00510 174.1 245.9
226(14) 0.00510 174.2 244.3
253(14) 0.00510 174.3 242.6
256(15) 0.00444 174.4 240.8
242(14) 0.00510 174.4 238.9
258(15) 0.00444 174.5 236.9
263(15) 0.00444 174.6 234.8
228(14) 0.00510 174.7 232.6
233(14) 0.00510 174.7 230.5
237(14) 0.00510 174.8 228.3
228(14) 0.00510 174.9 226.2
193(13) 0.00592 175.0 224.1
224(14) 0.00510 175.0 222.0
219(13) 0.00592 175.1 220.1
230(14) 0.00510 175.2 218.2
211(13) 0.00592 175.3 216.5
206(13) 0.00592 175.3 214.9
219(13) 0.00592 175.4 213.4
209(13) 0.00592 175.5 212.0
228(14) 0.00510 175.5 210.8
199(13) 0.00592 175.6 209.7
218(13) 0.00592 175.7 208.8
194(13) 0.00592 175.8 208.0
203(13) 0.00592 175.9 207.3
211(13) 0.00592 175.9 206.7
189(13) 0.00592 176.0 206.3
205(13) 0.00592 176.1 206.0
217(13) 0.00592 176.2 205.9
224(14) 0.00510 176.2 205.8
217(13) 0.00592 176.3 205.9
207(13) 0.00592 176.4 206.0
193(13) 0.00592 176.5 206.3
221(14) 0.00510 176.5 206.6
202(13) 0.00592 176.6 207.0
194(13) 0.00592 176.7 207.5
233(14) 0.00510 176.8 208.0
206(13) 0.00592 176.8 208.5
214(13) 0.00592 176.9 209.0
222(14) 0.00510 177.0 209.6
225(14) 0.00510 177.1 210.1
211(13) 0.00592 177.2 210.7
200(13) 0.00592 177.2 211.2
218(13) 0.00592 177.3 211.7
205(13) 0.00592 177.4 212.2
208(13) 0.00592 177.5 212.7
210(13) 0.00592 177.5 213.2
239(14) 0.00510 177.6 213.6
233(14) 0.00510 177.7 214.0
226(14) 0.00510 177.8 214.4
198(13) 0.00592 177.9 214.9
211(13) 0.00592 177.9 215.3
218(13) 0.00592 178.0 215.6
203(13) 0.00592 178.1 216.0
222(14) 0.00510 178.2 216.4
229(14) 0.00510 178.2 216.7
213(13) 0.00592 178.3 217.0
224(14) 0.00510 178.4 217.2
217(13) 0.00592 178.5 217.5
242(14) 0.00510 178.6 217.6
214(13) 0.00592 178.6 217.7
219(13) 0.00592 178.7 217.8
229(14) 0.00510 178.8 217.9
231(14) 0.00510 178.9 217.9
212(13) 0.00592 179.0 217.9
226(14) 0.00510 179.0 217.8
225(14) 0.00510 179.1 217.8
220(14) 0.00510 179.2 217.8
204(13) 0.00592 179.3 217.8
241(14) 0.00510 179.3 217.9
207(13) 0.00592 179.4 218.0
210(13) 0.00592 179.5 218.1
216(13) 0.00592 179.6 218.3
203(13) 0.00592 179.7 218.6
253(14) 0.00510 179.7 218.9
215(13) 0.00592 179.8 219.3
234(14) 0.00510 179.9 219.8
207(13) 0.00592 180.0 220.3
229(14) 0.00510 180.1 220.9
201(13) 0.00592 180.1 221.6
214(13) 0.00592 180.2 222.3
230(14) 0.00510 180.3 223.1
234(14) 0.00510 180.4 223.9
242(20) 0.002500 180.5 224.8
218(13) 0.00592 180.5 225.7
209(13) 0.00592 180.6 226.6
258(14) 0.00510 180.7 227.6
250(14) 0.00510 180.8 228.5
230(14) 0.00510 180.9 229.5
245(14) 0.00510 180.9 230.5
235(14) 0.00510 181.0 231.5
234(14) 0.00510 181.1 232.5
219(13) 0.00592 181.2 233.4
217(13) 0.00592 181.3 234.4
244(14) 0.00510 181.4 235.3
253(14) 0.00510 181.4 236.2
232(14) 0.00510 181.5 237.0
214(13) 0.00592 181.6 237.8
235(14) 0.00510 181.7 238.6
248(14) 0.00510 181.8 239.3
249(14) 0.00510 181.8 240.0
255(14) 0.00510 181.9 240.6
256(14) 0.00510 182.0 241.2
254(14) 0.00510 182.1 241.7
257(14) 0.00510 182.2 242.2
264(15) 0.00444 182.2 242.6
235(14) 0.00510 182.3 243.0
227(14) 0.00510 182.4 243.4
237(14) 0.00510 182.5 243.7
251(14) 0.00510 182.6 243.9
233(14) 0.00510 182.6 244.1
256(14) 0.00510 182.7 244.3
237(14) 0.00510 182.8 244.4
241(14) 0.00510 182.9 244.4
248(14) 0.00510 183.0 244.4
252(14) 0.00510 183.1 244.4
243(14) 0.00510 183.1 244.3
270(15) 0.00444 183.2 244.2
251(14) 0.00510 183.3 244.1
243(14) 0.00510 183.4 243.9
242(14) 0.00510 183.5 243.7
234(14) 0.00510 183.5 243.4
244(14) 0.00510 183.6 243.2
266(15) 0.00444 183.7 242.9
253(14) 0.00510 183.8 242.7
251(14) 0.00510 183.9 242.4
252(14) 0.00510 184.0 242.2
229(14) 0.00510 184.0 242.1
247(14) 0.00510 184.1 241.9
249(14) 0.00510 184.2 241.9
227(14) 0.00510 184.3 241.8
237(14) 0.00510 184.4 241.9
241(14) 0.00510 184.4 241.9
260(14) 0.00510 184.5 242.1
252(14) 0.00510 184.6 242.2
237(14) 0.00510 184.7 242.4
229(14) 0.00510 184.8 242.5
237(14) 0.00510 184.9 242.7
242(14) 0.00510 184.9 242.9
228(14) 0.00510 185.0 243.1
238(14) 0.00510 185.1 243.3
242(14) 0.00510 185.2 243.5
261(15) 0.00444 185.3 243.7
246(14) 0.00510 185.4 243.8
258(14) 0.00510 185.4 244.0
271(15) 0.00444 185.5 244.2
264(15) 0.00444 185.6 244.5
262(15) 0.00444 185.7 244.7
264(15) 0.00444 185.8 245.0
253(14) 0.00510 185.9 245.3
251(14) 0.00510 185.9 245.6
247(14) 0.00510 186.0 245.9
228(14) 0.00510 186.1 246.3
223(13) 0.00592 186.2 246.6
248(14) 0.00510 186.3 246.9
238(14) 0.00510 186.4 247.3
227(14) 0.00510 186.4 247.5
243(14) 0.00510 186.5 247.8
269(15) 0.00444 186.6 248.0
252(14) 0.00510 186.7 248.1
256(14) 0.00510 186.8 248.2
258(14) 0.00510 186.9 248.2
221(13) 0.00592 186.9 248.1
242(14) 0.00510 187.0 247.9
247(14) 0.00510 187.1 247.6
228(14) 0.00510 187.2 247.2
266(15) 0.00444 187.3 246.7
264(15) 0.00444 187.4 246.1
251(14) 0.00510 187.4 245.4
246(14) 0.00510 187.5 244.7
220(13) 0.00592 187.6 243.8
244(14) 0.00510 187.7 242.9
253(14) 0.00510 187.8 242.0
206(13) 0.00592 187.9 241.0
248(14) 0.00510 188.0 240.1
262(15) 0.00444 188.0 239.1
229(14) 0.00510 188.1 238.1
232(14) 0.00510 188.2 237.2
231(14) 0.00510 188.3 236.3
243(14) 0.00510 188.4 235.5
257(14) 0.00510 188.5 234.7
250(14) 0.00510 188.6 234.0
248(14) 0.00510 188.6 233.4
231(11) 0.00826 188.7 232.8
221(13) 0.00592 188.8 232.3
209(13) 0.00592 188.9 231.9
220(13) 0.00592 189.0 231.6
221(13) 0.00592 189.1 231.4
239(14) 0.00510 189.2 231.2
248(14) 0.00510 189.3 231.1
217(13) 0.00592 189.3 231.1
235(14) 0.00510 189.4 231.1
249(14) 0.00510 189.5 231.2
237(14) 0.00510 189.6 231.3
251(14) 0.00510 189.7 231.5
238(14) 0.00510 189.8 231.7
237(14) 0.00510 189.9 232.0
242(14) 0.00510 190.0 232.2
222(13) 0.00592 190.0 232.5
221(13) 0.00592 190.1 232.8
226(14) 0.00510 190.2 233.1
222(13) 0.00592 190.3 233.4
220(13) 0.00592 190.4 233.7
223(13) 0.00592 190.5 233.9
231(14) 0.00510 190.6 234.1
225(14) 0.00510 190.7 234.3
230(14) 0.00510 190.8 234.5
242(14) 0.00510 190.9 234.6
240(14) 0.00510 190.9 234.8
255(14) 0.00510 191.0 234.8
259(15) 0.00444 191.1 234.9
231(14) 0.00510 191.2 234.9
218(13) 0.00592 191.3 235.0
224(14) 0.00510 191.4 235.0
230(14) 0.00510 191.5 235.0
254(14) 0.00510 191.6 234.9
250(14) 0.00510 191.7 234.9
230(14) 0.00510 191.8 234.9
229(14) 0.00510 191.9 234.8
238(14) 0.00510 192.0 234.7
243(14) 0.00510 192.1 234.7
235(14) 0.00510 192.2 234.6
220(13) 0.00592 192.2 234.4
231(14) 0.00510 192.3 234.3
219(13) 0.00592 192.4 234.2
233(14) 0.00510 192.5 234.0
239(14) 0.00510 192.6 233.8
245(14) 0.00510 192.7 233.6
253(14) 0.00510 192.8 233.3
253(14) 0.00510 192.9 233.1
229(14) 0.00510 193.0 232.8
222(13) 0.00592 193.1 232.6
225(14) 0.00510 193.2 232.3
232(14) 0.00510 193.3 232.0
232(14) 0.00510 193.4 231.8
227(14) 0.00510 193.5 231.5
212(13) 0.00592 193.6 231.3
247(14) 0.00510 193.7 231.0
242(14) 0.00510 193.8 230.8
234(14) 0.00510 193.9 230.7
237(14) 0.00510 194.0 230.5
230(14) 0.00510 194.1 230.4
240(14) 0.00510 194.2 230.3
228(14) 0.00510 194.3 230.2
205(13) 0.00592 194.4 230.2
225(14) 0.00510 194.5 230.2
228(14) 0.00510 194.6 230.2
237(14) 0.00510 194.7 230.3
226(14) 0.00510 194.8 230.3
221(13) 0.00592 194.9 230.4
216(13) 0.00592 195.0 230.5
218(13) 0.00592 195.2 230.6
228(14) 0.00510 195.3 230.7
221(13) 0.00592 195.4 230.8
231(14) 0.00510 195.5 230.9
226(14) 0.00510 195.6 231.0
240(14) 0.00510 195.7 231.2
237(14) 0.00510 195.8 231.3
226(14) 0.00510 195.9 231.4
217(13) 0.00592 196.0 231.5
213(13) 0.00592 196.1 231.6
206(13) 0.00592 196.3 231.7
231(14) 0.00510 196.4 231.8
244(14) 0.00510 196.5 231.9
217(13) 0.00592 196.6 232.1
238(14) 0.00510 196.7 232.2
246(14) 0.00510 196.8 232.3
219(13) 0.00592 196.9 232.5
224(14) 0.00510 197.1 232.7
232(14) 0.00510 197.2 232.8
222(13) 0.00592 197.3 233.0
218(13) 0.00592 197.4 233.2
241(14) 0.00510 197.5 233.4
223(14) 0.00510 197.6 233.6
223(13) 0.00592 197.8 233.8
218(13) 0.00592 197.9 234.0
220(13) 0.00592 198.0 234.2
239(14) 0.00510 198.1 234.4
238(14) 0.00510 198.3 234.6
216(13) 0.00592 198.4 234.7
219(13) 0.00592 198.5 234.9
219(13) 0.00592 198.6 235.1
230(14) 0.00510 198.8 235.3
248(14) 0.00510 198.9 235.4
233(14) 0.00510 199.0 235.6
244(14) 0.00510 199.1 235.8
262(15) 0.00444 199.3 236.0
253(15) 0.00444 199.4 236.2
241(14) 0.00510 199.5 236.5
230(14) 0.00510 199.7 236.7
237(14) 0.00510 199.8 237.0
232(14) 0.00510 199.9 237.3
231(14) 0.00510 200.1 237.6
239(14) 0.00510 200.2 238.0
228(14) 0.00510 200.4 238.3
257(15) 0.00444 200.5 238.7
241(14) 0.00510 200.6 239.1
252(15) 0.00444 200.8 239.5
245(14) 0.00510 200.9 239.9
269(15) 0.00444 201.1 240.3
258(15) 0.00444 201.2 240.8
232(14) 0.00510 201.3 241.2
233(14) 0.00510 201.5 241.7
245(14) 0.00510 201.6 242.1
236(14) 0.00510 201.8 242.5
217(13) 0.00592 201.9 243.0
242(14) 0.00510 202.1 243.5
250(14) 0.00510 202.2 243.9
255(15) 0.00444 202.4 244.4
258(15) 0.00444 202.5 244.9
260(15) 0.00444 202.7 245.3
249(14) 0.00510 202.9 245.8
233(14) 0.00510 203.0 246.3
258(15) 0.00444 203.2 246.8
266(15) 0.00444 203.3 247.4
249(14) 0.00510 203.5 247.9
246(14) 0.00510 203.7 248.5
241(14) 0.00510 203.8 249.0
232(14) 0.00510 204.0 249.6
260(15) 0.00444 204.2 250.2
255(15) 0.00444 204.3 250.7
243(14) 0.00510 204.5 251.3
256(15) 0.00444 204.7 251.9
280(15) 0.00444 204.8 252.5
264(15) 0.00444 205.0 253.0
264(15) 0.00444 205.2 253.6
251(14) 0.00510 205.4 254.1
243(14) 0.00510 205.5 254.6
247(14) 0.00510 205.7 255.1
246(14) 0.00510 205.9 255.6
264(15) 0.00444 206.1 256.0
263(15) 0.00444 206.3 256.4
251(14) 0.00510 206.4 256.8
270(15) 0.00444 206.6 257.1
264(15) 0.00444 206.8 257.4
280(15) 0.00444 207.0 257.6
252(15) 0.00444 207.2 257.9
276(15) 0.00444 207.4 258.1
282(15) 0.00444 207.6 258.2
278(15) 0.00444 207.8 258.4
254(15) 0.00444 208.0 258.5
231(14) 0.00510 208.2 258.5
253(15) 0.00444 208.4 258.6
263(15) 0.00444 208.6 258.6
271(15) 0.00444 208.8 258.5
276(15) 0.00444 209.0 258.4
260(15) 0.00444 209.2 258.3
254(15) 0.00444 209.4 258.2
255(15) 0.00444 209.6 258.0
238(14) 0.00510 209.9 257.8
242(14) 0.00510 210.1 257.6
235(14) 0.00510 210.3 257.3
256(15) 0.00444 210.5 257.1
258(15) 0.00444 210.7 256.7
257(15) 0.00444 211.0 256.4
262(15) 0.00444 211.2 256.0
262(15) 0.00444 211.4 255.7
241(14) 0.00510 211.6 255.3
271(15) 0.00444 211.9 254.9
263(15) 0.00444 212.1 254.5
242(14) 0.00510 212.4 254.1
261(15) 0.00444 212.6 253.7
251(14) 0.00510 212.8 253.3
248(14) 0.00510 213.1 252.9
247(14) 0.00510 213.3 252.6
243(14) 0.00510 213.6 252.2
252(15) 0.00444 213.8 251.9
265(15) 0.00444 214.1 251.6
274(15) 0.00444 214.3 251.3
269(15) 0.00444 214.6 251.0
238(14) 0.00510 214.8 250.8
239(14) 0.00510 215.1 250.6
251(14) 0.00510 215.4 250.4
261(15) 0.00444 215.6 250.3
245(14) 0.00510 215.9 250.1
232(14) 0.00510 216.2 250.0
247(14) 0.00510 216.5 250.0
256(15) 0.00444 216.7 249.9
241(14) 0.00510 217.0 249.9
244(14) 0.00510 217.3 249.9
236(14) 0.00510 217.6 250.0
246(14) 0.00510 217.9 250.1
245(14) 0.00510 218.2 250.2
255(15) 0.00444 218.4 250.3
247(15) 0.00444 218.7 250.5
232(14) 0.00510 219.0 250.7
252(15) 0.00444 219.3 251.0
254(15) 0.00444 219.6 251.2
236(14) 0.00510 219.9 251.6
257(15) 0.00444 220.3 251.9
249(15) 0.00444 220.6 252.3
239(14) 0.00510 220.9 252.7
262(15) 0.00444 221.2 253.2
263(15) 0.00444 221.5 253.7
240(15) 0.00444 221.8 254.2
231(14) 0.00510 222.2 254.8
248(15) 0.00444 222.5 255.4
271(15) 0.00444 222.8 256.0
284(16) 0.00391 223.2 256.7
283(16) 0.00391 223.5 257.4
274(15) 0.00444 223.9 258.1
274(15) 0.00444 224.2 258.9
264(15) 0.00444 224.6 259.7
267(15) 0.00444 224.9 260.5
267(15) 0.00444 225.3 261.3
264(15) 0.00444 225.6 262.1
263(15) 0.00444 226.0 263.0
246(15) 0.00444 226.3 263.9
284(16) 0.00391 226.7 264.7
288(16) 0.00391 227.1 265.6
252(15) 0.00444 227.5 266.5
262(15) 0.00444 227.8 267.3
265(15) 0.00444 228.2 268.2
269(15) 0.00444 228.6 269.0
265(15) 0.00444 229.0 269.8
269(15) 0.00444 229.4 270.6
286(16) 0.00391 229.8 271.4
274(15) 0.00444 230.2 272.2
254(15) 0.00444 230.6 272.9
272(15) 0.00444 231.0 273.6
274(15) 0.00444 231.4 274.2
288(16) 0.00391 231.8 274.9
284(16) 0.00391 232.3 275.5
270(15) 0.00444 232.7 276.0
272(15) 0.00444 233.1 276.5
289(16) 0.00391 233.5 277.0
295(16) 0.00391 234.0 277.5
279(16) 0.00391 234.4 277.9
270(15) 0.00444 234.9 278.3
270(15) 0.00444 235.3 278.7
263(15) 0.00444 235.8 279.0
267(15) 0.00444 236.2 279.3
267(15) 0.00444 236.7 279.6
269(15) 0.00444 237.2 279.9
275(15) 0.00444 237.6 280.1
266(15) 0.00444 238.1 280.3
288(16) 0.00391 238.6 280.5
286(16) 0.00391 239.1 280.7
275(16) 0.00391 239.5 280.8
274(15) 0.00444 240.0 281.0
290(16) 0.00391 240.5 281.1
277(16) 0.00391 241.0 281.2
268(15) 0.00444 241.5 281.3
272(15) 0.00444 242.1 281.4
274(15) 0.00444 242.6 281.5
297(16) 0.00391 243.1 281.6
292(16) 0.00391 243.6 281.7
275(15) 0.00444 244.1 281.7
278(16) 0.00391 244.7 281.8
284(16) 0.00391 245.2 281.8
289(16) 0.00391 245.8 281.9
285(16) 0.00391 246.3 281.9
292(16) 0.00391 246.9 282.0
281(16) 0.00391 247.4 282.0
262(15) 0.00444 248.0 282.1
269(15) 0.00444 248.6 282.1
278(16) 0.00391 249.1 282.2
257(15) 0.00444 249.7 282.3
254(15) 0.00444 250.3 282.4
257(15) 0.00444 250.9 282.5
278(16) 0.00391 251.5 282.6
296(16) 0.00391 252.1 282.7
297(16) 0.00391 252.7 282.8
291(16) 0.00391 253.3 283.0
271(15) 0.00444 253.9 283.2
270(15) 0.00444 254.5 283.4
273(15) 0.00444 255.2 283.6
267(15) 0.00444 255.8 283.9
286(16) 0.00391 256.4 284.2
303(16) 0.00391 257.1 284.5
276(16) 0.00391 257.7 284.9
272(15) 0.00444 258.4 285.3
271(15) 0.00444 259.1 285.7
274(15) 0.00444 259.7 286.1
289(16) 0.00391 260.4 286.6
297(16) 0.00391 261.1 287.1
275(15) 0.00444 261.8 287.6
300(16) 0.00391 262.5 288.2
273(15) 0.00444 263.2 288.8
294(16) 0.00391 263.9 289.5
282(16) 0.00391 264.6 290.1
281(16) 0.00391 265.3 290.9
301(16) 0.00391 266.0 291.6
289(13) 0.00592 266.8 292.4
284(16) 0.00391 267.5 293.2
283(16) 0.00391 268.2 294.0
276(16) 0.00391 269.0 294.9
291(16) 0.00391 269.7 295.7
293(17) 0.003460 270.5 296.7
295(17) 0.003460 271.3 297.6
306(17) 0.003460 272.1 298.6
301(17) 0.003460 272.8 299.6
299(17) 0.003460 273.6 300.6
308(17) 0.003460 274.4 301.7
315(17) 0.003460 275.2 302.8
297(17) 0.003460 276.0 303.9
296(17) 0.003460 276.9 305.0
295(17) 0.003460 277.7 306.2
314(17) 0.003460 278.5 307.4
310(17) 0.003460 279.4 308.6
314(17) 0.003460 280.2 309.8
300(17) 0.003460 281.1 311.1
299(17) 0.003460 281.9 312.4
333(17) 0.003460 282.8 313.7
321(17) 0.003460 283.7 315.0
319(17) 0.003460 284.6 316.4
338(18) 0.003086 285.4 317.8
327(17) 0.003460 286.3 319.2
320(17) 0.003460 287.3 320.6
318(17) 0.003460 288.2 322.0
317(17) 0.003460 289.1 323.5
338(18) 0.003086 290.0 324.9
331(17) 0.003460 291.0 326.4
322(17) 0.003460 291.9 327.9
340(18) 0.003086 292.9 329.5
347(18) 0.003086 293.8 331.0
343(18) 0.003086 294.8 332.5
348(18) 0.003086 295.8 334.1
371(18) 0.003086 296.8 335.7
350(18) 0.003086 297.8 337.3
343(18) 0.003086 298.8 338.9
355(18) 0.003086 299.8 340.5
347(18) 0.003086 300.8 342.1
341(18) 0.003086 301.8 343.7
345(18) 0.003086 302.9 345.3
349(18) 0.003086 303.9 346.9
366(18) 0.003086 305.0 348.6
386(19) 0.002770 306.0 350.2
360(18) 0.003086 307.1 351.9
367(18) 0.003086 308.2 353.5
394(19) 0.002770 309.3 355.1
382(19) 0.002770 310.4 356.8
372(18) 0.003086 311.5 358.4
369(18) 0.003086 312.6 360.1
363(18) 0.003086 313.7 361.7
360(18) 0.003086 314.9 363.3
360(18) 0.003086 316.0 364.9
386(19) 0.002770 317.2 366.6
374(18) 0.003086 318.3 368.2
361(18) 0.003086 319.5 369.8
360(18) 0.003086 320.7 371.4
378(18) 0.003086 321.9 372.9
358(18) 0.003086 323.1 374.5
364(18) 0.003086 324.3 376.0
396(19) 0.002770 325.5 377.6
387(19) 0.002770 326.8 379.1
350(18) 0.003086 328.0 380.6
356(18) 0.003086 329.3 382.0
394(19) 0.002770 330.5 383.5
388(19) 0.002770 331.8 384.9
390(19) 0.002770 333.1 386.3
406(19) 0.002770 334.4 387.6
403(19) 0.002770 335.7 389.0
390(19) 0.002770 337.0 390.3
367(18) 0.003086 338.3 391.6
379(18) 0.003086 339.7 392.8
390(19) 0.002770 341.0 394.1
399(19) 0.002770 342.4 395.3
403(19) 0.002770 343.7 396.5
391(19) 0.002770 345.1 397.7
399(19) 0.002770 346.5 398.8
395(19) 0.002770 347.9 399.9
384(19) 0.002770 349.3 401.0
434(20) 0.002500 350.7 402.1
434(20) 0.002500 352.2 403.2
387(19) 0.002770 353.6 404.2
390(19) 0.002770 355.1 405.3
393(19) 0.002770 356.5 406.3
399(19) 0.002770 358.0 407.3
405(19) 0.002770 359.5 408.4
406(19) 0.002770 361.0 409.4
411(19) 0.002770 362.5 410.4
401(19) 0.002770 364.0 411.4
412(19) 0.002770 365.6 412.4
418(19) 0.002770 367.1 413.5
417(19) 0.002770 368.7 414.5
419(19) 0.002770 370.3 415.5
413(19) 0.002770 371.9 416.5
410(19) 0.002770 373.4 417.6
406(19) 0.002770 375.1 418.7
406(19) 0.002770 376.7 419.7
412(19) 0.002770 378.3 420.8
391(19) 0.002770 380.0 421.9
436(20) 0.002500 381.6 423.0
448(20) 0.002500 383.3 424.2
453(21) 0.002268 385.0 425.3
428(20) 0.002500 386.7 426.5
428(20) 0.002500 388.4 427.7
434(20) 0.002500 390.1 428.9
455(21) 0.002268 391.9 430.1
456(21) 0.002268 393.6 431.4
422(20) 0.002500 395.4 432.6
439(20) 0.002500 397.1 433.9
415(20) 0.002500 398.9 435.2
432(20) 0.002500 400.7 436.6
463(21) 0.002268 402.6 437.9
457(21) 0.002268 404.4 439.3
441(20) 0.002500 406.2 440.7
440(20) 0.002500 408.1 442.1
432(20) 0.002500 410.0 443.6
430(20) 0.002500 411.8 445.1
438(20) 0.002500 413.7 446.6
434(20) 0.002500 415.7 448.1
462(21) 0.002268 417.6 449.6
439(20) 0.002500 419.5 451.2
450(21) 0.002268 421.5 452.8
452(21) 0.002268 423.5 454.4
478(21) 0.002268 425.4 456.1
459(21) 0.002268 427.4 457.7
444(20) 0.002500 429.5 459.4
468(21) 0.002268 431.5 461.1
468(21) 0.002268 433.5 462.9
434(20) 0.002500 435.6 464.6
459(21) 0.002268 437.7 466.4
479(21) 0.002268 439.7 468.2
476(21) 0.002268 441.8 470.1
463(21) 0.002268 444.0 471.9
446(20) . . .
489(21) . . .
479(21) . . .
504(22) . . .
459(21) . . .
465(21) . . .
486(21) . . .
480(21) . . .
505(22) . . .
488(21) . . .
488(21) . . .
498(21) . . .
505(22) . . .
484(21) . . .
481(21) . . .
506(22) . . .
513(22) . . .
515(22) . . .
513(22) . . .
509(22) . . .
519(22) . . .
515(22) . . .
543(22) . . .
545(22) . . .
534(22) . . .
540(22) . . .
554(23) . . .
558(23) . . .
552(22) . . .
516(22) . . .
518(22) . . .
554(23) . . .
560(23) . . .
563(23) . . .
559(23) . . .
565(23) . . .
549(22) . . .
579(23) . . .
567(23) . . .
554(23) . . .
559(23) . . .
586(23) . . .
569(23) . . .
601(23) . . .
569(23) . . .
538(22) . . .
567(23) . . .
577(23) . . .
579(23) . . .
599(23) . . .
618(24) . . .
608(23) . . .
605(23) . . .
614(24) . . .
608(23) . . .
622(24) . . .
648(24) . . .
625(24) . . .
638(24) . . .
635(24) . . .
643(24) . . .
633(24) . . .
627(24) . . .
627(24) . . .
627(24) . . .
641(24) . . .
654(35) . . .
666(35) . . .
664(35) . . .
618(34) . . .
635(34) . . .
596(33) . . .
644(35) . . .
660(35) . . .
719(36) . . .
689(36) . . .
672(35) . . .
737(37) . . .
721(36) . . .
745(37) . . .
726(36) . . .
690(36) . . .
697(36) . . .
740(37) . . .
703(36) . . .
681(35) . . .
702(36) . . .
668(35) . . .
712(36) . . .
689(36) . . .
701(36) . . .
705(36) . . .
737(37) . . .
727(36) . . .
716(36) . . .
698(36) . . .
748(37) . . .
709(36) . . .
726(36) . . .
751(37) . . .
804(38) . . .
794(38) . . .
765(37) . . .
717(36) . . .
735(37) . . .
785(38) . . .
790(38) . . .
797(38) . . .
786(38) . . .
795(38) . . .
836(39) . . .
782(38) . . .
807(38) . . .
813(38) . . .
775(38) . . .
817(38) . . .
809(38) . . .
824(39) . . .
839(39) . . .
849(39) . . .
833(39) . . .
854(39) . . .
858(39) . . .
836(39) . . .
878(40) . . .
833(39) . . .
882(40) . . .
842(39) . . .
851(39) . . .
909(40) . . .
817(38) . . .
875(40) . . .
864(39) . . .
871(40) . . .
883(40) . . .
860(39) . . .
901(40) . . .
868(40) . . .
881(40) . . .
910(40) . . .
899(40) . . .
876(40) . . .
886(40) . . .
886(40) . . .
891(40) . . .
903(40) . . .
894(40) . . .
921(41) . . .
885(40) . . .
940(41) . . .
940(41) . . .
958(41) . . .
908(40) . . .
949(41) . . .
934(41) . . .
968(42) . . .
969(42) . . .
943(41) . . .
1014(42) . . .
973(42) . . .
935(41) . . .
920(41) . . .
968(42) . . .
960(41) . . .
942(41) . . .
982(42) . . .
loop_
_refln_index_h
_refln_index_k
_refln_index_l
_refln_observed_status
_refln_F_squared_meas
_refln_F_squared_calc
_refln_phase_calc
_refln_d_spacing
_gsas_i100_meas
1 1 0 o 822.431 846.599 -180.00 12.94619 100.00
3 0 0 o 95.982 83.720 -59.52 7.47449 3.92
1 0 1 o 130.623 117.307 69.61 6.51746 4.06
2 2 0 o 24.292 23.230 180.00 6.47310 0.75
2 0 -1 o 445.086 372.647 135.30 5.82139 11.09
2 1 1 o 67.587 50.772 -22.98 5.30932 2.81
4 1 0 o 52.154 34.002 -69.88 4.89320 1.85
3 1 -1 o 126.004 133.254 -61.65 4.59277 3.95
4 0 1 o 522.138 515.265 -122.57 4.32847 7.29
3 3 0 o 184.298 175.287 -180.00 4.31540 2.56
3 2 1 o 34.731 54.008 171.33 4.10510 0.87
5 0 -1 o 303.499 341.431 36.27 3.74572 3.20
6 0 0 o 211.292 226.329 -82.42 3.73724 2.22
4 2 -1 o 247.711 236.204 -168.20 3.59815 4.84
5 2 0 o 328.636 317.564 -40.25 3.59063 6.40
5 1 1 o 575.912 592.560 40.71 3.46674 10.49
1 0 -2 o 8.128 23.723 -3.03 3.36714 0.07
2 0 2 o 12.286 6.824 72.16 3.25873 0.10
4 3 1 o 29.976 21.155 -19.93 3.24205 0.48
4 4 0 o 127.932 93.628 0.00 3.23655 1.02
2 1 -2 o 406.283 381.987 -176.13 3.16015 6.21
6 1 -1 o 8.779 10.148 -41.48 3.05606 0.13
3 1 2 o 410.247 357.972 45.45 2.98717 5.65
7 1 0 o 1959.985 1841.260 125.27 2.97006 26.69
4 0 -2 o 891.490 839.290 48.18 2.91069 5.85
5 3 -1 o 128.844 119.970 89.16 2.89879 1.68
7 0 1 o 726.864 676.799 -160.83 2.89879 4.73
3 2 -2 o 287.274 266.808 101.65 2.83981 3.60
6 2 1 o 456.071 415.348 -153.94 2.82875 5.67
6 3 0 o 138.048 123.102 -64.55 2.82509 1.71
5 0 2 o 1043.273 872.365 -10.94 2.71230 6.01
4 2 2 o 37.623 34.591 -165.44 2.65466 0.42
5 4 1 o 439.220 417.907 32.10 2.64562 4.83
5 1 -2 o 66.432 64.189 -60.76 2.60055 0.71
8 0 -1 o 312.954 286.534 -5.73 2.59205 1.66
5 5 0 o 230.843 211.728 0.00 2.58924 1.22
7 2 -1 o 425.634 423.151 -168.05 2.54161 4.36
4 3 -2 o 238.422 223.550 -101.86 2.50157 2.37
9 0 0 o 321.117 323.783 -26.64 2.49150 1.59
8 1 1 o 430.207 445.013 -11.15 2.44897 4.12
8 2 0 o 115.701 116.297 -61.57 2.44660 1.11
6 1 2 o 13.876 15.122 -179.77 2.41310 0.13
6 4 -1 o 145.000 148.038 15.28 2.40630 1.35
7 3 1 o 83.037 89.129 122.04 2.36578 0.75
7 0 -2 o 667.428 642.424 87.34 2.33339 2.93
5 3 2 o 773.783 744.793 -171.76 2.33339 6.80
7 4 0 o 25.259 23.299 -153.20 2.32520 0.22
6 2 -2 o 62.391 82.206 -133.79 2.29639 0.53
0 0 3 o 3143.716 3175.120 92.81 2.27051 4.39
1 1 3 o 273.329 240.603 -76.03 2.23637 2.23
6 5 1 o 278.127 221.604 -110.90 2.22203 2.25
9 1 -1 o 81.357 64.823 16.83 2.22203 0.66
5 4 -2 o 201.833 186.471 -63.18 2.19512 1.60
3 0 3 o 20.093 20.409 168.86 2.17249 0.08
3 0 -3 o 10.068 10.227 90.86 2.17249 0.04
8 0 2 o 31.340 27.595 -84.66 2.16423 0.12
8 3 -1 o 198.737 170.926 -163.36 2.15933 1.53
6 6 0 o 192.597 165.658 -180.00 2.15770 0.74
2 2 3 o 369.128 323.434 133.13 2.14253 2.80
7 2 2 o 71.157 60.243 51.93 2.13461 0.54
10 0 1 o 783.676 699.793 71.79 2.12990 2.94
10 1 0 o 9.855 9.104 120.48 2.12834 0.07
9 2 1 o 538.488 533.245 -154.97 2.10165 3.96
8 1 -2 o 362.516 340.263 -83.75 2.07884 2.62
9 3 0 o 46.456 43.056 -166.28 2.07305 0.33
7 5 -1 o 35.886 33.956 -161.42 2.04836 0.25
4 1 3 o 207.595 200.246 -26.76 2.05958 1.48
4 1 -3 o 230.321 222.167 16.99 2.05958 1.64
6 4 2 o 519.229 490.824 -26.31 2.05255 3.67
7 3 -2 o 578.406 560.463 91.35 2.02723 4.00
8 4 1 o 100.127 96.337 71.60 2.02319 0.69
3 3 3 o 85.486 84.121 -163.82 2.00936 0.58
8 5 0 o 20.246 44.800 -171.58 1.97428 0.13
11 0 -1 o 21.464 43.517 61.56 1.95292 0.07
6 0 -3 o 170.586 203.800 -102.27 1.94046 0.55
6 0 3 o 84.145 100.529 106.59 1.94046 0.27
9 1 2 o 109.564 122.430 -69.11 1.93458 0.70
6 5 -2 o 135.076 150.937 -132.39 1.93458 0.87
10 2 -1 o 47.445 52.644 -148.24 1.93107 0.30
7 6 1 o 4.449 5.963 71.63 1.90994 0.03
5 2 3 o 35.400 42.363 45.96 1.91903 0.22
5 2 -3 o 285.549 341.707 175.33 1.91903 1.81
8 3 2 o 78.966 80.699 -172.54 1.89277 0.49
10 0 -2 o 645.015 644.895 43.84 1.87286 1.97
11 1 1 o 198.122 195.773 -19.94 1.86968 1.20
9 4 -1 o 121.765 120.321 -17.87 1.86968 0.74
12 0 0 o 1.010 0.999 -134.47 1.86862 0.00
4 4 3 o 26.829 25.484 -8.20 1.85874 0.16
9 2 -2 o 88.756 78.779 -50.81 1.85357 0.53
7 7 0 o 31.597 24.701 0.00 1.84946 0.09
11 2 0 o 20.910 16.347 -17.26 1.84946 0.13
10 3 1 o 29.341 26.120 -84.23 1.83186 0.17
7 1 3 o 229.739 242.188 -133.12 1.80380 1.32
7 1 -3 o 114.442 120.643 39.77 1.80380 0.66
7 5 2 o 85.353 88.390 113.85 1.81670 0.50
8 4 -2 o 237.143 235.177 88.02 1.79907 1.36
10 4 0 o 34.360 34.011 -80.53 1.79531 0.20
8 6 -1 o 100.077 83.852 35.60 1.77921 0.56
6 3 3 o 20.996 17.631 -22.40 1.76977 0.12
6 3 -3 o 40.551 34.053 -7.26 1.76977 0.23
9 5 1 o 61.328 48.035 -34.41 1.76264 0.34
11 0 2 o 1117.041 941.964 130.72 1.74912 3.07
10 2 2 o 246.188 227.170 -30.19 1.73337 1.34
12 1 -1 o 19.883 18.847 165.32 1.73085 0.11
9 6 0 o 228.161 223.521 -23.96 1.71476 1.22
5 5 3 o 105.947 100.984 61.74 1.70712 0.56
7 6 -2 o 7.576 8.162 -178.02 1.71804 0.04
11 3 -1 o 118.564 107.155 12.00 1.70071 0.63
1 0 4 o 185.842 160.854 -72.64 1.69799 0.49
9 4 2 o 291.556 275.513 45.66 1.68856 1.53
11 1 -2 o 402.595 380.441 -144.12 1.68856 2.11
2 0 -4 o 83.006 83.362 -1.79 1.68357 0.22
9 0 -3 o 180.714 188.660 70.43 1.67819 0.47
9 0 3 o 162.745 169.900 35.48 1.67819 0.42
13 0 1 o 236.575 240.052 -162.45 1.67210 0.61
8 7 1 o 235.520 238.982 138.05 1.67210 1.22
2 1 4 o 198.124 198.219 132.37 1.66951 1.02
8 2 -3 o 323.820 320.711 -108.90 1.66427 1.66
8 2 3 o 115.904 114.792 108.98 1.66427 0.59
10 3 -2 o 91.589 91.972 168.64 1.66055 0.47
12 2 1 o 453.969 457.814 149.86 1.65833 2.32
13 1 0 o 136.048 137.036 26.75 1.65759 0.69
10 5 -1 o 82.933 64.715 39.66 1.64489 0.42
12 3 0 o 108.488 91.642 149.40 1.63107 0.54
3 1 -4 o 34.106 25.815 -138.17 1.64242 0.17
4 0 4 o 253.380 219.364 -60.60 1.62936 0.63
7 4 -3 o 189.002 171.978 123.63 1.62448 0.94
7 4 3 o 21.205 19.295 -130.23 1.62448 0.11
8 6 2 o 101.619 92.812 -65.93 1.62103 0.50
11 4 1 o 141.800 130.768 3.57 1.61896 0.70
8 8 0 o 7.968 7.371 -180.00 1.61827 0.02
3 2 4 o 41.102 38.247 -63.95 1.61661 0.20
9 5 -2 o 37.252 30.590 7.60 1.60847 0.18
5 0 -4 o 319.846 287.016 -5.94 1.59198 0.77
12 1 2 o 50.920 49.043 179.92 1.58420 0.24
9 7 -1 o 144.848 142.073 -141.78 1.57058 0.69
11 5 0 o 146.417 139.481 118.56 1.58163 0.70
4 2 -4 o 1.671 1.605 -65.49 1.58008 0.01
5 1 4 o 175.499 172.726 118.91 1.56844 0.83
6 6 3 o 19.345 19.379 -28.71 1.56408 0.09
11 3 2 o 182.513 188.436 -173.31 1.56100 0.86
10 6 1 o 0.783 0.826 -141.85 1.55915 0.00
14 0 -1 o 170.938 180.258 23.33 1.55915 0.40
10 1 3 o 149.702 161.675 -63.41 1.55279 0.70
10 1 -3 o 13.849 14.957 64.25 1.55279 0.06
13 2 -1 o 135.286 143.408 -141.35 1.54797 0.63
4 3 4 o 80.000 82.127 -135.67 1.54591 0.37
8 7 -2 o 1.550 1.483 134.01 1.53878 0.01
13 0 -2 o 196.169 187.673 38.52 1.53878 0.46
9 3 3 o 60.116 48.879 143.01 1.53092 0.28
9 3 -3 o 14.840 12.066 -133.63 1.53092 0.07
12 2 -2 o 60.500 49.107 89.72 1.52803 0.28
6 1 -4 o 25.654 23.616 159.12 1.52433 0.12
10 5 2 o 83.223 78.866 17.52 1.51749 0.38
14 1 1 o 500.579 434.598 -9.55 1.50552 2.27
12 4 -1 o 239.525 220.049 -173.68 1.51580 1.09
10 7 0 o 0.852 0.775 115.08 1.51524 0.00
7 0 4 o 220.542 195.156 -41.95 1.50363 0.50
5 3 -4 o 53.702 47.521 -35.05 1.50363 0.24
11 4 -2 o 290.935 272.724 -19.09 1.49707 1.31
15 0 0 o 168.694 160.861 -101.72 1.49490 0.38
6 2 4 o 37.683 36.347 -121.51 1.49359 0.17
8 5 -3 o 28.582 28.825 50.80 1.48982 0.13
8 5 3 o 13.035 13.146 14.80 1.48982 0.06
13 3 1 o 286.069 288.972 -98.38 1.48556 1.28
9 8 1 o 307.269 310.387 -66.62 1.48556 1.37
14 2 0 o 65.436 65.402 -127.69 1.48503 0.29
5 4 4 o 146.486 148.725 -18.76 1.46463 0.64
9 7 2 o 123.250 120.670 158.74 1.45857 0.54
11 6 -1 o 64.197 66.040 75.74 1.46638 0.28
13 4 0 o 101.186 100.529 49.08 1.45656 0.44
8 0 -4 o 142.972 143.582 -138.07 1.45535 0.31
10 6 -2 o 127.019 126.332 -113.00 1.44940 0.55
14 0 2 o 283.888 282.351 -19.61 1.44940 0.62
12 5 1 o 588.218 586.793 110.54 1.44792 2.56
7 2 -4 o 91.713 91.967 140.14 1.44624 0.40
12 0 3 o 255.814 254.652 94.65 1.44282 0.56
12 0 -3 o 93.885 93.459 -138.98 1.44282 0.20
13 2 2 o 115.510 113.349 33.05 1.44040 0.50
9 9 0 o 20.168 19.500 0.00 1.43847 0.04
7 7 3 o 192.477 182.835 161.87 1.43394 0.83
11 2 3 o 102.890 97.736 177.78 1.43394 0.44
11 2 -3 o 47.957 45.554 87.98 1.43394 0.21
6 4 -4 o 5.234 5.906 60.98 1.41990 0.02
8 1 4 o 269.774 289.542 58.66 1.42852 1.16
12 4 2 o 206.613 215.093 -91.90 1.41437 0.88
15 1 -1 o 13.677 13.959 59.70 1.41300 0.06
12 6 0 o 243.420 246.805 -129.56 1.41255 1.04
7 3 4 o 344.705 344.700 177.29 1.41144 1.47
10 4 3 o 255.732 256.101 -43.81 1.40826 1.09
10 4 -3 o 89.314 89.443 -56.92 1.40826 0.38
14 1 -2 o 52.653 54.939 -116.46 1.40601 0.22
10 8 -1 o 70.026 75.219 -87.83 1.40466 0.30
11 7 1 o 218.612 235.807 -90.59 1.39646 0.92
14 3 -1 o 82.541 89.033 29.79 1.39646 0.35
13 3 -2 o 27.525 23.853 -116.97 1.38971 0.12
9 8 -2 o 21.227 18.395 110.12 1.38971 0.09
6 5 4 o 259.503 225.742 10.96 1.37904 1.09
9 1 -4 o 52.937 46.050 -22.52 1.37904 0.22
11 6 2 o 92.954 85.414 -164.64 1.37397 0.39
16 0 1 o 136.351 127.081 153.60 1.37271 0.28
9 6 3 o 47.461 44.882 -60.11 1.36837 0.20
9 6 -3 o 9.157 8.660 73.91 1.36837 0.04
15 2 1 o 252.866 245.999 129.40 1.36506 1.05
13 5 -1 o 22.831 22.211 -78.29 1.36506 0.09
8 3 -4 o 14.524 14.380 21.21 1.36365 0.06
1 0 -5 o 8.209 8.060 -55.32 1.35980 0.02
12 5 -2 o 183.211 176.986 99.92 1.35875 0.76
11 8 0 o 85.602 80.742 109.67 1.35713 0.35
16 1 0 o 38.849 36.644 122.52 1.35713 0.16
9 2 4 o 760.210 717.041 -21.14 1.34877 3.14
10 0 4 o 1049.096 978.472 -157.69 1.35615 2.17
2 1 -5 o 64.923 65.887 105.22 1.34504 0.27
2 0 5 o 15.354 14.174 58.45 1.35236 0.03
14 4 1 o 70.604 74.808 -23.36 1.34285 0.29
15 3 0 o 4.359 4.641 -149.33 1.34246 0.02
13 1 3 o 15.990 17.095 -68.56 1.33878 0.07
13 1 -3 o 52.943 56.603 -22.20 1.33878 0.22
10 9 1 o 127.371 134.268 74.31 1.33568 0.52
7 5 -4 o 200.974 211.584 -155.48 1.33436 0.82
3 1 5 o 55.482 57.704 159.33 1.33075 0.23
15 1 2 o 162.497 167.421 171.66 1.32977 0.67
8 4 4 o 499.775 497.470 178.18 1.32733 2.05
8 8 3 o 165.630 149.991 74.38 1.31781 0.68
12 3 3 o 38.813 37.437 20.72 1.32469 0.16
12 3 -3 o 73.065 70.474 -161.17 1.32469 0.30
3 2 -5 o 45.819 41.159 -35.39 1.31691 0.19
11 7 -2 o 23.669 21.120 -158.79 1.31596 0.10
14 3 2 o 30.094 26.853 -149.25 1.31596 0.12
4 0 -5 o 33.133 31.709 -77.17 1.32378 0.07
10 8 2 o 65.339 62.031 34.47 1.32281 0.27
14 5 0 o 46.566 41.327 18.90 1.31449 0.19
12 7 -1 o 38.431 36.139 -48.69 1.32169 0.16
13 6 1 o 94.806 88.409 -13.85 1.30813 0.39
11 0 -4 o 79.150 75.130 30.46 1.30688 0.16
5 0 5 o 431.810 420.754 19.99 1.30349 0.88
10 2 -4 o 88.617 86.140 171.29 1.30028 0.36
11 5 3 o 250.414 246.392 123.10 1.29779 1.02
11 5 -3 o 63.243 62.227 78.41 1.29779 0.26
5 1 -5 o 52.328 51.848 25.87 1.29047 0.21
15 2 -2 o 71.181 70.284 143.11 1.28958 0.29
13 5 2 o 106.619 105.276 56.91 1.28958 0.43
4 2 5 o 76.161 75.425 -116.71 1.29693 0.31
16 2 -1 o 129.805 127.601 -88.17 1.28854 0.53
16 0 -2 o 252.675 251.710 22.51 1.29603 0.51
17 0 -1 o 172.463 172.478 154.05 1.29497 0.35
10 10 0 o 225.006 225.139 0.00 1.29462 0.46
7 6 4 o 27.755 27.766 -100.79 1.29377 0.11
9 4 -4 o 116.438 107.127 -28.94 1.28104 0.47
11 1 4 o 236.825 217.888 82.49 1.28104 0.96
4 3 -5 o 124.357 111.479 -152.97 1.27784 0.50
13 7 0 o 179.352 157.677 20.13 1.27563 0.73
10 3 4 o 87.929 75.061 -132.56 1.26868 0.36
6 1 5 o 43.480 38.437 169.20 1.26557 0.18
10 9 -2 o 1.655 1.490 -25.18 1.26473 0.01
12 8 1 o 191.296 175.651 166.85 1.26375 0.78
14 4 -2 o 183.693 157.291 -44.49 1.27081 0.75
11 9 -1 o 269.702 230.278 103.44 1.26981 1.09
15 4 -1 o 8.776 7.493 -92.24 1.26981 0.04
10 7 -3 o 1.714 1.576 107.58 1.26035 0.01
10 7 3 o 67.599 62.156 -56.71 1.26035 0.27
17 1 1 o 43.838 38.726 -66.86 1.25777 0.18
15 0 3 o 123.844 115.147 27.91 1.24857 0.25
15 0 -3 o 134.169 124.747 133.55 1.24857 0.27
6 2 -5 o 20.031 18.851 73.11 1.24781 0.08
15 6 -3 o 61.205 61.775 139.47 1.05878 0.52
15 6 3 o 124.960 126.123 -68.16 1.05878 1.05
7 0 -5 o 183.292 157.734 -160.89 1.25365 0.37
5 3 5 o 159.149 136.957 -8.95 1.25365 0.65
16 3 1 o 80.400 77.239 -74.54 1.24606 0.33
12 7 2 o 33.126 28.716 18.31 1.25283 0.13
18 0 0 o 139.871 134.638 2.97 1.24575 0.28
9 5 4 o 494.620 477.163 36.26 1.24499 2.01
8 6 -4 o 57.677 51.630 4.56 1.25079 0.23
14 2 3 o 10.796 10.273 -165.05 1.24281 0.04
14 2 -3 o 93.948 89.394 -35.68 1.24281 0.38
13 6 -2 o 2.951 2.732 -17.14 1.24126 0.01
14 6 -1 o 174.051 157.642 134.76 1.24033 0.71
17 2 0 o 85.546 76.850 -126.66 1.24002 0.35
7 1 -6 o 78.915 79.057 66.20 1.06043 0.64
7 1 6 o 17.955 17.987 76.34 1.06043 0.15
5 4 -5 o 107.666 95.417 151.68 1.23078 0.44
17 0 2 o 70.894 65.361 -1.06 1.23000 0.14
12 9 0 o 738.616 720.303 -141.82 1.22880 3.02
12 1 -4 o 9.572 7.605 156.07 1.23363 0.04
10 5 5 o 77.796 77.355 84.02 1.06186 0.61
13 4 3 o 122.942 128.965 -170.23 1.22598 0.50
13 4 -3 o 62.240 65.288 116.88 1.22598 0.25
14 9 2 o 11.967 11.930 38.51 1.06137 0.10
19 2 2 o 29.674 29.583 133.58 1.06137 0.24
8 0 5 o 53.000 55.905 28.15 1.22525 0.11
16 2 2 o 228.577 241.674 3.75 1.22449 0.94
14 10 1 o 28.320 28.318 -46.15 1.06079 0.23
15 5 1 o 14.298 15.130 156.15 1.22360 0.06
16 4 0 o 186.242 197.155 43.67 1.22330 0.76
11 3 -4 o 9.600 10.181 -86.42 1.22258 0.04
11 10 1 o 108.219 122.858 17.37 1.21281 0.45
7 2 5 o 232.561 251.864 -164.31 1.21980 0.96
13 0 4 o 578.335 650.978 -24.14 1.21182 1.19
8 7 4 o 66.561 74.921 -138.13 1.21182 0.27
9 9 3 o 54.268 61.474 -155.39 1.21513 0.22
8 1 -5 o 6.352 6.876 44.72 1.20911 0.03
11 9 2 o 13.104 14.036 -69.83 1.20838 0.05
15 4 2 o 18.740 20.072 158.80 1.20838 0.08
20 2 0 o 271.139 264.891 70.33 1.06417 2.05
12 2 4 o 563.877 591.536 -143.21 1.20655 2.34
10 9 4 o 119.284 117.099 -93.10 1.06370 0.91
7 3 -5 o 314.235 327.784 -44.83 1.19870 1.31
17 1 -2 o 16.062 16.778 178.45 1.19799 0.07
6 4 5 o 293.277 304.756 32.66 1.20388 1.22
15 6 0 o 484.799 508.455 -138.60 1.19688 2.02
12 8 -2 o 9.336 9.701 93.00 1.20315 0.04
13 8 -1 o 97.372 101.188 -59.47 1.20230 0.40
10 5 -4 o 13.065 13.585 121.57 1.20134 0.05
12 6 3 o 38.574 40.199 -42.79 1.19938 0.16
12 6 -3 o 110.277 114.921 -109.34 1.19938 0.46
12 2 -5 o 259.986 249.962 42.75 1.06545 1.93
20 0 2 o 875.969 847.799 -25.18 1.06495 3.27
18 1 -1 o 93.314 102.268 10.95 1.19207 0.39
14 7 1 o 17.752 19.455 69.88 1.19207 0.07
13 11 -1 o 77.125 75.182 63.52 1.06437 0.58
11 4 4 o 239.000 263.056 47.83 1.19113 1.00
14 4 4 o 53.549 50.459 -155.32 1.06731 0.39
14 6 2 o 231.788 228.885 -94.75 1.18289 0.98
17 3 -1 o 118.746 116.204 139.25 1.18209 0.50
16 3 -2 o 61.023 65.296 159.59 1.18786 0.26
6 5 -5 o 368.368 362.603 141.43 1.17866 1.57
9 1 5 o 160.402 157.892 10.17 1.17866 0.68
13 0 -5 o 166.548 158.199 177.72 1.06908 0.58
8 7 -5 o 23.484 22.307 131.75 1.06908 0.16
12 11 -2 o 34.298 32.380 -72.97 1.06857 0.24
11 11 0 o 250.508 256.806 0.00 1.17693 0.53
9 7 -4 o 3.267 3.685 -117.02 1.17146 0.01
15 9 0 o 91.415 86.018 -27.16 1.06778 0.65
21 0 0 o 194.162 182.699 -120.73 1.06778 0.69
4 4 6 o 27.558 27.636 8.36 1.07126 0.19
8 3 5 o 147.002 157.209 -126.88 1.16901 0.63
15 5 -2 o 13.695 14.435 0.98 1.16835 0.06
13 2 -4 o 15.484 15.705 -100.21 1.16199 0.07
10 6 4 o 476.254 490.625 -136.66 1.16669 2.06
14 0 -4 o 130.220 134.149 46.26 1.16669 0.28
16 1 -3 o 32.058 32.740 154.65 1.16490 0.14
11 8 -3 o 109.000 111.321 22.65 1.16490 0.47
16 1 3 o 7.245 7.399 -167.95 1.16490 0.03
11 8 3 o 42.921 43.835 179.51 1.16490 0.19
9 2 -5 o 657.603 661.331 -174.09 1.15960 2.88
11 10 -2 o 1.104 1.106 115.56 1.15895 0.00
10 0 -5 o 491.884 501.532 12.74 1.16428 1.07
12 10 -1 o 133.382 133.090 167.31 1.15819 0.59
18 2 1 o 34.911 34.834 98.96 1.15819 0.15
19 0 1 o 64.971 66.024 115.36 1.16286 0.14
16 5 -1 o 309.232 314.242 -8.41 1.16286 1.35
14 8 0 o 236.629 240.329 26.85 1.16260 1.03
17 6 -1 o 28.059 28.460 -1.76 1.07163 0.19
19 3 1 o 75.070 76.145 -98.86 1.07163 0.51
15 3 -3 o 1.079 1.060 -15.91 1.15558 0.00
15 3 3 o 49.796 48.913 -74.56 1.15558 0.22
7 5 5 o 155.994 146.766 55.30 1.15041 0.70
13 8 2 o 150.924 141.703 118.31 1.14977 0.67
19 1 0 o 19.909 18.662 72.61 1.14879 0.09
14 1 4 o 87.535 82.855 113.07 1.14370 0.40
13 9 1 o 21.770 20.994 -93.05 1.15359 0.10
12 4 -4 o 21.452 20.101 101.99 1.14819 0.10
16 4 3 o 169.310 182.521 162.07 1.07694 1.08
16 4 -3 o 0.774 0.835 -44.56 1.07694 0.00
14 7 -2 o 7.543 7.186 -89.66 1.14081 0.03
18 1 2 o 105.346 100.356 162.66 1.14081 0.48
11 3 5 o 175.031 189.612 -67.63 1.07645 1.12
8 4 -5 o 396.354 372.216 18.50 1.14589 1.78
16 6 -2 o 66.930 69.245 137.06 1.07966 0.42
18 3 0 o 171.354 163.295 -133.07 1.13985 0.78
13 3 4 o 270.105 258.383 26.21 1.13488 1.25
9 8 4 o 83.458 79.837 14.36 1.13488 0.39
0 0 6 o 60.310 57.665 44.79 1.13525 0.05
17 4 1 o 33.071 31.196 68.15 1.14454 0.15
20 1 1 o 44.246 46.239 -52.99 1.07905 0.28
12 12 0 o 110.495 115.859 0.00 1.07885 0.35
10 2 5 o 612.626 592.849 79.62 1.12835 2.89
13 5 -4 o 4.936 5.217 -8.15 1.07836 0.03
15 2 4 o 67.857 71.720 -137.65 1.07836 0.43
14 5 3 o 363.676 347.100 26.08 1.13760 1.67
14 5 -3 o 75.394 71.958 11.63 1.13759 0.35
16 0 4 o 33.479 33.589 -50.47 1.08212 0.10
11 0 5 o 920.372 883.003 -121.69 1.13266 2.14
5 2 6 o 40.140 40.200 71.28 1.08244 0.24
5 2 -6 o 16.089 16.113 -25.01 1.08244 0.10
17 3 2 o 110.093 105.734 -143.39 1.13205 0.51
6 0 -6 o 190.938 193.801 -138.82 1.08624 0.56
6 0 6 o 217.883 221.151 -115.22 1.08624 0.64
3 0 6 o 83.394 82.565 -130.31 1.12238 0.20
3 0 -6 o 157.214 155.651 -154.79 1.12238 0.38
11 6 -4 o 13.951 13.601 -87.44 1.12626 0.07
15 7 -1 o 95.481 91.248 -173.40 1.13569 0.44
1 1 6 o 0.536 0.516 -77.73 1.13091 0.00
12 9 -3 o 241.857 246.349 128.56 1.08068 1.49
12 9 3 o 298.553 304.098 -22.96 1.08068 1.83
9 4 5 o 156.092 155.461 -138.08 1.11571 0.77
11 1 -5 o 11.380 11.334 -84.55 1.11571 0.06
16 5 2 o 323.107 322.017 81.74 1.11513 1.60
19 0 -2 o 4.351 4.336 101.08 1.11513 0.01
17 2 3 o 6.458 6.532 117.87 1.08829 0.04
17 2 -3 o 72.178 73.004 -115.64 1.08829 0.42
10 10 3 o 282.906 278.407 51.13 1.12464 1.35
18 0 -3 o 91.377 89.600 15.80 1.09216 0.26
18 0 3 o 12.653 12.406 -0.11 1.09216 0.04
12 1 5 o 0.231 0.232 51.80 1.08397 0.00
7 6 -5 o 151.462 149.423 -163.05 1.12409 0.73
9 5 -5 o 33.052 32.560 -3.15 1.09165 0.19
15 7 2 o 83.310 82.492 -62.75 1.09111 0.47
16 6 1 o 51.486 50.955 -144.43 1.12281 0.25
8 6 5 o 96.496 93.266 -4.52 1.09555 0.53
17 5 0 o 284.569 281.703 37.89 1.12258 1.37
13 10 0 o 235.800 233.425 134.77 1.12258 1.14
12 5 4 o 106.974 106.044 -139.32 1.11783 0.52
2 2 6 o 42.096 41.704 17.53 1.11819 0.21
18 4 -1 o 463.900 462.018 164.66 1.09048 2.63
17 4 -2 o 39.650 39.124 -158.28 1.09894 0.21
15 8 1 o 2.570 2.487 -33.54 1.09437 0.01
13 7 -3 o 22.296 22.364 165.36 1.11213 0.11
13 7 3 o 197.351 197.953 179.72 1.11213 0.99
10 3 -5 o 0.053 0.056 41.99 1.10751 0.00
16 7 0 o 156.389 152.846 174.57 1.09808 0.84
13 9 -2 o 26.027 27.854 94.97 1.10695 0.13
14 9 -1 o 222.763 234.547 -2.19 1.10227 1.17
19 2 -1 o 114.760 120.831 -6.31 1.10227 0.60
11 7 4 o 465.497 451.789 54.94 1.09364 2.58
14 3 -4 o 77.986 75.689 157.11 1.09364 0.43
12 10 2 o 3.959 4.002 -82.18 1.11101 0.02
18 2 -2 o 163.673 165.466 -17.99 1.11101 0.82
20 0 -1 o 397.396 428.350 -157.35 1.10629 1.02
10 8 -4 o 30.616 29.798 168.74 1.09756 0.17
3 3 6 o 192.728 188.062 -166.29 1.09790 1.04
12 11 1 o 146.093 148.713 121.51 1.11035 0.74
15 1 -4 o 25.151 26.068 -71.02 1.10153 0.13
4 1 -6 o 66.335 71.726 43.54 1.10588 0.34
4 1 6 o 59.194 64.005 30.67 1.10588 0.31
