#------------------------------------------------------------------------------
#$Date: 2016-02-16 22:30:59 +0200 (Tue, 16 Feb 2016) $
#$Revision: 176467 $
#$URL: svn://www.crystallography.net/cod/cif/4/12/24/4122446.cif $
#------------------------------------------------------------------------------
#
# This file is available in the Crystallography Open Database (COD),
# http://www.crystallography.net/
#
# All data on this site have been placed in the public domain by the
# contributors.
#
data_4122446
loop_
_publ_author_name
'Kapelewski, Matthew T.'
'Geier, Stephen J.'
'Hudson, Matthew R.'
'St\"uck, David'
'Mason, Jarad A.'
'Nelson, Jocienne N.'
'Xiao, Dianne J.'
'Hulvey, Zeric'
'Gilmour, Elizabeth'
'FitzGerald, Stephen A.'
'Head-Gordon, Martin'
'Brown, Craig M.'
'Long, Jeffrey R.'
_publ_section_title
;
 M2(m-dobdc) (M = Mg, Mn, Fe, Co, Ni) Metal-Organic Frameworks Exhibiting
 Increased Charge Density and Enhanced H2 Binding at the Open Metal Sites.
;
_journal_issue                   34
_journal_name_full               'Journal of the American Chemical Society'
_journal_page_first              12119
_journal_paper_doi               10.1021/ja506230r
_journal_volume                  136
_journal_year                    2014
_chemical_formula_sum            'C4 H Co D3.47 O3'
_chemical_formula_weight         162.97
_chemical_name_systematic        ' ?'
_space_group_IT_number           160
_symmetry_cell_setting           trigonal
_symmetry_space_group_name_Hall  'R 3 -2"'
_symmetry_space_group_name_H-M   'R 3 m :H'
_audit_creation_date             2013-06-27T11:58
_audit_creation_method           'from EXP file using GSAS2CIF'
_audit_update_record
' 2013-06-27T11:58  Initial CIF as created by GSAS2CIF'
_cell_angle_alpha                90.0
_cell_angle_beta                 90.0
_cell_angle_gamma                120.0
_cell_formula_units_Z            18
_cell_length_a                   25.8826(10)
_cell_length_b                   25.8826
_cell_length_c                   6.8030(4)
_cell_volume                     3946.8(3)
_computing_structure_refinement  GSAS
_diffrn_radiation_probe          neutron
_diffrn_radiation_wavelength     2.078
_exptl_absorpt_correction_T_max  1.00000
_exptl_absorpt_correction_T_min  1.00000
_exptl_absorpt_process_details
;   GSAS Absorption/surface roughness correction: function number 0
 No correction is applied.
;
_pd_block_id                     2013-06-27T11:58|CO_PRIME_1P75D2_R||BT1
_pd_calc_method                  'Rietveld Refinement'
_pd_instr_location               ' ?'
_pd_meas_2theta_range_inc        0.05
_pd_meas_2theta_range_max        166.25
_pd_meas_2theta_range_min        1.5
_pd_meas_number_of_points        3296
_pd_phase_name                   Co_dobdc_prime_1.75_D2
_pd_proc_2theta_range_inc        0.05
_pd_proc_2theta_range_max        166.2788
_pd_proc_2theta_range_min        1.5288
_pd_proc_info_datetime           2013-06-27T11:58:07
_pd_proc_info_excluded_regions   ' ?'
_pd_proc_ls_background_function
;   GSAS Background function number 1 with 12 terms.
 Shifted Chebyshev function of 1st kind
      1:    1299.20     2:   -320.779     3:    285.791     4:    24.1394    
      5:    134.291     6:    9.68230     7:    70.7175     8:    1.86885    
      9:    35.6084    10:   -3.82218    11:    10.3265    12:   -6.14225    
;
_pd_proc_ls_peak_cutoff          0.00050
_pd_proc_ls_profile_function
;
 CW Profile function number 3 with  19 terms
 Pseudovoigt profile coefficients as parameterized in
 P. Thompson, D.E. Cox & J.B. Hastings (1987). J. Appl. Cryst.,20,79-83.
 Asymmetry correction of L.W. Finger, D.E. Cox & A. P. Jephcoat (1994).
 J. Appl. Cryst.,27,892-900.
 Peak tails are ignored  where the intensity is below 0.0005 times the peak
   Aniso. broadening axis   0.0   0.0   1.0
;
_pd_proc_ls_prof_R_factor        0.0247
_pd_proc_ls_prof_wR_expected     0.0262
_pd_proc_ls_prof_wR_factor       0.0301
_pd_proc_number_of_points        3296
_pd_spec_mounting                ' ?'
_refine_ls_goodness_of_fit_all   1.16
_refine_ls_matrix_type           full
_refine_ls_number_parameters     69
_refine_ls_number_restraints     16
_refine_ls_R_Fsqd_factor         0.05113
_refine_ls_shift/su_max          14.12
_refine_ls_shift/su_mean         2.72
_reflns_d_resolution_high        1.059
_reflns_d_resolution_low         12.942
_reflns_limit_h_max              21
_reflns_limit_h_min              0
_reflns_limit_k_max              12
_reflns_limit_k_min              0
_reflns_limit_l_max              6
_reflns_limit_l_min              -6
_reflns_number_total             434
_cod_data_source_file            CO_PRIME_1P75D2_R.cif
_cod_data_source_block           CO_PRIME_1P75D2_R_publ
_cod_depositor_comments
;
The following automatic conversions were performed:

'_geom_bond_publ_flag' value 'N' changed to 'n' according to
/usr/data/users/saulius/crontab/automatic-downloads/rss-feeds/ACS/lib/dictionaries/cif_core.dic
dictionary named 'cif_core.dic' version 2.4.2 from 2011-04-26 (165
times).

'_geom_angle_publ_flag' value 'N' changed to 'n' according
to
/usr/data/users/saulius/crontab/automatic-downloads/rss-feeds/ACS/lib/dictionaries/cif_core.dic
dictionary named 'cif_core.dic' version 2.4.2 from 2011-04-26 (32
times).

Automatic conversion script
Id: cif_fix_values 2281 2013-09-26 08:29:07Z andrius 

 Adding full bibliography for 4122440--4122455.cif.
;
_cod_original_cell_volume        3946.79(33)
_cod_original_sg_symbol_H-M      'R 3 m'
_cod_original_formula_sum        'C4 H D3.47 Co O3'
_cod_database_code               4122446
#BEGIN Tags that were not found in dictionaries:
_gsas_exptl_extinct_corr_t_min   1.00000
_gsas_exptl_extinct_corr_t_max   1.00000
#END Tags that were not found in dictionaries
loop_
_symmetry_equiv_pos_site_id
_symmetry_equiv_pos_as_xyz
1 +x,+y,+z
2 -y,x-y,+z
3 y-x,-x,+z
4 y-x,+y,+z
5 -y,-x,+z
6 +x,x-y,+z
101 +x+1/3,+y+2/3,+z+2/3
102 -y+1/3,x-y+2/3,+z+2/3
103 y-x+1/3,-x+2/3,+z+2/3
104 y-x+1/3,+y+2/3,+z+2/3
105 -y+1/3,-x+2/3,+z+2/3
106 +x+1/3,x-y+2/3,+z+2/3
201 +x+2/3,+y+1/3,+z+1/3
202 -y+2/3,x-y+1/3,+z+1/3
203 y-x+2/3,-x+1/3,+z+1/3
204 y-x+2/3,+y+1/3,+z+1/3
205 -y+2/3,-x+1/3,+z+1/3
206 +x+2/3,x-y+1/3,+z+1/3
loop_
_atom_site_type_symbol
_atom_site_label
_atom_site_fract_x
_atom_site_fract_y
_atom_site_fract_z
_atom_site_occupancy
_atom_site_thermal_displace_type
_atom_site_U_iso_or_equiv
_atom_site_symmetry_multiplicity
C C1 0.6567(6) 0.8755(5) 0.8355(22) 1.0 Uiso 0.012(4) 18
C C2 0.6672(8) 0.8336(4) 0.7458(34) 1.0 Uiso 0.010(5) 9
C C6 0.6414(6) 0.8680(5) 0.0453(23) 1.0 Uiso 0.015(4) 18
C C11 0.6341(4) 0.9101(5) 0.1627(20) 1.0 Uiso 0.0072(31) 18
Co Co2 0.3279(14) 0.3727(11) 0.571(4) 1.0 Uiso 0.001(7) 18
H H7 0.6775(19) 0.8387(9) 0.599(8) 1.0 Uiso 0.068(15) 9
O O9 0.6732(5) 0.9279(5) 0.7474(23) 1.0 Uiso 0.008(4) 18
O O12 0.6520(6) 0.9635(6) 0.0923(21) 1.0 Uiso 0.015(4) 18
O O15 0.6119(6) 0.8957(6) 0.3360(22) 1.0 Uiso 0.014(4) 18
C C2m 0.6287(7) 0.8143(4) 0.1428(29) 1.0 Uiso 0.009(5) 9
H H7m 0.6210(15) 0.8105(8) 0.272(6) 1.0 Uiso 0.027(10) 9
D D1 0.2065(4) 0.2157(4) 0.0062(18) 1.76(4) Uiso 0.082(5) 18
D D2 0.7777(8) 0.9466(6) 0.4262(26) 1.269(31) Uiso 0.104(7) 18
D D3 0.5746(20) 0.149(4) 0.471(12) 0.89(14) Uiso 0.76(17) 9
loop_
_atom_type_symbol
_atom_type_number_in_cell
_atom_type_scat_length_neutron
_atom_type_scat_source
C 72.0 0.6646 International_Tables_Vol_C
Co 18.0 0.2490 International_Tables_Vol_C
H 18.0 -0.3739 International_Tables_Vol_C
O 54.0 0.5803 International_Tables_Vol_C
D 62.447 0.6671 International_Tables_Vol_C
loop_
_geom_angle_atom_site_label_1
_geom_angle_atom_site_label_2
_geom_angle_atom_site_label_3
_geom_angle
_geom_angle_site_symmetry_1
_geom_angle_site_symmetry_3
_geom_angle_publ_flag
C2 C1 C6 118.1(16) 1_555 1_556 n
C2 C1 O9 120.4(16) 1_555 1_555 n
C6 C1 O9 119.8(12) 1_556 1_555 n
C1 C2 C1 123.6(22) 1_555 6_565 n
C1 C2 H7 117.9(12) 1_555 1_555 n
C1 C2 H7 117.9(12) 6_565 1_555 n
C1 C6 C11 124.7(11) 1_554 1_555 n
C1 C6 C2m 119.9(12) 1_554 1_555 n
C11 C6 C2m 115.2(12) 1_555 1_555 n
C6 C11 O12 119.1(12) 1_555 1_555 n
C6 C11 O15 120.2(12) 1_555 1_555 n
O12 C11 O15 120.7(13) 1_555 1_555 n
O9 Co2 O9 172.3(21) 3_565 102_654 n
O9 Co2 O12 86.6(13) 3_565 102_655 n
O9 Co2 O12 95.4(10) 3_565 201_445 n
O9 Co2 O15 97.0(15) 3_565 3_565 n
O9 Co2 O12 86.3(16) 102_654 102_655 n
O9 Co2 O12 81.0(10) 102_654 201_445 n
O9 Co2 O15 89.8(14) 102_654 3_565 n
O12 Co2 O12 84.5(11) 102_655 201_445 n
O12 Co2 O15 173.6(15) 102_655 3_565 n
O12 Co2 O15 89.9(11) 201_445 3_565 n
C1 O9 Co2 131.6(11) 1_555 2_665 n
C1 O9 Co2 120.8(14) 1_555 203_565 n
Co2 O9 Co2 92.7(13) 2_665 203_565 n
C11 O12 Co2 128.9(12) 1_555 101_554 n
C11 O12 Co2 127.9(13) 1_555 203_564 n
Co2 O12 Co2 96.0(7) 101_554 203_564 n
C11 O15 Co2 126.2(12) 1_555 2_665 n
C6 C2m C6 118.9(16) 1_555 6_565 n
C6 C2m H7m 119.8(8) 1_555 1_555 n
C6 C2m H7m 119.8(8) 6_565 1_555 n
loop_
_geom_bond_atom_site_label_1
_geom_bond_atom_site_label_2
_geom_bond_distance
_geom_bond_site_symmetry_2
_geom_bond_publ_flag
C1 C2 1.385(15) 1_555 n
C1 C6 1.468(13) 1_556 n
C1 Co2 3.105(32) 2_665 n
C1 Co2 2.961(30) 203_565 n
C1 H7 2.07(4) 1_555 n
C1 O9 1.343(14) 1_555 n
C1 D1 3.362(16) 2_666 n
C1 D1 3.308(16) 101_555 n
C1 D2 3.897(22) 1_555 n
C1 D3 3.36(8) 202_555 n
C2 C1 1.385(15) 1_555 n
C2 C1 1.384(15) 6_565 n
C2 H7 1.03(6) 1_555 n
C2 D1 4.067(16) 2_666 n
C2 D1 4.067(16) 5_666 n
C2 D1 4.107(15) 101_555 n
C2 D1 4.107(15) 106_555 n
C2 D2 3.618(22) 1_555 n
C2 D2 3.618(22) 6_565 n
C2 D3 3.38(9) 202_555 n
C6 C1 1.468(13) 1_554 n
C6 C11 1.437(16) 1_555 n
C6 Co2 3.225(34) 203_564 n
C6 C2m 1.421(13) 1_555 n
C6 H7m 2.02(4) 1_555 n
C6 D1 3.477(14) 2_665 n
C6 D1 3.801(17) 101_554 n
C6 D2 4.015(20) 1_555 n
C6 D2 3.917(21) 103_564 n
C6 D3 3.45(7) 202_554 n
C11 C6 1.437(16) 1_555 n
C11 Co2 3.056(33) 2_665 n
C11 Co2 3.099(27) 101_554 n
C11 Co2 2.87(4) 203_564 n
C11 O12 1.311(15) 1_555 n
C11 O15 1.283(13) 1_555 n
C11 D1 3.533(13) 2_665 n
C11 D1 3.978(13) 101_554 n
C11 D1 4.095(13) 101_555 n
C11 D2 3.795(20) 1_555 n
C11 D2 3.213(18) 103_564 n
Co2 C1 3.105(32) 3_565 n
Co2 C1 2.961(30) 102_654 n
Co2 C6 3.225(34) 102_655 n
Co2 C11 3.056(33) 3_565 n
Co2 C11 2.87(4) 102_655 n
Co2 C11 3.099(27) 201_445 n
Co2 Co2 2.956(30) 103_554 n
Co2 Co2 2.956(30) 202_555 n
Co2 O9 2.046(29) 3_565 n
Co2 O9 2.040(27) 102_654 n
Co2 O12 3.308(30) 3_565 n
Co2 O12 1.87(4) 102_655 n
Co2 O12 2.102(27) 201_445 n
Co2 O15 2.117(33) 3_565 n
Co2 O15 3.338(31) 201_445 n
Co2 D1 5.329(30) 1_555 n
Co2 D1 4.729(29) 1_556 n
Co2 D1 2.211(25) 103_555 n
Co2 D1 4.266(27) 202_555 n
Co2 D2 4.130(32) 3_565 n
Co2 D2 4.298(32) 102_654 n
Co2 D2 4.523(32) 102_655 n
Co2 D2 4.87(4) 201_445 n
Co2 D3 4.69(6) 201_455 n
H7 C1 2.07(4) 1_555 n
H7 C1 2.07(4) 6_565 n
H7 C2 1.03(6) 1_555 n
H7 D2 2.94(4) 1_555 n
H7 D2 2.94(4) 6_565 n
H7 D3 3.85(10) 202_555 n
O9 C1 1.343(14) 1_555 n
O9 Co2 2.046(29) 2_665 n
O9 Co2 2.040(27) 203_565 n
O9 D1 3.055(16) 2_666 n
O9 D1 3.081(16) 101_555 n
O9 D2 3.319(21) 1_555 n
O12 C11 1.311(15) 1_555 n
O12 Co2 3.308(30) 2_665 n
O12 Co2 2.102(27) 101_554 n
O12 Co2 1.87(4) 203_564 n
O12 D1 3.186(14) 2_665 n
O12 D1 3.857(17) 101_554 n
O12 D2 3.357(19) 103_564 n
O15 C11 1.283(13) 1_555 n
O15 Co2 2.117(33) 2_665 n
O15 Co2 3.338(31) 101_554 n
O15 D1 2.864(16) 101_555 n
O15 D2 3.858(22) 1_555 n
O15 D2 3.213(19) 103_564 n
C2m C6 1.421(13) 1_555 n
C2m C6 1.421(13) 6_565 n
C2m H7m 0.89(6) 1_555 n
C2m D3 3.39(8) 202_554 n
H7m C6 2.02(4) 1_555 n
H7m C6 2.02(4) 6_565 n
H7m C2m 0.89(6) 1_555 n
H7m D2 3.960(32) 1_555 n
H7m D2 3.960(32) 6_565 n
H7m D3 3.93(9) 202_554 n
D1 C1 3.362(16) 3_564 n
D1 C1 3.308(16) 201_444 n
D1 C2 4.067(16) 3_564 n
D1 C2 4.107(15) 201_444 n
D1 C6 3.477(14) 3_565 n
D1 C6 3.801(17) 201_445 n
D1 C11 3.533(13) 3_565 n
D1 C11 4.095(13) 201_444 n
D1 C11 3.978(13) 201_445 n
D1 Co2 4.729(29) 1_554 n
D1 Co2 5.329(30) 1_555 n
D1 Co2 4.266(27) 103_554 n
D1 Co2 2.211(25) 202_554 n
D1 O9 3.055(16) 3_564 n
D1 O9 3.081(16) 201_444 n
D1 O12 3.186(14) 3_565 n
D1 O12 3.857(17) 201_445 n
D1 O15 2.864(16) 201_444 n
D1 D1 5.107(19) 4_555 n
D1 D1 5.822(21) 6_555 n
D1 D1 5.940(15) 103_554 n
D1 D1 5.940(15) 202_555 n
D1 D2 4.088(16) 3_564 n
D1 D2 3.051(18) 3_565 n
D1 D2 5.654(18) 5_664 n
D1 D2 4.957(16) 5_665 n
D1 D2 5.766(19) 201_444 n
D1 D3 3.087(34) 102_544 n
D2 C1 3.897(22) 1_555 n
D2 C2 3.618(22) 1_555 n
D2 C6 4.015(20) 1_555 n
D2 C6 3.917(21) 202_665 n
D2 C11 3.795(20) 1_555 n
D2 C11 3.213(18) 202_665 n
D2 Co2 4.130(32) 2_665 n
D2 Co2 4.87(4) 101_554 n
D2 Co2 4.523(32) 203_564 n
D2 Co2 4.298(32) 203_565 n
D2 H7 2.94(4) 1_555 n
D2 O9 3.319(21) 1_555 n
D2 O12 3.357(19) 202_665 n
D2 O15 3.858(22) 1_555 n
D2 O15 3.213(19) 202_665 n
D2 H7m 3.960(32) 1_555 n
D2 D1 3.051(18) 2_665 n
D2 D1 4.088(16) 2_666 n
D2 D1 4.957(16) 5_665 n
D2 D1 5.654(18) 5_666 n
D2 D1 5.766(19) 101_555 n
D2 D2 2.988(30) 6_565 n
D2 D3 4.09(5) 103_664 n
D3 C1 3.36(8) 103_554 n
D3 C1 3.36(8) 105_654 n
D3 C2 3.38(9) 103_554 n
D3 C6 3.45(7) 103_555 n
D3 C6 3.45(7) 105_655 n
D3 Co2 4.69(6) 101_544 n
D3 Co2 4.69(6) 104_544 n
D3 H7 3.85(10) 103_554 n
D3 C2m 3.39(8) 103_555 n
D3 H7m 3.93(9) 103_555 n
D3 D1 3.087(34) 203_555 n
D3 D1 3.087(34) 205_555 n
D3 D2 4.09(5) 202_655 n
D3 D2 4.09(5) 206_455 n
loop_
_pd_meas_intensity_total
_pd_proc_ls_weight
_pd_proc_intensity_bkg_calc
_pd_calc_intensity_total
11850(230) 0.0 3320. .
10270(210) 0.0 3301. .
9260(200) 0.0 3284. .
8400(190) 0.0 3266. .
7390(180) 0.0 3248. .
7020(180) 0.0 3231. .
6360(170) 0.0 3213. .
6000(160) 0.0 3196. .
5560(160) 0.0 3179. .
5170(150) 0.0 3163. .
4690(140) 0.0 3146. .
5020(150) 0.0 3129. .
4750(140) 0.0 3113. .
4650(140) 0.0 3097. .
4500(140) 0.0 3081. .
4280(140) 0.0 3065. .
4010(130) 0.0 3049. .
4160(130) 0.0 3034. .
4180(140) 0.0 3018. .
4250(140) 0.0 3003. .
3970(130) 0.0 2988. .
4180(130) 0.0 2973. .
4150(130) 0.0 2958. .
4020(130) 0.0 2943. .
4020(130) 0.0 2929. .
4050(130) 0.0 2914. .
3810(130) 0.0 2900. .
3910(130) 0.0 2886. .
3810(130) 0.0 2872. .
3870(130) 0.0 2858. .
3770(130) 0.0 2844. .
3470(120) 0.0 2830. .
3500(120) 0.0 2817. .
3710(130) 0.0 2803. .
3440(120) 0.0 2790. .
3590(120) 0.0 2777. .
3280(120) 0.0 2764. .
3240(120) 0.0 2751. .
3090(120) 0.0 2738. .
3230(120) 0.0 2726. .
3150(120) 0.0 2713. .
3060(110) 0.0 2701. .
3080(120) 0.0 2689. .
2940(110) 0.0 2677. .
2690(110) 0.0 2665. .
3100(120) 0.0 2653. .
2840(110) 0.0 2641. .
2870(110) 0.0 2629. .
2840(110) 0.0 2618. .
2930(110) 0.0 2606. .
2900(110) 0.0 2595. .
2680(110) 0.0 2584. .
2700(110) 0.0 2572. .
2530(100) 0.0 2561. .
2840(110) 0.0 2551. .
2670(110) 0.0 2540. .
2760(110) 0.0 2529. .
2680(110) 0.0 2518. .
2660(110) 0.0 2508. .
2530(100) 0.0 2498. .
2660(110) 0.0 2487. .
2530(100) 0.0 2477. .
2450(100) 0.0 2467. .
2640(110) 0.0 2457. .
2530(100) 0.0 2447. .
2570(100) 0.0 2438. .
2490(100) 0.0 2428. .
2348(99) 0.0 2418. .
2470(100) 0.0 2409. .
2510(100) 0.0 2399. .
2246(97) 0.0 2390. .
2370(100) 0.0 2381. .
2450(100) 0.0 2372. .
2370(100) 0.0 2363. .
2232(96) 0.0 2354. .
2348(99) 0.0 2345. .
2235(96) 0.0 2336. .
2460(100) 0.0 2328. .
2380(100) 0.0 2319. .
2257(97) 0.0 2311. .
2315(98) 0.0 2302. .
2256(97) 0.0 2294. .
1940(89) 0.0 2286. .
2320(98) 0.0 2277. .
2127(94) 0.0 2269. .
2054(92) 0.0 2261. .
2012(91) 0.0 2254. .
2127(94) 0.0 2246. .
2233(96) 0.0 2238. .
2159(95) 0.0 2230. .
2001(91) 0.0 2223. .
2072(93) 0.0 2215. .
2231(96) 0.0 2208. .
2123(94) 0.0 2200. .
2216(96) 0.0 2193. .
2119(94) 0.0 2186. .
2162(95) 0.0 2179. .
2248(97) 0.0 2172. .
2088(93) 0.0 2165. .
2210(96) 0.0 2158. .
2362(68) 0.0 2151. .
2291(67) 0.0 2144. .
2371(68) 0.0 2138. .
2215(66) 0.0002296 2131. 2160.
2125(64) 0.0002441 2124. 2155.
2168(65) 0.0002367 2118. 2150.
2135(64) 0.0002441 2112. 2145.
2077(63) 0.0002520 2105. 2141.
2024(62) 0.0002601 2099. 2136.
1946(61) 0.0002687 2093. 2132.
2020(62) 0.0002601 2087. 2128.
2060(63) 0.0002520 2080. 2125.
2127(64) 0.0002441 2074. 2122.
2094(64) 0.0002441 2068. 2119.
2163(65) 0.0002367 2063. 2116.
2144(64) 0.0002441 2057. 2114.
2229(66) 0.0002296 2051. 2113.
2179(65) 0.0002367 2045. 2112.
2237(66) 0.0002296 2040. 2112.
2134(64) 0.0002441 2034. 2114.
2162(65) 0.0002367 2028. 2117.
2248(66) 0.0002296 2023. 2124.
2444(69) 0.0002100 2017. 2137.
2541(71) 0.0001984 2012. 2162.
2471(70) 0.0002041 2007. 2203.
2543(71) 0.0001984 2002. 2266.
2570(71) 0.0001984 1996. 2356.
2648(72) 0.0001929 1991. 2472.
2944(77) 0.0001687 1986. 2612.
2947(77) 0.0001687 1981. 2774.
3024(78) 0.0001644 1976. 2953.
3256(81) 0.0001524 1971. 3150.
3438(83) 0.0001452 1966. 3363.
3542(85) 0.0001384 1961. 3593.
3712(87) 0.0001321 1957. 3843.
4018(91) 0.0001208 1952. 4115.
4225(93) 0.0001156 1947. 4411.
4424(95) 0.0001108 1943. 4737.
4687(98) 0.0001041 1938. 5095.
5190(100) 0.0000925 1934. 5492.
5770(110) 0.0000842 1929. 5936.
6230(110) 0.0000769 1925. 6436.
6470(120) 0.0000743 1920. 7006.
7410(130) 0.0000640 1916. 7664.
7970(130) 0.0000601 1912. 8437.
8880(140) 0.0000533 1907. 9370.
10270(150) 0.0000463 1903. 10528.
12040(160) 0.0000391 1899. 12006.
14220(170) 0.0000330 1895. 13904.
16580(190) 0.0000283 1891. 16240.
19150(200) 0.0000245 1887. 18817.
21270(210) 0.0000220 1883. 21089.
21910(220) 0.0000214 1879. 22213.
20750(210) 0.0000227 1875. 21374.
17870(200) 0.0000263 1871. 18395.
13800(170) 0.0000342 1868. 14144.
9720(140) 0.0000489 1864. 9932.
6730(120) 0.0000718 1860. 6635.
4729(99) 0.0001020 1856. 4491.
3465(84) 0.0001417 1853. 3299.
2713(73) 0.0001877 1849. 2710.
2367(68) 0.0002163 1846. 2431.
2201(65) 0.0002367 1842. 2290.
2091(64) 0.0002441 1839. 2205.
2168(65) 0.0002367 1835. 2145.
2007(62) 0.0002601 1832. 2098.
1990(62) 0.0002601 1828. 2060.
1917(61) 0.0002687 1825. 2029.
1954(61) 0.0002687 1822. 2002.
1911(60) 0.0002778 1818. 1979.
1750(57) 0.0003078 1815. 1959.
1921(61) 0.0002687 1812. 1942.
1925(61) 0.0002687 1809. 1927.
1876(60) 0.0002778 1806. 1913.
1903(60) 0.0002778 1803. 1901.
1844(59) 0.0002873 1800. 1890.
1806(59) 0.0002873 1797. 1880.
1732(57) 0.0003078 1794. 1871.
1876(60) 0.0002778 1791. 1862.
1806(59) 0.0002873 1788. 1854.
1832(59) 0.0002873 1785. 1847.
1838(59) 0.0002873 1782. 1840.
1781(58) 0.0002973 1779. 1833.
1674(56) 0.0003189 1776. 1827.
1819(59) 0.0002873 1774. 1821.
1723(57) 0.0003078 1771. 1816.
1772(58) 0.0002973 1768. 1810.
1748(58) 0.0002973 1765. 1805.
1812(59) 0.0002873 1763. 1800.
1786(58) 0.0002973 1760. 1796.
1712(57) 0.0003078 1758. 1791.
1822(59) 0.0002873 1755. 1787.
1682(56) 0.0003189 1752. 1783.
1640(55) 0.0003306 1750. 1779.
1712(57) 0.0003078 1747. 1775.
1696(56) 0.0003189 1745. 1771.
1853(81) 0.0001524 1743. 1768.
1785(79) 0.0001602 1740. 1764.
1751(79) 0.0001602 1738. 1761.
1636(75) 0.0001778 1735. 1757.
1739(57) 0.0003078 1733. 1755.
1791(58) 0.0002973 1731. 1751.
1768(58) 0.0002973 1729. 1748.
1735(57) 0.0003078 1726. 1745.
1759(57) 0.0003078 1724. 1742.
1772(58) 0.0002973 1722. 1739.
1732(57) 0.0003078 1720. 1737.
1704(56) 0.0003189 1718. 1734.
1739(57) 0.0003078 1715. 1731.
1696(56) 0.0003189 1713. 1728.
1692(56) 0.0003189 1711. 1726.
1815(59) 0.0002873 1709. 1723.
1750(57) 0.0003078 1707. 1721.
1775(58) 0.0002973 1705. 1718.
1790(58) 0.0002973 1703. 1716.
1746(57) 0.0003078 1701. 1714.
1764(58) 0.0002973 1699. 1711.
1768(58) 0.0002973 1697. 1709.
1737(57) 0.0003078 1695. 1707.
1791(58) 0.0002973 1693. 1704.
1770(58) 0.0002973 1692. 1702.
1806(58) 0.0002973 1690. 1700.
1768(58) 0.0002973 1688. 1698.
1669(56) 0.0003189 1686. 1696.
1660(56) 0.0003189 1684. 1694.
1717(57) 0.0003078 1683. 1692.
1696(56) 0.0003189 1681. 1690.
1706(57) 0.0003078 1679. 1688.
1722(57) 0.0003078 1677. 1686.
1677(56) 0.0003189 1676. 1684.
1651(55) 0.0003306 1674. 1682.
1760(58) 0.0002973 1672. 1680.
1712(57) 0.0003078 1671. 1679.
1718(57) 0.0003078 1669. 1677.
1729(57) 0.0003078 1667. 1675.
1787(58) 0.0002973 1666. 1673.
1749(57) 0.0003078 1664. 1672.
1719(57) 0.0003078 1663. 1670.
1672(56) 0.0003189 1661. 1668.
1678(56) 0.0003189 1660. 1667.
1712(57) 0.0003078 1658. 1665.
1689(56) 0.0003189 1657. 1663.
1700(56) 0.0003189 1655. 1662.
1642(55) 0.0003306 1654. 1660.
1741(57) 0.0003078 1652. 1659.
1689(56) 0.0003189 1651. 1657.
1658(56) 0.0003189 1649. 1656.
1657(56) 0.0003189 1648. 1654.
1750(57) 0.0003078 1646. 1653.
1745(57) 0.0003078 1645. 1652.
1649(55) 0.0003306 1644. 1651.
1638(55) 0.0003306 1642. 1649.
1632(55) 0.0003306 1641. 1648.
1646(55) 0.0003306 1640. 1647.
1669(56) 0.0003189 1638. 1646.
1709(57) 0.0003078 1637. 1644.
1747(57) 0.0003078 1636. 1643.
1738(57) 0.0003078 1635. 1642.
1752(57) 0.0003078 1633. 1641.
1701(56) 0.0003189 1632. 1640.
1706(57) 0.0003078 1631. 1639.
1722(57) 0.0003078 1630. 1638.
1732(57) 0.0003078 1628. 1638.
1680(56) 0.0003189 1627. 1637.
1651(55) 0.0003306 1626. 1636.
1682(56) 0.0003189 1625. 1636.
1736(57) 0.0003078 1624. 1635.
1722(57) 0.0003078 1622. 1635.
1671(56) 0.0003189 1621. 1635.
1614(55) 0.0003306 1620. 1636.
1578(54) 0.0003429 1619. 1637.
1609(55) 0.0003306 1618. 1639.
1608(55) 0.0003306 1617. 1644.
1635(55) 0.0003306 1616. 1651.
1748(57) 0.0003078 1615. 1663.
1707(57) 0.0003078 1614. 1680.
1724(57) 0.0003078 1613. 1702.
1786(58) 0.0002973 1611. 1729.
1790(58) 0.0002973 1610. 1763.
1862(59) 0.0002873 1609. 1803.
1891(60) 0.0002778 1608. 1851.
1933(61) 0.0002687 1607. 1910.
1908(60) 0.0002778 1606. 1984.
2080(63) 0.0002520 1605. 2079.
2290(67) 0.0002228 1604. 2200.
2307(67) 0.0002228 1603. 2348.
2502(70) 0.0002041 1602. 2504.
2586(71) 0.0001984 1601. 2631.
2535(71) 0.0001984 1600. 2673.
2531(71) 0.0001984 1599. 2585.
2251(66) 0.0002296 1599. 2384.
2092(63) 0.0002520 1598. 2144.
1898(60) 0.0002778 1597. 1938.
1836(59) 0.0002873 1596. 1794.
1769(58) 0.0002973 1595. 1708.
1841(59) 0.0002873 1594. 1664.
1753(84) 0.0001417 1593. 1641.
1672(56) 0.0003189 1592. 1630.
1686(56) 0.0003189 1591. 1622.
1698(56) 0.0003189 1590. 1617.
1648(55) 0.0003306 1590. 1613.
1639(55) 0.0003306 1589. 1610.
1658(55) 0.0003306 1588. 1607.
1541(53) 0.000356 1587. 1604.
1661(55) 0.0003306 1586. 1602.
1663(55) 0.0003306 1585. 1601.
1672(56) 0.0003189 1584. 1599.
1770(57) 0.0003078 1584. 1598.
1671(56) 0.0003189 1583. 1596.
1692(56) 0.0003189 1582. 1595.
1727(57) 0.0003078 1581. 1594.
1653(55) 0.0003306 1580. 1593.
1672(56) 0.0003189 1580. 1593.
1624(55) 0.0003306 1579. 1592.
1708(56) 0.0003189 1578. 1592.
1610(54) 0.0003429 1577. 1591.
1595(54) 0.0003429 1577. 1591.
1663(55) 0.0003306 1576. 1591.
1608(54) 0.0003429 1575. 1592.
1586(54) 0.0003429 1574. 1593.
1612(54) 0.0003429 1573. 1594.
1605(54) 0.0003429 1573. 1598.
1691(56) 0.0003189 1572. 1603.
1591(54) 0.0003429 1571. 1612.
1586(54) 0.0003429 1571. 1626.
1592(54) 0.0003429 1570. 1646.
1671(56) 0.0003189 1569. 1672.
1664(55) 0.0003306 1568. 1704.
1730(57) 0.0003078 1568. 1746.
1687(56) 0.0003189 1567. 1797.
1850(59) 0.0002873 1566. 1862.
1781(58) 0.0002973 1566. 1946.
1888(59) 0.0002873 1565. 2053.
2027(62) 0.0002601 1564. 2179.
2188(64) 0.0002441 1563. 2305.
2165(64) 0.0002441 1563. 2395.
2186(64) 0.0002441 1562. 2402.
2132(64) 0.0002441 1561. 2301.
1916(60) 0.0002778 1561. 2126.
1867(59) 0.0002873 1560. 1942.
1717(56) 0.0003189 1559. 1795.
1730(57) 0.0003078 1559. 1697.
1650(55) 0.0003306 1558. 1642.
1719(56) 0.0003189 1557. 1613.
1500(52) 0.000370 1557. 1598.
1612(54) 0.0003429 1556. 1590.
1639(55) 0.0003306 1555. 1585.
1614(54) 0.0003429 1555. 1581.
1619(55) 0.0003306 1554. 1578.
1611(54) 0.0003429 1554. 1576.
1678(56) 0.0003189 1553. 1574.
1514(53) 0.000356 1552. 1573.
1599(54) 0.0003429 1552. 1571.
1516(53) 0.000356 1551. 1571.
1518(53) 0.000356 1550. 1570.
1554(53) 0.000356 1550. 1570.
1629(55) 0.0003306 1549. 1569.
1564(54) 0.0003429 1549. 1570.
1503(52) 0.000370 1548. 1570.
1641(55) 0.0003306 1547. 1571.
1562(53) 0.000356 1547. 1572.
1537(53) 0.000356 1546. 1573.
1568(54) 0.0003429 1545. 1575.
1566(54) 0.0003429 1545. 1578.
1547(53) 0.000356 1544. 1581.
1579(54) 0.0003429 1544. 1587.
1517(53) 0.000356 1543. 1595.
1625(55) 0.0003306 1543. 1608.
1685(56) 0.0003189 1542. 1629.
1665(55) 0.0003306 1541. 1662.
1740(57) 0.0003078 1541. 1712.
1821(58) 0.0002973 1540. 1781.
1876(59) 0.0002873 1540. 1873.
2163(64) 0.0002441 1539. 1993.
2168(64) 0.0002441 1538. 2147.
2330(67) 0.0002228 1538. 2346.
2530(70) 0.0002041 1537. 2603.
2923(75) 0.0001778 1537. 2915.
3365(81) 0.0001524 1536. 3249.
3651(85) 0.0001384 1536. 3525.
3703(85) 0.0001384 1535. 3625.
3468(82) 0.0001487 1534. 3455.
2982(76) 0.0001731 1534. 3050.
2555(70) 0.0002041 1533. 2578.
2097(63) 0.0002520 1533. 2181.
1868(59) 0.0002873 1532. 1910.
1689(56) 0.0003189 1532. 1752.
1662(55) 0.0003306 1531. 1670.
1633(55) 0.0003306 1530. 1628.
1584(54) 0.0003429 1530. 1605.
1568(54) 0.0003429 1529. 1591.
1616(55) 0.0003306 1529. 1581.
1584(54) 0.0003429 1528. 1573.
1541(53) 0.000356 1528. 1567.
1642(55) 0.0003306 1527. 1561.
1597(54) 0.0003429 1527. 1557.
1608(52) 0.000370 1526. 1554.
1545(51) 0.000384 1526. 1551.
1524(51) 0.000384 1525. 1548.
1580(52) 0.000370 1524. 1546.
1590(52) 0.000370 1524. 1544.
1553(51) 0.000384 1523. 1542.
1559(51) 0.000384 1523. 1541.
1487(50) 0.000400 1522. 1540.
1526(51) 0.000384 1522. 1539.
1511(50) 0.000400 1521. 1538.
1481(50) 0.000400 1521. 1538.
1541(51) 0.000384 1520. 1538.
1571(51) 0.000384 1520. 1539.
1546(51) 0.000384 1519. 1542.
1526(51) 0.000384 1518. 1546.
1513(50) 0.000400 1518. 1554.
1588(52) 0.000370 1517. 1565.
1594(52) 0.000370 1517. 1580.
1540(51) 0.000384 1516. 1602.
1604(52) 0.000370 1516. 1630.
1682(53) 0.000356 1515. 1667.
1763(55) 0.0003306 1515. 1713.
1738(54) 0.0003429 1514. 1763.
1694(54) 0.0003429 1514. 1808.
1757(55) 0.0003306 1513. 1828.
1779(55) 0.0003306 1513. 1809.
1763(55) 0.0003306 1512. 1753.
1652(53) 0.000356 1512. 1682.
1546(51) 0.000384 1511. 1620.
1523(50) 0.000400 1511. 1577.
1442(49) 0.000416 1510. 1551.
1553(51) 0.000384 1510. 1537.
1487(50) 0.000400 1509. 1530.
1482(50) 0.000400 1508. 1526.
1523(51) 0.000384 1508. 1523.
1544(51) 0.000384 1507. 1521.
1589(52) 0.000370 1507. 1520.
1558(51) 0.000384 1506. 1518.
1478(50) 0.000400 1506. 1517.
1543(51) 0.000384 1505. 1516.
1460(49) 0.000416 1505. 1515.
1493(50) 0.000400 1504. 1515.
1495(50) 0.000400 1504. 1514.
1479(50) 0.000400 1503. 1514.
1523(51) 0.000384 1503. 1513.
1527(51) 0.000384 1502. 1513.
1509(50) 0.000400 1502. 1513.
1464(49) 0.000416 1501. 1513.
1517(50) 0.000400 1501. 1514.
1514(50) 0.000400 1500. 1514.
1545(51) 0.000384 1500. 1516.
1461(49) 0.000416 1499. 1518.
1502(50) 0.000400 1499. 1521.
1469(50) 0.000400 1498. 1528.
1521(51) 0.000384 1498. 1538.
1557(51) 0.000384 1497. 1553.
1555(51) 0.000384 1496. 1575.
1702(54) 0.0003429 1496. 1607.
1696(54) 0.0003429 1495. 1649.
1724(54) 0.0003429 1495. 1704.
1854(56) 0.0003189 1494. 1770.
1943(58) 0.0002973 1494. 1841.
2031(59) 0.0002873 1493. 1898.
2103(60) 0.0002778 1493. 1915.
2007(59) 0.0002873 1492. 1875.
1892(57) 0.0003078 1492. 1790.
1771(55) 0.0003306 1491. 1696.
1708(54) 0.0003429 1491. 1620.
1589(52) 0.000370 1490. 1569.
1570(51) 0.000384 1490. 1540.
1519(50) 0.000400 1489. 1524.
1486(50) 0.000400 1489. 1516.
1466(49) 0.000416 1488. 1512.
1528(51) 0.000384 1488. 1508.
1603(52) 0.000370 1487. 1506.
1459(49) 0.000416 1487. 1505.
1525(51) 0.000384 1486. 1504.
1447(49) 0.000416 1486. 1503.
1450(49) 0.000416 1485. 1502.
1502(50) 0.000400 1485. 1502.
1568(51) 0.000384 1484. 1502.
1535(51) 0.000384 1484. 1503.
1517(50) 0.000400 1483. 1504.
1526(51) 0.000384 1483. 1505.
1521(50) 0.000400 1482. 1508.
1551(51) 0.000384 1482. 1512.
1522(50) 0.000400 1481. 1520.
1584(52) 0.000370 1481. 1532.
1506(50) 0.000400 1480. 1551.
1595(52) 0.000370 1480. 1580.
1671(53) 0.000356 1479. 1622.
1691(54) 0.0003429 1478. 1679.
1809(56) 0.0003189 1478. 1755.
1872(57) 0.0003078 1477. 1846.
2049(59) 0.0002873 1477. 1940.
2113(60) 0.0002778 1476. 2013.
2014(59) 0.0002873 1476. 2030.
2042(59) 0.0002873 1475. 1970.
1895(57) 0.0003078 1475. 1855.
1722(54) 0.0003429 1474. 1734.
1632(52) 0.000370 1474. 1639.
1580(51) 0.000384 1473. 1577.
1526(50) 0.000400 1473. 1542.
1472(49) 0.000416 1472. 1524.
1519(50) 0.000400 1472. 1514.
1572(51) 0.000384 1471. 1509.
1548(51) 0.000384 1471. 1506.
1538(51) 0.000384 1470. 1505.
1514(50) 0.000400 1470. 1504.
1513(50) 0.000400 1469. 1504.
1507(50) 0.000400 1469. 1505.
1511(50) 0.000400 1468. 1506.
1485(50) 0.000400 1468. 1508.
1470(49) 0.000416 1467. 1511.
1524(50) 0.000400 1467. 1516.
1532(51) 0.000384 1466. 1521.
1540(51) 0.000384 1466. 1529.
1513(50) 0.000400 1465. 1541.
1514(50) 0.000400 1465. 1559.
1601(52) 0.000370 1464. 1587.
1694(53) 0.000356 1464. 1633.
1692(53) 0.000356 1463. 1707.
1892(57) 0.0003078 1463. 1819.
1968(58) 0.0002973 1462. 1983.
2072(60) 0.0002778 1462. 2214.
2338(64) 0.0002441 1461. 2518.
2827(70) 0.0002041 1461. 2884.
3157(74) 0.0001826 1460. 3261.
3404(77) 0.0001687 1460. 3551.
3534(79) 0.0001602 1459. 3629.
3273(76) 0.0001731 1459. 3431.
3031(73) 0.0001877 1458. 3027.
2744(69) 0.0002100 1458. 2565.
2314(63) 0.0002520 1457. 2171.
1924(57) 0.0003078 1456. 1895.
1753(54) 0.0003429 1456. 1727.
1683(53) 0.000356 1455. 1634.
1646(53) 0.000356 1455. 1583.
1588(52) 0.000370 1454. 1554.
1544(51) 0.000384 1454. 1535.
1559(51) 0.000384 1453. 1522.
1557(51) 0.000384 1453. 1512.
1558(51) 0.000384 1452. 1504.
1541(51) 0.000384 1452. 1498.
1424(49) 0.000416 1451. 1493.
1499(50) 0.000400 1451. 1489.
1506(50) 0.000400 1450. 1486.
1492(50) 0.000400 1450. 1484.
1532(51) 0.000384 1449. 1483.
1516(50) 0.000400 1449. 1483.
1502(50) 0.000400 1448. 1484.
1486(50) 0.000400 1448. 1488.
1523(50) 0.000400 1447. 1495.
1540(51) 0.000384 1447. 1508.
1552(51) 0.000384 1446. 1528.
1475(49) 0.000416 1446. 1556.
1532(51) 0.000384 1445. 1593.
1627(52) 0.000370 1445. 1635.
1745(54) 0.0003429 1444. 1674.
1675(53) 0.000356 1444. 1695.
1639(52) 0.000370 1443. 1683.
1599(52) 0.000370 1443. 1640.
1597(52) 0.000370 1442. 1585.
1550(51) 0.000384 1442. 1537.
1576(51) 0.000384 1441. 1503.
1545(51) 0.000384 1441. 1482.
1522(50) 0.000400 1440. 1470.
1477(50) 0.000400 1440. 1464.
1482(50) 0.000400 1439. 1460.
1497(50) 0.000400 1439. 1457.
1412(48) 0.000434 1438. 1455.
1444(49) 0.000416 1438. 1453.
1395(48) 0.000434 1437. 1452.
1461(49) 0.000416 1437. 1450.
1480(50) 0.000400 1436. 1450.
1519(50) 0.000400 1436. 1449.
1494(50) 0.000400 1435. 1449.
1423(48) 0.000434 1435. 1448.
1397(48) 0.000434 1434. 1447.
1383(48) 0.000434 1434. 1447.
1384(48) 0.000434 1433. 1446.
1429(49) 0.000416 1433. 1445.
1441(49) 0.000416 1432. 1445.
1467(49) 0.000416 1432. 1445.
1428(49) 0.000416 1431. 1444.
1485(50) 0.000400 1431. 1444.
1432(49) 0.000416 1430. 1444.
1467(49) 0.000416 1430. 1444.
1397(48) 0.000434 1429. 1444.
1434(49) 0.000416 1429. 1444.
1432(49) 0.000416 1428. 1444.
1424(49) 0.000416 1428. 1444.
1477(50) 0.000400 1427. 1444.
1502(50) 0.000400 1427. 1445.
1451(49) 0.000416 1426. 1445.
1437(49) 0.000416 1426. 1446.
1498(50) 0.000400 1425. 1447.
1524(50) 0.000400 1425. 1448.
1477(50) 0.000400 1424. 1449.
1488(50) 0.000400 1424. 1451.
1549(49) 0.000416 1423. 1453.
1475(48) 0.000434 1423. 1455.
1486(48) 0.000434 1422. 1458.
1455(48) 0.000434 1422. 1462.
1513(49) 0.000416 1421. 1466.
1448(47) 0.000453 1421. 1472.
1459(48) 0.000434 1420. 1480.
1492(48) 0.000434 1420. 1492.
1496(48) 0.000434 1419. 1509.
1626(51) 0.000384 1419. 1537.
1613(50) 0.000400 1419. 1581.
1717(52) 0.000370 1418. 1654.
1889(55) 0.0003306 1418. 1766.
1939(56) 0.0003189 1417. 1931.
2199(60) 0.0002778 1417. 2154.
2479(63) 0.0002520 1416. 2422.
2771(67) 0.0002228 1416. 2696.
2815(68) 0.0002163 1415. 2896.
2798(68) 0.0002163 1415. 2935.
2735(67) 0.0002228 1414. 2775.
2471(63) 0.0002520 1414. 2476.
2214(60) 0.0002778 1413. 2156.
1977(56) 0.0003189 1413. 1896.
1729(52) 0.000370 1412. 1720.
1579(50) 0.000400 1412. 1616.
1523(49) 0.000416 1411. 1558.
1481(48) 0.000434 1411. 1527.
1475(48) 0.000434 1410. 1509.
1474(48) 0.000434 1410. 1499.
1420(47) 0.000453 1409. 1492.
1465(48) 0.000434 1409. 1489.
1511(49) 0.000416 1408. 1488.
1456(48) 0.000434 1408. 1489.
1521(49) 0.000416 1407. 1494.
1565(50) 0.000400 1407. 1502.
1530(49) 0.000416 1406. 1516.
1565(50) 0.000400 1406. 1540.
1653(51) 0.000384 1406. 1580.
1708(52) 0.000370 1405. 1648.
1732(52) 0.000370 1405. 1755.
1917(55) 0.0003306 1404. 1913.
2166(59) 0.0002873 1404. 2128.
2365(62) 0.0002601 1403. 2391.
2606(65) 0.0002367 1403. 2664.
2780(67) 0.0002228 1402. 2869.
2740(67) 0.0002228 1402. 2913.
2680(66) 0.0002296 1401. 2760.
2463(63) 0.0002520 1401. 2469.
2148(59) 0.0002873 1400. 2154.
1891(55) 0.0003306 1400. 1898.
1740(53) 0.000356 1399. 1724.
1666(51) 0.000384 1399. 1620.
1634(51) 0.000384 1399. 1562.
1599(50) 0.000400 1398. 1531.
1529(49) 0.000416 1398. 1515.
1529(49) 0.000416 1397. 1506.
1499(48) 0.000434 1397. 1502.
1492(48) 0.000434 1396. 1502.
1469(48) 0.000434 1396. 1505.
1518(49) 0.000416 1395. 1513.
1591(50) 0.000400 1395. 1526.
1545(49) 0.000416 1394. 1548.
1567(50) 0.000400 1394. 1586.
1672(51) 0.000384 1393. 1650.
1755(53) 0.000356 1393. 1758.
1875(55) 0.0003306 1393. 1932.
2072(58) 0.0002973 1392. 2191.
2495(64) 0.0002441 1392. 2537.
2832(68) 0.0002163 1391. 2953.
3228(73) 0.0001877 1391. 3370.
3518(76) 0.0001731 1390. 3638.
3433(75) 0.0001778 1390. 3614.
3211(73) 0.0001877 1389. 3269.
2732(67) 0.0002228 1389. 2772.
2281(61) 0.0002687 1388. 2313.
1946(56) 0.0003189 1388. 1975.
1713(52) 0.000370 1388. 1760.
1559(49) 0.000416 1387. 1636.
1512(49) 0.000416 1387. 1567.
1574(50) 0.000400 1386. 1528.
1494(48) 0.000434 1386. 1504.
1390(46) 0.000473 1385. 1487.
1514(49) 0.000416 1385. 1475.
1474(48) 0.000434 1384. 1468.
1530(49) 0.000416 1384. 1464.
1499(48) 0.000434 1384. 1467.
1517(49) 0.000416 1383. 1474.
1497(48) 0.000434 1383. 1492.
1542(49) 0.000416 1382. 1520.
1619(50) 0.000400 1382. 1560.
1635(51) 0.000384 1381. 1607.
1756(53) 0.000356 1381. 1653.
1727(52) 0.000370 1380. 1679.
1665(51) 0.000384 1380. 1668.
1619(50) 0.000400 1380. 1620.
1639(51) 0.000384 1379. 1559.
1533(49) 0.000416 1379. 1505.
1579(50) 0.000400 1378. 1466.
1495(48) 0.000434 1378. 1440.
1423(47) 0.000453 1377. 1426.
1416(37) 0.000730 1377. 1417.
1435(44) 0.000517 1377. 1412.
1444(45) 0.000494 1376. 1408.
1482(45) 0.000494 1376. 1406.
1398(44) 0.000517 1375. 1404.
1411(44) 0.000517 1375. 1402.
1424(44) 0.000517 1374. 1401.
1365(43) 0.000541 1374. 1401.
1470(45) 0.000494 1374. 1401.
1431(44) 0.000517 1373. 1401.
1432(44) 0.000517 1373. 1403.
1434(44) 0.000517 1372. 1405.
1430(44) 0.000517 1372. 1411.
1436(44) 0.000517 1371. 1419.
1433(44) 0.000517 1371. 1431.
1478(45) 0.000494 1371. 1447.
1457(45) 0.000494 1370. 1465.
1477(45) 0.000494 1370. 1484.
1541(46) 0.000473 1369. 1501.
1557(46) 0.000473 1369. 1513.
1554(46) 0.000473 1368. 1518.
1513(46) 0.000473 1368. 1514.
1519(46) 0.000473 1368. 1497.
1445(45) 0.000494 1367. 1472.
1467(45) 0.000494 1367. 1449.
1429(44) 0.000517 1366. 1431.
1445(45) 0.000494 1366. 1420.
1413(44) 0.000517 1366. 1414.
1428(44) 0.000517 1365. 1413.
1477(45) 0.000494 1365. 1414.
1405(44) 0.000517 1364. 1418.
1451(45) 0.000494 1364. 1424.
1444(45) 0.000494 1363. 1434.
1533(46) 0.000473 1363. 1450.
1461(45) 0.000494 1363. 1478.
1508(46) 0.000473 1362. 1524.
1661(48) 0.000434 1362. 1600.
1721(49) 0.000416 1361. 1712.
1881(51) 0.000384 1361. 1862.
2062(54) 0.0003429 1361. 2035.
2160(55) 0.0003306 1360. 2196.
2235(56) 0.0003189 1360. 2282.
2139(55) 0.0003306 1359. 2240.
2002(53) 0.000356 1359. 2081.
1849(51) 0.000384 1359. 1883.
1641(48) 0.000434 1358. 1712.
1551(46) 0.000473 1358. 1588.
1500(45) 0.000494 1357. 1510.
1470(45) 0.000494 1357. 1465.
1394(44) 0.000517 1357. 1439.
1448(45) 0.000494 1356. 1424.
1460(45) 0.000494 1356. 1414.
1402(44) 0.000517 1355. 1407.
1424(44) 0.000517 1355. 1401.
1416(44) 0.000517 1355. 1397.
1377(43) 0.000541 1354. 1394.
1354(43) 0.000541 1354. 1392.
1412(44) 0.000517 1353. 1390.
1401(44) 0.000517 1353. 1389.
1395(44) 0.000517 1353. 1388.
1378(43) 0.000541 1352. 1387.
1373(43) 0.000541 1352. 1387.
1387(44) 0.000517 1351. 1387.
1448(45) 0.000494 1351. 1388.
1407(44) 0.000517 1351. 1390.
1405(44) 0.000517 1350. 1392.
1345(43) 0.000541 1350. 1395.
1373(43) 0.000541 1349. 1397.
1413(44) 0.000517 1349. 1399.
1351(43) 0.000541 1349. 1400.
1404(44) 0.000517 1348. 1401.
1430(44) 0.000517 1348. 1401.
1474(45) 0.000494 1348. 1403.
1352(43) 0.000541 1347. 1406.
1424(44) 0.000517 1347. 1410.
1405(44) 0.000517 1346. 1416.
1350(43) 0.000541 1346. 1423.
1366(43) 0.000541 1346. 1432.
1458(45) 0.000494 1345. 1443.
1458(45) 0.000494 1345. 1458.
1459(45) 0.000494 1345. 1479.
1491(45) 0.000494 1344. 1508.
1562(46) 0.000473 1344. 1552.
1678(48) 0.000434 1343. 1617.
1798(50) 0.000400 1343. 1715.
1960(52) 0.000370 1343. 1858.
2137(55) 0.0003306 1342. 2062.
2417(58) 0.0002973 1342. 2345.
2668(61) 0.0002687 1342. 2706.
3062(66) 0.0002296 1341. 3121.
3416(70) 0.0002041 1341. 3532.
3712(73) 0.0001877 1340. 3853.
3663(72) 0.0001929 1340. 3937.
3465(70) 0.0002041 1340. 3657.
3119(67) 0.0002228 1339. 3141.
2582(60) 0.0002778 1339. 2615.
2202(56) 0.0003189 1339. 2197.
1934(52) 0.000370 1338. 1912.
1792(50) 0.000400 1338. 1738.
1678(48) 0.000434 1337. 1640.
1508(44) 0.000517 1337. 1587.
1543(44) 0.000517 1337. 1561.
1507(43) 0.000541 1336. 1552.
1538(44) 0.000517 1336. 1559.
1565(44) 0.000517 1336. 1586.
1634(45) 0.000494 1335. 1639.
1766(47) 0.000453 1335. 1728.
1909(49) 0.000416 1335. 1857.
2060(51) 0.000384 1334. 2022.
2179(53) 0.000356 1334. 2211.
2365(55) 0.0003306 1333. 2393.
2509(57) 0.0003078 1333. 2521.
2544(57) 0.0003078 1333. 2575.
2493(56) 0.0003189 1332. 2547.
2407(55) 0.0003306 1332. 2406.
2212(53) 0.000356 1332. 2180.
1975(50) 0.000400 1331. 1951.
1722(47) 0.000453 1331. 1766.
1542(44) 0.000517 1331. 1638.
1493(43) 0.000541 1330. 1558.
1499(43) 0.000541 1330. 1512.
1503(43) 0.000541 1330. 1487.
1408(42) 0.000567 1329. 1475.
1423(42) 0.000567 1329. 1472.
1472(43) 0.000541 1328. 1477.
1487(43) 0.000541 1328. 1491.
1537(44) 0.000517 1328. 1521.
1597(45) 0.000494 1327. 1571.
1683(46) 0.000473 1327. 1651.
1798(48) 0.000434 1327. 1768.
1986(50) 0.000400 1326. 1924.
2156(52) 0.000370 1326. 2114.
2365(55) 0.0003306 1326. 2314.
2567(57) 0.0003078 1325. 2484.
2595(58) 0.0002973 1325. 2595.
2587(57) 0.0003078 1325. 2611.
2441(56) 0.0003189 1324. 2490.
2202(53) 0.000356 1324. 2262.
2063(51) 0.000384 1324. 2012.
1788(48) 0.000434 1323. 1800.
1633(45) 0.000494 1323. 1646.
1466(43) 0.000541 1323. 1546.
1415(42) 0.000567 1322. 1484.
1468(43) 0.000541 1322. 1447.
1400(42) 0.000567 1321. 1423.
1394(42) 0.000567 1321. 1407.
1432(42) 0.000567 1321. 1396.
1370(41) 0.000595 1320. 1387.
1341(41) 0.000595 1320. 1380.
1359(41) 0.000595 1320. 1374.
1390(42) 0.000567 1319. 1369.
1383(42) 0.000567 1319. 1365.
1354(41) 0.000595 1319. 1362.
1355(41) 0.000595 1318. 1359.
1328(41) 0.000595 1318. 1357.
1328(41) 0.000595 1318. 1355.
1400(42) 0.000567 1317. 1354.
1418(42) 0.000567 1317. 1353.
1363(41) 0.000595 1317. 1352.
1344(41) 0.000595 1316. 1352.
1376(41) 0.000595 1316. 1352.
1448(43) 0.000541 1316. 1353.
1407(42) 0.000567 1315. 1354.
1361(41) 0.000595 1315. 1356.
1348(41) 0.000595 1315. 1358.
1398(42) 0.000567 1314. 1363.
1417(42) 0.000567 1314. 1370.
1416(42) 0.000567 1314. 1381.
1459(43) 0.000541 1313. 1400.
1547(44) 0.000517 1313. 1431.
1550(44) 0.000517 1313. 1478.
1588(45) 0.000494 1312. 1542.
1686(46) 0.000473 1312. 1618.
1715(47) 0.000453 1312. 1688.
1769(47) 0.000453 1311. 1732.
1833(48) 0.000434 1311. 1725.
1745(47) 0.000453 1311. 1666.
1609(45) 0.000494 1310. 1585.
1482(43) 0.000541 1310. 1510.
1426(42) 0.000567 1310. 1453.
1436(42) 0.000567 1309. 1415.
1365(41) 0.000595 1309. 1391.
1303(40) 0.000625 1309. 1379.
1337(41) 0.000595 1308. 1372.
1358(41) 0.000595 1308. 1369.
1330(41) 0.000595 1308. 1369.
1352(41) 0.000595 1308. 1371.
1345(41) 0.000595 1307. 1375.
1375(41) 0.000595 1307. 1383.
1465(43) 0.000541 1307. 1396.
1492(43) 0.000541 1306. 1417.
1500(43) 0.000541 1306. 1450.
1595(45) 0.000494 1306. 1503.
1665(46) 0.000473 1305. 1580.
1716(46) 0.000473 1305. 1684.
1888(49) 0.000416 1305. 1811.
2031(51) 0.000384 1304. 1938.
2072(51) 0.000384 1304. 2037.
2134(52) 0.000370 1304. 2071.
1998(50) 0.000400 1303. 2010.
1817(45) 0.000494 1303. 1878.
1738(44) 0.000517 1303. 1732.
1623(43) 0.000541 1302. 1608.
1495(41) 0.000595 1302. 1519.
1445(40) 0.000625 1302. 1460.
1457(40) 0.000625 1301. 1426.
1361(39) 0.000657 1301. 1407.
1369(39) 0.000657 1301. 1399.
1358(39) 0.000657 1300. 1399.
1384(39) 0.000657 1300. 1408.
1435(40) 0.000625 1300. 1426.
1463(41) 0.000595 1300. 1457.
1507(41) 0.000595 1299. 1503.
1630(43) 0.000541 1299. 1565.
1614(43) 0.000541 1299. 1636.
1721(44) 0.000517 1298. 1704.
1764(45) 0.000494 1298. 1754.
1767(45) 0.000494 1298. 1774.
1685(44) 0.000517 1297. 1765.
1707(44) 0.000517 1297. 1728.
1679(43) 0.000541 1297. 1662.
1610(43) 0.000541 1296. 1585.
1577(42) 0.000567 1296. 1514.
1527(41) 0.000595 1296. 1459.
1429(40) 0.000625 1295. 1421.
1340(39) 0.000657 1295. 1398.
1308(38) 0.000693 1295. 1385.
1322(38) 0.000693 1294. 1379.
1333(39) 0.000657 1294. 1378.
1339(39) 0.000657 1294. 1383.
1375(39) 0.000657 1294. 1394.
1397(40) 0.000625 1293. 1416.
1369(39) 0.000657 1293. 1454.
1432(40) 0.000625 1293. 1514.
1559(42) 0.000567 1292. 1603.
1639(43) 0.000541 1292. 1716.
1700(44) 0.000517 1292. 1837.
1833(45) 0.000494 1291. 1922.
1840(46) 0.000473 1291. 1922.
1754(44) 0.000517 1291. 1837.
1777(45) 0.000494 1290. 1716.
1741(44) 0.000517 1290. 1603.
1586(42) 0.000567 1290. 1515.
1533(42) 0.000567 1290. 1454.
1497(41) 0.000595 1289. 1417.
1399(40) 0.000625 1289. 1396.
1362(39) 0.000657 1289. 1386.
1437(40) 0.000625 1288. 1383.
1443(40) 0.000625 1288. 1387.
1415(40) 0.000625 1288. 1399.
1410(40) 0.000625 1287. 1420.
1424(40) 0.000625 1287. 1454.
1460(40) 0.000625 1287. 1504.
1486(41) 0.000595 1286. 1568.
1633(43) 0.000541 1286. 1641.
1701(44) 0.000517 1286. 1714.
1794(45) 0.000494 1286. 1783.
1886(46) 0.000473 1285. 1839.
1877(46) 0.000473 1285. 1856.
1811(45) 0.000494 1285. 1810.
1801(45) 0.000494 1284. 1718.
1725(44) 0.000517 1284. 1618.
1615(43) 0.000541 1284. 1534.
1545(42) 0.000567 1283. 1473.
1483(41) 0.000595 1283. 1433.
1410(40) 0.000625 1283. 1411.
1355(39) 0.000657 1282. 1401.
1333(39) 0.000657 1282. 1400.
1346(39) 0.000657 1282. 1407.
1329(39) 0.000657 1282. 1425.
1491(41) 0.000595 1281. 1458.
1499(41) 0.000595 1281. 1514.
1562(42) 0.000567 1281. 1603.
1646(43) 0.000541 1280. 1733.
1889(46) 0.000473 1280. 1902.
2072(48) 0.000434 1280. 2089.
2172(50) 0.000400 1279. 2240.
2244(50) 0.000400 1279. 2281.
2214(50) 0.000400 1279. 2187.
2120(49) 0.000416 1279. 2013.
1941(47) 0.000453 1278. 1829.
1769(45) 0.000494 1278. 1674.
1590(42) 0.000567 1278. 1559.
1488(41) 0.000595 1277. 1483.
1500(41) 0.000595 1277. 1436.
1447(40) 0.000625 1277. 1408.
1422(40) 0.000625 1276. 1394.
1360(39) 0.000657 1276. 1388.
1353(39) 0.000657 1276. 1391.
1343(39) 0.000657 1275. 1403.
1392(39) 0.000657 1275. 1427.
1431(40) 0.000625 1275. 1468.
1492(41) 0.000595 1275. 1526.
1604(42) 0.000567 1274. 1599.
1593(42) 0.000567 1274. 1676.
1705(44) 0.000517 1274. 1736.
1730(44) 0.000517 1273. 1745.
1680(43) 0.000541 1273. 1696.
1666(43) 0.000541 1273. 1615.
1585(42) 0.000567 1272. 1533.
1555(40) 0.000625 1272. 1464.
1489(39) 0.000657 1272. 1415.
1386(37) 0.000730 1272. 1381.
1369(37) 0.000730 1271. 1360.
1357(37) 0.000730 1271. 1348.
1372(37) 0.000730 1271. 1341.
1346(37) 0.000730 1270. 1338.
1323(37) 0.000730 1270. 1337.
1392(38) 0.000693 1270. 1340.
1300(36) 0.000772 1269. 1347.
1369(37) 0.000730 1269. 1358.
1406(38) 0.000693 1269. 1375.
1410(38) 0.000693 1269. 1397.
1429(38) 0.000693 1268. 1421.
1453(38) 0.000693 1268. 1439.
1420(38) 0.000693 1268. 1444.
1436(38) 0.000693 1267. 1434.
1399(38) 0.000693 1267. 1417.
1408(38) 0.000693 1267. 1402.
1386(37) 0.000730 1266. 1392.
1295(36) 0.000772 1266. 1389.
1331(37) 0.000730 1266. 1396.
1424(38) 0.000693 1266. 1413.
1425(38) 0.000693 1265. 1444.
1434(38) 0.000693 1265. 1499.
1524(39) 0.000657 1265. 1585.
1625(41) 0.000595 1264. 1716.
1886(44) 0.000517 1264. 1896.
2015(45) 0.000494 1264. 2121.
2250(48) 0.000434 1263. 2357.
2376(49) 0.000416 1263. 2532.
2543(51) 0.000384 1263. 2558.
2407(49) 0.000416 1263. 2423.
2263(48) 0.000434 1262. 2205.
2131(46) 0.000473 1262. 1981.
1925(44) 0.000517 1262. 1788.
1704(42) 0.000567 1261. 1640.
1500(39) 0.000657 1261. 1535.
1415(38) 0.000693 1261. 1466.
1400(38) 0.000693 1260. 1421.
1377(37) 0.000730 1260. 1393.
1263(36) 0.000772 1260. 1376.
1336(37) 0.000730 1260. 1366.
1383(37) 0.000730 1259. 1361.
1302(36) 0.000772 1259. 1362.
1325(37) 0.000730 1259. 1368.
1371(37) 0.000730 1258. 1380.
1342(37) 0.000730 1258. 1394.
1393(38) 0.000693 1258. 1408.
1410(38) 0.000693 1257. 1414.
1367(37) 0.000730 1257. 1410.
1310(36) 0.000772 1257. 1397.
1339(37) 0.000730 1257. 1384.
1362(37) 0.000730 1256. 1375.
1371(37) 0.000730 1256. 1373.
1312(36) 0.000772 1256. 1381.
1376(37) 0.000730 1255. 1400.
1392(38) 0.000693 1255. 1437.
1473(39) 0.000657 1255. 1496.
1526(39) 0.000657 1254. 1579.
1639(41) 0.000595 1254. 1686.
1794(43) 0.000541 1254. 1805.
1901(44) 0.000517 1254. 1906.
1927(44) 0.000517 1253. 1944.
1915(44) 0.000517 1253. 1898.
1787(43) 0.000541 1253. 1794.
1613(40) 0.000625 1252. 1676.
1561(40) 0.000625 1252. 1571.
1451(38) 0.000693 1252. 1490.
1415(38) 0.000693 1251. 1433.
1388(37) 0.000730 1251. 1397.
1327(37) 0.000730 1251. 1376.
1315(36) 0.000772 1251. 1367.
1344(37) 0.000730 1250. 1367.
1324(37) 0.000730 1250. 1375.
1379(37) 0.000730 1250. 1394.
1423(38) 0.000693 1249. 1426.
1434(38) 0.000693 1249. 1472.
1476(39) 0.000657 1249. 1533.
1645(41) 0.000595 1248. 1603.
1703(42) 0.000567 1248. 1668.
1730(42) 0.000567 1248. 1707.
1810(43) 0.000541 1248. 1709.
1730(42) 0.000567 1247. 1689.
1711(42) 0.000567 1247. 1672.
1655(41) 0.000595 1247. 1673.
1677(41) 0.000595 1246. 1692.
1715(42) 0.000567 1246. 1711.
1714(42) 0.000567 1246. 1706.
1680(41) 0.000595 1245. 1664.
1713(42) 0.000567 1245. 1596.
1549(40) 0.000625 1245. 1525.
1603(40) 0.000625 1245. 1463.
1574(40) 0.000625 1244. 1416.
1450(38) 0.000693 1244. 1385.
1373(37) 0.000730 1244. 1367.
1270(36) 0.000772 1243. 1362.
1310(36) 0.000772 1243. 1368.
1362(37) 0.000730 1243. 1386.
1411(38) 0.000693 1242. 1415.
1455(37) 0.000730 1242. 1455.
1533(38) 0.000693 1242. 1501.
1559(38) 0.000693 1242. 1543.
1567(38) 0.000693 1241. 1563.
1614(39) 0.000657 1241. 1550.
1605(39) 0.000657 1241. 1510.
1456(37) 0.000730 1240. 1460.
1449(37) 0.000730 1240. 1414.
1380(36) 0.000772 1240. 1376.
1349(36) 0.000772 1239. 1349.
1310(35) 0.000816 1239.2 1331.5
1339(35) 0.000816 1238.9 1321.2
1262(34) 0.000865 1238.6 1316.6
1317(35) 0.000816 1238.3 1316.1
1272(35) 0.000816 1238.0 1319.0
1289(35) 0.000816 1237.7 1324.6
1367(36) 0.000772 1237. 1332.
1322(35) 0.000816 1237.1 1342.7
1363(36) 0.000772 1237. 1356.
1397(36) 0.000772 1236. 1374.
1441(37) 0.000730 1236. 1399.
1368(36) 0.000772 1236. 1427.
1392(36) 0.000772 1236. 1456.
1427(37) 0.000730 1235. 1475.
1406(36) 0.000772 1235. 1479.
1418(37) 0.000730 1235. 1470.
1452(37) 0.000730 1234. 1456.
1410(36) 0.000772 1234. 1450.
1469(37) 0.000730 1234. 1458.
1491(38) 0.000693 1233. 1487.
1602(39) 0.000657 1233. 1538.
1599(39) 0.000657 1233. 1610.
1773(41) 0.000595 1233. 1699.
1907(43) 0.000541 1232. 1790.
1939(43) 0.000541 1232. 1862.
2023(44) 0.000517 1232. 1899.
2052(44) 0.000517 1231. 1914.
2095(45) 0.000494 1231. 1927.
2036(44) 0.000517 1231. 1948.
2035(44) 0.000517 1230. 1969.
2005(44) 0.000517 1230. 1971.
1897(42) 0.000567 1230. 1935.
1907(43) 0.000541 1230. 1855.
1734(41) 0.000595 1229. 1750.
1617(39) 0.000657 1229. 1645.
1563(38) 0.000693 1229. 1557.
1462(37) 0.000730 1228. 1489.
1388(36) 0.000772 1228. 1442.
1420(37) 0.000730 1228. 1415.
1373(36) 0.000772 1227. 1403.
1411(36) 0.000772 1227. 1406.
1394(36) 0.000772 1227. 1425.
1494(38) 0.000693 1227. 1461.
1451(37) 0.000730 1226. 1518.
1549(38) 0.000693 1226. 1598.
1745(41) 0.000595 1226. 1698.
1906(43) 0.000541 1225. 1807.
1912(43) 0.000541 1225. 1900.
1997(44) 0.000517 1225. 1943.
1870(42) 0.000567 1224. 1912.
1818(42) 0.000567 1224. 1825.
1811(41) 0.000595 1224. 1717.
1652(40) 0.000625 1224. 1615.
1638(39) 0.000657 1223. 1533.
1522(38) 0.000693 1223. 1474.
1502(38) 0.000693 1223. 1439.
1452(37) 0.000730 1222. 1426.
1492(38) 0.000693 1222. 1432.
1505(38) 0.000693 1222. 1456.
1578(39) 0.000657 1221. 1496.
1582(39) 0.000657 1221. 1548.
1628(39) 0.000657 1221. 1604.
1664(40) 0.000625 1221. 1649.
1662(40) 0.000625 1220. 1666.
1687(40) 0.000625 1220. 1648.
1687(40) 0.000625 1220. 1609.
1610(39) 0.000657 1219. 1564.
1595(39) 0.000657 1219. 1526.
1483(37) 0.000730 1219. 1502.
1479(37) 0.000730 1218. 1499.
1533(38) 0.000693 1218. 1521.
1601(39) 0.000657 1218. 1569.
1649(39) 0.000657 1218. 1646.
1775(41) 0.000595 1217. 1749.
1837(42) 0.000567 1217. 1869.
1979(43) 0.000541 1217. 1987.
2029(44) 0.000517 1216. 2079.
2079(44) 0.000517 1216. 2133.
2053(44) 0.000517 1216. 2157.
2131(45) 0.000494 1215. 2151.
2137(45) 0.000494 1215. 2102.
1994(44) 0.000517 1215. 2006.
1869(42) 0.000567 1215. 1882.
1776(41) 0.000595 1214. 1755.
1651(40) 0.000625 1214. 1642.
1509(38) 0.000693 1214. 1551.
1478(37) 0.000730 1213. 1485.
1399(36) 0.000772 1213. 1441.
1475(37) 0.000730 1213. 1416.
1418(37) 0.000730 1212. 1409.
1417(35) 0.000816 1212.1 1419.7
1506(36) 0.000772 1212. 1447.
1482(36) 0.000772 1212. 1494.
1541(37) 0.000730 1211. 1558.
1658(38) 0.000693 1211. 1637.
1666(38) 0.000693 1211. 1721.
1798(40) 0.000625 1210. 1790.
1815(40) 0.000625 1210. 1822.
1795(40) 0.000625 1210. 1807.
1816(40) 0.000625 1209. 1753.
1690(38) 0.000693 1209. 1675.
1566(37) 0.000730 1209. 1589.
1551(37) 0.000730 1209. 1510.
1453(36) 0.000772 1208. 1446.
1436(35) 0.000816 1207.9 1397.9
1402(35) 0.000816 1207.6 1365.7
1328(34) 0.000865 1207.3 1346.3
1392(35) 0.000816 1207.0 1336.0
1332(34) 0.000865 1206.7 1330.7
1284(33) 0.000918 1206.4 1325.9
1345(34) 0.000865 1206.2 1318.2
1331(34) 0.000865 1205.9 1306.8
1220(32) 0.000977 1205.6 1293.6
1234(33) 0.000918 1205.3 1280.8
1218(32) 0.000977 1205.0 1269.5
1302(34) 0.000865 1204.7 1260.3
1270(33) 0.000918 1204.4 1253.1
1226(33) 0.000918 1204.1 1247.5
1261(33) 0.000918 1203.8 1243.4
1265(33) 0.000918 1203.5 1240.3
1262(33) 0.000918 1203.2 1237.9
1242(33) 0.000918 1202.9 1236.1
1309(34) 0.000865 1202.6 1234.8
1242(33) 0.000918 1202.3 1233.9
1203(32) 0.000977 1202.0 1233.5
1261(33) 0.000918 1201.7 1233.7
1241(33) 0.000918 1201.4 1234.6
1221(32) 0.000977 1201.1 1236.5
1232(33) 0.000918 1200.8 1239.5
1210(32) 0.000977 1200.5 1243.7
1243(33) 0.000918 1200.2 1248.8
1275(33) 0.000918 1199.9 1254.4
1291(33) 0.000918 1199.6 1259.2
1296(34) 0.000865 1199.3 1261.6
1288(33) 0.000918 1199.0 1260.3
1281(33) 0.000918 1198.7 1255.9
1274(33) 0.000918 1198.4 1250.2
1217(32) 0.000977 1198.1 1244.5
1244(33) 0.000918 1197.8 1239.7
1252(33) 0.000918 1197.5 1236.2
1227(33) 0.000918 1197.2 1234.0
1294(33) 0.000918 1196.9 1233.2
1231(33) 0.000918 1196.6 1233.7
1230(33) 0.000918 1196.3 1235.4
1192(32) 0.000977 1196.0 1238.4
1223(33) 0.000918 1195.7 1242.4
1259(33) 0.000918 1195.4 1247.3
1256(33) 0.000918 1195.1 1252.9
1257(33) 0.000918 1194.9 1258.5
1219(32) 0.000977 1194.6 1263.5
1259(33) 0.000918 1194.3 1268.1
1248(33) 0.000918 1194.0 1273.5
1342(34) 0.000865 1193.7 1281.9
1277(33) 0.000918 1193.4 1295.1
1289(33) 0.000918 1193.1 1314.8
1371(35) 0.000816 1192.8 1342.2
1370(34) 0.000865 1192.5 1377.6
1428(35) 0.000816 1192.2 1419.7
1428(35) 0.000816 1191.9 1464.7
1516(36) 0.000772 1192. 1507.
1588(37) 0.000730 1191. 1541.
1540(37) 0.000730 1191. 1566.
1517(36) 0.000772 1191. 1580.
1559(37) 0.000730 1190. 1578.
1507(36) 0.000772 1190. 1557.
1486(36) 0.000772 1190. 1522.
1469(36) 0.000772 1190. 1480.
1393(35) 0.000816 1189.3 1440.9
1375(35) 0.000816 1189.0 1410.0
1398(35) 0.000816 1188.7 1391.6
1397(35) 0.000816 1188.4 1387.2
1406(35) 0.000816 1188.1 1396.4
1424(35) 0.000816 1187.8 1416.7
1438(35) 0.000816 1187.5 1443.5
1465(36) 0.000772 1187. 1469.
1399(35) 0.000816 1186.9 1481.2
1405(35) 0.000816 1186.6 1473.5
1410(35) 0.000816 1186.3 1446.9
1386(35) 0.000816 1186.0 1410.0
1317(34) 0.000865 1185.8 1371.7
1346(34) 0.000865 1185.5 1337.4
1329(34) 0.000865 1185.2 1309.5
1252(33) 0.000918 1184.9 1288.4
1234(33) 0.000918 1184.6 1273.8
1261(33) 0.000918 1184.3 1264.7
1280(33) 0.000918 1184.0 1260.3
1284(33) 0.000918 1183.7 1260.3
1243(33) 0.000918 1183.4 1264.5
1201(32) 0.000977 1183.1 1273.4
1282(33) 0.000918 1182.8 1287.6
1322(47) 0.000453 1183. 1308.
1301(32) 0.000977 1182.3 1333.7
1365(33) 0.000918 1182.0 1364.6
1411(34) 0.000865 1181.7 1397.6
1389(34) 0.000865 1181.4 1426.8
1425(34) 0.000865 1181.1 1444.1
1446(34) 0.000865 1180.8 1443.4
1424(34) 0.000865 1180.5 1425.9
1415(34) 0.000865 1180.2 1399.1
1421(34) 0.000865 1180.0 1371.2
1398(34) 0.000865 1179.7 1347.5
1330(33) 0.000918 1179.4 1331.1
1310(33) 0.000918 1179.1 1323.8
1324(33) 0.000918 1178.8 1326.9
1384(33) 0.000918 1178.5 1341.9
1348(33) 0.000918 1178.2 1370.2
1400(34) 0.000865 1177.9 1413.4
1466(34) 0.000865 1177.7 1472.3
1574(36) 0.000772 1177. 1546.
1660(37) 0.000730 1177. 1631.
1723(37) 0.000730 1177. 1717.
1827(38) 0.000693 1177. 1790.
1819(38) 0.000693 1176. 1832.
1775(38) 0.000693 1176. 1835.
1756(38) 0.000693 1176. 1799.
1746(38) 0.000693 1175. 1731.
1629(36) 0.000772 1175. 1648.
1542(35) 0.000816 1174.8 1563.9
1500(35) 0.000816 1174.5 1490.1
1437(34) 0.000865 1174.2 1431.9
1367(33) 0.000918 1174.0 1390.3
1336(33) 0.000918 1173.7 1364.6
1354(33) 0.000918 1173.4 1352.8
1324(33) 0.000918 1173.1 1351.8
1308(33) 0.000918 1172.8 1358.2
1364(33) 0.000918 1172.5 1368.5
1366(33) 0.000918 1172.3 1378.0
1362(33) 0.000918 1172.0 1381.3
1382(33) 0.000918 1171.7 1374.3
1342(33) 0.000918 1171.4 1357.0
1311(33) 0.000918 1171.1 1333.6
1324(33) 0.000918 1170.8 1308.6
1304(32) 0.000977 1170.6 1285.1
1267(32) 0.000977 1170.3 1265.0
1250(32) 0.000977 1170.0 1248.7
1234(32) 0.000977 1169.7 1236.2
1267(32) 0.000977 1169.4 1227.2
1243(32) 0.000977 1169.2 1221.0
1212(31) 0.001041 1168.9 1217.1
1169(31) 0.001041 1168.6 1215.1
1182(31) 0.001041 1168.3 1214.6
1224(31) 0.001041 1168.0 1215.5
1208(31) 0.001041 1167.8 1217.3
1261(32) 0.000977 1167.5 1219.8
1222(31) 0.001041 1167.2 1222.2
1239(32) 0.000977 1166.9 1223.8
1213(31) 0.001041 1166.6 1223.7
1225(31) 0.001041 1166.4 1222.1
1248(32) 0.000977 1166.1 1219.6
1229(32) 0.000977 1165.8 1217.2
1227(32) 0.000977 1165.5 1215.9
1249(32) 0.000977 1165.3 1216.2
1220(31) 0.001041 1165.0 1218.5
1217(31) 0.001041 1164.7 1223.2
1203(31) 0.001041 1164.4 1230.2
1260(32) 0.000977 1164.2 1239.5
1269(32) 0.000977 1163.9 1250.4
1241(32) 0.000977 1163.6 1261.8
1290(32) 0.000977 1163.3 1271.7
1327(33) 0.000918 1163.1 1277.8
1285(32) 0.000977 1162.8 1279.2
1325(33) 0.000918 1162.5 1277.2
1325(33) 0.000918 1162.2 1274.8
1261(32) 0.000977 1162.0 1275.0
1262(32) 0.000977 1161.7 1280.3
1256(32) 0.000977 1161.4 1292.0
1299(32) 0.000977 1161.1 1310.9
1336(33) 0.000918 1160.9 1336.7
1362(33) 0.000918 1160.6 1368.1
1416(34) 0.000865 1160.3 1401.4
1429(34) 0.000865 1160.0 1430.7
1417(34) 0.000865 1159.8 1449.2
1413(34) 0.000865 1159.5 1452.7
1404(34) 0.000865 1159.2 1442.7
1352(33) 0.000918 1159.0 1424.1
1379(33) 0.000918 1158.7 1401.3
1387(34) 0.000865 1158.4 1376.7
1354(33) 0.000918 1158.1 1351.6
1327(33) 0.000918 1157.9 1326.8
1278(32) 0.000977 1157.6 1302.9
1262(32) 0.000977 1157.3 1280.8
1261(32) 0.000977 1157.1 1261.7
1291(32) 0.000977 1156.8 1246.4
1250(32) 0.000977 1156.5 1235.1
1231(32) 0.000977 1156.3 1227.6
1187(31) 0.001041 1156.0 1223.9
1210(31) 0.001041 1155.7 1223.7
1217(31) 0.001041 1155.5 1226.7
1216(31) 0.001041 1155.2 1232.7
1254(32) 0.000977 1154.9 1240.9
1247(32) 0.000977 1154.7 1250.5
1267(32) 0.000977 1154.4 1259.7
1260(32) 0.000977 1154.1 1266.3
1263(32) 0.000977 1153.9 1268.3
1266(32) 0.000977 1153.6 1265.1
1239(32) 0.000977 1153.3 1258.6
1263(32) 0.000977 1153.1 1251.1
1281(32) 0.000977 1152.8 1244.8
1268(32) 0.000977 1152.5 1240.8
1245(32) 0.000977 1152.3 1239.6
1234(32) 0.000977 1152.0 1240.8
1286(32) 0.000977 1151.7 1243.6
1313(33) 0.000918 1151.5 1246.8
1281(32) 0.000977 1151.2 1249.1
1267(32) 0.000977 1150.9 1250.5
1351(33) 0.000918 1150.7 1251.4
1282(32) 0.000977 1150.4 1252.3
1252(32) 0.000977 1150.2 1252.7
1280(32) 0.000977 1149.9 1251.7
1240(32) 0.000977 1149.6 1248.7
1188(31) 0.001041 1149.4 1244.1
1267(32) 0.000977 1149.1 1239.6
1235(32) 0.000977 1148.8 1236.8
1249(32) 0.000977 1148.6 1237.1
1222(32) 0.000977 1148.3 1241.5
1278(32) 0.000977 1148.1 1250.7
1351(33) 0.000918 1147.8 1264.9
1331(33) 0.000918 1147.5 1283.8
1302(33) 0.000918 1147.3 1306.3
1358(33) 0.000918 1147.0 1330.2
1402(34) 0.000865 1146.8 1351.4
1373(34) 0.000865 1146.5 1365.0
1367(33) 0.000918 1146.2 1366.6
1354(33) 0.000918 1146.0 1356.0
1367(33) 0.000918 1145.7 1336.8
1388(34) 0.000865 1145.5 1314.4
1330(33) 0.000918 1145.2 1293.2
1286(32) 0.000977 1145.0 1276.0
1247(32) 0.000977 1144.7 1264.4
1269(32) 0.000977 1144.4 1259.3
1279(32) 0.000977 1144.2 1261.1
1299(33) 0.000918 1143.9 1269.8
1368(33) 0.000918 1143.7 1284.7
1383(34) 0.000865 1143.4 1304.8
1396(34) 0.000865 1143.2 1328.1
1430(34) 0.000865 1142.9 1351.3
1481(35) 0.000816 1142.7 1369.6
1496(35) 0.000816 1142.4 1377.9
1437(34) 0.000865 1142.2 1373.4
1395(34) 0.000865 1141.9 1357.4
1371(34) 0.000865 1141.6 1334.3
1372(34) 0.000865 1141.4 1308.5
1294(33) 0.000918 1141.1 1283.7
1228(32) 0.000977 1140.9 1262.1
1281(32) 0.000977 1140.6 1244.8
1192(31) 0.001041 1140.4 1232.3
1236(32) 0.000977 1140.1 1224.6
1269(32) 0.000977 1139.9 1221.5
1226(32) 0.000977 1139.6 1222.6
1241(32) 0.000977 1139.4 1227.6
1303(33) 0.000918 1139.1 1235.9
1288(32) 0.000977 1138.9 1246.9
1320(33) 0.000918 1138.6 1259.5
1242(32) 0.000977 1138.4 1272.1
1210(31) 0.001041 1138.1 1282.7
1252(32) 0.000977 1137.9 1289.0
1237(32) 0.000977 1137.6 1289.5
1253(32) 0.000977 1137.4 1285.0
1275(32) 0.000977 1137.1 1277.7
1288(32) 0.000977 1136.9 1270.3
1270(32) 0.000977 1136.6 1264.7
1296(33) 0.000918 1136.4 1261.8
1289(33) 0.000918 1136.1 1261.8
1265(32) 0.000977 1135.9 1264.0
1232(32) 0.000977 1135.7 1267.3
1222(32) 0.000977 1135.4 1270.9
1230(32) 0.000977 1135.2 1274.7
1253(32) 0.000977 1134.9 1278.8
1318(33) 0.000918 1134.7 1282.8
1389(34) 0.000865 1134.4 1285.9
1312(33) 0.000918 1134.2 1286.6
1278(32) 0.000977 1133.9 1284.5
1313(33) 0.000918 1133.7 1280.5
1291(33) 0.000918 1133.4 1276.6
1280(32) 0.000977 1133.2 1274.3
1299(33) 0.000918 1133.0 1274.9
1311(33) 0.000918 1132.7 1279.7
1319(33) 0.000918 1132.5 1289.1
1362(33) 0.000918 1132.2 1303.4
1329(33) 0.000918 1132.0 1322.2
1363(33) 0.000918 1131.7 1343.8
1418(34) 0.000865 1131.5 1365.3
1423(34) 0.000865 1131.3 1382.5
1420(34) 0.000865 1131.0 1391.3
1397(34) 0.000865 1130.8 1389.9
1405(34) 0.000865 1130.5 1380.3
1336(33) 0.000918 1130.3 1366.7
1363(33) 0.000918 1130.1 1353.7
1311(33) 0.000918 1129.8 1344.4
1316(33) 0.000918 1129.6 1340.6
1327(27) 0.001372 1129.3 1343.0
1325(33) 0.000918 1129.1 1351.7
1324(33) 0.000918 1128.9 1365.9
1423(34) 0.000865 1128.6 1384.2
1390(34) 0.000865 1128.4 1404.1
1432(34) 0.000865 1128.1 1423.6
1458(34) 0.000865 1127.9 1441.9
1437(34) 0.000865 1127.7 1460.0
1507(35) 0.000816 1127.4 1478.4
1508(35) 0.000816 1127.2 1496.4
1442(34) 0.000865 1127.0 1511.8
1449(34) 0.000865 1126.7 1522.8
1460(34) 0.000865 1126.5 1530.0
1470(35) 0.000816 1126.2 1535.9
1567(36) 0.000772 1126. 1543.
1568(36) 0.000772 1126. 1554.
1535(35) 0.000816 1125.5 1568.4
1609(36) 0.000772 1125. 1588.
1610(36) 0.000772 1125. 1612.
1703(37) 0.000730 1125. 1638.
1663(37) 0.000730 1125. 1661.
1703(37) 0.000730 1124. 1679.
1698(37) 0.000730 1124. 1693.
1696(37) 0.000730 1124. 1701.
1739(38) 0.000693 1124. 1701.
1655(37) 0.000730 1123. 1689.
1660(37) 0.000730 1123. 1661.
1575(36) 0.000772 1123. 1616.
1528(35) 0.000816 1122.7 1559.5
1528(35) 0.000816 1122.5 1498.8
1421(34) 0.000865 1122.3 1439.9
1356(33) 0.000918 1122.0 1386.8
1298(32) 0.000977 1121.8 1341.5
1255(32) 0.000977 1121.6 1304.5
1221(31) 0.001041 1121.3 1275.5
1232(32) 0.000977 1121.1 1253.7
1225(32) 0.000977 1120.9 1237.9
1211(31) 0.001041 1120.7 1227.1
1217(31) 0.001041 1120.4 1220.0
1178(31) 0.001041 1120.2 1215.5
1231(32) 0.000977 1120.0 1212.6
1271(32) 0.000977 1119.7 1210.5
1233(32) 0.000977 1119.5 1208.7
1236(32) 0.000977 1119.3 1206.8
1210(31) 0.001041 1119.1 1204.9
1260(32) 0.000977 1118.8 1202.8
1228(32) 0.000977 1118.6 1200.8
1204(31) 0.001041 1118.4 1199.1
1209(31) 0.001041 1118.1 1198.3
1167(31) 0.001041 1117.9 1199.1
1173(31) 0.001041 1117.7 1201.9
1158(31) 0.001041 1117.5 1207.0
1223(32) 0.000977 1117.2 1215.0
1188(31) 0.001041 1117.0 1225.8
1265(32) 0.000977 1116.8 1239.7
1197(31) 0.001041 1116.6 1256.2
1250(32) 0.000977 1116.3 1274.9
1330(33) 0.000918 1116.1 1295.0
1309(33) 0.000918 1115.9 1315.5
1272(32) 0.000977 1115.6 1335.0
1351(33) 0.000918 1115.4 1352.3
1404(34) 0.000865 1115.2 1366.9
1405(34) 0.000865 1115.0 1379.2
1415(34) 0.000865 1114.8 1390.4
1421(34) 0.000865 1114.5 1400.6
1468(35) 0.000816 1114.3 1409.6
1433(34) 0.000865 1114.1 1416.5
1456(34) 0.000865 1113.9 1420.9
1424(34) 0.000865 1113.6 1422.6
1459(34) 0.000865 1113.4 1420.3
1495(35) 0.000816 1113.2 1412.8
1455(34) 0.000865 1113.0 1398.9
1435(34) 0.000865 1112.7 1378.8
1359(33) 0.000918 1112.5 1354.2
1372(33) 0.000918 1112.3 1327.4
1317(33) 0.000918 1112.1 1300.7
1242(32) 0.000977 1111.9 1275.6
1257(32) 0.000977 1111.6 1253.0
1229(32) 0.000977 1111.4 1233.6
1227(32) 0.000977 1111.2 1217.6
1214(31) 0.001041 1111.0 1204.8
1215(31) 0.001041 1110.7 1194.9
1199(31) 0.001041 1110.5 1187.1
1162(31) 0.001041 1110.3 1180.9
1204(31) 0.001041 1110.1 1175.4
1146(31) 0.001041 1109.9 1170.2
1133(30) 0.001111 1109.6 1165.4
1177(31) 0.001041 1109.4 1160.9
1177(31) 0.001041 1109.2 1156.9
1186(31) 0.001041 1109.0 1153.4
1138(30) 0.001111 1108.8 1150.6
1129(30) 0.001111 1108.5 1148.4
1157(31) 0.001041 1108.3 1146.8
1107(30) 0.001111 1108.1 1146.0
1148(31) 0.001041 1107.9 1145.9
1123(30) 0.001111 1107.7 1146.5
1131(30) 0.001111 1107.5 1148.0
1160(31) 0.001041 1107.2 1150.4
1150(31) 0.001041 1107.0 1153.8
1203(31) 0.001041 1106.8 1158.0
1142(42) 0.000567 1107. 1163.
1183(30) 0.001111 1106.4 1169.0
1194(30) 0.001111 1106.1 1175.2
1152(30) 0.001111 1105.9 1181.4
1153(30) 0.001111 1105.7 1186.6
1186(30) 0.001111 1105.5 1190.4
1177(30) 0.001111 1105.3 1192.5
1176(30) 0.001111 1105.1 1193.2
1166(30) 0.001111 1104.8 1193.3
1212(30) 0.001111 1104.6 1193.8
1181(30) 0.001111 1104.4 1195.0
1193(30) 0.001111 1104.2 1197.4
1211(30) 0.001111 1104.0 1200.6
1229(31) 0.001041 1103.8 1204.1
1215(30) 0.001111 1103.6 1207.4
1230(31) 0.001041 1103.3 1209.6
1255(31) 0.001041 1103.1 1210.3
1160(30) 0.001111 1102.9 1209.2
1238(31) 0.001041 1102.7 1206.6
1214(30) 0.001111 1102.5 1203.1
1244(31) 0.001041 1102.3 1199.7
1206(30) 0.001111 1102.0 1197.2
1211(30) 0.001111 1101.8 1196.3
1157(30) 0.001111 1101.6 1197.7
1164(30) 0.001111 1101.4 1201.7
1183(30) 0.001111 1101.2 1208.6
1201(30) 0.001111 1101.0 1218.3
1267(31) 0.001041 1100.8 1230.5
1261(31) 0.001041 1100.6 1244.3
1291(31) 0.001041 1100.3 1258.8
1261(31) 0.001041 1100.1 1272.3
1337(32) 0.000977 1099.9 1283.5
1310(32) 0.000977 1099.7 1291.8
1328(32) 0.000977 1099.5 1296.9
1276(31) 0.001041 1099.3 1299.1
1269(31) 0.001041 1099.1 1298.6
1295(31) 0.001041 1098.8 1296.1
1309(32) 0.000977 1098.6 1292.8
1270(31) 0.001041 1098.4 1290.0
1342(32) 0.000977 1098.2 1288.7
1294(31) 0.001041 1098.0 1289.5
1311(32) 0.000977 1097.8 1291.9
1250(31) 0.001041 1097.6 1295.0
1329(32) 0.000977 1097.4 1297.4
1278(31) 0.001041 1097.1 1297.8
1313(32) 0.000977 1096.9 1295.5
1323(32) 0.000977 1096.7 1290.6
1302(32) 0.000977 1096.5 1284.2
1310(32) 0.000977 1096.3 1277.7
1305(32) 0.000977 1096.1 1272.6
1272(31) 0.001041 1095.9 1269.6
1292(31) 0.001041 1095.7 1269.2
1305(32) 0.000977 1095.5 1271.1
1293(31) 0.001041 1095.2 1274.3
1262(31) 0.001041 1095.0 1277.5
1315(32) 0.000977 1094.8 1279.4
1328(32) 0.000977 1094.6 1279.4
1288(31) 0.001041 1094.4 1277.7
1283(31) 0.001041 1094.2 1274.7
1320(32) 0.000977 1094.0 1270.8
1283(31) 0.001041 1093.8 1266.1
1248(31) 0.001041 1093.6 1260.6
1190(30) 0.001111 1093.3 1254.5
1208(30) 0.001111 1093.1 1248.3
1217(31) 0.001041 1092.9 1242.6
1251(31) 0.001041 1092.7 1237.9
1242(31) 0.001041 1092.5 1234.7
1211(30) 0.001111 1092.3 1233.3
1164(30) 0.001111 1092.1 1233.9
1253(31) 0.001041 1091.9 1236.4
1212(30) 0.001111 1091.7 1240.1
1205(30) 0.001111 1091.5 1244.1
1169(30) 0.001111 1091.2 1247.0
1205(30) 0.001111 1091.0 1247.4
1234(31) 0.001041 1090.8 1244.6
1192(30) 0.001111 1090.6 1238.7
1251(31) 0.001041 1090.4 1230.9
1192(30) 0.001111 1090.2 1222.6
1156(30) 0.001111 1090.0 1214.8
1227(31) 0.001041 1089.8 1208.5
1221(31) 0.001041 1089.6 1203.9
1179(30) 0.001111 1089.4 1201.1
1214(30) 0.001111 1089.1 1199.8
1238(31) 0.001041 1088.9 1199.4
1225(31) 0.001041 1088.7 1199.2
1206(30) 0.001111 1088.5 1198.5
1167(30) 0.001111 1088.3 1196.8
1188(30) 0.001111 1088.1 1194.1
1195(30) 0.001111 1087.9 1190.5
1192(30) 0.001111 1087.7 1186.5
1209(30) 0.001111 1087.5 1182.4
1167(30) 0.001111 1087.3 1178.9
1189(30) 0.001111 1087.0 1176.6
1135(29) 0.001189 1086.8 1175.8
1133(29) 0.001189 1086.6 1177.0
1200(30) 0.001111 1086.4 1180.2
1248(31) 0.001041 1086.2 1185.6
1210(30) 0.001111 1086.0 1193.3
1234(31) 0.001041 1085.8 1203.1
1287(31) 0.001041 1085.6 1214.5
1225(31) 0.001041 1085.4 1227.0
1252(31) 0.001041 1085.2 1239.4
1313(32) 0.000977 1085.0 1250.5
1334(32) 0.000977 1084.7 1258.8
1271(31) 0.001041 1084.5 1263.3
1276(31) 0.001041 1084.3 1263.4
1293(32) 0.000977 1084.1 1259.7
1316(32) 0.000977 1083.9 1253.4
1248(31) 0.001041 1083.7 1246.1
1333(32) 0.000977 1083.5 1239.5
1268(31) 0.001041 1083.3 1235.0
1310(32) 0.000977 1083.1 1233.6
1272(31) 0.001041 1082.9 1235.9
1239(31) 0.001041 1082.7 1242.2
1313(32) 0.000977 1082.4 1252.4
1222(31) 0.001041 1082.2 1266.1
1321(32) 0.000977 1082.0 1282.5
1365(32) 0.000977 1081.8 1300.1
1287(31) 0.001041 1081.6 1317.1
1347(32) 0.000977 1081.4 1331.4
1468(34) 0.000865 1081.2 1341.0
1418(33) 0.000918 1081.0 1344.9
1325(32) 0.000977 1080.8 1343.4
1348(32) 0.000977 1080.6 1337.3
1382(33) 0.000918 1080.3 1328.0
1363(32) 0.000977 1080.1 1316.7
1329(32) 0.000977 1079.9 1304.8
1324(32) 0.000977 1079.7 1293.6
1355(32) 0.000977 1079.5 1284.0
1254(31) 0.001041 1079.3 1276.6
1291(32) 0.000977 1079.1 1271.3
1276(31) 0.001041 1078.9 1267.7
1238(31) 0.001041 1078.7 1265.0
1275(31) 0.001041 1078.5 1262.6
1183(30) 0.001111 1078.2 1260.4
1282(31) 0.001041 1078.0 1258.7
1250(31) 0.001041 1077.8 1258.1
1229(31) 0.001041 1077.6 1259.1
1261(31) 0.001041 1077.4 1262.3
1237(31) 0.001041 1077.2 1268.0
1256(31) 0.001041 1077.0 1276.5
1268(31) 0.001041 1076.8 1288.0
1322(32) 0.000977 1076.6 1302.4
1314(32) 0.000977 1076.4 1319.4
1372(32) 0.000977 1076.1 1338.3
1400(33) 0.000918 1075.9 1358.2
1315(32) 0.000977 1075.7 1377.6
1388(33) 0.000918 1075.5 1394.5
1373(33) 0.000918 1075.3 1406.4
1390(33) 0.000918 1075.1 1410.6
1439(33) 0.000918 1074.9 1405.3
1308(32) 0.000977 1074.7 1390.5
1410(33) 0.000918 1074.5 1368.0
1239(31) 0.001041 1074.2 1340.5
1320(32) 0.000977 1074.0 1311.0
1210(30) 0.001111 1073.8 1281.7
1198(30) 0.001111 1073.6 1254.1
1198(30) 0.001111 1073.4 1229.3
1207(30) 0.001111 1073.2 1207.6
1135(30) 0.001111 1073.0 1189.1
1167(30) 0.001111 1072.8 1173.9
1137(30) 0.001111 1072.6 1161.7
1116(29) 0.001189 1072.3 1152.2
1126(29) 0.001189 1072.1 1145.0
1104(29) 0.001189 1071.9 1139.7
1127(29) 0.001189 1071.7 1136.2
1089(29) 0.001189 1071.5 1134.1
1109(29) 0.001189 1071.3 1133.3
1150(30) 0.001111 1071.1 1133.8
1080(29) 0.001189 1070.9 1135.4
1109(29) 0.001189 1070.6 1138.2
1164(30) 0.001111 1070.4 1142.1
1108(29) 0.001189 1070.2 1147.3
1092(29) 0.001189 1070.0 1153.5
1109(29) 0.001189 1069.8 1160.8
1163(30) 0.001111 1069.6 1168.8
1145(30) 0.001111 1069.4 1177.3
1153(30) 0.001111 1069.2 1185.8
1184(30) 0.001111 1068.9 1193.7
1163(30) 0.001111 1068.7 1200.3
1188(30) 0.001111 1068.5 1205.4
1174(30) 0.001111 1068.3 1208.7
1188(30) 0.001111 1068.1 1210.2
1170(30) 0.001111 1067.9 1210.1
1186(30) 0.001111 1067.7 1208.8
1182(30) 0.001111 1067.4 1206.8
1159(30) 0.001111 1067.2 1204.7
1194(30) 0.001111 1067.0 1203.1
1201(30) 0.001111 1066.8 1202.5
1169(30) 0.001111 1066.6 1203.2
1202(30) 0.001111 1066.4 1205.4
1253(31) 0.001041 1066.2 1209.0
1221(31) 0.001041 1065.9 1213.9
1166(30) 0.001111 1065.7 1220.0
1181(30) 0.001111 1065.5 1227.4
1204(30) 0.001111 1065.3 1236.1
1203(30) 0.001111 1065.1 1246.6
1295(32) 0.000977 1064.9 1259.5
1221(31) 0.001041 1064.7 1275.1
1318(32) 0.000977 1064.4 1294.0
1357(32) 0.000977 1064.2 1316.7
1357(33) 0.000918 1064.0 1343.1
1381(34) 0.000865 1063.8 1373.0
1431(34) 0.000865 1063.6 1405.4
1513(35) 0.000816 1063.4 1438.8
1498(35) 0.000816 1063.1 1470.9
1539(36) 0.000772 1063. 1499.
1521(35) 0.000816 1062.7 1519.3
1623(37) 0.000730 1062. 1530.
1569(36) 0.000772 1062. 1531.
1556(36) 0.000772 1062. 1521.
1480(35) 0.000816 1061.8 1503.5
1534(36) 0.000772 1062. 1481.
1540(36) 0.000772 1061. 1455.
1483(35) 0.000816 1061.2 1428.8
1397(34) 0.000865 1061.0 1403.5
1419(34) 0.000865 1060.8 1380.1
1357(33) 0.000918 1060.5 1358.8
1353(33) 0.000918 1060.3 1339.6
1322(33) 0.000918 1060.1 1322.3
1311(33) 0.000918 1059.9 1306.8
1288(33) 0.000918 1059.7 1292.8
1267(32) 0.000977 1059.5 1280.5
1275(32) 0.000977 1059.2 1270.0
1238(32) 0.000977 1059.0 1261.6
1299(33) 0.000918 1058.8 1255.6
1283(32) 0.000977 1058.6 1252.1
1242(32) 0.000977 1058.4 1251.1
1288(33) 0.000918 1058.1 1252.3
1322(33) 0.000918 1057.9 1255.1
1251(32) 0.000977 1057.7 1258.6
1223(32) 0.000977 1057.5 1261.8
1249(32) 0.000977 1057.3 1263.6
1279(32) 0.000977 1057.0 1263.2
1299(33) 0.000918 1056.8 1260.5
1291(33) 0.000918 1056.6 1255.8
1272(32) 0.000977 1056.4 1249.9
1261(32) 0.000977 1056.2 1243.6
1197(31) 0.001041 1055.9 1237.4
1255(32) 0.000977 1055.7 1231.5
1222(32) 0.000977 1055.5 1225.7
1232(32) 0.000977 1055.3 1219.9
1183(31) 0.001041 1055.1 1213.3
1181(31) 0.001041 1054.8 1205.9
1166(31) 0.001041 1054.6 1197.4
1141(31) 0.001041 1054.4 1188.3
1156(31) 0.001041 1054.2 1179.0
1123(30) 0.001111 1054.0 1170.0
1171(31) 0.001041 1053.7 1161.7
1130(30) 0.001111 1053.5 1154.5
1099(30) 0.001111 1053.3 1148.5
1107(30) 0.001111 1053.1 1143.9
1088(30) 0.001111 1052.9 1140.9
1089(30) 0.001111 1052.6 1139.6
1129(30) 0.001111 1052.4 1140.0
1130(30) 0.001111 1052.2 1142.3
1166(31) 0.001041 1052.0 1146.6
1143(31) 0.001041 1051.7 1153.0
1170(31) 0.001041 1051.5 1161.7
1150(31) 0.001041 1051.3 1172.7
1233(32) 0.000977 1051.1 1186.2
1234(32) 0.000977 1050.8 1202.1
1285(33) 0.000918 1050.6 1220.3
1260(32) 0.000977 1050.4 1240.6
1286(33) 0.000918 1050.2 1262.5
1281(32) 0.000977 1050.0 1285.4
1293(33) 0.000918 1049.7 1308.4
1393(34) 0.000865 1049.5 1330.9
1371(34) 0.000865 1049.3 1351.6
1363(33) 0.000918 1049.1 1369.9
1364(34) 0.000865 1048.8 1385.0
1430(34) 0.000865 1048.6 1396.4
1426(34) 0.000865 1048.4 1403.9
1468(35) 0.000816 1048.2 1407.3
1419(34) 0.000865 1047.9 1406.8
1511(35) 0.000816 1047.7 1402.6
1416(34) 0.000865 1047.5 1395.0
1405(34) 0.000865 1047.3 1384.2
1314(33) 0.000918 1047.0 1370.4
1340(33) 0.000918 1046.8 1354.1
1343(33) 0.000918 1046.6 1335.9
1330(33) 0.000918 1046.4 1316.6
1283(32) 0.000977 1046.1 1296.8
1254(32) 0.000977 1045.9 1277.2
1213(32) 0.000977 1045.7 1258.3
1253(32) 0.000977 1045.5 1240.7
1206(31) 0.001041 1045.2 1224.9
1190(31) 0.001041 1045.0 1211.3
1205(31) 0.001041 1044.8 1200.3
1212(32) 0.000977 1044.6 1191.8
1136(31) 0.001041 1044.3 1185.9
1137(31) 0.001041 1044.1 1182.4
1168(31) 0.001041 1043.9 1180.9
1186(31) 0.001041 1043.6 1181.1
1130(30) 0.001111 1043.4 1182.3
1143(31) 0.001041 1043.2 1183.7
1152(31) 0.001041 1043.0 1184.7
1100(30) 0.001111 1042.7 1184.5
1127(30) 0.001111 1042.5 1182.7
1152(31) 0.001041 1042.3 1178.9
1156(31) 0.001041 1042.1 1173.6
1175(31) 0.001041 1041.8 1167.1
1143(31) 0.001041 1041.6 1160.1
1173(31) 0.001041 1041.4 1152.9
1098(30) 0.001111 1041.1 1146.0
1127(31) 0.001041 1040.9 1139.8
1056(30) 0.001111 1040.7 1134.2
1099(30) 0.001111 1040.5 1129.3
1098(30) 0.001111 1040.2 1125.1
1083(30) 0.001111 1040.0 1121.4
1108(31) 0.001041 1039.8 1118.2
1091(30) 0.001111 1039.5 1115.3
1083(30) 0.001111 1039.3 1112.7
1066(30) 0.001111 1039.1 1110.4
1140(31) 0.001041 1038.9 1108.6
1092(30) 0.001111 1038.6 1107.4
1092(30) 0.001111 1038.4 1106.9
1086(30) 0.001111 1038.2 1107.3
1127(31) 0.001041 1037.9 1108.6
1167(31) 0.001041 1037.7 1111.0
1106(30) 0.001111 1037.5 1114.6
1095(30) 0.001111 1037.3 1119.5
1116(31) 0.001041 1037.0 1125.7
1125(31) 0.001041 1036.8 1133.1
1145(31) 0.001041 1036.6 1141.7
1097(30) 0.001111 1036.3 1151.4
1146(31) 0.001041 1036.1 1162.0
1215(32) 0.000977 1035.9 1173.0
1165(31) 0.001041 1035.6 1184.0
1193(32) 0.000977 1035.4 1194.3
1147(31) 0.001041 1035.2 1203.1
1213(32) 0.000977 1035.0 1209.8
1212(32) 0.000977 1034.7 1213.8
1213(32) 0.000977 1034.5 1215.0
1200(32) 0.000977 1034.3 1213.8
1249(32) 0.000977 1034.0 1210.7
1263(33) 0.000918 1033.8 1206.4
1203(32) 0.000977 1033.6 1201.4
1174(31) 0.001041 1033.3 1196.2
1195(32) 0.000977 1033.1 1190.9
1134(31) 0.001041 1032.9 1185.6
1170(31) 0.001041 1032.7 1180.4
1199(32) 0.000977 1032.4 1175.5
1146(31) 0.001041 1032.2 1171.1
1204(32) 0.000977 1032.0 1167.3
1202(32) 0.000977 1031.7 1164.4
1147(31) 0.001041 1031.5 1162.8
1245(32) 0.000977 1031.3 1162.4
1181(31) 0.001041 1031.0 1163.5
1252(32) 0.000977 1030.8 1166.1
1178(31) 0.001041 1030.6 1169.9
1169(31) 0.001041 1030.3 1175.0
1206(32) 0.000977 1030.1 1180.9
1175(31) 0.001041 1029.9 1187.7
1202(32) 0.000977 1029.6 1194.7
1200(32) 0.000977 1029.4 1201.8
1226(32) 0.000977 1029.2 1208.6
1213(32) 0.000977 1029.0 1214.8
1272(33) 0.000918 1028.7 1220.3
1232(32) 0.000977 1028.5 1225.4
1259(33) 0.000918 1028.3 1230.4
1254(32) 0.000977 1028.0 1236.0
1212(32) 0.000977 1027.8 1242.7
1183(32) 0.000977 1027.6 1251.1
1271(33) 0.000918 1027.3 1261.6
1269(33) 0.000918 1027.1 1274.4
1314(33) 0.000918 1026.9 1289.6
1310(33) 0.000918 1026.6 1306.8
1401(34) 0.000865 1026.4 1325.7
1365(34) 0.000865 1026.2 1345.4
1365(34) 0.000865 1025.9 1365.2
1464(35) 0.000816 1025.7 1384.1
1430(35) 0.000816 1025.5 1401.2
1458(35) 0.000816 1025.2 1415.5
1496(35) 0.000816 1025.0 1426.3
1443(35) 0.000816 1024.8 1433.1
1458(35) 0.000816 1024.6 1435.5
1541(36) 0.000772 1024. 1434.
1426(35) 0.000816 1024.1 1428.6
1494(35) 0.000816 1023.9 1421.1
1471(35) 0.000816 1023.6 1412.8
1454(35) 0.000816 1023.4 1405.1
1411(34) 0.000865 1023.2 1399.2
1378(34) 0.000865 1022.9 1396.0
1523(36) 0.000772 1023. 1396.
1499(35) 0.000816 1022.5 1398.9
1551(36) 0.000772 1022. 1405.
1532(36) 0.000772 1022. 1412.
1477(35) 0.000816 1021.8 1420.9
1541(36) 0.000772 1022. 1429.
1462(35) 0.000816 1021.3 1434.0
1526(36) 0.000772 1021. 1435.
1498(35) 0.000816 1020.8 1431.5
1479(35) 0.000816 1020.6 1422.1
1448(35) 0.000816 1020.4 1407.7
1456(35) 0.000816 1020.2 1389.3
1417(35) 0.000816 1019.9 1368.3
1378(34) 0.000865 1019.7 1346.1
1349(34) 0.000865 1019.5 1323.9
1299(33) 0.000918 1019.2 1302.2
1275(33) 0.000918 1019.0 1281.7
1278(31) 0.001041 1018.8 1262.8
1242(31) 0.001041 1018.5 1245.5
1253(31) 0.001041 1018.3 1230.2
1226(31) 0.001041 1018.1 1217.0
1198(30) 0.001111 1017.8 1206.0
1201(30) 0.001111 1017.6 1197.2
1161(30) 0.001111 1017.4 1190.8
1156(30) 0.001111 1017.2 1186.7
1161(30) 0.001111 1016.9 1184.8
1181(30) 0.001111 1016.7 1184.9
1209(31) 0.001041 1016.5 1186.8
1209(31) 0.001041 1016.2 1190.3
1236(31) 0.001041 1016.0 1195.2
1190(30) 0.001111 1015.8 1201.3
1233(31) 0.001041 1015.5 1208.2
1220(31) 0.001041 1015.3 1215.8
1270(31) 0.001041 1015.1 1223.7
1262(31) 0.001041 1014.9 1231.6
1270(31) 0.001041 1014.6 1239.3
1245(31) 0.001041 1014.4 1246.5
1274(31) 0.001041 1014.2 1253.2
1297(32) 0.000977 1013.9 1259.1
1285(32) 0.000977 1013.7 1264.5
1288(32) 0.000977 1013.5 1269.4
1265(31) 0.001041 1013.2 1274.3
1256(31) 0.001041 1013.0 1279.3
1268(31) 0.001041 1012.8 1284.6
1307(32) 0.000977 1012.6 1290.1
1350(32) 0.000977 1012.3 1295.5
1276(31) 0.001041 1012.1 1300.5
1341(32) 0.000977 1011.9 1304.9
1276(31) 0.001041 1011.7 1308.2
1395(33) 0.000918 1011.4 1310.4
1400(33) 0.000918 1011.2 1311.2
1360(32) 0.000977 1011.0 1310.6
1359(32) 0.000977 1010.7 1308.1
1273(31) 0.001041 1010.5 1303.6
1325(32) 0.000977 1010.3 1297.0
1339(32) 0.000977 1010.1 1288.5
1316(32) 0.000977 1009.8 1278.5
1312(32) 0.000977 1009.6 1267.2
1358(32) 0.000977 1009.4 1255.1
1318(32) 0.000977 1009.2 1242.6
1247(31) 0.001041 1008.9 1230.0
1230(31) 0.001041 1008.7 1217.5
1204(31) 0.001041 1008.5 1205.5
1209(31) 0.001041 1008.3 1194.1
1162(30) 0.001111 1008.0 1183.4
1198(30) 0.001111 1007.8 1173.7
1137(30) 0.001111 1007.6 1165.0
1158(30) 0.001111 1007.4 1157.4
1132(30) 0.001111 1007.1 1150.9
1125(29) 0.001189 1006.9 1145.4
1135(30) 0.001111 1006.7 1140.9
1101(29) 0.001189 1006.5 1137.1
1173(30) 0.001111 1006.2 1133.7
1086(29) 0.001189 1006.0 1130.6
1075(29) 0.001189 1005.8 1127.4
1100(29) 0.001189 1005.6 1124.2
1104(29) 0.001189 1005.3 1120.7
1138(30) 0.001111 1005.1 1117.0
1108(29) 0.001189 1004.9 1113.2
1105(29) 0.001189 1004.7 1109.3
1123(29) 0.001189 1004.4 1105.4
1082(29) 0.001189 1004.2 1101.7
1095(29) 0.001189 1004.0 1098.3
1083(29) 0.001189 1003.8 1095.2
1092(29) 0.001189 1003.6 1092.8
1118(29) 0.001189 1003.3 1090.9
1074(29) 0.001189 1003.1 1089.7
1032(28) 0.001276 1002.9 1089.1
1050(28) 0.001276 1002.7 1089.4
1073(29) 0.001189 1002.5 1090.2
1100(29) 0.001189 1002.2 1091.7
1078(29) 0.001189 1002.0 1093.9
1121(29) 0.001189 1001.8 1096.5
1060(29) 0.001189 1001.6 1099.6
1110(29) 0.001189 1001.4 1103.0
1126(29) 0.001189 1001.1 1106.7
1075(29) 0.001189 1000.9 1110.7
1098(29) 0.001189 1000.7 1114.9
1104(29) 0.001189 1000.5 1119.5
1124(29) 0.001189 1000.3 1124.5
1117(29) 0.001189 1000.1 1129.9
1089(29) 0.001189 999.8 1135.9
1117(29) 0.001189 999.6 1142.5
1187(30) 0.001111 999.4 1149.6
1136(30) 0.001111 999.2 1157.2
1145(30) 0.001111 999.0 1165.2
1128(30) 0.001111 998.8 1173.4
1166(30) 0.001111 998.6 1181.9
1188(30) 0.001111 998.3 1190.4
1183(30) 0.001111 998.1 1199.0
1220(31) 0.001041 997.9 1207.8
1148(30) 0.001111 997.7 1216.8
1223(31) 0.001041 997.5 1226.3
1314(32) 0.000977 997.3 1236.2
1284(32) 0.000977 997.1 1246.5
1284(32) 0.000977 996.8 1257.0
1270(43) 0.000541 997. 1268.
1303(32) 0.000977 996.4 1277.9
1343(32) 0.000977 996.2 1287.4
1334(32) 0.000977 996.0 1295.9
1345(32) 0.000977 995.8 1302.9
1349(32) 0.000977 995.6 1308.0
1353(32) 0.000977 995.4 1311.0
1403(33) 0.000918 995.2 1311.8
1353(32) 0.000977 995.0 1310.2
1341(32) 0.000977 994.7 1306.5
1339(32) 0.000977 994.5 1300.7
1353(32) 0.000977 994.3 1293.1
1365(33) 0.000918 994.1 1284.3
1354(32) 0.000977 993.9 1274.7
1295(32) 0.000977 993.7 1264.9
1224(31) 0.001041 993.5 1255.4
1251(31) 0.001041 993.3 1246.4
1227(31) 0.001041 993.1 1238.2
1211(31) 0.001041 992.9 1230.8
1157(30) 0.001111 992.7 1224.2
1175(30) 0.001111 992.5 1218.2
1174(30) 0.001111 992.3 1212.3
1179(30) 0.001111 992.1 1206.4
1183(30) 0.001111 991.9 1200.2
1174(30) 0.001111 991.7 1193.5
1150(30) 0.001111 991.5 1186.3
1145(30) 0.001111 991.3 1178.8
1130(30) 0.001111 991.0 1171.2
1115(29) 0.001189 990.8 1163.8
1125(30) 0.001111 990.6 1156.9
1092(29) 0.001189 990.4 1150.7
1072(29) 0.001189 990.2 1145.6
1104(29) 0.001189 990.0 1141.7
1072(29) 0.001189 989.8 1139.1
1060(29) 0.001189 989.6 1137.9
1124(29) 0.001189 989.4 1138.1
1099(29) 0.001189 989.3 1139.7
1108(29) 0.001189 989.1 1142.6
1112(29) 0.001189 988.9 1146.7
1104(29) 0.001189 988.7 1151.7
1157(30) 0.001111 988.5 1157.5
1172(30) 0.001111 988.3 1163.7
1152(30) 0.001111 988.1 1169.9
1163(30) 0.001111 987.9 1175.8
1165(30) 0.001111 987.7 1181.0
1142(30) 0.001111 987.5 1185.2
1159(30) 0.001111 987.3 1188.4
1208(31) 0.001041 987.1 1190.6
1205(31) 0.001041 986.9 1191.8
1187(30) 0.001111 986.7 1192.4
1189(30) 0.001111 986.5 1192.4
1197(30) 0.001111 986.3 1192.1
1195(30) 0.001111 986.1 1191.4
1138(30) 0.001111 986.0 1190.4
1172(30) 0.001111 985.8 1189.1
1196(30) 0.001111 985.6 1187.3
1182(30) 0.001111 985.4 1185.1
1197(30) 0.001111 985.2 1182.6
1208(31) 0.001041 985.0 1179.9
1200(30) 0.001111 984.8 1177.1
1164(30) 0.001111 984.6 1174.5
1145(30) 0.001111 984.5 1172.4
1170(30) 0.001111 984.3 1170.8
1166(30) 0.001111 984.1 1170.0
1201(30) 0.001111 983.9 1170.0
1212(31) 0.001041 983.7 1170.7
1220(31) 0.001041 983.5 1172.1
1180(30) 0.001111 983.3 1173.8
1147(30) 0.001111 983.2 1175.8
1216(31) 0.001041 983.0 1177.6
1232(31) 0.001041 982.8 1179.0
1220(31) 0.001041 982.6 1179.7
1180(30) 0.001111 982.4 1179.6
1205(31) 0.001041 982.3 1178.6
1184(30) 0.001111 982.1 1176.7
1212(31) 0.001041 981.9 1174.0
1210(31) 0.001041 981.7 1170.6
1179(30) 0.001111 981.5 1166.7
1140(30) 0.001111 981.4 1162.4
1190(30) 0.001111 981.2 1158.1
1160(30) 0.001111 981.0 1153.7
1177(30) 0.001111 980.8 1149.5
1184(30) 0.001111 980.7 1145.5
1153(30) 0.001111 980.5 1141.6
1115(29) 0.001189 980.3 1137.9
1118(29) 0.001189 980.1 1134.3
1114(29) 0.001189 980.0 1130.6
1134(30) 0.001111 979.8 1126.8
1130(30) 0.001111 979.6 1123.0
1139(30) 0.001111 979.5 1119.0
1132(30) 0.001111 979.3 1115.1
1111(29) 0.001189 979.1 1111.2
1097(29) 0.001189 978.9 1107.4
1103(29) 0.001189 978.8 1103.9
1053(29) 0.001189 978.6 1100.7
1084(29) 0.001189 978.4 1097.8
1071(29) 0.001189 978.3 1095.2
1050(29) 0.001189 978.1 1092.9
1086(29) 0.001189 977.9 1090.9
1108(29) 0.001189 977.8 1089.2
1063(29) 0.001189 977.6 1087.8
1042(29) 0.001189 977.4 1086.7
1024(28) 0.001276 977.3 1085.9
1040(29) 0.001189 977.1 1085.5
1051(29) 0.001189 977.0 1085.4
1045(29) 0.001189 976.8 1085.7
1033(28) 0.001276 976.6 1086.4
1058(29) 0.001189 976.5 1087.5
1052(29) 0.001189 976.3 1089.1
1055(29) 0.001189 976.2 1091.2
1068(29) 0.001189 976.0 1093.7
1086(29) 0.001189 975.8 1096.6
1096(29) 0.001189 975.7 1099.9
1109(29) 0.001189 975.5 1103.5
1124(30) 0.001111 975.4 1107.2
1116(30) 0.001111 975.2 1111.0
1116(30) 0.001111 975.1 1114.7
1101(29) 0.001189 974.9 1118.3
1109(29) 0.001189 974.7 1121.8
1114(30) 0.001111 974.6 1125.2
1149(30) 0.001111 974.4 1128.7
1108(29) 0.001189 974.3 1132.3
1097(29) 0.001189 974.1 1136.2
1105(29) 0.001189 974.0 1140.5
1139(30) 0.001111 973.8 1145.3
1161(30) 0.001111 973.7 1150.6
1163(30) 0.001111 973.5 1156.6
1184(30) 0.001111 973.4 1163.1
1189(30) 0.001111 973.2 1170.3
1182(30) 0.001111 973.1 1177.9
1187(30) 0.001111 973.0 1186.0
1164(30) 0.001111 972.8 1194.3
1202(31) 0.001041 972.7 1202.8
1243(31) 0.001041 972.5 1211.3
1255(31) 0.001041 972.4 1219.5
1237(31) 0.001041 972.2 1227.1
1234(31) 0.001041 972.1 1233.9
1232(31) 0.001041 972.0 1239.5
1243(31) 0.001041 971.8 1243.6
1272(32) 0.000977 971.7 1246.1
1298(32) 0.000977 971.5 1246.8
1293(32) 0.000977 971.4 1245.7
1258(31) 0.001041 971.3 1242.9
1262(31) 0.001041 971.1 1238.5
1243(31) 0.001041 971.0 1232.9
1239(31) 0.001041 970.8 1226.3
1205(31) 0.001041 970.7 1218.8
1174(30) 0.001111 970.6 1210.9
1172(30) 0.001111 970.4 1202.5
1175(30) 0.001111 970.3 1193.8
1178(30) 0.001111 970.2 1184.9
1171(30) 0.001111 970.0 1175.8
1174(30) 0.001111 969.9 1166.7
1162(30) 0.001111 969.8 1157.5
1154(30) 0.001111 969.7 1148.5
1158(30) 0.001111 969.5 1139.7
1165(30) 0.001111 969.4 1131.3
1145(30) 0.001111 969.3 1123.6
1160(30) 0.001111 969.1 1116.5
1167(30) 0.001111 969.0 1110.3
1141(30) 0.001111 968.9 1105.1
1168(30) 0.001111 968.8 1100.9
1180(30) 0.001111 968.6 1097.9
1148(30) 0.001111 968.5 1096.1
1146(30) 0.001111 968.4 1095.5
1109(29) 0.001189 968.3 1096.2
1154(30) 0.001111 968.1 1098.2
1191(31) 0.001041 968.0 1101.5
1188(30) 0.001111 967.9 1106.2
1232(31) 0.001041 967.8 1112.3
1171(30) 0.001111 967.7 1119.7
1176(30) 0.001111 967.5 1128.4
1222(31) 0.001041 967.4 1138.4
1173(30) 0.001111 967.3 1149.5
1127(30) 0.001111 967.2 1161.8
1175(30) 0.001111 967.1 1175.0
1191(31) 0.001041 967.0 1189.1
1199(31) 0.001041 966.9 1203.7
1223(31) 0.001041 966.7 1218.5
1264(31) 0.001041 966.6 1233.4
1214(31) 0.001041 966.5 1247.8
1270(31) 0.001041 966.4 1261.4
1234(31) 0.001041 966.3 1273.7
1241(31) 0.001041 966.2 1284.4
1326(32) 0.000977 966.1 1293.1
1312(32) 0.000977 966.0 1299.8
1322(32) 0.000977 965.9 1304.3
1329(32) 0.000977 965.8 1306.8
1355(33) 0.000918 965.6 1307.5
1343(32) 0.000977 965.5 1306.7
1359(33) 0.000918 965.4 1304.7
1334(32) 0.000977 965.3 1301.7
1318(32) 0.000977 965.2 1298.1
1326(32) 0.000977 965.1 1293.8
1324(32) 0.000977 965.0 1289.0
1313(32) 0.000977 964.9 1283.6
1255(31) 0.001041 964.8 1277.8
1261(31) 0.001041 964.7 1271.4
1319(32) 0.000977 964.6 1264.6
1309(32) 0.000977 964.5 1257.2
1294(32) 0.000977 964.4 1249.5
1282(33) 0.000918 964.3 1241.4
1254(32) 0.000977 964.2 1233.2
1243(32) 0.000977 964.1 1224.9
1212(32) 0.000977 964.0 1216.9
1212(32) 0.000977 963.9 1209.1
1201(32) 0.000977 963.8 1201.9
1199(32) 0.000977 963.8 1195.2
1202(32) 0.000977 963.7 1189.2
1186(31) 0.001041 963.6 1183.9
1208(32) 0.000977 963.5 1179.3
1209(32) 0.000977 963.4 1175.3
1170(31) 0.001041 963.3 1171.8
1152(31) 0.001041 963.2 1168.8
1152(31) 0.001041 963.1 1166.2
1161(31) 0.001041 963.0 1163.9
1139(31) 0.001041 962.9 1161.9
1149(31) 0.001041 962.9 1160.3
1180(31) 0.001041 962.8 1159.0
1160(31) 0.001041 962.7 1158.2
1117(31) 0.001041 962.6 1157.9
1160(31) 0.001041 962.5 1158.1
1192(31) 0.001041 962.4 1158.9
1089(30) 0.001111 962.4 1160.4
1094(30) 0.001111 962.3 1162.4
1160(31) 0.001041 962.2 1164.9
1160(31) 0.001041 962.1 1167.9
1187(31) 0.001041 962.0 1171.3
1212(32) 0.000977 962.0 1175.0
1195(32) 0.000977 961.9 1179.0
1167(31) 0.001041 961.8 1183.2
1138(31) 0.001041 961.7 1187.5
1154(31) 0.001041 961.6 1191.9
1174(31) 0.001041 961.6 1196.4
1182(31) 0.001041 961.5 1200.7
1234(32) 0.000977 961.4 1204.9
1188(31) 0.001041 961.3 1208.9
1211(32) 0.000977 961.3 1212.7
1259(32) 0.000977 961.2 1216.2
1184(31) 0.001041 961.1 1219.5
1221(32) 0.000977 961.1 1222.7
1217(32) 0.000977 961.0 1225.9
1187(31) 0.001041 960.9 1229.3
1227(32) 0.000977 960.9 1233.0
1275(33) 0.000918 960.8 1237.1
1266(32) 0.000977 960.7 1241.8
1289(33) 0.000918 960.6 1247.1
1228(32) 0.000977 960.6 1253.2
1265(32) 0.000977 960.5 1259.8
1257(32) 0.000977 960.5 1267.0
1263(32) 0.000977 960.4 1274.6
1275(33) 0.000918 960.3 1282.4
1273(33) 0.000918 960.3 1290.1
1329(33) 0.000918 960.2 1297.6
1315(33) 0.000918 960.1 1304.5
1275(33) 0.000918 960.1 1310.8
1326(33) 0.000918 960.0 1316.2
1364(34) 0.000865 960.0 1320.7
1344(33) 0.000918 959.9 1324.4
1336(33) 0.000918 959.8 1327.2
1309(33) 0.000918 959.8 1329.2
1321(33) 0.000918 959.7 1330.5
1343(33) 0.000918 959.7 1331.3
1333(33) 0.000918 959.6 1331.5
1317(33) 0.000918 959.6 1331.1
1347(33) 0.000918 959.5 1330.3
1342(33) 0.000918 959.4 1329.1
1289(33) 0.000918 959.4 1327.6
1342(33) 0.000918 959.3 1325.9
1332(33) 0.000918 959.3 1324.2
1349(33) 0.000918 959.2 1322.7
1337(33) 0.000918 959.2 1321.6
1363(34) 0.000865 959.1 1320.9
1357(34) 0.000865 959.1 1320.7
1389(34) 0.000865 959.0 1321.0
1412(34) 0.000865 959.0 1321.7
1363(34) 0.000865 958.9 1322.8
1364(34) 0.000865 958.9 1324.1
1383(34) 0.000865 958.8 1325.3
1330(33) 0.000918 958.8 1326.2
1415(34) 0.000865 958.7 1326.5
1381(34) 0.000865 958.7 1326.1
1325(33) 0.000918 958.7 1324.6
1386(34) 0.000865 958.6 1322.0
1380(34) 0.000865 958.6 1318.0
1342(33) 0.000918 958.5 1312.7
1360(34) 0.000865 958.5 1306.2
1337(33) 0.000918 958.4 1298.5
1284(33) 0.000918 958.4 1289.8
1346(33) 0.000918 958.4 1280.5
1268(32) 0.000977 958.3 1270.8
1274(33) 0.000918 958.3 1260.9
1307(33) 0.000918 958.2 1251.2
1316(33) 0.000918 958.2 1241.7
1286(33) 0.000918 958.2 1232.8
1272(33) 0.000918 958.1 1224.5
1220(32) 0.000977 958.1 1216.8
1253(32) 0.000977 958.0 1209.9
1231(32) 0.000977 958.0 1203.6
1211(32) 0.000977 958.0 1197.9
1164(25) 0.001600 957.9 1192.8
1161(32) 0.000977 957.9 1188.1
1171(32) 0.000977 957.9 1183.7
1180(32) 0.000977 957.8 1179.4
1164(32) 0.000977 957.8 1175.3
1185(32) 0.000977 957.8 1171.0
1132(32) 0.000977 957.7 1166.7
1148(32) 0.000977 957.7 1162.2
1153(32) 0.000977 957.7 1157.4
1139(32) 0.000977 957.6 1152.6
1112(31) 0.001041 957.6 1147.6
1125(32) 0.000977 957.6 1142.5
1092(31) 0.001041 957.5 1137.5
1118(31) 0.001041 957.5 1132.7
1041(30) 0.001111 957.5 1128.1
1074(31) 0.001041 957.5 1123.7
1074(31) 0.001041 957.4 1119.8
1032(30) 0.001111 957.4 1116.3
1104(31) 0.001041 957.4 1113.2
1086(31) 0.001041 957.4 1110.7
1080(31) 0.001041 957.3 1108.8
1049(31) 0.001041 957.3 1107.4
1081(31) 0.001041 957.3 1106.7
1094(31) 0.001041 957.3 1106.6
1042(30) 0.001111 957.2 1107.1
1084(31) 0.001041 957.2 1108.1
1115(31) 0.001041 957.2 1109.8
1123(32) 0.000977 957.2 1111.9
1116(31) 0.001041 957.1 1114.6
1070(31) 0.001041 957.1 1117.6
1078(31) 0.001041 957.1 1120.9
1077(31) 0.001041 957.1 1124.4
1103(31) 0.001041 957.0 1128.0
1120(31) 0.001041 957.0 1131.7
1114(31) 0.001041 957.0 1135.3
1120(31) 0.001041 957.0 1138.8
1133(32) 0.000977 957.0 1142.1
1160(32) 0.000977 957.0 1145.2
1159(32) 0.000977 956.9 1148.2
1199(33) 0.000918 956.9 1151.0
1126(32) 0.000977 956.9 1153.6
1219(33) 0.000918 956.9 1156.2
1169(32) 0.000977 956.9 1158.7
1188(32) 0.000977 956.8 1161.2
1154(32) 0.000977 956.8 1163.6
1158(32) 0.000977 956.8 1165.8
1242(33) 0.000918 956.8 1167.9
1145(32) 0.000977 956.8 1169.8
1180(32) 0.000977 956.8 1171.2
1136(32) 0.000977 956.7 1172.2
1126(32) 0.000977 956.7 1172.5
1115(31) 0.001041 956.7 1172.1
1155(32) 0.000977 956.7 1171.0
1179(32) 0.000977 956.7 1169.0
1097(31) 0.001041 956.7 1166.3
1170(32) 0.000977 956.7 1162.8
1147(32) 0.000977 956.7 1158.7
1104(31) 0.001041 956.6 1154.1
1096(31) 0.001041 956.6 1149.1
1090(31) 0.001041 956.6 1143.9
1133(32) 0.000977 956.6 1138.7
1143(32) 0.000977 956.6 1133.6
1094(31) 0.001041 956.6 1128.7
1091(31) 0.001041 956.6 1124.2
1049(31) 0.001041 956.6 1120.2
1087(31) 0.001041 956.5 1116.7
1088(31) 0.001041 956.5 1113.9
1065(31) 0.001041 956.5 1111.7
1065(31) 0.001041 956.5 1110.4
1088(31) 0.001041 956.5 1109.9
1053(31) 0.001041 956.5 1110.2
1031(30) 0.001111 956.5 1111.4
1042(30) 0.001111 956.5 1113.6
1036(30) 0.001111 956.5 1116.7
1043(30) 0.001111 956.5 1120.8
1102(31) 0.001041 956.5 1125.9
1103(31) 0.001041 956.4 1132.0
1070(31) 0.001041 956.4 1139.0
1158(32) 0.000977 956.4 1146.9
1123(32) 0.000977 956.4 1155.8
1132(32) 0.000977 956.4 1165.6
1167(32) 0.000977 956.4 1176.2
1140(32) 0.000977 956.4 1187.7
1112(31) 0.001041 956.4 1199.8
1161(32) 0.000977 956.4 1212.5
1202(33) 0.000918 956.4 1225.8
1217(33) 0.000918 956.4 1239.5
1256(33) 0.000918 956.4 1253.6
1194(32) 0.000977 956.4 1267.8
1303(34) 0.000865 956.4 1282.1
1224(33) 0.000918 956.4 1296.4
1312(34) 0.000865 956.3 1310.6
1318(34) 0.000865 956.3 1324.4
1299(34) 0.000865 956.3 1338.0
1310(34) 0.000865 956.3 1351.0
1380(35) 0.000816 956.3 1363.4
1420(35) 0.000816 956.3 1375.2
1445(36) 0.000772 956. 1386.
1433(35) 0.000816 956.3 1396.4
1424(35) 0.000816 956.3 1405.8
1423(35) 0.000816 956.3 1414.3
1427(34) 0.000865 956.3 1421.9
1442(35) 0.000816 956.3 1428.6
1433(34) 0.000865 956.3 1434.4
1438(35) 0.000816 956.3 1439.1
1481(35) 0.000816 956.3 1442.7
1435(34) 0.000865 956.3 1445.3
1475(35) 0.000816 956.3 1446.8
1469(35) 0.000816 956.3 1447.1
1410(34) 0.000865 956.3 1446.3
1479(35) 0.000816 956.3 1444.5
1471(35) 0.000816 956.3 1441.7
1472(35) 0.000816 956.2 1438.2
1497(35) 0.000816 956.2 1433.9
1515(35) 0.000816 956.2 1429.2
1445(35) 0.000816 956.2 1424.1
1511(35) 0.000816 956.2 1418.7
1456(35) 0.000816 956.2 1413.2
1464(35) 0.000816 956.2 1407.4
1396(34) 0.000865 956.2 1401.5
1380(34) 0.000865 956.2 1395.3
1436(34) 0.000865 956.2 1388.8
1418(34) 0.000865 956.2 1381.9
1393(34) 0.000865 956.2 1374.4
1324(33) 0.000918 956.2 1366.2
1332(33) 0.000918 956.2 1357.3
1340(33) 0.000918 956.2 1347.6
1384(34) 0.000865 956.2 1337.1
1341(33) 0.000918 956.2 1325.9
1324(33) 0.000918 956.2 1313.9
1274(33) 0.000918 956.2 1301.5
1266(32) 0.000977 956.2 1288.7
1259(32) 0.000977 956.2 1275.7
1291(33) 0.000918 956.2 1262.6
1204(32) 0.000977 956.1 1249.7
1212(32) 0.000977 956.1 1237.0
1206(32) 0.000977 956.1 1224.6
1147(31) 0.001041 956.1 1212.7
1192(32) 0.000977 956.1 1201.3
1198(32) 0.000977 956.1 1190.5
1154(31) 0.001041 956.1 1180.4
1104(30) 0.001111 956.1 1170.9
1131(31) 0.001041 956.1 1162.2
1091(30) 0.001111 956.1 1154.2
1076(30) 0.001111 956.1 1146.9
1115(31) 0.001041 956.1 1140.4
1115(31) 0.001041 956.1 1134.7
1097(30) 0.001111 956.1 1129.8
1081(30) 0.001111 956.1 1125.5
1105(30) 0.001111 956.1 1122.1
1076(30) 0.001111 956.1 1119.3
1137(31) 0.001041 956.0 1117.1
1109(30) 0.001111 956.0 1115.7
1099(30) 0.001111 956.0 1114.8
1068(30) 0.001111 956.0 1114.4
1083(30) 0.001111 956.0 1114.6
1106(30) 0.001111 956.0 1115.2
1045(30) 0.001111 956.0 1116.1
1079(30) 0.001111 956.0 1117.4
1116(31) 0.001041 956.0 1118.9
1083(30) 0.001111 956.0 1120.6
1144(31) 0.001041 956.0 1122.4
1165(31) 0.001041 956.0 1124.4
1112(31) 0.001041 956.0 1126.4
1118(31) 0.001041 955.9 1128.4
1144(31) 0.001041 955.9 1130.4
1123(31) 0.001041 955.9 1132.4
1126(31) 0.001041 955.9 1134.5
1120(31) 0.001041 955.9 1136.5
1142(31) 0.001041 955.9 1138.7
1102(30) 0.001111 955.9 1140.9
1161(31) 0.001041 955.9 1143.2
1195(32) 0.000977 955.9 1145.5
1138(31) 0.001041 955.9 1148.0
1222(32) 0.000977 955.8 1150.5
1150(31) 0.001041 955.8 1153.1
1130(31) 0.001041 955.8 1155.6
1200(32) 0.000977 955.8 1158.2
1160(31) 0.001041 955.8 1160.7
1190(32) 0.000977 955.8 1163.1
1255(32) 0.000977 955.8 1165.3
1148(31) 0.001041 955.8 1167.4
1149(31) 0.001041 955.7 1169.2
1202(32) 0.000977 955.7 1170.8
1123(31) 0.001041 955.7 1172.2
1103(30) 0.001111 955.7 1173.4
1155(31) 0.001041 955.7 1174.5
1128(31) 0.001041 955.7 1175.4
1145(31) 0.001041 955.7 1176.3
1204(32) 0.000977 955.6 1177.1
1180(31) 0.001041 955.6 1178.0
1154(31) 0.001041 955.6 1178.9
1139(31) 0.001041 955.6 1180.0
1175(31) 0.001041 955.6 1181.2
1197(32) 0.000977 955.6 1182.6
1184(31) 0.001041 955.5 1184.2
1208(32) 0.000977 955.5 1186.0
1141(31) 0.001041 955.5 1188.0
1197(32) 0.000977 955.5 1190.2
1206(32) 0.000977 955.5 1192.6
1215(45) 0.000494 955. 1195.
1185(31) 0.001041 955.4 1197.8
1192(31) 0.001041 955.4 1200.5
1165(31) 0.001041 955.4 1203.4
1179(31) 0.001041 955.4 1206.3
1216(31) 0.001041 955.4 1209.3
1228(31) 0.001041 955.3 1212.3
1208(31) 0.001041 955.3 1215.4
1218(31) 0.001041 955.3 1218.5
1202(31) 0.001041 955.3 1221.6
1233(32) 0.000977 955.3 1224.7
1246(32) 0.000977 955.2 1227.8
1241(32) 0.000977 955.2 1230.8
1275(32) 0.000977 955.2 1233.8
1321(33) 0.000918 955.2 1236.7
1296(32) 0.000977 955.2 1239.5
1303(32) 0.000977 955.1 1242.1
1241(32) 0.000977 955.1 1244.5
1283(32) 0.000977 955.1 1246.7
1284(32) 0.000977 955.1 1248.8
1263(32) 0.000977 955.0 1250.6
1256(32) 0.000977 955.0 1252.2
1286(32) 0.000977 955.0 1253.5
1301(32) 0.000977 955.0 1254.7
1283(32) 0.000977 954.9 1255.7
1311(32) 0.000977 954.9 1256.5
1271(32) 0.000977 954.9 1257.1
1303(32) 0.000977 954.9 1257.5
1341(33) 0.000918 954.8 1257.7
1304(32) 0.000977 954.8 1257.8
1325(33) 0.000918 954.8 1257.7
1342(33) 0.000918 954.7 1257.5
1326(33) 0.000918 954.7 1257.1
1303(32) 0.000977 954.7 1256.6
1298(32) 0.000977 954.7 1256.0
1305(32) 0.000977 954.6 1255.4
1339(33) 0.000918 954.6 1254.6
1296(32) 0.000977 954.6 1253.8
1289(32) 0.000977 954.6 1253.0
1334(33) 0.000918 954.5 1252.1
1319(33) 0.000918 954.5 1251.2
1313(32) 0.000977 954.5 1250.3
1286(32) 0.000977 954.4 1249.3
1304(32) 0.000977 954.4 1248.5
1327(33) 0.000918 954.4 1247.7
1323(33) 0.000918 954.3 1247.0
1295(32) 0.000977 954.3 1246.4
1288(32) 0.000977 954.3 1246.0
1278(32) 0.000977 954.2 1245.9
1277(32) 0.000977 954.2 1246.0
1326(33) 0.000918 954.2 1246.5
1283(32) 0.000977 954.1 1247.2
1257(32) 0.000977 954.1 1248.3
1224(31) 0.001041 954.1 1249.7
1312(32) 0.000977 954.0 1251.5
1273(32) 0.000977 954.0 1253.5
1268(32) 0.000977 954.0 1255.8
1263(32) 0.000977 953.9 1258.3
1269(32) 0.000977 953.9 1261.0
1309(32) 0.000977 953.9 1263.8
1309(32) 0.000977 953.8 1266.6
1328(33) 0.000918 953.8 1269.5
1308(32) 0.000977 953.8 1272.3
1301(32) 0.000977 953.7 1275.1
1311(32) 0.000977 953.7 1277.8
1347(33) 0.000918 953.7 1280.5
1324(33) 0.000918 953.6 1283.0
1307(32) 0.000977 953.6 1285.5
1326(33) 0.000918 953.6 1287.9
1369(33) 0.000918 953.5 1290.2
1327(33) 0.000918 953.5 1292.5
1299(32) 0.000977 953.4 1294.7
1296(32) 0.000977 953.4 1296.9
1353(33) 0.000918 953.4 1298.9
1305(32) 0.000977 953.3 1300.8
1336(33) 0.000918 953.3 1302.5
1368(33) 0.000918 953.3 1304.0
1289(32) 0.000977 953.2 1305.1
1311(32) 0.000977 953.2 1306.0
1315(33) 0.000918 953.1 1306.5
1319(33) 0.000918 953.1 1306.5
1374(33) 0.000918 953.1 1306.1
1349(33) 0.000918 953.0 1305.2
1319(33) 0.000918 953.0 1303.7
1236(32) 0.000977 953.0 1301.6
1287(32) 0.000977 952.9 1299.0
1301(32) 0.000977 952.9 1295.9
1340(33) 0.000918 952.8 1292.2
1305(32) 0.000977 952.8 1288.0
1320(33) 0.000918 952.8 1283.4
1350(33) 0.000918 952.7 1278.3
1339(33) 0.000918 952.7 1272.9
1266(32) 0.000977 952.7 1267.3
1264(32) 0.000977 952.6 1261.4
1248(32) 0.000977 952.6 1255.4
1266(32) 0.000977 952.5 1249.4
1276(32) 0.000977 952.5 1243.4
1241(32) 0.000977 952.5 1237.6
1223(31) 0.001041 952.4 1231.9
1259(32) 0.000977 952.4 1226.4
1198(26) 0.001479 952.4 1221.3
1197(31) 0.001041 952.3 1216.5
1238(32) 0.000977 952.3 1212.0
1212(31) 0.001041 952.2 1208.0
1186(31) 0.001041 952.2 1204.4
1169(31) 0.001041 952.2 1201.1
1175(31) 0.001041 952.1 1198.3
1219(31) 0.001041 952.1 1196.0
1192(31) 0.001041 952.1 1194.0
1144(30) 0.001111 952.0 1192.4
1157(31) 0.001041 952.0 1191.1
1167(31) 0.001041 952.0 1190.2
1166(31) 0.001041 951.9 1189.6
1197(31) 0.001041 951.9 1189.2
1208(31) 0.001041 951.8 1189.1
1160(31) 0.001041 951.8 1189.1
1152(31) 0.001041 951.8 1189.3
1152(31) 0.001041 951.7 1189.6
1184(31) 0.001041 951.7 1190.0
1181(31) 0.001041 951.7 1190.4
1158(31) 0.001041 951.6 1190.9
1214(31) 0.001041 951.6 1191.4
1186(31) 0.001041 951.6 1191.8
1189(31) 0.001041 951.5 1192.1
1163(31) 0.001041 951.5 1192.4
1180(31) 0.001041 951.5 1192.6
1174(31) 0.001041 951.5 1192.6
1150(31) 0.001041 951.4 1192.5
1224(31) 0.001041 951.4 1192.3
1219(31) 0.001041 951.4 1192.0
1220(31) 0.001041 951.3 1191.5
1213(31) 0.001041 951.3 1190.9
1176(31) 0.001041 951.3 1190.3
1176(31) 0.001041 951.3 1189.5
1228(32) 0.000977 951.2 1188.7
1203(31) 0.001041 951.2 1187.9
1183(31) 0.001041 951.2 1187.0
1208(31) 0.001041 951.2 1186.1
1218(31) 0.001041 951.1 1185.2
1196(31) 0.001041 951.1 1184.3
1165(31) 0.001041 951.1 1183.4
1158(31) 0.001041 951.1 1182.4
1154(31) 0.001041 951.0 1181.4
1134(30) 0.001111 951.0 1180.4
1164(31) 0.001041 951.0 1179.3
1178(31) 0.001041 951.0 1178.1
1137(30) 0.001111 951.0 1176.9
1128(30) 0.001111 951.0 1175.6
1184(31) 0.001041 950.9 1174.2
1182(31) 0.001041 950.9 1172.8
1219(31) 0.001041 950.9 1171.3
1188(31) 0.001041 950.9 1169.8
1200(31) 0.001041 950.9 1168.3
1148(31) 0.001041 950.9 1166.7
1170(31) 0.001041 950.9 1165.1
1176(31) 0.001041 950.9 1163.6
1166(31) 0.001041 950.8 1162.2
1194(31) 0.001041 950.8 1160.8
1170(31) 0.001041 950.8 1159.5
1124(30) 0.001111 950.8 1158.3
1164(31) 0.001041 950.8 1157.3
1152(31) 0.001041 950.8 1156.4
1163(31) 0.001041 950.8 1155.6
1122(30) 0.001111 950.8 1155.0
1123(30) 0.001111 950.8 1154.6
1148(31) 0.001041 950.8 1154.3
1166(31) 0.001041 950.8 1154.1
1155(31) 0.001041 950.8 1154.0
1149(31) 0.001041 950.8 1154.1
1134(30) 0.001111 950.8 1154.2
1143(30) 0.001111 950.9 1154.4
1155(31) 0.001041 950.9 1154.7
1134(30) 0.001111 950.9 1154.9
1124(30) 0.001111 950.9 1155.2
1115(30) 0.001111 950.9 1155.5
1126(30) 0.001111 950.9 1155.7
1184(31) 0.001041 950.9 1155.8
1125(30) 0.001111 951.0 1155.9
1093(30) 0.001111 951.0 1156.0
1125(30) 0.001111 951.0 1155.9
1196(31) 0.001041 951.0 1155.8
1166(31) 0.001041 951.1 1155.7
1133(30) 0.001111 951.1 1155.4
1157(31) 0.001041 951.1 1155.1
1133(30) 0.001111 951.1 1154.8
1130(30) 0.001111 951.2 1154.4
1124(30) 0.001111 951.2 1153.9
1138(30) 0.001111 951.2 1153.4
1108(30) 0.001111 951.3 1152.9
1124(30) 0.001111 951.3 1152.3
1126(30) 0.001111 951.4 1151.8
1123(30) 0.001111 951.4 1151.2
1143(30) 0.001111 951.5 1150.5
1128(30) 0.001111 951.5 1149.8
1102(30) 0.001111 951.6 1149.2
1091(30) 0.001111 951.6 1148.4
1151(31) 0.001041 951.7 1147.7
1151(31) 0.001041 951.7 1146.9
1121(30) 0.001111 951.8 1146.0
1113(30) 0.001111 951.8 1145.2
1087(30) 0.001111 951.9 1144.3
1152(31) 0.001041 952.0 1143.5
1124(31) 0.001041 952.1 1142.6
1143(31) 0.001041 952.1 1141.8
1151(31) 0.001041 952.2 1141.0
1140(31) 0.001041 952.3 1140.3
1107(31) 0.001041 952.4 1139.7
1096(30) 0.001111 952.4 1139.1
1083(30) 0.001111 952.5 1138.7
1136(31) 0.001041 952.6 1138.4
1136(31) 0.001041 952.7 1138.3
1075(30) 0.001111 952.8 1138.3
1093(30) 0.001111 952.9 1138.4
1135(31) 0.001041 953.0 1138.8
1130(31) 0.001041 953.1 1139.2
1120(31) 0.001041 953.2 1139.9
1114(31) 0.001041 953.3 1140.6
1126(31) 0.001041 953.4 1141.6
1125(31) 0.001041 953.5 1142.6
1151(31) 0.001041 953.6 1143.8
1100(30) 0.001111 953.8 1145.1
1082(30) 0.001111 953.9 1146.6
1120(31) 0.001041 954.0 1148.1
1105(31) 0.001041 954.1 1149.6
1159(31) 0.001041 954.3 1151.3
1118(31) 0.001041 954.4 1153.0
1119(31) 0.001041 954.5 1154.7
1154(31) 0.001041 954.7 1156.5
1137(31) 0.001041 954.8 1158.3
1192(32) 0.000977 955.0 1160.1
1149(31) 0.001041 955.1 1161.9
1208(32) 0.000977 955.3 1163.7
1196(32) 0.000977 955.5 1165.6
1167(31) 0.001041 955.6 1167.4
1191(32) 0.000977 955.8 1169.3
1190(32) 0.000977 956.0 1171.2
1183(32) 0.000977 956.1 1173.1
1161(31) 0.001041 956.3 1175.0
1194(32) 0.000977 956.5 1177.0
1181(31) 0.001041 956.7 1179.0
1175(31) 0.001041 956.9 1181.0
1163(31) 0.001041 957.1 1183.0
1218(32) 0.000977 957.3 1185.0
1217(32) 0.000977 957.5 1187.0
1226(32) 0.000977 957.7 1189.0
1207(32) 0.000977 957.9 1191.0
1214(32) 0.000977 958.1 1192.9
1176(31) 0.001041 958.3 1194.8
1233(32) 0.000977 958.6 1196.6
1195(32) 0.000977 958.8 1198.4
1246(32) 0.000977 959.0 1200.0
1230(32) 0.000977 959.3 1201.6
1263(32) 0.000977 959.5 1203.0
1257(32) 0.000977 959.8 1204.3
1261(32) 0.000977 960.0 1205.4
1241(32) 0.000977 960.3 1206.4
1228(32) 0.000977 960.5 1207.2
1212(32) 0.000977 960.8 1207.9
1251(32) 0.000977 961.1 1208.4
1189(32) 0.000977 961.4 1208.7
1242(32) 0.000977 961.6 1208.8
1236(32) 0.000977 961.9 1208.8
1208(32) 0.000977 962.2 1208.5
1221(32) 0.000977 962.5 1208.1
1277(33) 0.000918 962.8 1207.5
1252(32) 0.000977 963.1 1206.8
1228(32) 0.000977 963.5 1205.8
1218(32) 0.000977 963.8 1204.7
1226(32) 0.000977 964.1 1203.4
1200(32) 0.000977 964.4 1201.9
1218(32) 0.000977 964.8 1200.2
1194(32) 0.000977 965.1 1198.4
1196(32) 0.000977 965.5 1196.4
1225(32) 0.000977 965.8 1194.3
1195(32) 0.000977 966.2 1192.0
1213(32) 0.000977 966.6 1189.6
1227(32) 0.000977 966.9 1187.2
1215(32) 0.000977 967.3 1184.7
1147(31) 0.001041 967.7 1182.1
1147(31) 0.001041 968.1 1179.5
1142(31) 0.001041 968.5 1176.9
1186(32) 0.000977 968.9 1174.3
1191(32) 0.000977 969.3 1171.7
1174(31) 0.001041 969.7 1169.2
1194(32) 0.000977 970.2 1166.7
1179(31) 0.001041 970.6 1164.4
1194(32) 0.000977 971.0 1162.1
1141(31) 0.001041 971.5 1160.0
1152(31) 0.001041 971.9 1158.0
1148(31) 0.001041 972.4 1156.1
1135(31) 0.001041 972.9 1154.4
1118(31) 0.001041 973.3 1152.8
1119(31) 0.001041 973.8 1151.4
1161(31) 0.001041 974.3 1150.1
1181(31) 0.001041 974.8 1149.0
1200(32) 0.000977 975.3 1148.1
1144(31) 0.001041 975.8 1147.3
1134(31) 0.001041 976.3 1146.7
1164(31) 0.001041 976.9 1146.2
1104(31) 0.001041 977.4 1145.9
1153(32) 0.000977 977.9 1145.8
1164(32) 0.000977 978.5 1145.8
1148(31) 0.001041 979.0 1145.9
1154(32) 0.000977 979.6 1146.2
1154(32) 0.000977 980.2 1146.6
1146(31) 0.001041 980.8 1147.1
1125(31) 0.001041 981.4 1147.7
1126(31) 0.001041 982.0 1148.5
1149(31) 0.001041 982.6 1149.4
1130(31) 0.001041 983.2 1150.4
1125(31) 0.001041 983.8 1151.5
1117(31) 0.001041 984.4 1152.7
1160(32) 0.000977 985.1 1154.0
1144(31) 0.001041 985.7 1155.5
1185(32) 0.000977 986.4 1157.0
1173(32) 0.000977 987.1 1158.7
1123(31) 0.001041 987.7 1160.6
1136(31) 0.001041 988.4 1162.5
1198(32) 0.000977 989.1 1164.5
1208(32) 0.000977 989.8 1166.7
1150(31) 0.001041 990.5 1169.0
1161(32) 0.000977 991.3 1171.5
1165(32) 0.000977 992.0 1174.0
1172(32) 0.000977 992.7 1176.6
1194(32) 0.000977 993.5 1179.4
1169(32) 0.000977 994.3 1182.2
1189(32) 0.000977 995.0 1185.2
1172(32) 0.000977 995.8 1188.2
1200(32) 0.000977 996.6 1191.2
1217(32) 0.000977 997.4 1194.4
1195(32) 0.000977 998.2 1197.5
1184(32) 0.000977 999.0 1200.7
1195(32) 0.000977 999.9 1203.9
1218(32) 0.000977 1000.7 1207.1
1266(33) 0.000918 1001.6 1210.3
1270(33) 0.000918 1002.4 1213.5
1217(32) 0.000977 1003.3 1216.5
1231(32) 0.000977 1004.2 1219.5
1210(32) 0.000977 1005.1 1222.5
1204(32) 0.000977 1006.0 1225.3
1199(32) 0.000977 1006.9 1228.0
1210(32) 0.000977 1007.9 1230.6
1233(33) 0.000918 1008.8 1233.0
1193(32) 0.000977 1009.8 1235.3
1230(32) 0.000977 1010.7 1237.5
1237(33) 0.000918 1011.7 1239.5
1257(33) 0.000918 1012.7 1241.3
1259(33) 0.000918 1013.7 1242.9
1264(33) 0.000918 1014.7 1244.4
1281(33) 0.000918 1015.8 1245.8
1260(33) 0.000918 1016.8 1246.9
1253(33) 0.000918 1017.9 1247.9
1288(33) 0.000918 1018.9 1248.8
1257(33) 0.000918 1020.0 1249.4
1224(32) 0.000977 1021.1 1250.0
1233(32) 0.000977 1022.2 1250.4
1278(33) 0.000918 1023.3 1250.7
1291(33) 0.000918 1024.4 1250.9
1270(33) 0.000918 1025.6 1250.9
1265(33) 0.000918 1026.7 1250.8
1273(33) 0.000918 1027.9 1250.7
1271(33) 0.000918 1029.1 1250.4
1263(33) 0.000918 1030.3 1250.0
1210(32) 0.000977 1031.5 1249.6
1232(32) 0.000977 1032.7 1249.0
1252(33) 0.000918 1033.9 1248.4
1225(32) 0.000977 1035.2 1247.8
1231(32) 0.000977 1036.4 1247.0
1221(32) 0.000977 1037.7 1246.2
1256(33) 0.000918 1039.0 1245.4
1244(33) 0.000918 1040.3 1244.5
1254(33) 0.000918 1041.6 1243.5
1252(33) 0.000918 1043.0 1242.6
1257(33) 0.000918 1044.3 1241.5
1233(32) 0.000977 1045.7 1240.5
1174(32) 0.000977 1047.1 1239.4
1207(32) 0.000977 1048.4 1238.3
1234(33) 0.000918 1049.9 1237.3
1223(32) 0.000977 1051.3 1236.2
1173(32) 0.000977 1052.7 1235.1
1163(32) 0.000977 1054.2 1234.1
1182(32) 0.000977 1055.6 1233.0
1215(32) 0.000977 1057.1 1232.0
1251(33) 0.000918 1058.6 1231.1
1234(33) 0.000918 1060.1 1230.2
1207(32) 0.000977 1061.7 1229.4
1188(32) 0.000977 1063.2 1228.6
1168(32) 0.000977 1064.8 1228.0
1195(32) 0.000977 1066.4 1227.4
1196(32) 0.000977 1068.0 1226.9
1215(32) 0.000977 1069.6 1226.6
1231(32) 0.000977 1071.2 1226.3
1185(32) 0.000977 1072.9 1226.2
1184(32) 0.000977 1074.5 1226.2
1205(32) 0.000977 1076.2 1226.3
1217(32) 0.000977 1077.9 1226.5
1172(32) 0.000977 1079.6 1226.9
1172(32) 0.000977 1081.4 1227.5
1220(32) 0.000977 1083.1 1228.1
1178(32) 0.000977 1084.9 1228.9
1199(26) 0.001479 1086.7 1229.9
1195(33) 0.000918 1088.5 1231.0
1176(32) 0.000977 1090.3 1232.3
1170(32) 0.000977 1092.2 1233.7
1237(33) 0.000918 1094.0 1235.2
1246(33) 0.000918 1095.9 1236.9
1223(33) 0.000918 1097.8 1238.7
1217(33) 0.000918 1099.7 1240.7
1200(33) 0.000918 1101.6 1242.8
1170(32) 0.000977 1103.6 1245.1
1180(32) 0.000977 1105.6 1247.5
1237(33) 0.000918 1107.6 1250.0
1253(33) 0.000918 1109.6 1252.7
1234(33) 0.000918 1111.6 1255.5
1225(33) 0.000918 1113.7 1258.5
1212(33) 0.000918 1115.7 1261.5
1242(33) 0.000918 1117.8 1264.7
1261(33) 0.000918 1119.9 1268.1
1243(33) 0.000918 1122.1 1271.5
1250(33) 0.000918 1124.2 1275.1
1249(33) 0.000918 1126.4 1278.8
1270(34) 0.000865 1128.6 1282.6
1284(34) 0.000865 1130.8 1286.6
1278(34) 0.000865 1133.0 1290.7
1271(34) 0.000865 1135.3 1294.9
1293(34) 0.000865 1137.6 1299.2
1320(34) 0.000865 1139.9 1303.6
1317(34) 0.000865 1142.2 1308.1
1329(34) 0.000865 1144.5 1312.8
1363(35) 0.000816 1146.9 1317.5
1326(34) 0.000865 1149.3 1322.4
1298(34) 0.000865 1151.7 1327.4
1327(34) 0.000865 1154.1 1332.4
1359(35) 0.000816 1156.5 1337.5
1372(35) 0.000816 1159.0 1342.8
1409(35) 0.000816 1161.5 1348.1
1363(35) 0.000816 1164.0 1353.5
1347(34) 0.000865 1166.6 1359.0
1408(35) 0.000816 1169.1 1364.5
1425(35) 0.000816 1171.7 1370.1
1407(35) 0.000816 1174.3 1375.8
1398(35) 0.000816 1177.0 1381.5
1386(35) 0.000816 1179.6 1387.3
1409(35) 0.000816 1182.3 1393.1
1433(35) 0.000816 1185.0 1398.9
1405(35) 0.000816 1187.7 1404.8
1442(35) 0.000816 1190.5 1410.7
1494(36) 0.000772 1193. 1417.
1481(36) 0.000772 1196. 1423.
1498(36) 0.000772 1199. 1429.
1464(36) 0.000772 1202. 1435.
1456(36) 0.000772 1205. 1441.
1510(36) 0.000772 1208. 1447.
1536(37) 0.000730 1210. 1453.
1503(36) 0.000772 1213. 1459.
1503(36) 0.000772 1216. 1465.
1542(37) 0.000730 1219. 1471.
1504(36) 0.000772 1222. 1476.
1484(36) 0.000772 1225. 1482.
1523(36) 0.000772 1229. 1488.
1516(36) 0.000772 1232. 1494.
1530(36) 0.000772 1235. 1500.
1561(37) 0.000730 1238. 1505.
1538(37) 0.000730 1241. 1511.
1560(37) 0.000730 1244. 1516.
1565(37) 0.000730 1248. 1522.
1553(37) 0.000730 1251. 1527.
1546(37) 0.000730 1254. 1532.
1569(37) 0.000730 1258. 1538.
1601(37) 0.000730 1261. 1542.
1622(37) 0.000730 1264. 1547.
1578(37) 0.000730 1268. 1552.
1571(37) 0.000730 1271. 1556.
1605(37) 0.000730 1275. 1561.
1618(37) 0.000730 1278. 1565.
1604(37) 0.000730 1282. 1569.
1621(37) 0.000730 1285. 1573.
1592(37) 0.000730 1289. 1577.
1560(37) 0.000730 1292. 1580.
1600(37) 0.000730 1296. 1583.
1595(37) 0.000730 1300. 1587.
1568(37) 0.000730 1303. 1590.
1592(37) 0.000730 1307. 1592.
1590(37) 0.000730 1311. 1595.
1621(37) 0.000730 1315. 1598.
1634(38) 0.000693 1318. 1600.
1614(37) 0.000730 1322. 1602.
1636(38) 0.000693 1326. 1605.
1656(38) 0.000693 1330. 1607.
1613(37) 0.000730 1334. 1609.
1636(38) 0.000693 1338. 1611.
1636(38) 0.000693 1342. 1612.
1587(37) 0.000730 1346. 1614.
1607(37) 0.000730 1350. 1616.
1608(37) 0.000730 1354. 1617.
1596(37) 0.000730 1358. 1619.
1604(37) 0.000730 1362. 1621.
1596(37) 0.000730 1367. 1622.
1646(38) 0.000693 1371. 1624.
1671(38) 0.000693 1375. 1626.
1633(39) 0.000657 1379. 1627.
1653(39) 0.000657 1384. 1629.
1635(39) 0.000657 1388. 1630.
1646(39) 0.000657 1393. 1632.
1632(39) 0.000657 1397. 1634.
1674(39) 0.000657 1401. 1636.
1628(38) 0.000693 1406. 1638.
1655(39) 0.000657 1410. 1640.
1600(38) 0.000693 1415. 1642.
1623(38) 0.000693 1420. 1644.
1627(38) 0.000693 1424. 1646.
1616(38) 0.000693 1429. 1648.
1609(38) 0.000693 1434. 1650.
1656(39) 0.000657 1438. 1652.
1649(39) 0.000657 1443. 1655.
1622(38) 0.000693 1448. 1657.
1653(39) 0.000657 1453. 1660.
1624(38) 0.000693 1458. 1663.
1652(39) 0.000657 1463. 1665.
1622(38) 0.000693 1468. 1668.
1648(39) 0.000657 1473. 1671.
1646(39) 0.000657 1478. 1674.
1647(39) 0.000657 1483. 1677.
1631(39) 0.000657 1488. 1680.
1637(39) 0.000657 1493. 1683.
1631(39) 0.000657 1498. 1687.
1666(39) 0.000657 1503. 1690.
1676(39) 0.000657 1509. 1693.
1715(39) 0.000657 1514. 1697.
1673(39) 0.000657 1519. 1700.
1698(39) 0.000657 1525. 1704.
1689(39) 0.000657 1530. 1708.
1621(38) 0.000693 1535. 1712.
1690(39) 0.000657 1541. 1716.
1724(39) . . .
1675(39) . . .
1730(39) . . .
1712(39) . . .
1713(39) . . .
1741(40) . . .
1754(40) . . .
1733(40) . . .
1778(40) . . .
1803(40) . . .
1743(40) . . .
1738(40) . . .
1733(40) . . .
1768(40) . . .
1727(39) . . .
1747(40) . . .
1759(40) . . .
1787(40) . . .
1845(41) . . .
1791(40) . . .
1797(40) . . .
1787(40) . . .
1793(40) . . .
1817(40) . . .
1780(40) . . .
1896(41) . . .
1903(41) . . .
1842(41) . . .
1871(41) . . .
1872(41) . . .
1888(41) . . .
1856(41) . . .
1896(41) . . .
1957(42) . . .
1921(41) . . .
1960(42) . . .
1980(42) . . .
1886(41) . . .
1902(41) . . .
1948(42) . . .
1932(41) . . .
1971(42) . . .
1960(42) . . .
1969(42) . . .
2058(43) . . .
2004(42) . . .
2030(42) . . .
2022(42) . . .
1984(42) . . .
1990(42) . . .
2008(42) . . .
2022(42) . . .
2116(43) . . .
2091(43) . . .
2102(43) . . .
2053(43) . . .
2133(43) . . .
2089(43) . . .
2087(43) . . .
2147(43) . . .
2146(43) . . .
2183(44) . . .
2081(43) . . .
2157(44) . . .
2142(43) . . .
2169(44) . . .
2172(63) . . .
2187(63) . . .
2204(63) . . .
2210(63) . . .
2222(63) . . .
2187(63) . . .
2173(63) . . .
2249(64) . . .
2334(65) . . .
2291(64) . . .
2258(64) . . .
2308(64) . . .
2402(66) . . .
2428(66) . . .
2330(65) . . .
2304(64) . . .
2265(64) . . .
2264(64) . . .
2321(65) . . .
2257(64) . . .
2379(65) . . .
2415(66) . . .
2292(64) . . .
2345(65) . . .
2306(64) . . .
2403(66) . . .
2392(65) . . .
2390(65) . . .
2351(65) . . .
2439(66) . . .
2429(66) . . .
2397(66) . . .
2570(68) . . .
2450(66) . . .
2480(67) . . .
2394(65) . . .
2468(66) . . .
2588(68) . . .
2528(67) . . .
2609(68) . . .
2577(68) . . .
2574(68) . . .
2533(67) . . .
2550(67) . . .
2640(68) . . .
2621(68) . . .
2554(67) . . .
2540(67) . . .
2572(68) . . .
2644(68) . . .
2656(69) . . .
2635(68) . . .
2698(69) . . .
2650(68) . . .
2581(68) . . .
2632(68) . . .
2764(70) . . .
2724(69) . . .
2666(69) . . .
2776(70) . . .
2696(69) . . .
2718(69) . . .
2737(69) . . .
2846(71) . . .
2736(69) . . .
2746(70) . . .
2766(70) . . .
2731(69) . . .
2710(69) . . .
2813(70) . . .
2910(71) . . .
2753(70) . . .
2754(70) . . .
2862(71) . . .
2753(70) . . .
2906(71) . . .
2848(71) . . .
2865(71) . . .
2799(70) . . .
2949(72) . . .
2989(72) . . .
2939(72) . . .
2934(72) . . .
2846(71) . . .
2936(72) . . .
2969(72) . . .
2971(72) . . .
2946(72) . . .
3020(73) . . .
3050(73) . . .
2967(72) . . .
3046(73) . . .
3034(73) . . .
3068(73) . . .
3032(73) . . .
3013(72) . . .
2977(72) . . .
2943(72) . . .
3052(73) . . .
3036(73) . . .
loop_
_refln_index_h
_refln_index_k
_refln_index_l
_refln_observed_status
_refln_F_squared_meas
_refln_F_squared_calc
_refln_phase_calc
_refln_d_spacing
_gsas_i100_meas
1 1 0 o 1042.110 1050.173 180.00 12.94153 100.00
3 0 0 o 154.369 135.010 -15.86 7.47180 4.97
1 0 1 o 111.824 131.943 58.28 6.50975 2.74
2 2 0 o 2.661 3.012 0.00 6.47076 0.06
2 0 -1 o 412.187 403.866 136.73 5.81548 8.09
2 1 1 o 28.245 35.206 2.73 5.30452 0.93
4 1 0 o 69.144 54.849 62.24 4.89144 1.93
3 1 -1 o 89.959 80.527 -63.21 4.58924 2.22
4 0 1 o 463.085 468.301 -123.37 4.32534 5.10
3 3 0 o 278.061 272.996 180.00 4.31384 3.04
3 2 1 o 45.793 43.362 -175.44 4.10228 0.91
5 0 -1 o 319.433 306.012 37.55 3.74336 2.66
6 0 0 o 380.297 370.544 -70.30 3.73590 3.16
4 2 -1 o 186.227 186.735 -160.07 3.59595 2.87
5 2 0 o 173.059 173.598 -42.98 3.58933 2.66
5 1 1 o 545.925 569.231 31.57 3.46469 7.85
1 0 -2 o 179.558 144.622 7.71 3.36298 1.22
2 0 2 o 32.890 27.062 -90.31 3.25488 0.21
4 3 1 o 30.251 26.061 -60.72 3.24022 0.38
4 4 0 o 11.880 10.377 -180.00 3.23538 0.07
2 1 -2 o 273.955 277.211 -162.79 3.15657 3.30
6 1 -1 o 2.809 3.040 -77.07 3.05440 0.03
3 1 2 o 85.646 83.132 68.35 2.98403 0.93
7 1 0 o 846.500 871.155 125.91 2.96899 9.10
4 0 -2 o 341.794 344.498 20.24 2.90774 1.77
5 3 -1 o 57.107 58.526 97.72 2.89728 0.59
7 0 1 o 546.395 559.974 -172.78 2.89728 2.81
3 2 -2 o 130.126 126.076 106.41 2.83701 1.29
6 2 1 o 354.019 353.480 -157.70 2.82729 3.48
6 3 0 o 74.938 75.684 -92.41 2.82407 0.73
5 0 2 o 399.330 342.678 -22.18 2.70978 1.81
4 2 2 o 35.814 31.536 -138.25 2.65226 0.31
5 4 1 o 333.502 317.034 39.01 2.64431 2.90
5 1 -2 o 108.155 108.998 -76.70 2.59825 0.91
8 0 -1 o 173.968 176.422 1.38 2.59078 0.73
5 5 0 o 107.135 108.166 0.00 2.58831 0.45
7 2 -1 o 270.139 289.073 -166.85 2.54038 2.18
4 3 -2 o 71.761 73.188 -57.53 2.49946 0.56
9 0 0 o 494.052 466.028 -37.73 2.49060 1.93
8 1 1 o 398.651 398.895 -18.89 2.44781 3.01
8 2 0 o 116.372 113.866 -58.11 2.44572 0.88
6 1 2 o 10.235 11.041 128.15 2.41114 0.08
6 4 -1 o 233.092 232.029 5.64 2.40516 1.71
7 3 1 o 67.351 68.472 104.76 2.36467 0.48
7 0 -2 o 715.228 754.035 92.96 2.33156 2.48
5 3 2 o 350.011 369.002 -155.41 2.33156 2.43
7 4 0 o 28.589 28.955 94.01 2.32437 0.20
6 2 -2 o 43.931 56.712 -157.28 2.29462 0.30
0 0 3 o 2314.237 2512.389 91.48 2.26765 2.55
1 1 3 o 247.412 242.703 -76.22 2.23362 1.59
6 5 1 o 184.100 169.158 -120.95 2.22101 1.17
9 1 -1 o 89.160 81.923 11.99 2.22101 0.57
5 4 -2 o 205.141 195.944 -42.91 2.19351 1.28
3 0 3 o 20.903 22.589 140.39 2.16992 0.06
3 0 -3 o 2.723 2.943 136.33 2.16992 0.01
8 0 2 o 7.296 7.883 98.76 2.16267 0.02
8 3 -1 o 95.125 105.551 -169.00 2.15835 0.58
6 6 0 o 28.183 31.150 180.00 2.15692 0.09
2 2 3 o 361.076 329.031 136.61 2.14004 2.16
7 2 2 o 117.323 108.947 76.00 2.13309 0.70
10 0 1 o 737.397 711.934 86.25 2.12895 2.19
10 1 0 o 15.202 14.871 128.18 2.12757 0.09
9 2 1 o 548.636 520.122 -150.29 2.10071 3.18
8 1 -2 o 300.613 274.779 -108.01 2.07740 1.71
9 3 0 o 26.572 24.719 120.03 2.07230 0.15
7 5 -1 o 40.995 41.099 -169.28 2.04746 0.23
4 1 3 o 153.221 154.032 -33.90 2.05732 0.86
4 1 -3 o 263.760 265.154 11.89 2.05732 1.48
6 4 2 o 481.864 485.453 -32.99 2.05114 2.69
7 3 -2 o 383.298 375.668 91.34 2.02585 2.09
8 4 1 o 156.331 151.203 71.86 2.02231 0.85
3 3 3 o 50.037 50.806 -156.37 2.00722 0.27
8 5 0 o 43.139 36.460 143.92 1.97356 0.23
11 0 -1 o 40.588 44.004 52.26 1.95207 0.10
6 0 -3 o 153.286 157.630 -111.91 1.93849 0.39
6 0 3 o 130.226 133.916 97.91 1.93849 0.33
9 1 2 o 71.902 76.090 -52.36 1.93332 0.36
6 5 -2 o 146.255 154.774 -115.34 1.93332 0.74
10 2 -1 o 55.168 58.857 -165.22 1.93023 0.28
7 6 1 o 0.442 0.488 -41.79 1.90912 0.00
5 2 3 o 35.224 38.645 62.75 1.91710 0.18
5 2 -3 o 197.067 216.204 175.71 1.91710 0.98
8 3 2 o 232.875 235.217 -169.87 1.89157 1.14
10 0 -2 o 773.089 776.843 56.44 1.87168 1.86
11 1 1 o 252.808 256.861 -26.20 1.86888 1.21
9 4 -1 o 40.547 41.197 -34.42 1.86888 0.19
12 0 0 o 116.740 118.990 -172.79 1.86795 0.28
4 4 3 o 15.599 16.500 -32.30 1.85695 0.07
9 2 -2 o 162.750 167.590 -53.73 1.85241 0.77
7 7 0 o 2.502 2.485 -180.00 1.84879 0.01
11 2 0 o 4.599 4.568 -64.47 1.84879 0.02
10 3 1 o 33.711 30.669 -94.85 1.83108 0.16
7 1 3 o 190.230 198.429 -132.22 1.80213 0.86
7 1 -3 o 73.207 76.362 47.90 1.80213 0.33
7 5 2 o 101.204 92.368 149.05 1.81558 0.46
8 4 -2 o 59.250 61.860 97.01 1.79797 0.27
10 4 0 o 62.319 63.807 -58.37 1.79467 0.28
8 6 -1 o 108.528 104.614 45.62 1.77846 0.48
6 3 3 o 35.851 29.147 -43.46 1.76817 0.16
6 3 -3 o 32.218 26.194 -5.22 1.76817 0.14
9 5 1 o 77.419 67.424 -37.92 1.76190 0.34
11 0 2 o 593.018 515.876 123.23 1.74807 1.29
10 2 2 o 325.959 260.405 -38.75 1.73234 1.40
12 1 -1 o 35.446 29.193 172.59 1.73012 0.15
9 6 0 o 149.265 148.108 -15.83 1.71415 0.63
5 5 3 o 67.257 66.439 64.11 1.70564 0.28
7 6 -2 o 11.568 10.804 -137.09 1.71703 0.05
11 3 -1 o 122.438 112.674 4.17 1.70001 0.51
1 0 4 o 48.825 43.790 -67.37 1.69586 0.10
9 4 2 o 121.651 114.484 50.93 1.68758 0.50
11 1 -2 o 191.185 179.920 -141.98 1.68758 0.79
2 0 -4 o 35.729 36.271 -5.68 1.68149 0.07
9 0 -3 o 139.692 142.472 69.79 1.67676 0.29
9 0 3 o 215.075 219.355 44.05 1.67676 0.44
13 0 1 o 212.272 219.775 175.02 1.67141 0.43
8 7 1 o 171.631 177.697 131.86 1.67141 0.70
2 1 4 o 134.180 137.260 130.55 1.66747 0.54
8 2 -3 o 285.735 286.381 -111.86 1.66286 1.16
8 2 3 o 73.171 73.337 98.44 1.66286 0.30
10 3 -2 o 76.044 76.900 -174.35 1.65959 0.31
12 2 1 o 453.048 464.555 138.33 1.65764 1.82
13 1 0 o 100.121 103.244 34.99 1.65699 0.40
10 5 -1 o 28.581 26.874 33.74 1.64421 0.11
12 3 0 o 35.405 36.884 177.72 1.63048 0.14
3 1 -4 o 29.884 27.755 161.61 1.64046 0.12
4 0 4 o 361.084 359.399 -49.27 1.62744 0.71
7 4 -3 o 146.369 137.924 120.71 1.62315 0.57
7 4 3 o 32.080 30.229 -130.69 1.62315 0.13
8 6 2 o 103.409 95.807 -76.52 1.62011 0.40
11 4 1 o 224.466 207.888 -8.66 1.61830 0.88
8 8 0 o 64.339 59.698 180.00 1.61769 0.13
3 2 4 o 39.347 37.198 -33.78 1.61472 0.15
9 5 -2 o 30.615 30.190 7.95 1.60756 0.12
5 0 -4 o 169.097 178.260 -1.11 1.59016 0.32
12 1 2 o 41.410 39.985 -168.27 1.58332 0.16
9 7 -1 o 163.332 157.766 -138.60 1.56994 0.61
11 5 0 o 86.721 82.627 115.86 1.58106 0.33
4 2 -4 o 15.167 14.626 -156.98 1.57829 0.06
5 1 4 o 158.338 153.173 109.30 1.56668 0.59
6 6 3 o 10.723 10.333 -6.90 1.56285 0.04
11 3 2 o 155.500 148.191 174.69 1.56014 0.58
10 6 1 o 7.813 7.374 -174.43 1.55852 0.03
14 0 -1 o 200.980 189.688 10.21 1.55852 0.37
10 1 3 o 179.049 169.547 -65.27 1.55158 0.66
10 1 -3 o 11.318 10.717 6.35 1.55158 0.04
13 2 -1 o 112.946 114.676 -133.24 1.54734 0.42
4 3 4 o 46.471 50.195 -144.12 1.54421 0.17
8 7 -2 o 9.022 10.148 24.25 1.53795 0.03
13 0 -2 o 354.359 398.597 31.10 1.53795 0.65
9 3 3 o 71.801 70.691 147.21 1.52975 0.26
9 3 -3 o 13.836 13.622 -132.59 1.52975 0.05
12 2 -2 o 51.479 50.065 118.68 1.52720 0.19
6 1 -4 o 7.620 7.046 94.03 1.52268 0.03
10 5 2 o 148.259 126.289 27.33 1.51668 0.53
14 1 1 o 384.015 342.995 -19.38 1.50491 1.37
12 4 -1 o 180.426 152.819 -175.39 1.51519 0.65
10 7 0 o 12.594 10.654 -93.71 1.51469 0.05
7 0 4 o 201.960 184.381 -61.47 1.50203 0.36
5 3 -4 o 60.871 55.573 -73.79 1.50203 0.22
11 4 -2 o 154.244 154.187 -10.87 1.49627 0.55
15 0 0 o 32.087 32.906 -92.62 1.49436 0.06
6 2 4 o 52.671 54.839 -129.99 1.49202 0.19
8 5 -3 o 42.546 44.743 35.50 1.48871 0.15
8 5 3 o 30.841 32.433 64.56 1.48871 0.11
13 3 1 o 273.916 301.316 -103.45 1.48496 0.97
9 8 1 o 219.152 241.074 -66.03 1.48496 0.77
14 2 0 o 67.409 74.800 -106.05 1.48450 0.24
5 4 4 o 91.229 109.733 2.10 1.46313 0.32
9 7 2 o 37.981 41.792 169.71 1.45780 0.13
11 6 -1 o 95.427 120.778 66.70 1.46579 0.33
13 4 0 o 70.787 76.013 45.20 1.45604 0.24
8 0 -4 o 80.841 83.572 -127.16 1.45387 0.14
10 6 -2 o 128.581 123.953 -114.98 1.44864 0.44
14 0 2 o 370.150 356.827 -21.18 1.44864 0.64
12 5 1 o 653.975 627.056 114.76 1.44734 2.25
7 2 -4 o 92.736 88.912 129.73 1.44478 0.32
12 0 3 o 192.195 186.298 86.14 1.44178 0.33
12 0 -3 o 81.572 79.069 -160.07 1.44178 0.14
13 2 2 o 131.655 128.225 27.78 1.43965 0.45
9 9 0 o 0.187 0.182 -180.00 1.43795 0.00
7 7 3 o 120.599 118.993 176.19 1.43291 0.41
11 2 3 o 84.769 83.641 168.70 1.43291 0.29
11 2 -3 o 105.134 103.735 87.26 1.43291 0.36
6 4 -4 o 0.152 0.162 -71.13 1.41850 0.00
8 1 4 o 168.397 186.713 57.89 1.42710 0.57
12 4 2 o 95.820 93.120 -99.27 1.41365 0.32
15 1 -1 o 9.670 9.389 65.68 1.41244 0.03
12 6 0 o 215.095 208.956 -119.65 1.41204 0.72
7 3 4 o 337.796 330.553 176.40 1.41006 1.13
10 4 3 o 223.855 225.205 -44.76 1.40727 0.75
10 4 -3 o 104.806 105.438 -55.16 1.40727 0.35
14 1 -2 o 59.176 61.380 -123.72 1.40529 0.20
10 8 -1 o 108.593 114.955 -93.66 1.40410 0.36
11 7 1 o 116.741 143.694 -85.05 1.39591 0.39
14 3 -1 o 78.639 96.796 48.88 1.39591 0.26
13 3 -2 o 8.428 10.367 -136.97 1.38900 0.03
9 8 -2 o 34.987 43.035 87.63 1.38900 0.12
6 5 4 o 269.374 275.152 2.43 1.37773 0.89
9 1 -4 o 68.527 69.997 -29.25 1.37773 0.23
11 6 2 o 99.640 96.222 -167.53 1.37327 0.33
16 0 1 o 91.455 86.876 128.91 1.37217 0.15
9 6 3 o 34.971 32.322 -66.40 1.36743 0.11
9 6 -3 o 3.009 2.781 85.23 1.36743 0.01
15 2 1 o 242.503 228.413 121.87 1.36452 0.80
13 5 -1 o 18.719 17.631 -86.10 1.36452 0.06
8 3 -4 o 28.510 27.084 55.73 1.36237 0.09
1 0 -5 o 5.615 5.215 -65.23 1.35809 0.01
12 5 -2 o 195.739 181.766 114.38 1.35807 0.64
11 8 0 o 203.470 186.766 104.70 1.35664 0.67
16 1 0 o 60.062 55.131 109.54 1.35664 0.20
9 2 4 o 1043.014 932.601 -15.26 1.34752 3.40
10 0 4 o 1342.328 1215.552 -155.87 1.35489 2.19
2 1 -5 o 70.543 66.524 102.24 1.34338 0.23
2 0 5 o 63.753 56.261 50.60 1.35067 0.10
14 4 1 o 55.926 53.357 -36.72 1.34232 0.18
15 3 0 o 9.744 9.326 -138.61 1.34197 0.03
13 1 3 o 28.328 27.123 -113.15 1.33788 0.09
13 1 -3 o 28.411 27.203 -32.10 1.33788 0.09
10 9 1 o 134.425 126.998 72.05 1.33516 0.44
7 5 -4 o 277.959 262.112 -170.16 1.33315 0.90
3 1 5 o 69.819 65.220 175.74 1.32913 0.23
15 1 2 o 260.909 243.698 170.50 1.32911 0.84
8 4 4 o 454.977 420.885 178.24 1.32613 1.47
8 8 3 o 100.948 107.117 71.76 1.31694 0.33
12 3 3 o 42.453 39.861 11.97 1.32381 0.14
12 3 -3 o 73.571 69.080 -144.30 1.32381 0.24
3 2 -5 o 21.822 23.384 -29.55 1.31533 0.07
11 7 -2 o 8.243 8.834 -136.17 1.31531 0.03
14 3 2 o 25.113 26.913 -158.80 1.31531 0.08
4 0 -5 o 64.549 62.311 -106.37 1.32218 0.10
10 8 2 o 41.390 39.973 24.41 1.32216 0.13
14 5 0 o 16.670 17.966 16.41 1.31401 0.05
12 7 -1 o 37.155 36.653 -45.44 1.32117 0.12
13 6 1 o 64.849 70.795 -30.07 1.30761 0.21
11 0 -4 o 73.415 79.405 49.22 1.30572 0.12
5 0 5 o 436.061 450.206 18.85 1.30195 0.70
10 2 -4 o 83.389 81.587 -171.96 1.29913 0.27
11 5 3 o 241.078 229.728 121.12 1.29694 0.77
11 5 -3 o 89.772 85.546 83.91 1.29694 0.29
5 1 -5 o 52.414 58.684 19.98 1.28897 0.17
15 2 -2 o 35.035 39.251 159.03 1.28895 0.11
13 5 2 o 139.038 155.768 61.25 1.28895 0.45
4 2 5 o 61.791 58.837 -108.57 1.29541 0.20
16 2 -1 o 110.109 126.567 -86.42 1.28803 0.35
16 0 -2 o 284.456 270.888 5.45 1.29539 0.46
17 0 -1 o 244.868 235.204 150.70 1.29446 0.39
10 10 0 o 486.901 469.770 0.00 1.29415 0.78
7 6 4 o 28.935 28.853 -64.86 1.29263 0.09
9 4 -4 o 36.426 39.723 -8.52 1.27992 0.12
11 1 4 o 307.066 334.863 87.53 1.27992 0.98
4 3 -5 o 112.200 114.604 -143.65 1.27637 0.36
13 7 0 o 221.969 222.637 31.34 1.27517 0.71
10 3 4 o 139.083 133.276 -120.83 1.26759 0.45
6 1 5 o 47.407 47.845 179.38 1.26413 0.15
10 9 -2 o 21.157 21.361 -64.14 1.26411 0.07
12 8 1 o 143.794 148.122 178.19 1.26325 0.46
14 4 -2 o 107.110 101.995 -43.03 1.27019 0.34
11 9 -1 o 242.699 230.845 101.95 1.26931 0.78
15 4 -1 o 12.637 12.020 -54.11 1.26931 0.04
10 7 -3 o 0.787 0.899 4.40 1.25955 0.00
10 7 3 o 58.540 66.898 -43.47 1.25955 0.19
17 1 1 o 53.779 63.582 -81.42 1.25728 0.17
15 0 3 o 126.092 125.895 20.87 1.24779 0.20
15 0 -3 o 66.996 66.891 123.12 1.24779 0.11
6 2 -5 o 10.980 10.790 54.17 1.24642 0.04
7 0 -5 o 165.261 178.001 -178.71 1.25224 0.27
5 3 5 o 101.450 109.271 -5.90 1.25224 0.33
16 3 1 o 87.011 84.819 -78.75 1.24557 0.28
12 7 2 o 15.237 16.405 15.56 1.25222 0.05
18 0 0 o 152.984 148.772 3.57 1.24530 0.25
9 5 4 o 550.432 529.525 40.05 1.24394 1.77
8 6 -4 o 44.338 45.573 -11.63 1.24973 0.14
14 2 3 o 0.352 0.332 -97.68 1.24203 0.00
14 2 -3 o 94.252 89.037 -33.58 1.24203 0.30
13 6 -2 o 1.719 1.587 58.99 1.24066 0.01
14 6 -1 o 170.206 154.118 134.03 1.23985 0.55
17 2 0 o 101.212 90.989 -139.74 1.23957 0.33
7 1 -6 o 125.593 131.280 70.20 1.05922 0.83
7 1 6 o 38.355 40.091 74.41 1.05922 0.25
5 4 -5 o 113.255 103.569 146.13 1.22943 0.37
17 0 2 o 82.925 75.854 -29.30 1.22941 0.13
12 9 0 o 821.966 761.351 -143.14 1.22836 2.66
12 1 -4 o 12.955 11.010 -153.65 1.23261 0.04
10 5 5 o 73.041 74.439 96.38 1.06090 0.46
13 4 3 o 131.996 124.022 -173.37 1.22521 0.43
13 4 -3 o 88.038 82.719 129.68 1.22521 0.28
14 9 2 o 6.040 6.157 77.02 1.06089 0.04
19 2 2 o 10.852 11.062 163.17 1.06089 0.07
8 0 5 o 88.458 83.589 38.98 1.22392 0.14
16 2 2 o 210.904 199.313 -3.48 1.22390 0.68
14 10 1 o 56.884 58.496 -39.33 1.06038 0.37
15 5 1 o 19.408 18.432 120.62 1.22312 0.06
16 4 0 o 204.554 194.647 49.89 1.22286 0.66
11 3 -4 o 7.317 7.044 -85.28 1.22158 0.02
11 10 1 o 124.633 126.819 13.95 1.21234 0.41
7 2 5 o 275.213 274.332 -160.95 1.21848 0.89
13 0 4 o 569.951 576.015 -18.75 1.21083 0.93
8 7 4 o 88.185 89.123 -151.43 1.21083 0.29
9 9 3 o 152.540 155.833 -156.02 1.21438 0.50
8 1 -5 o 4.221 4.205 29.52 1.20782 0.01
11 9 2 o 25.147 25.054 -99.53 1.20781 0.08
15 4 2 o 4.765 4.747 -163.47 1.20781 0.02
20 2 0 o 265.872 257.332 79.32 1.06379 1.60
12 2 4 o 716.477 706.894 -142.31 1.20557 2.35
10 9 4 o 127.224 124.842 -83.67 1.06294 0.78
7 3 -5 o 348.146 325.905 -38.84 1.19744 1.15
17 1 -2 o 35.242 32.991 168.36 1.19742 0.12
6 4 5 o 523.321 506.096 32.57 1.20260 1.72
15 6 0 o 640.677 601.993 -136.80 1.19644 2.11
12 8 -2 o 1.757 1.699 139.93 1.20258 0.01
13 8 -1 o 111.473 107.047 -63.89 1.20184 0.37
10 5 -4 o 14.470 13.706 66.48 1.20037 0.05
12 6 3 o 60.878 57.052 -41.53 1.19865 0.20
12 6 -3 o 136.299 127.732 -111.15 1.19865 0.45
12 2 -5 o 429.424 411.917 46.17 1.06449 2.56
20 0 2 o 983.094 943.133 -30.77 1.06447 2.93
18 1 -1 o 96.646 99.367 16.13 1.19161 0.32
14 7 1 o 35.490 36.489 42.86 1.19161 0.12
13 11 -1 o 82.390 79.550 45.59 1.06396 0.49
11 4 4 o 321.513 344.983 50.63 1.19018 1.07
14 4 4 o 54.619 52.095 -140.08 1.06654 0.31
14 6 2 o 214.128 233.255 -98.43 1.18234 0.72
17 3 -1 o 116.817 126.170 160.57 1.18163 0.39
16 3 -2 o 42.892 48.903 144.48 1.18730 0.14
6 5 -5 o 368.949 411.608 146.18 1.17745 1.24
9 1 5 o 110.088 122.817 19.13 1.17745 0.37
13 0 -5 o 162.708 158.805 173.00 1.06811 0.46
8 7 -5 o 29.043 28.346 115.19 1.06811 0.16
12 11 -2 o 41.662 40.652 -48.62 1.06809 0.23
11 11 0 o 143.046 163.066 0.00 1.17650 0.24
9 7 -4 o 11.012 13.038 -130.80 1.17054 0.04
15 9 0 o 63.974 61.603 -36.64 1.06740 0.36
21 0 0 o 196.403 189.124 -110.20 1.06740 0.56
4 4 6 o 21.817 22.503 9.55 1.07002 0.12
8 3 5 o 226.804 249.620 -125.12 1.16782 0.77
15 5 -2 o 26.506 29.160 -4.22 1.16781 0.09
13 2 -4 o 6.035 6.010 -124.47 1.16108 0.02
10 6 4 o 556.589 581.264 -126.68 1.16578 1.91
14 0 -4 o 103.752 108.352 39.41 1.16578 0.18
16 1 -3 o 37.061 37.623 149.04 1.16420 0.13
11 8 -3 o 73.092 74.200 24.79 1.16420 0.25
16 1 3 o 30.417 30.878 165.54 1.16420 0.10
11 8 3 o 65.502 66.495 -166.14 1.16420 0.22
9 2 -5 o 871.137 889.837 -174.53 1.15843 3.02
11 10 -2 o 1.319 1.347 134.05 1.15841 0.00
10 0 -5 o 787.939 789.935 20.29 1.16310 1.35
12 10 -1 o 173.701 179.433 160.28 1.15775 0.60
18 2 1 o 47.715 49.290 85.42 1.15775 0.17
19 0 1 o 68.019 67.872 98.17 1.16241 0.12
16 5 -1 o 332.953 332.231 -8.28 1.16241 1.15
14 8 0 o 370.658 369.481 23.50 1.16218 1.28
17 6 -1 o 69.508 74.367 -10.59 1.07122 0.37
19 3 1 o 47.476 50.795 -102.44 1.07122 0.26
15 3 -3 o 4.617 5.008 -95.76 1.15490 0.02
15 3 3 o 56.874 61.692 -65.30 1.15490 0.20
7 5 5 o 122.219 128.488 55.25 1.14925 0.43
13 8 2 o 142.139 149.394 122.69 1.14924 0.50
19 1 0 o 16.137 16.729 45.92 1.14837 0.06
14 1 4 o 79.130 79.648 106.74 1.14283 0.28
13 9 1 o 10.334 11.348 -81.66 1.15314 0.04
12 4 -4 o 8.390 8.581 60.34 1.14731 0.03
16 4 3 o 220.464 235.247 163.45 1.07633 1.12
16 4 -3 o 1.136 1.213 72.95 1.07633 0.01
14 7 -2 o 44.549 43.781 -74.42 1.14028 0.16
18 1 2 o 168.631 165.725 146.31 1.14028 0.61
11 3 5 o 183.952 199.579 -66.49 1.07546 0.94
8 4 -5 o 431.695 436.284 15.95 1.14475 1.54
16 6 -2 o 141.414 144.013 131.13 1.07918 0.70
18 3 0 o 187.109 181.551 -126.13 1.13944 0.68
13 3 4 o 261.237 233.990 24.24 1.13402 0.96
9 8 4 o 116.527 104.373 39.12 1.13402 0.43
0 0 6 o 203.903 182.379 41.67 1.13383 0.12
17 4 1 o 29.860 30.160 73.08 1.14409 0.11
20 1 1 o 43.215 44.284 -78.46 1.07864 0.21
12 12 0 o 197.472 202.838 0.00 1.07846 0.49
10 2 5 o 729.885 669.610 79.73 1.12725 2.73
13 5 -4 o 3.961 4.126 25.20 1.07758 0.02
15 2 4 o 95.782 99.773 -139.90 1.07758 0.48
14 5 3 o 366.733 340.798 26.08 1.13693 1.33
14 5 -3 o 128.224 119.156 3.67 1.13693 0.47
16 0 4 o 61.249 61.618 -37.61 1.08133 0.15
11 0 5 o 1003.572 893.846 -113.90 1.13155 1.85
5 2 6 o 28.175 28.356 48.87 1.08117 0.14
5 2 -6 o 22.792 22.938 -37.81 1.08117 0.11
17 3 2 o 53.816 47.933 -127.26 1.13153 0.20
6 0 -6 o 333.714 334.599 -132.57 1.08496 0.78
6 0 6 o 238.872 239.505 -116.40 1.08496 0.56
3 0 6 o 134.438 131.121 -128.21 1.12099 0.26
3 0 -6 o 157.427 153.543 -149.13 1.12099 0.30
11 6 -4 o 12.693 11.829 -111.15 1.12541 0.05
15 7 -1 o 170.926 155.016 -175.34 1.13526 0.62
1 1 6 o 12.222 11.014 -113.10 1.12950 0.05
12 9 -3 o 256.765 259.589 113.00 1.08007 1.25
12 9 3 o 222.183 224.626 -10.43 1.08007 1.08
9 4 5 o 147.887 150.074 -127.88 1.11463 0.58
11 1 -5 o 50.176 50.918 -87.97 1.11463 0.20
16 5 2 o 298.165 302.569 77.74 1.11462 1.17
19 0 -2 o 4.478 4.544 -142.18 1.11462 0.01
17 2 3 o 0.793 0.783 136.22 1.08768 0.00
17 2 -3 o 53.544 52.868 -102.35 1.08768 0.24
10 10 3 o 466.856 440.887 43.10 1.12399 1.77
18 0 -3 o 111.191 106.929 19.95 1.09154 0.25
18 0 3 o 21.661 20.830 8.16 1.09154 0.05
12 1 5 o 2.039 2.049 136.67 1.08296 0.01
7 6 -5 o 187.138 178.490 -167.54 1.12299 0.71
9 5 -5 o 25.756 24.856 -30.69 1.09062 0.12
15 7 2 o 116.650 112.580 -62.86 1.09061 0.52
16 6 1 o 48.571 46.628 -150.75 1.12237 0.18
8 6 5 o 92.347 90.463 -2.54 1.09452 0.40
17 5 0 o 294.146 283.001 52.33 1.12217 1.12
13 10 0 o 286.326 275.477 135.84 1.12217 1.09
12 5 4 o 181.311 183.749 -140.33 1.11700 0.70
2 2 6 o 87.213 88.443 36.87 1.11681 0.34
18 4 -1 o 470.419 455.613 165.36 1.09006 2.11
17 4 -2 o 12.884 13.590 -145.92 1.09844 0.05
15 8 1 o 13.183 12.818 -132.77 1.09395 0.06
13 7 -3 o 17.775 18.047 176.44 1.11149 0.07
13 7 3 o 201.810 204.893 175.84 1.11149 0.80
10 3 -5 o 0.509 0.536 146.16 1.10645 0.00
16 7 0 o 135.407 140.887 -171.87 1.09769 0.58
13 9 -2 o 41.470 43.668 107.71 1.10644 0.17
14 9 -1 o 167.898 182.156 -0.25 1.10185 0.70
19 2 -1 o 191.568 207.835 4.58 1.10185 0.80
11 7 4 o 444.566 428.321 60.86 1.09284 1.96
14 3 -4 o 40.655 39.169 145.29 1.09284 0.18
12 10 2 o 7.168 7.299 -64.21 1.11051 0.03
18 2 -2 o 160.807 163.757 -17.56 1.11051 0.64
20 0 -1 o 573.393 607.385 -150.17 1.10586 1.17
10 8 -4 o 38.066 38.867 146.72 1.09676 0.16
3 3 6 o 260.837 265.352 -158.29 1.09658 1.12
12 11 1 o 191.031 195.066 122.56 1.10992 0.76
15 1 -4 o 12.980 14.039 -85.72 1.10072 0.05
4 1 -6 o 116.007 124.389 41.00 1.10454 0.48
4 1 6 o 65.869 70.629 48.62 1.10454 0.27
