#------------------------------------------------------------------------------
#$Date: 2016-03-22 22:03:50 +0200 (Tue, 22 Mar 2016) $
#$Revision: 179031 $
#$URL: svn://www.crystallography.net/cod/cif/4/12/29/4122995.cif $
#------------------------------------------------------------------------------
#
# This file is available in the Crystallography Open Database (COD),
# http://www.crystallography.net/
#
# All data on this site have been placed in the public domain by the
# contributors.
#
data_4122995
loop_
_publ_author_name
'Anderson, John S.'
'Gallagher, Audrey T.'
'Mason, Jarad A.'
'Harris, T. David'
_publ_section_title
;
 A Five-Coordinate Heme Dioxygen Adduct Isolated within a Metal-Organic
 Framework.
;
_journal_name_full               'Journal of the American Chemical Society'
_journal_page_first              141117151249006
_journal_paper_doi               10.1021/ja5103103
_journal_year                    2014
_chemical_formula_moiety         '0.25(C576 H288 Fe12 N48 O256 Zr48)'
_chemical_formula_sum            'C144 H72 Fe3 N12 O64 Zr12'
_chemical_formula_weight         4256.32
_chemical_name_systematic
;
 ?
;
_space_group_crystal_system      cubic
_space_group_IT_number           229
_space_group_name_Hall           '-I 4 2 3'
_space_group_name_H-M_alt        'I m -3 m'
_symmetry_space_group_name_Hall  '-I 4 2 3'
_symmetry_space_group_name_H-M   'I m -3 m'
_atom_sites_solution_hydrogens   geom
_atom_sites_solution_primary     direct
_audit_creation_date             2014-10-06
_audit_creation_method
;
Olex2 1.2
(compiled 2014.09.19 svn.r3010 for OlexSys, GUI svn.r4874)
Note that there are several Level A alerts for PCN-224FeO2 (2).  These arise from the short O-O distances in the
bound oxygen unit and are likely an artifact of the disorder of the dioxygen unit around the crystallographic
fourfold axis. One other Level A alert similarly arises from a short O-O distance near the Zr cluster which again 
arises from disorder.
;
_cell_angle_alpha                90
_cell_angle_beta                 90
_cell_angle_gamma                90
_cell_formula_units_Z            4
_cell_length_a                   38.4265(16)
_cell_length_b                   38.4265(16)
_cell_length_c                   38.4265(16)
_cell_measurement_reflns_used    6900
_cell_measurement_temperature    100(2)
_cell_measurement_theta_max      31.06
_cell_measurement_theta_min      2.81
_cell_volume                     56740(4)
_computing_cell_refinement       'SAINT v8.27A (Bruker, 2012)'
_computing_data_reduction        'SAINT v8.27A (Bruker, 2012)'
_computing_molecular_graphics    'Olex2 (Dolomanov et al., 2009)'
_computing_publication_material  'Olex2 (Dolomanov et al., 2009)'
_computing_structure_refinement  'ShelXL (Sheldrick, 2008)'
_computing_structure_solution    'ShelXS (Sheldrick, 2008)'
_diffrn_ambient_temperature      100.01
_diffrn_detector                 'Bruker APEX2 area detector'
_diffrn_detector_area_resol_mean 7.9
_diffrn_detector_type            'CCD area detector'
_diffrn_measured_fraction_theta_full 1.000
_diffrn_measured_fraction_theta_max 0.998
_diffrn_measurement_device       'three-circle diffractometer'
_diffrn_measurement_device_type  'Bruker SMART APEX2 area detector'
_diffrn_measurement_method       '\w and \f scans'
_diffrn_radiation_monochromator  'mirror optics'
_diffrn_radiation_probe          x-ray
_diffrn_radiation_type           CuK\a
_diffrn_radiation_wavelength     1.54178
_diffrn_reflns_av_R_equivalents  0.0537
_diffrn_reflns_av_unetI/netI     0.0196
_diffrn_reflns_Laue_measured_fraction_full 1.000
_diffrn_reflns_Laue_measured_fraction_max 0.998
_diffrn_reflns_limit_h_max       36
_diffrn_reflns_limit_h_min       -45
_diffrn_reflns_limit_k_max       46
_diffrn_reflns_limit_k_min       -44
_diffrn_reflns_limit_l_max       46
_diffrn_reflns_limit_l_min       -45
_diffrn_reflns_number            322200
_diffrn_reflns_point_group_measured_fraction_full 1.000
_diffrn_reflns_point_group_measured_fraction_max 0.998
_diffrn_reflns_theta_full        67.679
_diffrn_reflns_theta_max         68.199
_diffrn_reflns_theta_min         1.626
_diffrn_source                   'microfocus sealed X-ray tube'
_diffrn_source_type              'Incoatec I\ms'
_diffrn_standards_number         0
_exptl_absorpt_coefficient_mu    2.553
_exptl_absorpt_correction_T_max  0.3196
_exptl_absorpt_correction_T_min  0.2257
_exptl_absorpt_correction_type   multi-scan
_exptl_absorpt_process_details
;
SADABS-2012/1 (Bruker,2012) was used for absorption correction.
wR2(int) was 0.0578 before and 0.0485 after correction.
The Ratio of minimum to maximum transmission is 0.7062.
The \l/2 correction factor is 0.0015.
;
_exptl_crystal_density_diffrn    0.498
_exptl_crystal_description       cube
_exptl_crystal_F_000             8360
_refine_diff_density_max         1.176
_refine_diff_density_min         -0.409
_refine_diff_density_rms         0.075
_refine_ls_extinction_method     none
_refine_ls_goodness_of_fit_ref   1.112
_refine_ls_hydrogen_treatment    constr
_refine_ls_matrix_type           full
_refine_ls_number_parameters     128
_refine_ls_number_reflns         4847
_refine_ls_number_restraints     248
_refine_ls_restrained_S_all      1.128
_refine_ls_R_factor_all          0.0825
_refine_ls_R_factor_gt           0.0691
_refine_ls_shift/su_max          0.004
_refine_ls_shift/su_mean         0.000
_refine_ls_structure_factor_coef Fsqd
_refine_ls_weighting_details
'w=1/[\s^2^(Fo^2^)+(0.1740P)^2^+9.9690P] where P=(Fo^2^+2Fc^2^)/3'
_refine_ls_weighting_scheme      calc
_refine_ls_wR_factor_gt          0.2273
_refine_ls_wR_factor_ref         0.2397
_reflns_Friedel_coverage         0.000
_reflns_number_gt                3651
_reflns_number_total             4847
_reflns_threshold_expression     'I > 2\s(I)'
_cod_data_source_file            ja5103103_si_002.cif
_cod_data_source_block           PCN-224Fe
_cod_original_cell_volume        56740(7)
_cod_database_code               4122995
#BEGIN Tags that were not found in dictionaries:
_shelxl_version_number           2013-4
_shelx_space_group_comment
;
The symmetry employed for this shelxl refinement is uniquely defined
by the following loop, which should always be used as a source of
symmetry information in preference to the above space-group names.
They are only intended as comments.
;
_olex2_refinement_description
;
1. Fixed Uiso
 At 1.2 times of:
  All C(H) groups
2. Rigid bond restraints
 All non-hydrogen atoms
 with sigma for 1-2 distances of 0.01 and sigma for 1-3 distances of 0.01
3. Uiso/Uaniso restraints and constraints
All non-hydrogen atoms have similar U: within 1.7A with sigma of 0.04 and sigma
for terminal atoms of 0.08
All non-hydrogen atoms restrained to be isotropic: with sigma of 0.1 and sigma
for terminal atoms of 0.2
4. Others
 Fixed Sof: Zr1(0.25) Zr2(0.25) O2(0.25) O10(0.5) O12(0.25) O8(0.5) O1(0.5)
 O20(0.5)
5.a Aromatic/amide H refined with riding coordinates:
 C12(H12), C13(H13), C23(H23)
;
_shelx_res_file
;
TITL jsa09final in Im-3m #229
CELL 1.54178 38.4265 38.4265 38.4265 90 90 90
ZERR 4 0.0016 0.0016 0.0016 0 0 0
LATT 2
SYMM -Y,+X,+Z
SYMM -X,-Y,+Z
SYMM +Y,-X,+Z
SYMM +X,-Z,+Y
SYMM +X,-Y,-Z
SYMM +X,+Z,-Y
SYMM +Z,+Y,-X
SYMM -X,+Y,-Z
SYMM -Z,+Y,+X
SYMM +Z,+X,+Y
SYMM +Y,+Z,+X
SYMM -Y,-Z,+X
SYMM +Z,-X,-Y
SYMM -Y,+Z,-X
SYMM -Z,-X,+Y
SYMM -Z,+X,-Y
SYMM +Y,-Z,-X
SYMM +Y,+X,-Z
SYMM -Y,-X,-Z
SYMM -X,+Z,+Y
SYMM -X,-Z,-Y
SYMM +Z,-Y,+X
SYMM -Z,-Y,-X

SFAC C H N O Fe Zr
UNIT 576 288 48 256 12 48
DELU
SIMU 0.04 0.08 1.7
ISOR

L.S. 10
PLAN  20
TEMP -173.14
REM reset to Im-3m #229
BOND
MORE -1
CONF
fmap 2
acta
REM <HKL>C:/Users/PXRD%20User/Documents/Harris%20files/JSA/XRD/JSA/JSA09/work/
REM jsa09final-mask.hkl</HKL>

WGHT    0.174000    9.969000
FVAR       0.00926
PART 2
ZR1   6    0.300153    0.300153    0.235269    10.25000    0.07084    0.07084 =
         0.06700    0.04485    0.04485    0.04169
PART 0
PART 1
ZR2   6    0.284620    0.284620    0.221069    10.25000    0.06948    0.06948 =
         0.06659    0.03753    0.03753    0.03573
PART 0
FE3   5    0.250000    0.500000    0.000000    10.12500    0.49393    0.01940 =
         0.01940    0.00000    0.00000    0.00000
O4    4    0.282329    0.282329    0.282329    10.16667    0.07846    0.07846 =
         0.07846    0.05587    0.05587    0.05587
PART 1
O2    4    0.233048    0.290433    0.233048    10.25000    0.07211    0.05372 =
         0.07211    0.00602    0.03324    0.00602
PART 0
C7    1    0.250000    0.409583    0.090417    10.50000    0.30716    0.03144 =
         0.03144    0.00232    0.01063    0.01063
C11   1    0.250978    0.426691    0.028100    11.00000    0.28758    0.03047 =
         0.03313    0.00409    0.00088    0.00795
C12   1    0.252846    0.391361    0.017438    11.00000    0.32357    0.02899 =
         0.03662    0.00230   -0.00451    0.00187
AFIX  43
H12   2    0.253892    0.371545    0.032184    11.00000   -1.20000
AFIX   0
C13   1    0.279088    0.377721    0.135353    11.00000    0.25015    0.07183 =
         0.06122    0.03520    0.03830    0.03893
AFIX  43
H13   2    0.299361    0.373393    0.148824    11.00000   -1.20000
AFIX   0
N14   3    0.250076    0.448410    0.000000    10.50000    0.29810    0.03527 =
         0.02241    0.00000    0.00000    0.00280
C19   1    0.250000    0.358969    0.141031    10.50000    0.23609    0.06227 =
         0.06227    0.03507    0.06606    0.06606
C23   1    0.279534    0.403735    0.109494    11.00000    0.28673    0.06343 =
         0.05240    0.02599    0.00764   -0.00003
AFIX  43
H23   2    0.299987    0.416996    0.105366    11.00000   -1.20000
AFIX   0
C28   1    0.250000    0.436984    0.063016    10.50000    0.33405    0.02609 =
         0.02609    0.00686    0.00012    0.00012
C1    1    0.250000    0.331449    0.168551    10.50000    0.16498    0.10300 =
         0.10300    0.06813    0.08069    0.08069
PART 2
O10   4    0.352988    0.306430    0.257332    10.50000    0.06737    0.34389 =
         0.18748    0.07197    0.04493    0.05605
O12   4    0.247583    0.315877    0.247583    10.25000    0.06411    0.09624 =
         0.06411    0.03874    0.04336    0.03874
PART 0
PART 1
O8    4    0.336087    0.303224    0.244095    10.50000    0.10403    0.55534 =
         0.14614    0.05643    0.03011   -0.06348
O1    4    0.271448    0.321371    0.180958    10.50000    0.12274    0.06707 =
         0.10126    0.05723    0.07122    0.04164
PART 0
PART 2
O20   4    0.284585    0.335326    0.190828    10.50000    0.12946    0.06117 =
         0.09718    0.04973    0.07467    0.04968
HKLF 4

REM  jsa09final in Im-3m #229
REM R1 =  0.0691 for    3651 Fo > 4sig(Fo)  and  0.0825 for all    4847 data
REM    128 parameters refined using    248 restraints

END

WGHT      0.1742     10.0059

REM Highest difference peak  1.176,  deepest hole -0.409,  1-sigma level  0.075
Q1    1   0.3166  0.3166  0.2804  10.50000  0.05    1.18
Q2    1   0.3168  0.3168  0.2344  10.50000  0.05    0.74
Q3    1   0.2938  0.5000  0.0000  10.25000  0.05    0.66
Q4    1   0.2692  0.2895  0.2095  11.00000  0.05    0.63
Q5    1   0.3514  0.3514  0.2523  10.50000  0.05    0.62
Q6    1   0.3381  0.3381  0.2518  10.50000  0.05    0.60
Q7    1   0.3114  0.3115  0.2289  10.50000  0.05    0.57
Q8    1   0.2500  0.3069  0.1931  10.50000  0.05    0.56
Q9    1   0.3097  0.3097  0.2563  10.50000  0.05    0.55
Q10   1   0.3522  0.2685  0.2685  10.50000  0.05    0.44
Q11   1   0.2484  0.3328  0.2484  10.50000  0.05    0.37
Q12   1   0.3618  0.2909  0.2909  10.50000  0.05    0.36
Q13   1   0.3564  0.2978  0.2978  10.50000  0.05    0.33
Q14   1   0.2475  0.3139  0.2290  11.00000  0.05    0.31
Q15   1   0.3687  0.3166  0.2425  11.00000  0.05    0.29
Q16   1   0.2694  0.3314  0.2006  11.00000  0.05    0.28
Q17   1   0.3393  0.2859  0.2418  11.00000  0.05    0.27
Q18   1   0.3623  0.3109  0.2512  11.00000  0.05    0.26
Q19   1   0.2779  0.3367  0.2041  11.00000  0.05    0.24
Q20   1   0.2813  0.3254  0.1886  11.00000  0.05    0.23
;
_shelx_res_checksum              65474
_shelx_hkl_file
;
   0   1   1   59.16   12.36
   0   2   0 1263.10   30.55
   0   2   2  467.54    8.44
   0   3   1    1.57    0.06
   0   3   3    7.87    0.04
   0   4   0  423.45   16.14
   0   4   2   28.57    0.35
   0   4   4   21.97    0.42
   0   5   1    2.91    0.01
   0   5   3    0.00    0.03
   0   5   5   17.76    0.07
   0   6   0   71.52    2.49
   0   6   2   17.69    0.04
   0   6   4    5.74    0.03
   0   6   6   11.01    0.28
   0   7   1    2.00    0.01
   0   7   3    0.25    0.01
   0   7   5   12.18    0.08
   0   7   7   25.03    0.34
   0   8   0   47.99    2.43
   0   8   2   29.52    0.58
   0   8   4   15.91    0.25
   0   8   6   10.87    0.04
   0   8   8    1.91    0.20
   0   9   1    7.25    0.14
   0   9   3    1.98    0.01
   0   9   5    4.23    0.05
   0   9   7    5.55    0.07
   0   9   9   33.42    0.45
   0  10   0   27.20    1.16
   0  10   2   57.60    0.86
   0  10   4   34.64    0.33
   0  10   6   34.88    0.37
   0  10   8    8.57    0.09
   0  10  10    5.83    0.14
   0  11   1    0.44    0.01
   0  11   3   10.93    0.09
   0  11   5   10.15    0.10
   0  11   7    7.48    0.08
   0  11   9    2.30    0.02
   0  11  11    4.89    0.04
   0  12   0    0.57    0.09
   0  12   2   46.69    0.58
   0  12   4    3.78    0.02
   0  12   6   10.62    0.15
   0  12   8    0.46    0.02
   0  12  10    4.17    0.04
   0  12  12   42.89    0.76
   0  13   1    2.24    0.06
   0  13   3    2.13    0.04
   0  13   5   19.21    0.20
   0  13   7    5.38    0.06
   0  13   9    0.09    0.01
   0  13  11    5.95    0.09
   0  13  13   28.75    0.42
   0  14   0   16.15    0.67
   0  14   2   32.87    0.36
   0  14   4   27.04    0.30
   0  14   6    9.74    0.10
   0  14   8    3.70    0.06
   0  14  10    2.26    0.04
   0  14  12   39.80    0.48
   0  14  14   31.41    0.51
   0  15   1    0.24    0.02
   0  15   3   17.72    0.19
   0  15   5    6.98    0.08
   0  15   7   11.98    0.11
   0  15   9    0.65    0.02
   0  15  11   31.51    0.31
   0  15  13   33.09    0.37
   0  15  15   17.81    0.33
   0  16   0    0.24    0.04
   0  16   2   21.55    0.23
   0  16   4    0.21    0.01
   0  16   6   11.99    0.18
   0  16   8    1.39    0.03
   0  16  10   20.26    0.22
   0  16  12   28.00    0.33
   0  16  14   17.00    0.19
   0  16  16   40.24    0.75
   0  17   1    5.57    0.09
   0  17   3    3.77    0.06
   0  17   5   34.04    0.34
   0  17   7    0.63    0.02
   0  17   9    1.66    0.03
   0  17  11   14.94    0.18
   0  17  13   15.81    0.19
   0  17  15   30.03    0.38
   0  17  17    9.32    0.15
   0  18   0    5.02    0.20
   0  18   2    3.80    0.04
   0  18   4   15.20    0.21
   0  18   6    0.04    0.01
   0  18   8    0.03    0.02
   0  18  10   10.26    0.13
   0  18  12    7.90    0.09
   0  18  14   18.63    0.25
   0  18  16   11.66    0.12
   0  18  18   24.71    0.41
   0  19   1    0.09    0.01
   0  19   3   14.55    0.12
   0  19   5    1.29    0.03
   0  19   7    2.32    0.04
   0  19   9    2.27    0.05
   0  19  11    0.90    0.04
   0  19  13   12.54    0.13
   0  19  15    5.86    0.06
   0  19  17   14.12    0.14
   0  19  19    1.14    0.03
   0  20   0    1.92    0.07
   0  20   2    1.34    0.03
   0  20   4    1.48    0.04
   0  20   6    0.14    0.02
   0  20   8    3.07    0.07
   0  20  10    0.35    0.02
   0  20  12    9.18    0.11
   0  20  14    2.56    0.03
   0  20  16   10.80    0.11
   0  20  18    2.93    0.03
   0  20  20   12.54    0.18
   0  21   1    0.71    0.02
   0  21   3    0.25    0.02
   0  21   5    1.82    0.03
   0  21   7    0.17    0.02
   0  21   9    0.61    0.02
   0  21  11    2.22    0.03
   0  21  13    0.28    0.02
   0  21  15    2.66    0.04
   0  21  17    0.33    0.01
   0  21  19    5.91    0.05
   0  21  21    0.07    0.01
   0  22   0    0.36    0.03
   0  22   2    0.02    0.01
   0  22   4    0.12    0.02
   0  22   6    0.86    0.03
   0  22   8    0.24    0.02
   0  22  10    1.42    0.03
   0  22  12    0.20    0.01
   0  22  14    0.95    0.02
   0  22  16    0.06    0.01
   0  22  18    2.98    0.03
   0  22  20    0.01    0.01
   0  22  22    1.32    0.03
   0  23   1    0.00    0.01
   0  23   3    0.01    0.01
   0  23   5    0.18    0.01
   0  23   7    0.94    0.02
   0  23   9    0.21    0.02
   0  23  11    0.02    0.01
   0  23  13    0.01    0.01
   0  23  15    0.89    0.01
   0  23  17    0.06    0.01
   0  23  19    0.34    0.01
   0  23  21    0.30    0.01
   0  23  23    3.04    0.04
   0  24   0    0.92    0.05
   0  24   2    0.25    0.01
   0  24   4    1.68    0.04
   0  24   6    0.24    0.02
   0  24   8    0.74    0.02
   0  24  10    0.05    0.01
   0  24  12    0.04    0.01
   0  24  14    1.15    0.02
   0  24  16    0.28    0.01
   0  24  18    1.33    0.02
   0  24  20    0.19    0.01
   0  24  22    2.67    0.03
   0  24  24    0.03    0.01
   0  25   1    0.10    0.01
   0  25   3    2.20    0.02
   0  25   5    0.25    0.01
   0  25   7    1.40    0.02
   0  25   9    0.32    0.01
   0  25  11    0.05    0.01
   0  25  13    0.96    0.01
   0  25  15    0.69    0.01
   0  25  17    1.90    0.02
   0  25  19    1.74    0.02
   0  25  21    3.29    0.03
   0  25  23    0.08    0.01
   0  25  25    1.23    0.02
   0  26   0    0.91    0.03
   0  26   2    1.51    0.02
   0  26   4    0.60    0.01
   0  26   6    1.97    0.02
   0  26   8    0.23    0.01
   0  26  10    0.07    0.01
   0  26  12    0.23    0.01
   0  26  14    0.55    0.01
   0  26  16    3.65    0.03
   0  26  18    5.78    0.05
   0  26  20    4.91    0.05
   0  26  22    0.73    0.01
   0  26  24    0.98    0.02
   0  26  26    0.01    0.01
   0  27   1    0.45    0.01
   0  27   3    0.34    0.01
   0  27   5    2.80    0.02
   0  27   7    0.08    0.01
   0  27   9    0.44    0.01
   0  27  11    0.06    0.01
   0  27  13    0.02    0.01
   0  27  15    2.21    0.02
   0  27  17    3.77    0.03
   0  27  19    4.11    0.04
   0  27  21    2.19    0.03
   0  27  23    1.66    0.02
   0  27  25    0.14    0.01
   0  27  27    0.35    0.01
   0  28   0    3.77    0.07
   0  28   2    0.06    0.01
   0  28   4    3.54    0.04
   0  28   6    0.17    0.01
   0  28   8    1.61    0.02
   0  28  10    0.63    0.01
   0  28  12    0.07    0.01
   0  28  14    1.66    0.02
   0  28  16    3.47    0.03
   0  28  18    6.56    0.06
   0  28  20    4.85    0.05
   0  28  22    2.57    0.03
   0  28  24    0.25    0.01
   0  28  26    0.73    0.02
   0  28  28    3.69    0.06
   0  29   1    0.67    0.01
   0  29   3    0.39    0.01
   0  29   5    0.28    0.01
   0  29   7    0.26    0.01
   0  29   9    0.19    0.01
   0  29  11    0.08    0.01
   0  29  13    0.16    0.01
   0  29  15    0.40    0.01
   0  29  17    3.43    0.03
   0  29  19    2.95    0.03
   0  29  21    2.61    0.03
   0  29  23    0.72    0.02
   0  29  25    0.02    0.01
   0  29  27    1.45    0.02
   0  29  29    2.35    0.04
   0  30   0    1.14    0.04
   0  30   2    0.05    0.01
   0  30   4    0.52    0.01
   0  30   6    0.04    0.01
   0  30   8    0.12    0.01
   0  30  10    0.00    0.01
   0  30  12    0.20    0.01
   0  30  14    0.76    0.01
   0  30  16    6.21    0.06
   0  30  18    4.31    0.04
   0  30  20    5.35    0.06
   0  30  22    1.91    0.02
   0  30  24    0.09    0.01
   0  30  26    2.08    0.03
   0  30  28    4.33    0.04
   0  30  30    7.04    0.10
   0  31   1    0.19    0.01
   0  31   3    0.25    0.01
   0  31   5    0.00    0.01
   0  31   7    0.08    0.01
   0  31   9    0.01    0.01
   0  31  11    0.11    0.01
   0  31  13    0.16    0.01
   0  31  15    1.26    0.02
   0  31  17    0.33    0.01
   0  31  19    2.79    0.03
   0  31  21    1.29    0.02
   0  31  23    0.68    0.01
   0  31  25    0.47    0.01
   0  31  27    1.05    0.02
   0  31  29    3.47    0.04
   0  31  31    2.20    0.04
   0  32   0    1.21    0.02
   0  32   2    0.12    0.01
   0  32   4    0.66    0.01
   0  32   6    0.89    0.01
   0  32   8    0.16    0.01
   0  32  10    0.36    0.01
   0  32  12    0.11    0.01
   0  32  14    2.22    0.02
   0  32  16    0.69    0.01
   0  32  18    4.91    0.05
   0  32  20    2.10    0.02
   0  32  22    1.56    0.02
   0  32  24    0.41    0.01
   0  32  26    1.14    0.02
   0  32  28    4.74    0.05
   0  32  30    3.97    0.04
   0  32  32    5.75    0.11
   0  33   1    0.13    0.01
   0  33   3    0.18    0.01
   0  33   5    0.03    0.01
   0  33   7    0.01    0.01
   0  33   9    0.54    0.01
   0  33  11    0.69    0.01
   0  33  13    0.15    0.01
   0  33  15    0.50    0.01
   0  33  17    1.00    0.01
   0  33  19    0.42    0.01
   0  33  21    1.44    0.02
   0  33  23    0.03    0.01
   0  33  25    0.01    0.01
   0  33  27    1.50    0.02
   0  33  29    1.77    0.02
   0  33  31    3.52    0.05
   0  34   0    0.50    0.03
   0  34   2    0.11    0.01
   0  34   4    0.19    0.01
   0  34   6    0.03    0.01
   0  34   8    0.05    0.01
   0  34  10    0.00    0.01
   0  34  12    0.75    0.01
   0  34  14    0.08    0.01
   0  34  16    2.49    0.03
   0  34  18    1.07    0.01
   0  34  20    1.85    0.02
   0  34  22    0.00    0.01
   0  34  24    0.01    0.01
   0  34  26    1.24    0.02
   0  34  28    1.73    0.02
   0  34  30    3.24    0.05
   0  35   1    0.38    0.01
   0  35   3    0.18    0.01
   0  35   5    0.03    0.01
   0  35   7    0.00    0.01
   0  35   9    0.11    0.01
   0  35  11    0.02    0.01
   0  35  13    1.61    0.02
   0  35  15    0.17    0.01
   0  35  17    0.05    0.01
   0  35  19    0.24    0.01
   0  35  21    0.02    0.01
   0  35  23    0.20    0.01
   0  35  25    0.34    0.01
   0  35  27    0.52    0.01
   0  35  29    1.42    0.02
   0  36   0    2.58    0.05
   0  36   2    0.17    0.01
   0  36   4    1.48    0.02
   0  36   6    0.17    0.01
   0  36   8    0.61    0.01
   0  36  10    0.05    0.01
   0  36  12    0.91    0.01
   0  36  14    0.24    0.01
   0  36  16    0.07    0.01
   0  36  18    0.22    0.01
   0  36  20    0.02    0.01
   0  36  22    0.06    0.01
   0  36  24    0.37    0.01
   0  36  26    0.21    0.01
   0  36  28    0.83    0.02
   0  37   1    0.36    0.01
   0  37   3    0.11    0.01
   0  37   5    0.63    0.01
   0  37   7    0.01    0.01
   0  37   9    0.13    0.01
   0  37  11    0.37    0.01
   0  37  13    0.05    0.01
   0  37  15    0.48    0.01
   0  37  17    0.00    0.01
   0  37  19    0.13    0.01
   0  37  21    0.01    0.01
   0  37  23    0.16    0.01
   0  37  25    0.01    0.01
   0  37  27    0.38    0.01
   0  38   0    0.22    0.02
   0  38   2    0.14    0.01
   0  38   4    0.57    0.01
   0  38   6    0.13    0.01
   0  38   8    0.12    0.01
   0  38  10    0.15    0.01
   0  38  12    0.07    0.01
   0  38  14    0.20    0.01
   0  38  16    0.03    0.01
   0  38  18    0.14    0.01
   0  38  20    0.00    0.01
   0  38  22    0.09    0.01
   0  38  24    0.03    0.01
   0  38  26    0.22    0.01
   0  39   1    0.05    0.01
   0  39   3    0.34    0.01
   0  39   5    0.29    0.01
   0  39   7    0.14    0.01
   0  39   9    0.08    0.01
   0  39  11    0.03    0.01
   0  39  13    0.06    0.01
   0  39  15    0.02    0.01
   0  39  17    0.22    0.01
   0  39  19    0.00    0.01
   0  39  21    0.10    0.01
   0  39  23    0.01    0.01
   0  40   0    0.10    0.02
   0  40   2    0.02    0.01
   0  40   4    0.46    0.01
   0  40   6    0.01    0.01
   0  40   8    0.40    0.01
   0  40  10    0.04    0.01
   0  40  12    0.21    0.01
   0  40  14    0.04    0.01
   0  40  16    0.44    0.01
   0  40  18    0.03    0.01
   0  40  20    0.18    0.01
   0  40  22    0.01    0.01
   0  41   1    0.05    0.01
   0  41   3    0.13    0.01
   0  41   5    0.01    0.01
   0  41   7    0.25    0.01
   0  41   9    0.02    0.01
   0  41  11    0.00    0.01
   0  41  13    0.12    0.01
   0  41  15    0.01    0.01
   0  41  17    0.06    0.01
   0  41  19    0.03    0.01
   0  41  21    0.01    0.01
   0  42   0    1.19    0.04
   0  42   2    0.16    0.01
   0  42   4    0.31    0.01
   0  42   6    0.00    0.01
   0  42   8    0.09    0.01
   0  42  10    0.01    0.01
   0  42  12    0.02    0.01
   0  42  14    0.11    0.01
   0  42  16    0.00    0.01
   0  42  18    0.06    0.01
   0  43   1    0.23    0.01
   0  43   3    0.01    0.01
   0  43   5    0.04    0.01
   0  43   7    0.01    0.01
   0  43   9    0.01    0.01
   0  43  11    0.17    0.01
   0  43  13    0.03    0.01
   0  43  15    0.23    0.01
   0  43  17    0.02    0.03
   0  44   0    0.30    0.04
   0  44   2    0.12    0.01
   0  44   4    0.16    0.01
   0  44   6    0.11    0.01
   0  44   8    0.31    0.01
   0  44  10    0.04    0.01
   0  44  12    0.34    0.02
   0  44  14    0.05    0.01
   0  45   1    0.19    0.01
   0  45   3    0.12    0.01
   0  45   5    0.01    0.01
   0  45   7    0.01    0.01
   0  45   9    0.11    0.02
   0  46   0    1.68    0.07
   0  46   2    0.32    0.01
   0  46   4    0.77    0.02
   1   2   1   53.75    0.34
   1   3   2    2.38    0.02
   1   4   1   41.68    0.20
   1   4   3    2.82    0.01
   1   5   2    3.24    0.01
   1   5   4    2.37    0.01
   1   6   1   28.37    0.14
   1   6   3    2.34    0.02
   1   6   5    0.78    0.03
   1   7   2    1.76    0.01
   1   7   4    1.38    0.01
   1   7   6    1.12    0.01
   1   8   1   12.70    0.21
   1   8   3    5.64    0.03
   1   8   5    1.01    0.02
   1   8   7    2.83    0.03
   1   9   2    5.53    0.03
   1   9   4    3.45    0.03
   1   9   6    2.02    0.02
   1   9   8    0.08    0.01
   1  10   1    5.62    0.07
   1  10   3    6.53    0.07
   1  10   5    0.62    0.01
   1  10   7    1.27    0.02
   1  10   9    0.62    0.01
   1  11   2    0.69    0.01
   1  11   4    0.81    0.01
   1  11   6    0.20    0.01
   1  11   8    0.80    0.01
   1  11  10    1.32    0.01
   1  12   1    3.15    0.04
   1  12   3    3.84    0.03
   1  12   5    0.08    0.01
   1  12   7    0.09    0.01
   1  12   9    0.06    0.01
   1  12  11    0.51    0.01
   1  13   2    2.39    0.02
   1  13   4    1.93    0.02
   1  13   6    1.80    0.01
   1  13   8    0.94    0.01
   1  13  10    0.47    0.01
   1  13  12    0.17    0.01
   1  14   1    1.09    0.02
   1  14   3    3.44    0.02
   1  14   5    0.11    0.01
   1  14   7    0.16    0.01
   1  14   9    0.09    0.01
   1  14  11    0.07    0.01
   1  14  13    0.14    0.01
   1  15   2    0.29    0.01
   1  15   4    0.12    0.01
   1  15   6    0.04    0.01
   1  15   8    0.14    0.01
   1  15  10    0.20    0.01
   1  15  12    0.18    0.01
   1  15  14    0.18    0.01
   1  16   1    0.30    0.02
   1  16   3    3.13    0.02
   1  16   5    0.25    0.01
   1  16   7    0.14    0.01
   1  16   9    0.16    0.01
   1  16  11    0.01    0.01
   1  16  13    0.23    0.01
   1  16  15    0.06    0.01
   1  17   2    4.99    0.04
   1  17   4    3.27    0.03
   1  17   6    2.15    0.02
   1  17   8    0.42    0.01
   1  17  10    0.04    0.01
   1  17  12    0.02    0.01
   1  17  14    0.02    0.01
   1  17  16    0.01    0.01
   1  18   1    0.21    0.01
   1  18   3    1.39    0.02
   1  18   5    0.05    0.01
   1  18   7    0.01    0.01
   1  18   9    0.00    0.01
   1  18  11    0.00    0.01
   1  18  13    0.19    0.01
   1  18  15    0.00    0.01
   1  18  17    0.00    0.01
   1  19   2    0.08    0.01
   1  19   4    0.00    0.01
   1  19   6    0.08    0.01
   1  19   8    0.26    0.01
   1  19  10    0.26    0.01
   1  19  12    0.19    0.02
   1  19  14    0.01    0.01
   1  19  16    0.03    0.01
   1  19  18    0.00    0.01
   1  20   1    0.16    0.01
   1  20   3    0.30    0.01
   1  20   5    0.04    0.01
   1  20   7    0.15    0.01
   1  20   9    0.16    0.01
   1  20  11    0.13    0.01
   1  20  13    0.23    0.01
   1  20  15    0.00    0.01
   1  20  17    0.01    0.00
   1  20  19    0.00    0.00
   1  21   2    0.54    0.01
   1  21   4    0.06    0.01
   1  21   6    0.02    0.01
   1  21   8    0.16    0.01
   1  21  10    0.21    0.01
   1  21  12    0.18    0.01
   1  21  14    0.01    0.01
   1  21  16    0.07    0.00
   1  21  18    0.09    0.00
   1  21  20    0.02    0.01
   1  22   1    0.17    0.02
   1  22   3    0.02    0.01
   1  22   5    0.38    0.01
   1  22   7    0.29    0.01
   1  22   9    0.33    0.01
   1  22  11    0.30    0.01
   1  22  13    0.17    0.01
   1  22  15    0.01    0.00
   1  22  17    0.01    0.00
   1  22  19    0.02    0.00
   1  22  21    0.00    0.01
   1  23   2    0.03    0.01
   1  23   4    0.26    0.01
   1  23   6    0.27    0.01
   1  23   8    0.53    0.01
   1  23  10    0.53    0.01
   1  23  12    0.17    0.01
   1  23  14    0.00    0.00
   1  23  16    0.07    0.00
   1  23  18    0.14    0.00
   1  23  20    0.12    0.01
   1  23  22    0.03    0.01
   1  24   1    0.29    0.01
   1  24   3    0.38    0.01
   1  24   5    0.73    0.01
   1  24   7    0.78    0.01
   1  24   9    0.73    0.01
   1  24  11    0.28    0.01
   1  24  13    0.09    0.00
   1  24  15    0.02    0.00
   1  24  17    0.07    0.00
   1  24  19    0.11    0.01
   1  24  21    0.03    0.01
   1  24  23    0.00    0.01
   1  25   2    0.09    0.01
   1  25   4    0.17    0.01
   1  25   6    0.23    0.01
   1  25   8    0.37    0.01
   1  25  10    0.29    0.01
   1  25  12    0.08    0.00
   1  25  14    0.00    0.00
   1  25  16    0.08    0.00
   1  25  18    0.16    0.01
   1  25  20    0.17    0.01
   1  25  22    0.08    0.01
   1  25  24    0.01    0.01
   1  26   1    0.08    0.01
   1  26   3    0.12    0.01
   1  26   5    0.20    0.01
   1  26   7    0.25    0.01
   1  26   9    0.19    0.01
   1  26  11    0.02    0.00
   1  26  13    0.00    0.00
   1  26  15    0.07    0.00
   1  26  17    0.19    0.01
   1  26  19    0.26    0.01
   1  26  21    0.11    0.01
   1  26  23    0.02    0.01
   1  26  25    0.00    0.01
   1  27   2    0.35    0.00
   1  27   4    0.37    0.01
   1  27   6    0.40    0.01
   1  27   8    0.32    0.01
   1  27  10    0.17    0.00
   1  27  12    0.08    0.00
   1  27  14    0.00    0.00
   1  27  16    0.07    0.01
   1  27  18    0.14    0.01
   1  27  20    0.12    0.01
   1  27  22    0.06    0.01
   1  27  24    0.01    0.01
   1  27  26    0.00    0.01
   1  28   1    0.00    0.01
   1  28   3    0.00    0.00
   1  28   5    0.00    0.00
   1  28   7    0.00    0.00
   1  28   9    0.00    0.00
   1  28  11    0.02    0.00
   1  28  13    0.02    0.00
   1  28  15    0.13    0.01
   1  28  17    0.19    0.01
   1  28  19    0.20    0.01
   1  28  21    0.11    0.01
   1  28  23    0.02    0.01
   1  28  25    0.01    0.01
   1  28  27    0.01    0.01
   1  29   2    0.56    0.01
   1  29   4    0.34    0.00
   1  29   6    0.32    0.01
   1  29   8    0.25    0.01
   1  29  10    0.15    0.00
   1  29  12    0.10    0.01
   1  29  14    0.17    0.01
   1  29  16    0.27    0.01
   1  29  18    0.25    0.01
   1  29  20    0.16    0.01
   1  29  22    0.06    0.01
   1  29  24    0.01    0.01
   1  29  26    0.00    0.01
   1  29  28    0.01    0.01
   1  30   1    0.00    0.01
   1  30   3    0.02    0.00
   1  30   5    0.00    0.00
   1  30   7    0.00    0.00
   1  30   9    0.00    0.00
   1  30  11    0.02    0.00
   1  30  13    0.07    0.01
   1  30  15    0.19    0.01
   1  30  17    0.18    0.01
   1  30  19    0.14    0.01
   1  30  21    0.07    0.01
   1  30  23    0.02    0.01
   1  30  25    0.00    0.01
   1  30  27    0.00    0.01
   1  30  29    0.01    0.01
   1  31   2    0.22    0.01
   1  31   4    0.20    0.01
   1  31   6    0.06    0.00
   1  31   8    0.03    0.00
   1  31  10    0.01    0.00
   1  31  12    0.00    0.01
   1  31  14    0.06    0.01
   1  31  16    0.08    0.01
   1  31  18    0.07    0.01
   1  31  20    0.04    0.01
   1  31  22    0.00    0.01
   1  31  24    0.00    0.01
   1  31  26    0.01    0.01
   1  31  28    0.03    0.01
   1  31  30    0.03    0.01
   1  32   1    0.01    0.01
   1  32   3    0.09    0.00
   1  32   5    0.02    0.00
   1  32   7    0.04    0.01
   1  32   9    0.03    0.01
   1  32  11    0.01    0.01
   1  32  13    0.05    0.01
   1  32  15    0.08    0.01
   1  32  17    0.08    0.01
   1  32  19    0.05    0.01
   1  32  21    0.00    0.01
   1  32  23    0.00    0.01
   1  32  25    0.01    0.01
   1  32  27    0.01    0.01
   1  32  29    0.00    0.01
   1  32  31    0.00    0.00
   1  33   2    0.18    0.01
   1  33   4    0.24    0.01
   1  33   6    0.15    0.01
   1  33   8    0.12    0.01
   1  33  10    0.18    0.01
   1  33  12    0.14    0.01
   1  33  14    0.10    0.01
   1  33  16    0.07    0.01
   1  33  18    0.03    0.01
   1  33  20    0.00    0.01
   1  33  22    0.00    0.01
   1  33  24    0.01    0.01
   1  33  26    0.02    0.01
   1  33  28    0.03    0.00
   1  33  30    0.02    0.00
   1  33  32    0.00    0.01
   1  34   1    0.00    0.01
   1  34   3    0.01    0.01
   1  34   5    0.00    0.00
   1  34   7    0.00    0.01
   1  34   9    0.01    0.01
   1  34  11    0.03    0.01
   1  34  13    0.03    0.01
   1  34  15    0.03    0.01
   1  34  17    0.01    0.01
   1  34  19    0.00    0.01
   1  34  21    0.03    0.01
   1  34  23    0.06    0.01
   1  34  25    0.05    0.01
   1  34  27    0.03    0.00
   1  34  29    0.01    0.00
   1  34  31    0.00    0.01
   1  35   2    0.29    0.01
   1  35   4    0.20    0.01
   1  35   6    0.16    0.01
   1  35   8    0.07    0.01
   1  35  10    0.01    0.01
   1  35  12    0.01    0.01
   1  35  14    0.00    0.01
   1  35  16    0.00    0.01
   1  35  18    0.02    0.01
   1  35  20    0.04    0.01
   1  35  22    0.06    0.01
   1  35  24    0.04    0.01
   1  35  26    0.04    0.00
   1  35  28    0.03    0.01
   1  35  30    0.01    0.01
   1  36   1    0.01    0.01
   1  36   3    0.00    0.01
   1  36   5    0.00    0.01
   1  36   7    0.02    0.01
   1  36   9    0.06    0.01
   1  36  11    0.05    0.01
   1  36  13    0.04    0.01
   1  36  15    0.01    0.01
   1  36  17    0.00    0.01
   1  36  19    0.02    0.01
   1  36  21    0.06    0.01
   1  36  23    0.07    0.00
   1  36  25    0.05    0.00
   1  36  27    0.02    0.01
   1  36  29    0.00    0.02
   1  37   2    0.28    0.01
   1  37   4    0.22    0.01
   1  37   6    0.21    0.01
   1  37   8    0.19    0.01
   1  37  10    0.12    0.01
   1  37  12    0.06    0.01
   1  37  14    0.05    0.01
   1  37  16    0.01    0.01
   1  37  18    0.00    0.01
   1  37  20    0.01    0.01
   1  37  22    0.01    0.00
   1  37  24    0.00    0.00
   1  37  26    0.00    0.01
   1  38   1    0.00    0.01
   1  38   3    0.01    0.01
   1  38   5    0.01    0.01
   1  38   7    0.00    0.01
   1  38   9    0.00    0.01
   1  38  11    0.00    0.01
   1  38  13    0.01    0.00
   1  38  15    0.00    0.01
   1  38  17    0.00    0.01
   1  38  19    0.01    0.00
   1  38  21    0.04    0.00
   1  38  23    0.03    0.00
   1  38  25    0.02    0.01
   1  39   2    0.06    0.01
   1  39   4    0.05    0.01
   1  39   6    0.05    0.01
   1  39   8    0.03    0.01
   1  39  10    0.02    0.01
   1  39  12    0.02    0.01
   1  39  14    0.01    0.01
   1  39  16    0.01    0.00
   1  39  18    0.02    0.00
   1  39  20    0.02    0.00
   1  39  22    0.01    0.00
   1  39  24    0.00    0.01
   1  40   1    0.00    0.01
   1  40   3    0.01    0.01
   1  40   5    0.01    0.01
   1  40   7    0.01    0.01
   1  40   9    0.00    0.01
   1  40  11    0.00    0.01
   1  40  13    0.01    0.01
   1  40  15    0.00    0.01
   1  40  17    0.00    0.01
   1  40  19    0.01    0.01
   1  40  21    0.03    0.01
   1  40  23    0.02    0.01
   1  41   2    0.06    0.01
   1  41   4    0.07    0.01
   1  41   6    0.02    0.01
   1  41   8    0.02    0.01
   1  41  10    0.04    0.01
   1  41  12    0.02    0.01
   1  41  14    0.01    0.01
   1  41  16    0.00    0.01
   1  41  18    0.00    0.01
   1  41  20    0.00    0.01
   1  42   1    0.00    0.01
   1  42   3    0.01    0.01
   1  42   5    0.00    0.01
   1  42   7    0.00    0.01
   1  42   9    0.01    0.01
   1  42  11    0.01    0.01
   1  42  13    0.02    0.01
   1  42  15    0.00    0.01
   1  42  17    0.01    0.01
   1  42  19    0.02    0.01
   1  43   2    0.20    0.01
   1  43   4    0.18    0.01
   1  43   6    0.14    0.01
   1  43   8    0.10    0.01
   1  43  10    0.05    0.01
   1  43  12    0.04    0.01
   1  43  14    0.03    0.01
   1  43  16    0.04    0.01
   1  44   1    0.00    0.01
   1  44   3    0.01    0.01
   1  44   5    0.00    0.01
   1  44   7    0.00    0.01
   1  44   9    0.00    0.01
   1  44  11    0.01    0.01
   1  44  13    0.01    0.01
   1  45   2    0.16    0.01
   1  45   4    0.13    0.01
   1  45   6    0.12    0.01
   1  45   8    0.08    0.01
   1  45  10    0.05    0.01
   1  46   1    0.00    0.01
   1  46   3    0.00    0.01
   2   2   2 1049.86   19.31
   2   3   3    3.35    0.02
   2   4   2  138.69    1.04
   2   4   4   33.92    0.32
   2   5   3    0.78    0.01
   2   5   5    7.64    0.05
   2   6   2    2.15    0.06
   2   6   4    1.79    0.02
   2   6   6    1.35    0.03
   2   7   3    0.44    0.01
   2   7   5    9.58    0.07
   2   7   7   30.97    0.48
   2   8   2   10.21    0.09
   2   8   4   36.14    0.35
   2   8   6    9.96    0.09
   2   8   8    0.50    0.03
   2   9   3    0.57    0.01
   2   9   5    1.37    0.01
   2   9   7    5.39    0.06
   2   9   9   27.37    0.28
   2  10   2    0.01    0.06
   2  10   4   13.00    0.10
   2  10   6    6.52    0.06
   2  10   8    1.33    0.03
   2  10  10   15.60    0.13
   2  11   3    6.61    0.05
   2  11   5    3.86    0.03
   2  11   7    5.07    0.04
   2  11   9    1.08    0.02
   2  11  11    3.39    0.03
   2  12   2   29.08    0.29
   2  12   4   22.41    0.12
   2  12   6   17.96    0.11
   2  12   8    3.09    0.03
   2  12  10    0.99    0.01
   2  12  12   16.16    0.15
   2  13   3    2.50    0.04
   2  13   5   16.25    0.11
   2  13   7    6.51    0.04
   2  13   9    0.28    0.01
   2  13  11    3.92    0.04
   2  13  13   20.92    0.23
   2  14   2    4.27    0.04
   2  14   4   23.71    0.16
   2  14   6    2.48    0.02
   2  14   8    0.11    0.01
   2  14  10    6.21    0.05
   2  14  12   35.87    0.27
   2  14  14   45.80    0.47
   2  15   3   18.52    0.15
   2  15   5    6.44    0.05
   2  15   7   13.61    0.08
   2  15   9    0.11    0.01
   2  15  11   23.10    0.14
   2  15  13   24.73    0.18
   2  15  15   13.49    0.16
   2  16   2   23.83    0.31
   2  16   4   10.49    0.07
   2  16   6   24.38    0.22
   2  16   8    0.00    0.01
   2  16  10    9.40    0.08
   2  16  12   12.73    0.10
   2  16  14   15.98    0.12
   2  16  16   29.87    0.37
   2  17   3    3.25    0.04
   2  17   5   27.76    0.18
   2  17   7    0.53    0.01
   2  17   9    1.12    0.02
   2  17  11   11.01    0.10
   2  17  13   12.08    0.12
   2  17  15   24.46    0.21
   2  17  17    6.34    0.08
   2  18   2    0.86    0.03
   2  18   4    9.16    0.08
   2  18   6    0.89    0.02
   2  18   8    1.03    0.02
   2  18  10   11.45    0.11
   2  18  12    6.28    0.05
   2  18  14   21.81    0.18
   2  18  16    9.88    0.07
   2  18  18   24.40    0.26
   2  19   3   13.84    0.10
   2  19   5    0.68    0.02
   2  19   7    2.20    0.03
   2  19   9    1.83    0.02
   2  19  11    0.56    0.02
   2  19  13   10.75    0.08
   2  19  15    5.03    0.04
   2  19  17   11.80    0.08
   2  19  19    0.78    0.01
   2  20   2    2.71    0.06
   2  20   4    0.16    0.01
   2  20   6    1.70    0.03
   2  20   8    0.95    0.03
   2  20  10    0.02    0.01
   2  20  12    4.63    0.04
   2  20  14    2.18    0.02
   2  20  16    7.81    0.06
   2  20  18    2.23    0.01
   2  20  20    9.47    0.10
   2  21   3    0.14    0.01
   2  21   5    0.86    0.02
   2  21   7    0.32    0.01
   2  21   9    0.58    0.01
   2  21  11    1.65    0.02
   2  21  13    0.16    0.01
   2  21  15    2.28    0.02
   2  21  17    0.15    0.00
   2  21  19    4.94    0.03
   2  21  21    0.11    0.01
   2  22   2    0.91    0.03
   2  22   4    0.16    0.01
   2  22   6    1.23    0.02
   2  22   8    0.23    0.01
   2  22  10    0.91    0.02
   2  22  12    0.01    0.01
   2  22  14    0.95    0.01
   2  22  16    0.01    0.00
   2  22  18    2.44    0.02
   2  22  20    0.07    0.01
   2  22  22    1.04    0.02
   2  23   3    0.17    0.01
   2  23   5    1.16    0.02
   2  23   7    0.21    0.01
   2  23   9    0.43    0.01
   2  23  11    0.01    0.01
   2  23  13    0.01    0.00
   2  23  15    0.85    0.01
   2  23  17    0.01    0.00
   2  23  19    0.39    0.01
   2  23  21    0.32    0.01
   2  23  23    2.63    0.03
   2  24   2    0.73    0.01
   2  24   4    1.66    0.02
   2  24   6    0.14    0.01
   2  24   8    0.51    0.01
   2  24  10    0.02    0.01
   2  24  12    0.00    0.00
   2  24  14    0.83    0.01
   2  24  16    0.33    0.01
   2  24  18    1.06    0.01
   2  24  20    0.21    0.01
   2  24  22    2.39    0.02
   2  24  24    0.09    0.01
   2  25   3    1.87    0.02
   2  25   5    0.16    0.01
   2  25   7    1.16    0.01
   2  25   9    0.14    0.01
   2  25  11    0.01    0.00
   2  25  13    0.91    0.01
   2  25  15    0.66    0.01
   2  25  17    1.84    0.01
   2  25  19    1.51    0.01
   2  25  21    2.70    0.02
   2  25  23    0.03    0.01
   2  25  25    0.81    0.02
   2  26   2    3.79    0.04
   2  26   4    0.01    0.00
   2  26   6    3.66    0.03
   2  26   8    0.64    0.01
   2  26  10    0.39    0.01
   2  26  12    0.08    0.00
   2  26  14    0.17    0.01
   2  26  16    2.79    0.02
   2  26  18    4.26    0.03
   2  26  20    3.94    0.03
   2  26  22    0.50    0.01
   2  26  24    0.60    0.01
   2  26  26    0.02    0.01
   2  27   3    0.57    0.01
   2  27   5    2.36    0.01
   2  27   7    0.01    0.00
   2  27   9    0.18    0.00
   2  27  11    0.01    0.00
   2  27  13    0.01    0.00
   2  27  15    1.72    0.01
   2  27  17    3.00    0.02
   2  27  19    3.15    0.02
   2  27  21    1.63    0.01
   2  27  23    1.21    0.01
   2  27  25    0.06    0.01
   2  27  27    0.34    0.01
   2  28   2    1.34    0.02
   2  28   4    0.46    0.01
   2  28   6    0.49    0.01
   2  28   8    0.09    0.00
   2  28  10    0.03    0.00
   2  28  12    0.12    0.00
   2  28  14    2.27    0.02
   2  28  16    3.90    0.03
   2  28  18    6.15    0.04
   2  28  20    4.70    0.03
   2  28  22    2.46    0.02
   2  28  24    0.21    0.01
   2  28  26    0.63    0.01
   2  28  28    2.83    0.03
   2  29   3    0.51    0.01
   2  29   5    0.08    0.00
   2  29   7    0.47    0.01
   2  29   9    0.28    0.01
   2  29  11    0.06    0.01
   2  29  13    0.13    0.01
   2  29  15    0.31    0.01
   2  29  17    3.01    0.02
   2  29  19    2.57    0.02
   2  29  21    2.22    0.02
   2  29  23    0.60    0.01
   2  29  25    0.02    0.01
   2  29  27    1.12    0.01
   2  29  29    1.74    0.02
   2  30   2    1.98    0.02
   2  30   4    0.32    0.01
   2  30   6    1.18    0.01
   2  30   8    1.03    0.01
   2  30  10    0.31    0.01
   2  30  12    0.01    0.00
   2  30  14    0.29    0.01
   2  30  16    4.72    0.03
   2  30  18    3.16    0.02
   2  30  20    4.27    0.03
   2  30  22    1.51    0.01
   2  30  24    0.04    0.01
   2  30  26    1.88    0.02
   2  30  28    3.51    0.03
   2  30  30    5.93    0.06
   2  31   3    0.14    0.00
   2  31   5    0.05    0.00
   2  31   7    0.25    0.01
   2  31   9    0.04    0.00
   2  31  11    0.13    0.01
   2  31  13    0.20    0.01
   2  31  15    1.04    0.01
   2  31  17    0.26    0.01
   2  31  19    2.40    0.02
   2  31  21    1.05    0.01
   2  31  23    0.54    0.01
   2  31  25    0.46    0.01
   2  31  27    0.84    0.01
   2  31  29    2.84    0.02
   2  31  31    1.90    0.02
   2  32   2    0.25    0.01
   2  32   4    0.05    0.00
   2  32   6    0.09    0.01
   2  32   8    0.04    0.00
   2  32  10    0.04    0.01
   2  32  12    0.00    0.01
   2  32  14    2.37    0.02
   2  32  16    0.65    0.01
   2  32  18    4.24    0.03
   2  32  20    1.80    0.02
   2  32  22    1.44    0.01
   2  32  24    0.34    0.01
   2  32  26    0.81    0.01
   2  32  28    3.56    0.03
   2  32  30    3.02    0.02
   2  32  32    4.45    0.07
   2  33   3    0.06    0.01
   2  33   5    0.01    0.01
   2  33   7    0.08    0.01
   2  33   9    0.29    0.01
   2  33  11    0.38    0.01
   2  33  13    0.17    0.01
   2  33  15    0.51    0.01
   2  33  17    0.81    0.01
   2  33  19    0.26    0.01
   2  33  21    1.13    0.01
   2  33  23    0.05    0.01
   2  33  25    0.01    0.01
   2  33  27    1.06    0.01
   2  33  29    1.27    0.01
   2  33  31    2.89    0.03
   2  34   2    1.32    0.01
   2  34   4    0.26    0.01
   2  34   6    0.24    0.01
   2  34   8    0.52    0.01
   2  34  10    0.18    0.01
   2  34  12    0.30    0.01
   2  34  14    0.29    0.01
   2  34  16    1.59    0.01
   2  34  18    0.52    0.01
   2  34  20    1.28    0.01
   2  34  22    0.03    0.01
   2  34  24    0.00    0.01
   2  34  26    0.97    0.01
   2  34  28    1.27    0.01
   2  34  30    2.57    0.03
   2  35   3    0.29    0.01
   2  35   5    0.01    0.01
   2  35   7    0.03    0.01
   2  35   9    0.02    0.01
   2  35  11    0.02    0.01
   2  35  13    1.25    0.01
   2  35  15    0.22    0.01
   2  35  17    0.03    0.01
   2  35  19    0.23    0.01
   2  35  21    0.01    0.01
   2  35  23    0.22    0.01
   2  35  25    0.17    0.01
   2  35  27    0.24    0.01
   2  35  29    0.91    0.01
   2  36   2    0.67    0.01
   2  36   4    0.03    0.01
   2  36   6    0.32    0.01
   2  36   8    0.01    0.01
   2  36  10    0.19    0.01
   2  36  12    0.20    0.01
   2  36  14    0.69    0.01
   2  36  16    0.00    0.01
   2  36  18    0.32    0.01
   2  36  20    0.00    0.00
   2  36  22    0.17    0.01
   2  36  24    0.14    0.00
   2  36  26    0.05    0.00
   2  36  28    0.45    0.01
   2  37   3    0.23    0.01
   2  37   5    0.38    0.01
   2  37   7    0.07    0.01
   2  37   9    0.04    0.01
   2  37  11    0.34    0.01
   2  37  13    0.04    0.01
   2  37  15    0.37    0.01
   2  37  17    0.02    0.01
   2  37  19    0.06    0.01
   2  37  21    0.03    0.00
   2  37  23    0.09    0.00
   2  37  25    0.01    0.00
   2  37  27    0.20    0.01
   2  38   2    1.26    0.02
   2  38   4    0.00    0.01
   2  38   6    0.87    0.01
   2  38   8    0.01    0.01
   2  38  10    0.46    0.01
   2  38  12    0.01    0.01
   2  38  14    0.34    0.01
   2  38  16    0.00    0.01
   2  38  18    0.25    0.01
   2  38  20    0.01    0.00
   2  38  22    0.10    0.00
   2  38  24    0.04    0.01
   2  38  26    0.15    0.01
   2  39   3    0.27    0.01
   2  39   5    0.30    0.01
   2  39   7    0.11    0.01
   2  39   9    0.08    0.01
   2  39  11    0.06    0.01
   2  39  13    0.05    0.01
   2  39  15    0.02    0.01
   2  39  17    0.17    0.01
   2  39  19    0.00    0.00
   2  39  21    0.08    0.00
   2  39  23    0.00    0.01
   2  40   2    0.34    0.01
   2  40   4    0.03    0.01
   2  40   6    0.36    0.01
   2  40   8    0.01    0.01
   2  40  10    0.06    0.01
   2  40  12    0.01    0.01
   2  40  14    0.02    0.01
   2  40  16    0.20    0.01
   2  40  18    0.01    0.01
   2  40  20    0.13    0.01
   2  40  22    0.01    0.01
   2  41   3    0.08    0.01
   2  41   5    0.05    0.01
   2  41   7    0.12    0.01
   2  41   9    0.05    0.01
   2  41  11    0.02    0.01
   2  41  13    0.11    0.01
   2  41  15    0.01    0.01
   2  41  17    0.02    0.01
   2  41  19    0.08    0.01
   2  41  21    0.00    0.01
   2  42   2    0.11    0.01
   2  42   4    0.00    0.01
   2  42   6    0.18    0.01
   2  42   8    0.00    0.00
   2  42  10    0.16    0.01
   2  42  12    0.03    0.01
   2  42  14    0.25    0.01
   2  42  16    0.06    0.01
   2  42  18    0.26    0.01
   2  43   3    0.02    0.01
   2  43   5    0.03    0.01
   2  43   7    0.01    0.01
   2  43   9    0.01    0.00
   2  43  11    0.17    0.01
   2  43  13    0.01    0.01
   2  43  15    0.15    0.01
   2  44   2    1.20    0.02
   2  44   4    0.19    0.01
   2  44   6    0.13    0.01
   2  44   8    0.01    0.01
   2  44  10    0.07    0.01
   2  44  12    0.08    0.01
   2  44  14    0.01    0.02
   2  45   3    0.15    0.01
   2  45   5    0.00    0.01
   2  45   7    0.01    0.01
   2  45   9    0.03    0.01
   2  46   2    0.06    0.01
   2  46   4    0.04    0.01
   3   4   3    0.64    0.01
   3   5   4    4.03    0.02
   3   6   3    0.47    0.01
   3   6   5    4.10    0.04
   3   7   4    2.26    0.02
   3   7   6    6.94    0.06
   3   8   3    0.37    0.01
   3   8   5    2.89    0.01
   3   8   7   10.51    0.09
   3   9   4    0.02    0.01
   3   9   6    0.49    0.01
   3   9   8    6.07    0.05
   3  10   3    3.23    0.04
   3  10   5    4.11    0.03
   3  10   7    6.38    0.04
   3  10   9    8.03    0.05
   3  11   4    2.57    0.02
   3  11   6    1.78    0.01
   3  11   8    0.15    0.01
   3  11  10    1.01    0.01
   3  12   3    2.77    0.04
   3  12   5    3.66    0.04
   3  12   7    3.02    0.03
   3  12   9    2.33    0.02
   3  12  11    0.89    0.01
   3  13   4    1.41    0.02
   3  13   6    0.22    0.01
   3  13   8    0.09    0.01
   3  13  10    0.03    0.01
   3  13  12    0.75    0.01
   3  14   3    2.53    0.03
   3  14   5    1.81    0.02
   3  14   7    2.28    0.02
   3  14   9    0.67    0.01
   3  14  11    0.01    0.01
   3  14  13    0.30    0.01
   3  15   4   15.32    0.11
   3  15   6    7.46    0.06
   3  15   8    1.72    0.02
   3  15  10    0.60    0.01
   3  15  12    0.11    0.01
   3  15  14    0.02    0.01
   3  16   3    3.57    0.05
   3  16   5    1.61    0.02
   3  16   7    0.96    0.02
   3  16   9    0.38    0.01
   3  16  11    0.15    0.01
   3  16  13    0.05    0.01
   3  16  15    0.00    0.01
   3  17   4    1.79    0.03
   3  17   6    0.28    0.01
   3  17   8    0.55    0.01
   3  17  10    1.55    0.02
   3  17  12    0.63    0.02
   3  17  14    0.23    0.01
   3  17  16    0.24    0.01
   3  18   3    1.89    0.03
   3  18   5    0.75    0.02
   3  18   7    0.02    0.01
   3  18   9    0.10    0.01
   3  18  11    0.16    0.01
   3  18  13    0.23    0.02
   3  18  15    0.26    0.01
   3  18  17    0.08    0.01
   3  19   4    7.86    0.06
   3  19   6    1.61    0.02
   3  19   8    0.17    0.01
   3  19  10    0.00    0.01
   3  19  12    0.02    0.02
   3  19  14    0.12    0.01
   3  19  16    0.58    0.01
   3  19  18    0.25    0.01
   3  20   3    0.01    0.02
   3  20   5    0.39    0.01
   3  20   7    1.26    0.02
   3  20   9    1.41    0.03
   3  20  11    1.12    0.02
   3  20  13    0.32    0.01
   3  20  15    0.11    0.01
   3  20  17    0.04    0.00
   3  20  19    0.01    0.01
   3  21   4    0.17    0.01
   3  21   6    2.10    0.03
   3  21   8    2.61    0.03
   3  21  10    1.77    0.02
   3  21  12    1.10    0.01
   3  21  14    0.06    0.01
   3  21  16    0.42    0.01
   3  21  18    0.74    0.01
   3  21  20    0.11    0.01
   3  22   3    1.43    0.03
   3  22   5    3.71    0.04
   3  22   7    3.13    0.03
   3  22   9    2.78    0.03
   3  22  11    2.54    0.03
   3  22  13    0.40    0.01
   3  22  15    0.01    0.00
   3  22  17    0.32    0.01
   3  22  19    0.06    0.00
   3  22  21    0.03    0.01
   3  23   4    1.11    0.02
   3  23   6    1.99    0.03
   3  23   8    3.39    0.03
   3  23  10    2.97    0.03
   3  23  12    0.85    0.01
   3  23  14    0.00    0.00
   3  23  16    0.31    0.01
   3  23  18    0.98    0.01
   3  23  20    0.78    0.01
   3  23  22    0.10    0.01
   3  24   3    2.77    0.03
   3  24   5    3.51    0.03
   3  24   7    4.10    0.04
   3  24   9    3.37    0.03
   3  24  11    1.66    0.01
   3  24  13    0.20    0.00
   3  24  15    0.05    0.00
   3  24  17    0.78    0.01
   3  24  19    0.53    0.01
   3  24  21    0.23    0.01
   3  24  23    0.02    0.01
   3  25   4    2.13    0.02
   3  25   6    3.64    0.03
   3  25   8    4.48    0.03
   3  25  10    2.92    0.02
   3  25  12    0.85    0.01
   3  25  14    0.01    0.00
   3  25  16    0.28    0.01
   3  25  18    0.97    0.01
   3  25  20    1.10    0.01
   3  25  22    0.48    0.01
   3  25  24    0.03    0.01
   3  26   3    0.80    0.01
   3  26   5    1.34    0.01
   3  26   7    1.65    0.01
   3  26   9    0.93    0.01
   3  26  11    0.19    0.00
   3  26  13    0.00    0.00
   3  26  15    0.23    0.01
   3  26  17    1.31    0.01
   3  26  19    1.35    0.01
   3  26  21    0.71    0.01
   3  26  23    0.18    0.01
   3  26  25    0.04    0.01
   3  27   4    0.38    0.00
   3  27   6    0.00    0.00
   3  27   8    0.02    0.00
   3  27  10    0.00    0.00
   3  27  12    0.02    0.00
   3  27  14    0.29    0.01
   3  27  16    1.24    0.01
   3  27  18    1.83    0.02
   3  27  20    1.37    0.01
   3  27  22    0.73    0.01
   3  27  24    0.16    0.01
   3  27  26    0.00    0.01
   3  28   3    0.03    0.01
   3  28   5    0.33    0.00
   3  28   7    0.12    0.00
   3  28   9    0.00    0.00
   3  28  11    0.01    0.00
   3  28  13    0.23    0.01
   3  28  15    0.82    0.01
   3  28  17    1.65    0.01
   3  28  19    1.46    0.01
   3  28  21    0.98    0.01
   3  28  23    0.33    0.01
   3  28  25    0.08    0.01
   3  28  27    0.04    0.01
   3  29   4    0.69    0.01
   3  29   6    0.39    0.01
   3  29   8    0.14    0.00
   3  29  10    0.05    0.00
   3  29  12    0.00    0.00
   3  29  14    0.23    0.01
   3  29  16    0.86    0.01
   3  29  18    1.09    0.01
   3  29  20    0.76    0.01
   3  29  22    0.30    0.01
   3  29  24    0.04    0.01
   3  29  26    0.02    0.01
   3  29  28    0.08    0.01
   3  30   3    0.05    0.01
   3  30   5    0.09    0.00
   3  30   7    0.00    0.00
   3  30   9    0.00    0.00
   3  30  11    0.04    0.00
   3  30  13    0.44    0.01
   3  30  15    1.03    0.01
   3  30  17    1.20    0.01
   3  30  19    0.84    0.01
   3  30  21    0.51    0.01
   3  30  23    0.16    0.01
   3  30  25    0.02    0.01
   3  30  27    0.01    0.01
   3  30  29    0.04    0.01
   3  31   4    0.09    0.00
   3  31   6    0.29    0.00
   3  31   8    0.26    0.01
   3  31  10    0.22    0.01
   3  31  12    0.51    0.01
   3  31  14    0.85    0.01
   3  31  16    0.71    0.01
   3  31  18    0.57    0.01
   3  31  20    0.37    0.01
   3  31  22    0.07    0.01
   3  31  24    0.01    0.01
   3  31  26    0.08    0.01
   3  31  28    0.11    0.01
   3  31  30    0.08    0.01
   3  32   3    0.12    0.01
   3  32   5    0.03    0.00
   3  32   7    0.03    0.00
   3  32   9    0.02    0.01
   3  32  11    0.09    0.01
   3  32  13    0.41    0.01
   3  32  15    0.40    0.01
   3  32  17    0.43    0.01
   3  32  19    0.23    0.01
   3  32  21    0.01    0.01
   3  32  23    0.01    0.01
   3  32  25    0.05    0.01
   3  32  27    0.04    0.01
   3  32  29    0.00    0.01
   3  32  31    0.01    0.01
   3  33   4    0.00    0.01
   3  33   6    0.00    0.01
   3  33   8    0.00    0.01
   3  33  10    0.13    0.01
   3  33  12    0.30    0.01
   3  33  14    0.23    0.01
   3  33  16    0.17    0.01
   3  33  18    0.07    0.01
   3  33  20    0.00    0.01
   3  33  22    0.03    0.01
   3  33  24    0.11    0.01
   3  33  26    0.21    0.01
   3  33  28    0.17    0.01
   3  33  30    0.08    0.00
   3  33  32    0.02    0.01
   3  34   3    0.00    0.01
   3  34   5    0.04    0.00
   3  34   7    0.00    0.01
   3  34   9    0.09    0.01
   3  34  11    0.25    0.01
   3  34  13    0.27    0.01
   3  34  15    0.20    0.01
   3  34  17    0.09    0.01
   3  34  19    0.00    0.01
   3  34  21    0.11    0.01
   3  34  23    0.26    0.01
   3  34  25    0.25    0.01
   3  34  27    0.14    0.01
   3  34  29    0.03    0.01
   3  34  31    0.00    0.01
   3  35   4    0.32    0.01
   3  35   6    0.22    0.01
   3  35   8    0.28    0.01
   3  35  10    0.41    0.01
   3  35  12    0.31    0.01
   3  35  14    0.16    0.01
   3  35  16    0.05    0.01
   3  35  18    0.00    0.01
   3  35  20    0.08    0.01
   3  35  22    0.13    0.01
   3  35  24    0.15    0.01
   3  35  26    0.15    0.00
   3  35  28    0.09    0.01
   3  35  30    0.03    0.01
   3  36   3    0.00    0.01
   3  36   5    0.07    0.01
   3  36   7    0.01    0.01
   3  36   9    0.17    0.01
   3  36  11    0.16    0.01
   3  36  13    0.14    0.01
   3  36  15    0.10    0.01
   3  36  17    0.00    0.01
   3  36  19    0.12    0.01
   3  36  21    0.32    0.01
   3  36  23    0.41    0.01
   3  36  25    0.31    0.01
   3  36  27    0.14    0.01
   3  37   4    0.28    0.01
   3  37   6    0.05    0.01
   3  37   8    0.00    0.01
   3  37  10    0.00    0.01
   3  37  12    0.00    0.01
   3  37  14    0.01    0.00
   3  37  16    0.02    0.01
   3  37  18    0.12    0.01
   3  37  20    0.17    0.01
   3  37  22    0.19    0.01
   3  37  24    0.13    0.01
   3  37  26    0.07    0.01
   3  38   3    0.04    0.01
   3  38   5    0.02    0.01
   3  38   7    0.00    0.01
   3  38   9    0.02    0.01
   3  38  11    0.06    0.01
   3  38  13    0.09    0.01
   3  38  15    0.02    0.00
   3  38  17    0.01    0.00
   3  38  19    0.15    0.01
   3  38  21    0.33    0.01
   3  38  23    0.32    0.01
   3  38  25    0.20    0.01
   3  39   4    0.22    0.01
   3  39   6    0.23    0.01
   3  39   8    0.19    0.01
   3  39  10    0.15    0.01
   3  39  12    0.14    0.01
   3  39  14    0.06    0.01
   3  39  16    0.00    0.00
   3  39  18    0.04    0.00
   3  39  20    0.08    0.00
   3  39  22    0.07    0.01
   3  39  24    0.05    0.01
   3  40   3    0.02    0.01
   3  40   5    0.00    0.01
   3  40   7    0.00    0.01
   3  40   9    0.01    0.01
   3  40  11    0.06    0.01
   3  40  13    0.06    0.01
   3  40  15    0.00    0.01
   3  40  17    0.03    0.01
   3  40  19    0.16    0.01
   3  40  21    0.28    0.01
   3  40  23    0.26    0.04
   3  41   4    0.04    0.01
   3  41   6    0.12    0.01
   3  41   8    0.09    0.01
   3  41  10    0.02    0.01
   3  41  12    0.01    0.01
   3  41  14    0.05    0.01
   3  41  16    0.08    0.01
   3  41  18    0.13    0.01
   3  41  20    0.17    0.01
   3  42   3    0.01    0.01
   3  42   5    0.00    0.01
   3  42   7    0.00    0.01
   3  42   9    0.06    0.00
   3  42  11    0.07    0.01
   3  42  13    0.03    0.01
   3  42  15    0.01    0.01
   3  42  17    0.03    0.01
   3  42  19    0.16    0.01
   3  43   4    0.01    0.01
   3  43   6    0.00    0.01
   3  43   8    0.01    0.01
   3  43  10    0.00    0.01
   3  43  12    0.00    0.01
   3  43  14    0.00    0.01
   3  43  16    0.03    0.01
   3  44   3    0.00    0.01
   3  44   5    0.00    0.01
   3  44   7    0.00    0.01
   3  44   9    0.01    0.01
   3  44  11    0.02    0.01
   3  44  13    0.02    0.01
   3  45   4    0.14    0.01
   3  45   6    0.07    0.01
   3  45   8    0.04    0.01
   3  45  10    0.04    0.01
   3  46   3    0.00    0.02
   4   4   4   99.24    3.38
   4   5   5    0.22    0.02
   4   6   4   19.80    0.26
   4   6   6   30.28    0.48
   4   7   5    0.59    0.01
   4   7   7   12.81    0.19
   4   8   4    6.10    0.23
   4   8   6    1.92    0.01
   4   8   8    9.87    0.13
   4   9   5    0.04    0.01
   4   9   7    1.34    0.03
   4   9   9   17.17    0.17
   4  10   4   11.07    0.19
   4  10   6    0.61    0.01
   4  10   8    0.68    0.01
   4  10  10    2.69    0.03
   4  11   5    0.19    0.01
   4  11   7    1.23    0.02
   4  11   9    0.50    0.01
   4  11  11    4.13    0.03
   4  12   4    5.76    0.06
   4  12   6    1.11    0.01
   4  12   8    0.02    0.01
   4  12  10    0.11    0.01
   4  12  12   12.49    0.12
   4  13   5    8.80    0.06
   4  13   7    3.64    0.04
   4  13   9    0.50    0.01
   4  13  11    0.45    0.01
   4  13  13    6.43    0.06
   4  14   4   36.12    0.39
   4  14   6    3.71    0.03
   4  14   8    1.00    0.01
   4  14  10    0.17    0.01
   4  14  12   19.51    0.15
   4  14  14   27.13    0.30
   4  15   5    5.54    0.04
   4  15   7   11.84    0.08
   4  15   9    0.17    0.01
   4  15  11    8.32    0.06
   4  15  13    8.91    0.07
   4  15  15    5.04    0.08
   4  16   4    1.44    0.02
   4  16   6    5.52    0.05
   4  16   8    1.69    0.02
   4  16  10    7.29    0.06
   4  16  12   12.40    0.09
   4  16  14   15.85    0.12
   4  16  16   34.81    0.36
   4  17   5   21.41    0.13
   4  17   7    0.46    0.02
   4  17   9    0.15    0.01
   4  17  11    3.47    0.04
   4  17  13    4.47    0.05
   4  17  15   13.34    0.09
   4  17  17    2.50    0.03
   4  18   4   36.13    0.44
   4  18   6    2.99    0.03
   4  18   8    3.22    0.04
   4  18  10    0.00    0.01
   4  18  12    0.05    0.01
   4  18  14    6.80    0.06
   4  18  16    4.59    0.04
   4  18  18    9.83    0.16
   4  19   5    0.04    0.01
   4  19   7    1.13    0.02
   4  19   9    1.13    0.02
   4  19  11    0.01    0.01
   4  19  13    4.55    0.04
   4  19  15    1.84    0.02
   4  19  17    6.79    0.06
   4  19  19    0.03    0.01
   4  20   4    0.79    0.03
   4  20   6    0.07    0.01
   4  20   8    1.48    0.03
   4  20  10    0.27    0.02
   4  20  12    2.55    0.03
   4  20  14    0.92    0.01
   4  20  16    7.20    0.06
   4  20  18    0.50    0.01
   4  20  20    6.50    0.07
   4  21   5    0.01    0.01
   4  21   7    1.42    0.02
   4  21   9    0.19    0.01
   4  21  11    0.59    0.01
   4  21  13    0.04    0.01
   4  21  15    1.15    0.01
   4  21  17    0.01    0.00
   4  21  19    2.45    0.02
   4  21  21    0.38    0.01
   4  22   4    0.06    0.02
   4  22   6    0.70    0.02
   4  22   8    0.78    0.01
   4  22  10    0.00    0.01
   4  22  12    0.31    0.01
   4  22  14    0.31    0.01
   4  22  16    0.01    0.00
   4  22  18    0.78    0.01
   4  22  20    0.21    0.01
   4  22  22    0.89    0.02
   4  23   5    2.94    0.03
   4  23   7    0.12    0.01
   4  23   9    0.89    0.01
   4  23  11    0.04    0.01
   4  23  13    0.00    0.00
   4  23  15    0.57    0.01
   4  23  17    0.01    0.00
   4  23  19    0.33    0.01
   4  23  21    0.53    0.01
   4  23  23    1.12    0.01
   4  24   4    3.60    0.04
   4  24   6    0.11    0.01
   4  24   8    0.74    0.02
   4  24  10    0.01    0.01
   4  24  12    0.00    0.00
   4  24  14    0.50    0.01
   4  24  16    0.05    0.00
   4  24  18    1.00    0.01
   4  24  20    0.04    0.01
   4  24  22    1.40    0.01
   4  24  24    0.40    0.01
   4  25   5    0.03    0.01
   4  25   7    1.20    0.01
   4  25   9    0.06    0.01
   4  25  11    0.02    0.00
   4  25  13    0.85    0.01
   4  25  15    0.45    0.01
   4  25  17    1.08    0.01
   4  25  19    0.73    0.01
   4  25  21    1.25    0.01
   4  25  23    0.12    0.01
   4  25  25    0.16    0.01
   4  26   4    2.66    0.03
   4  26   6    0.17    0.00
   4  26   8    0.31    0.01
   4  26  10    0.29    0.01
   4  26  12    0.80    0.01
   4  26  14    0.66    0.01
   4  26  16    2.24    0.02
   4  26  18    3.57    0.02
   4  26  20    2.51    0.02
   4  26  22    0.22    0.01
   4  26  24    0.22    0.01
   4  26  26    0.07    0.01
   4  27   5    2.13    0.01
   4  27   7    0.00    0.00
   4  27   9    0.07    0.00
   4  27  11    0.01    0.00
   4  27  13    0.06    0.00
   4  27  15    1.22    0.01
   4  27  17    1.69    0.01
   4  27  19    1.67    0.01
   4  27  21    0.71    0.01
   4  27  23    0.39    0.01
   4  27  25    0.01    0.01
   4  27  27    0.40    0.01
   4  28   4    4.86    0.04
   4  28   6    0.48    0.01
   4  28   8    1.56    0.01
   4  28  10    0.78    0.01
   4  28  12    0.06    0.00
   4  28  14    0.81    0.01
   4  28  16    1.27    0.01
   4  28  18    3.00    0.02
   4  28  20    2.15    0.02
   4  28  22    1.05    0.01
   4  28  24    0.02    0.01
   4  28  26    0.58    0.01
   4  28  28    1.93    0.02
   4  29   5    0.00    0.00
   4  29   7    0.83    0.01
   4  29   9    0.46    0.01
   4  29  11    0.03    0.00
   4  29  13    0.11    0.01
   4  29  15    0.09    0.01
   4  29  17    1.64    0.01
   4  29  19    1.40    0.01
   4  29  21    1.15    0.01
   4  29  23    0.26    0.01
   4  29  25    0.03    0.01
   4  29  27    0.70    0.01
   4  29  29    0.79    0.01
   4  30   4    0.07    0.01
   4  30   6    0.15    0.00
   4  30   8    0.11    0.01
   4  30  10    0.01    0.00
   4  30  12    0.17    0.01
   4  30  14    0.32    0.01
   4  30  16    3.14    0.02
   4  30  18    2.00    0.02
   4  30  20    2.56    0.02
   4  30  22    0.88    0.01
   4  30  24    0.04    0.01
   4  30  26    1.02    0.01
   4  30  28    1.74    0.02
   4  30  30    2.83    0.03
   4  31   5    0.07    0.00
   4  31   7    0.36    0.01
   4  31   9    0.05    0.00
   4  31  11    0.10    0.01
   4  31  13    0.18    0.01
   4  31  15    0.64    0.01
   4  31  17    0.06    0.01
   4  31  19    1.26    0.01
   4  31  21    0.46    0.01
   4  31  23    0.36    0.01
   4  31  25    0.25    0.01
   4  31  27    0.36    0.01
   4  31  29    1.34    0.01
   4  31  31    0.72    0.01
   4  32   4    0.44    0.01
   4  32   6    0.56    0.01
   4  32   8    0.00    0.00
   4  32  10    0.08    0.01
   4  32  12    0.04    0.01
   4  32  14    1.32    0.01
   4  32  16    0.11    0.01
   4  32  18    2.22    0.02
   4  32  20    0.78    0.01
   4  32  22    0.89    0.01
   4  32  24    0.21    0.01
   4  32  26    0.27    0.01
   4  32  28    1.59    0.02
   4  32  30    1.11    0.01
   4  32  32    2.14    0.04
   4  33   5    0.12    0.01
   4  33   7    0.41    0.01
   4  33   9    0.02    0.01
   4  33  11    0.06    0.01
   4  33  13    0.39    0.01
   4  33  15    0.27    0.01
   4  33  17    0.63    0.01
   4  33  19    0.10    0.01
   4  33  21    0.74    0.01
   4  33  23    0.02    0.01
   4  33  25    0.05    0.01
   4  33  27    0.32    0.01
   4  33  29    0.37    0.01
   4  33  31    1.32    0.02
   4  34   4    0.02    0.01
   4  34   6    0.00    0.01
   4  34   8    0.03    0.01
   4  34  10    0.00    0.01
   4  34  12    0.56    0.01
   4  34  14    0.18    0.01
   4  34  16    0.97    0.01
   4  34  18    0.18    0.01
   4  34  20    0.81    0.01
   4  34  22    0.01    0.01
   4  34  24    0.10    0.01
   4  34  26    0.22    0.01
   4  34  28    0.29    0.01
   4  34  30    0.98    0.01
   4  35   5    0.02    0.01
   4  35   7    0.08    0.01
   4  35   9    0.01    0.01
   4  35  11    0.10    0.01
   4  35  13    0.68    0.01
   4  35  15    0.34    0.01
   4  35  17    0.01    0.01
   4  35  19    0.21    0.01
   4  35  21    0.01    0.01
   4  35  23    0.38    0.01
   4  35  25    0.00    0.00
   4  35  27    0.00    0.00
   4  35  29    0.23    0.01
   4  36   4    0.76    0.01
   4  36   6    0.00    0.01
   4  36   8    0.05    0.01
   4  36  10    0.09    0.01
   4  36  12    0.24    0.01
   4  36  14    0.44    0.01
   4  36  16    0.06    0.01
   4  36  18    0.11    0.01
   4  36  20    0.01    0.00
   4  36  22    0.18    0.01
   4  36  24    0.01    0.00
   4  36  26    0.03    0.00
   4  36  28    0.06    0.01
   4  37   5    0.20    0.01
   4  37   7    0.10    0.01
   4  37   9    0.04    0.01
   4  37  11    0.19    0.01
   4  37  13    0.10    0.01
   4  37  15    0.19    0.01
   4  37  17    0.05    0.01
   4  37  19    0.02    0.01
   4  37  21    0.08    0.01
   4  37  23    0.00    0.00
   4  37  25    0.14    0.01
   4  37  27    0.01    0.01
   4  38   4    1.28    0.02
   4  38   6    0.04    0.01
   4  38   8    0.91    0.01
   4  38  10    0.15    0.01
   4  38  12    0.53    0.01
   4  38  14    0.00    0.00
   4  38  16    0.11    0.01
   4  38  18    0.07    0.01
   4  38  20    0.00    0.01
   4  38  22    0.03    0.00
   4  38  24    0.14    0.01
   4  38  26    0.01    0.02
   4  39   5    0.24    0.01
   4  39   7    0.14    0.01
   4  39   9    0.01    0.01
   4  39  11    0.14    0.01
   4  39  13    0.01    0.01
   4  39  15    0.04    0.00
   4  39  17    0.14    0.01
   4  39  19    0.01    0.00
   4  39  21    0.10    0.00
   4  39  23    0.01    0.01
   4  40   4    0.52    0.01
   4  40   6    0.03    0.01
   4  40   8    0.13    0.01
   4  40  10    0.01    0.01
   4  40  12    0.05    0.01
   4  40  14    0.01    0.01
   4  40  16    0.42    0.01
   4  40  18    0.12    0.01
   4  40  20    0.37    0.01
   4  40  22    0.02    0.01
   4  41   5    0.10    0.01
   4  41   7    0.03    0.01
   4  41   9    0.15    0.01
   4  41  11    0.06    0.01
   4  41  13    0.12    0.01
   4  41  15    0.02    0.01
   4  41  17    0.00    0.01
   4  41  19    0.21    0.01
   4  41  21    0.05    0.02
   4  42   4    0.18    0.01
   4  42   6    0.01    0.01
   4  42   8    0.14    0.01
   4  42  10    0.01    0.00
   4  42  12    0.03    0.01
   4  42  14    0.08    0.01
   4  42  16    0.03    0.01
   4  42  18    0.24    0.01
   4  43   5    0.05    0.01
   4  43   7    0.00    0.01
   4  43   9    0.02    0.01
   4  43  11    0.08    0.01
   4  43  13    0.00    0.01
   4  43  15    0.03    0.01
   4  44   4    0.01    0.01
   4  44   6    0.00    0.00
   4  44   8    0.06    0.01
   4  44  10    0.00    0.01
   4  44  12    0.16    0.01
   4  45   5    0.00    0.01
   4  45   7    0.01    0.01
   4  45   9    0.01    0.01
   5   6   5    8.80    0.13
   5   7   6    6.85    0.08
   5   8   5    5.39    0.05
   5   8   7    8.27    0.07
   5   9   6    2.15    0.02
   5   9   8    5.92    0.04
   5  10   5    8.65    0.08
   5  10   7    4.39    0.03
   5  10   9    5.85    0.04
   5  11   6    0.11    0.01
   5  11   8    0.47    0.01
   5  11  10    4.64    0.03
   5  12   5   14.70    0.13
   5  12   7    5.40    0.04
   5  12   9    1.63    0.02
   5  12  11    4.70    0.03
   5  13   6    1.67    0.02
   5  13   8    0.83    0.01
   5  13  10    0.04    0.01
   5  13  12    2.35    0.02
   5  14   5    7.50    0.07
   5  14   7    4.36    0.03
   5  14   9    0.10    0.01
   5  14  11    0.30    0.01
   5  14  13    1.61    0.02
   5  15   6    1.65    0.02
   5  15   8    0.01    0.01
   5  15  10    0.09    0.01
   5  15  12    0.20    0.01
   5  15  14    0.84    0.02
   5  16   5    2.84    0.03
   5  16   7    0.58    0.01
   5  16   9    0.08    0.01
   5  16  11    0.08    0.01
   5  16  13    0.06    0.01
   5  16  15    0.58    0.02
   5  17   6   12.63    0.08
   5  17   8    2.77    0.02
   5  17  10    0.28    0.01
   5  17  12    0.95    0.02
   5  17  14    0.99    0.02
   5  17  16    0.10    0.01
   5  18   5    0.95    0.02
   5  18   7    0.48    0.01
   5  18   9    1.51    0.02
   5  18  11    0.05    0.01
   5  18  13    0.00    0.01
   5  18  15    0.01    0.01
   5  18  17    0.01    0.01
   5  19   6    1.02    0.01
   5  19   8    2.16    0.03
   5  19  10    2.37    0.03
   5  19  12    1.08    0.02
   5  19  14    0.01    0.01
   5  19  16    0.15    0.01
   5  19  18    0.00    0.01
   5  20   5    1.40    0.03
   5  20   7    4.06    0.04
   5  20   9    4.59    0.05
   5  20  11    1.04    0.02
   5  20  13    0.02    0.01
   5  20  15    0.04    0.01
   5  20  17    0.01    0.01
   5  20  19    0.11    0.01
   5  21   6    0.98    0.02
   5  21   8    1.36    0.02
   5  21  10    0.85    0.01
   5  21  12    0.29    0.01
   5  21  14    0.08    0.01
   5  21  16    1.09    0.02
   5  21  18    1.12    0.01
   5  21  20    0.17    0.01
   5  22   5    7.74    0.07
   5  22   7    7.09    0.05
   5  22   9    6.16    0.04
   5  22  11    3.16    0.03
   5  22  13    0.22    0.01
   5  22  15    0.29    0.01
   5  22  17    0.12    0.00
   5  22  19    0.22    0.01
   5  22  21    0.02    0.01
   5  23   6    3.46    0.03
   5  23   8    5.30    0.04
   5  23  10    4.35    0.03
   5  23  12    0.74    0.01
   5  23  14    0.03    0.00
   5  23  16    0.53    0.01
   5  23  18    1.36    0.01
   5  23  20    1.28    0.01
   5  23  22    0.17    0.01
   5  24   5    3.90    0.04
   5  24   7    4.88    0.04
   5  24   9    3.83    0.03
   5  24  11    1.09    0.01
   5  24  13    0.02    0.00
   5  24  15    0.42    0.01
   5  24  17    0.88    0.01
   5  24  19    1.28    0.01
   5  24  21    0.42    0.01
   5  24  23    0.09    0.01
   5  25   6    0.40    0.01
   5  25   8    1.64    0.01
   5  25  10    1.20    0.01
   5  25  12    0.06    0.00
   5  25  14    0.26    0.01
   5  25  16    1.02    0.01
   5  25  18    2.07    0.02
   5  25  20    2.41    0.02
   5  25  22    1.18    0.01
   5  25  24    0.06    0.01
   5  26   5    2.17    0.02
   5  26   7    2.88    0.02
   5  26   9    1.43    0.01
   5  26  11    0.15    0.01
   5  26  13    0.02    0.00
   5  26  15    0.48    0.01
   5  26  17    1.55    0.01
   5  26  19    2.62    0.02
   5  26  21    1.28    0.01
   5  26  23    0.48    0.01
   5  26  25    0.10    0.01
   5  27   6    3.71    0.02
   5  27   8    3.14    0.02
   5  27  10    1.47    0.01
   5  27  12    0.44    0.01
   5  27  14    0.01    0.00
   5  27  16    0.90    0.01
   5  27  18    1.90    0.02
   5  27  20    1.68    0.01
   5  27  22    1.05    0.01
   5  27  24    0.21    0.01
   5  27  26    0.02    0.01
   5  28   5    1.44    0.02
   5  28   7    1.01    0.01
   5  28   9    0.23    0.01
   5  28  11    0.03    0.00
   5  28  13    0.09    0.00
   5  28  15    0.99    0.01
   5  28  17    1.86    0.01
   5  28  19    2.44    0.02
   5  28  21    1.76    0.02
   5  28  23    0.79    0.01
   5  28  25    0.21    0.01
   5  28  27    0.12    0.01
   5  29   6    0.02    0.00
   5  29   8    0.09    0.00
   5  29  10    0.07    0.01
   5  29  12    0.21    0.01
   5  29  14    0.88    0.01
   5  29  16    1.83    0.02
   5  29  18    2.04    0.02
   5  29  20    1.48    0.01
   5  29  22    0.70    0.01
   5  29  24    0.16    0.01
   5  29  26    0.00    0.01
   5  29  28    0.09    0.01
   5  30   5    0.09    0.01
   5  30   7    0.01    0.00
   5  30   9    0.00    0.00
   5  30  11    0.01    0.01
   5  30  13    0.39    0.01
   5  30  15    1.26    0.01
   5  30  17    1.24    0.01
   5  30  19    1.22    0.01
   5  30  21    0.88    0.01
   5  30  23    0.39    0.01
   5  30  25    0.05    0.01
   5  30  27    0.01    0.01
   5  30  29    0.04    0.01
   5  31   6    0.02    0.00
   5  31   8    0.04    0.00
   5  31  10    0.02    0.01
   5  31  12    0.38    0.01
   5  31  14    0.92    0.01
   5  31  16    0.67    0.01
   5  31  18    0.59    0.01
   5  31  20    0.47    0.01
   5  31  22    0.10    0.01
   5  31  24    0.00    0.01
   5  31  26    0.06    0.01
   5  31  28    0.09    0.01
   5  31  30    0.05    0.01
   5  32   5    0.12    0.01
   5  32   7    0.06    0.01
   5  32   9    0.06    0.01
   5  32  11    0.45    0.01
   5  32  13    0.90    0.01
   5  32  15    0.67    0.01
   5  32  17    0.53    0.01
   5  32  19    0.42    0.01
   5  32  21    0.07    0.01
   5  32  23    0.00    0.01
   5  32  25    0.01    0.01
   5  32  27    0.01    0.01
   5  32  29    0.00    0.00
   5  32  31    0.02    0.01
   5  33   6    0.01    0.00
   5  33   8    0.01    0.00
   5  33  10    0.22    0.01
   5  33  12    0.51    0.01
   5  33  14    0.30    0.01
   5  33  16    0.18    0.01
   5  33  18    0.08    0.01
   5  33  20    0.00    0.01
   5  33  22    0.03    0.01
   5  33  24    0.10    0.01
   5  33  26    0.15    0.01
   5  33  28    0.11    0.01
   5  33  30    0.03    0.01
   5  34   5    0.10    0.01
   5  34   7    0.04    0.01
   5  34   9    0.07    0.01
   5  34  11    0.33    0.01
   5  34  13    0.33    0.01
   5  34  15    0.29    0.01
   5  34  17    0.13    0.01
   5  34  19    0.00    0.01
   5  34  21    0.07    0.01
   5  34  23    0.21    0.01
   5  34  25    0.22    0.01
   5  34  27    0.10    0.00
   5  34  29    0.01    0.01
   5  35   6    0.01    0.01
   5  35   8    0.11    0.01
   5  35  10    0.37    0.01
   5  35  12    0.41    0.01
   5  35  14    0.22    0.01
   5  35  16    0.08    0.01
   5  35  18    0.00    0.01
   5  35  20    0.08    0.01
   5  35  22    0.17    0.01
   5  35  24    0.19    0.01
   5  35  26    0.14    0.01
   5  35  28    0.06    0.01
   5  36   5    0.28    0.01
   5  36   7    0.03    0.01
   5  36   9    0.09    0.01
   5  36  11    0.18    0.01
   5  36  13    0.16    0.01
   5  36  15    0.17    0.01
   5  36  17    0.00    0.01
   5  36  19    0.12    0.01
   5  36  21    0.36    0.01
   5  36  23    0.52    0.01
   5  36  25    0.42    0.01
   5  36  27    0.16    0.01
   5  37   6    0.57    0.01
   5  37   8    0.74    0.01
   5  37  10    0.48    0.01
   5  37  12    0.46    0.01
   5  37  14    0.28    0.01
   5  37  16    0.01    0.01
   5  37  18    0.06    0.01
   5  37  20    0.19    0.01
   5  37  22    0.30    0.01
   5  37  24    0.23    0.01
   5  37  26    0.10    0.01
   5  38   5    0.02    0.01
   5  38   7    0.08    0.01
   5  38   9    0.16    0.01
   5  38  11    0.33    0.01
   5  38  13    0.27    0.01
   5  38  15    0.04    0.01
   5  38  17    0.06    0.01
   5  38  19    0.38    0.01
   5  38  21    0.79    0.01
   5  38  23    0.78    0.01
   5  38  25    0.53    0.01
   5  39   6    0.10    0.01
   5  39   8    0.03    0.01
   5  39  10    0.01    0.01
   5  39  12    0.00    0.01
   5  39  14    0.02    0.01
   5  39  16    0.15    0.01
   5  39  18    0.36    0.01
   5  39  20    0.50    0.01
   5  39  22    0.44    0.01
   5  39  24    0.28    0.01
   5  40   5    0.07    0.01
   5  40   7    0.09    0.01
   5  40   9    0.11    0.01
   5  40  11    0.28    0.01
   5  40  13    0.14    0.01
   5  40  15    0.00    0.01
   5  40  17    0.12    0.01
   5  40  19    0.43    0.01
   5  40  21    0.75    0.02
   5  41   6    0.01    0.01
   5  41   8    0.02    0.00
   5  41  10    0.09    0.01
   5  41  12    0.06    0.01
   5  41  14    0.01    0.01
   5  41  16    0.05    0.01
   5  41  18    0.15    0.01
   5  41  20    0.27    0.01
   5  42   5    0.04    0.01
   5  42   7    0.00    0.01
   5  42   9    0.03    0.01
   5  42  11    0.04    0.01
   5  42  13    0.01    0.01
   5  42  15    0.00    0.01
   5  42  17    0.07    0.01
   5  43   6    0.04    0.01
   5  43   8    0.02    0.01
   5  43  10    0.01    0.01
   5  43  12    0.01    0.01
   5  43  14    0.02    0.01
   5  43  16    0.08    0.01
   5  44   5    0.01    0.01
   5  44   7    0.00    0.00
   5  44   9    0.02    0.01
   5  44  11    0.02    0.01
   5  44  13    0.02    0.01
   5  45   6    0.00    0.01
   5  45   8    0.00    0.01
   6   6   6   54.12    1.42
   6   7   7    1.62    0.04
   6   8   6   13.15    0.13
   6   8   8   17.80    0.19
   6   9   7    1.75    0.02
   6   9   9    6.67    0.04
   6  10   6    0.59    0.01
   6  10   8    0.19    0.01
   6  10  10    8.35    0.09
   6  11   7    0.01    0.01
   6  11   9    0.77    0.01
   6  11  11    7.33    0.05
   6  12   6    1.38    0.02
   6  12   8    0.45    0.01
   6  12  10    0.61    0.01
   6  12  12    7.23    0.09
   6  13   7    0.25    0.01
   6  13   9    0.54    0.01
   6  13  11    0.47    0.01
   6  13  13    0.13    0.02
   6  14   6    0.55    0.02
   6  14   8    1.09    0.02
   6  14  10    0.32    0.01
   6  14  12    9.88    0.09
   6  14  14   12.20    0.15
   6  15   7    5.60    0.04
   6  15   9    0.89    0.02
   6  15  11    0.89    0.01
   6  15  13    0.42    0.01
   6  15  15    0.02    0.02
   6  16   6   20.36    0.24
   6  16   8    4.17    0.04
   6  16  10    0.01    0.01
   6  16  12    0.78    0.02
   6  16  14    2.61    0.04
   6  16  16    8.03    0.09
   6  17   7    0.50    0.01
   6  17   9    0.52    0.01
   6  17  11    0.02    0.01
   6  17  13    0.07    0.01
   6  17  15    2.12    0.02
   6  17  17    0.02    0.01
   6  18   6    0.15    0.02
   6  18   8    1.18    0.02
   6  18  10    0.32    0.01
   6  18  12    0.12    0.01
   6  18  14    4.03    0.03
   6  18  16    1.26    0.02
   6  18  18   10.24    0.11
   6  19   7    0.31    0.01
   6  19   9    0.30    0.01
   6  19  11    0.53    0.01
   6  19  13    0.45    0.01
   6  19  15    0.00    0.01
   6  19  17    2.13    0.02
   6  19  19    0.16    0.01
   6  20   6    5.27    0.07
   6  20   8    2.15    0.03
   6  20  10    5.78    0.05
   6  20  12    0.34    0.01
   6  20  14    0.66    0.01
   6  20  16    0.87    0.01
   6  20  18    0.09    0.01
   6  20  20    2.35    0.03
   6  21   7    2.88    0.03
   6  21   9    0.05    0.01
   6  21  11    0.09    0.01
   6  21  13    0.64    0.01
   6  21  15    0.19    0.01
   6  21  17    0.04    0.00
   6  21  19    1.42    0.01
   6  21  21    0.24    0.01
   6  22   6    0.47    0.02
   6  22   8    1.48    0.02
   6  22  10    0.24    0.01
   6  22  12    1.18    0.02
   6  22  14    0.03    0.00
   6  22  16    0.10    0.00
   6  22  18    0.72    0.01
   6  22  20    0.34    0.01
   6  22  22    1.36    0.02
   6  23   7    0.20    0.01
   6  23   9    0.29    0.01
   6  23  11    0.43    0.01
   6  23  13    0.13    0.01
   6  23  15    0.70    0.01
   6  23  17    0.00    0.00
   6  23  19    0.10    0.01
   6  23  21    1.26    0.01
   6  23  23    0.13    0.01
   6  24   6    0.94    0.02
   6  24   8    0.27    0.01
   6  24  10    1.02    0.01
   6  24  12    0.26    0.01
   6  24  14    0.55    0.01
   6  24  16    0.15    0.01
   6  24  18    0.28    0.01
   6  24  20    0.00    0.01
   6  24  22    0.36    0.01
   6  24  24    0.96    0.02
   6  25   7    2.03    0.02
   6  25   9    0.13    0.01
   6  25  11    0.00    0.00
   6  25  13    0.56    0.01
   6  25  15    0.27    0.01
   6  25  17    0.32    0.01
   6  25  19    0.01    0.01
   6  25  21    0.04    0.01
   6  25  23    1.00    0.01
   6  25  25    0.09    0.01
   6  26   6    2.97    0.03
   6  26   8    0.23    0.01
   6  26  10    0.09    0.01
   6  26  12    0.01    0.00
   6  26  14    0.00    0.00
   6  26  16    0.48    0.01
   6  26  18    0.45    0.01
   6  26  20    0.42    0.01
   6  26  22    0.06    0.01
   6  26  24    0.01    0.01
   6  26  26    0.40    0.01
   6  27   7    0.30    0.01
   6  27   9    0.29    0.01
   6  27  11    0.02    0.00
   6  27  13    0.03    0.00
   6  27  15    0.59    0.01
   6  27  17    0.39    0.01
   6  27  19    0.22    0.01
   6  27  21    0.01    0.01
   6  27  23    0.00    0.01
   6  27  25    0.23    0.01
   6  27  27    0.42    0.01
   6  28   6    0.53    0.01
   6  28   8    0.00    0.00
   6  28  10    0.02    0.00
   6  28  12    0.21    0.01
   6  28  14    1.02    0.01
   6  28  16    0.72    0.01
   6  28  18    0.91    0.01
   6  28  20    0.80    0.01
   6  28  22    0.26    0.01
   6  28  24    0.00    0.01
   6  28  26    0.42    0.01
   6  28  28    0.74    0.01
   6  29   7    0.50    0.01
   6  29   9    0.21    0.01
   6  29  11    0.01    0.00
   6  29  13    0.17    0.01
   6  29  15    0.01    0.01
   6  29  17    0.44    0.01
   6  29  19    0.30    0.01
   6  29  21    0.20    0.01
   6  29  23    0.01    0.01
   6  29  25    0.07    0.01
   6  29  27    0.29    0.01
   6  29  29    0.15    0.01
   6  30   6    0.56    0.01
   6  30   8    0.42    0.01
   6  30  10    0.01    0.01
   6  30  12    0.00    0.01
   6  30  14    0.00    0.01
   6  30  16    0.82    0.01
   6  30  18    0.22    0.01
   6  30  20    0.64    0.01
   6  30  22    0.19    0.01
   6  30  24    0.03    0.01
   6  30  26    0.32    0.01
   6  30  28    0.34    0.01
   6  30  30    0.49    0.01
   6  31   7    0.05    0.00
   6  31   9    0.06    0.01
   6  31  11    0.00    0.00
   6  31  13    0.02    0.01
   6  31  15    0.54    0.01
   6  31  17    0.00    0.01
   6  31  19    0.43    0.01
   6  31  21    0.13    0.01
   6  31  23    0.30    0.01
   6  31  25    0.02    0.01
   6  31  27    0.00    0.01
   6  31  29    0.17    0.01
   6  31  31    0.00    0.01
   6  32   6    0.68    0.01
   6  32   8    0.02    0.00
   6  32  10    0.14    0.01
   6  32  12    0.18    0.01
   6  32  14    0.31    0.01
   6  32  16    0.06    0.01
   6  32  18    0.43    0.01
   6  32  20    0.11    0.01
   6  32  22    0.49    0.01
   6  32  24    0.03    0.01
   6  32  26    0.00    0.01
   6  32  28    0.16    0.01
   6  32  30    0.02    0.00
   6  32  32    0.40    0.01
   6  33   7    0.17    0.01
   6  33   9    0.03    0.01
   6  33  11    0.07    0.01
   6  33  13    0.34    0.01
   6  33  15    0.15    0.01
   6  33  17    0.37    0.01
   6  33  19    0.02    0.01
   6  33  21    0.59    0.01
   6  33  23    0.01    0.01
   6  33  25    0.37    0.01
   6  33  27    0.00    0.00
   6  33  29    0.00    0.00
   6  33  31    0.19    0.01
   6  34   6    0.07    0.01
   6  34   8    0.01    0.01
   6  34  10    0.12    0.01
   6  34  12    0.86    0.01
   6  34  14    0.06    0.01
   6  34  16    0.62    0.01
   6  34  18    0.02    0.01
   6  34  20    0.47    0.01
   6  34  22    0.00    0.01
   6  34  24    0.46    0.01
   6  34  26    0.02    0.00
   6  34  28    0.03    0.00
   6  34  30    0.05    0.01
   6  35   7    0.06    0.01
   6  35   9    0.04    0.01
   6  35  11    0.16    0.01
   6  35  13    0.25    0.01
   6  35  15    0.44    0.01
   6  35  17    0.01    0.01
   6  35  19    0.20    0.01
   6  35  21    0.00    0.01
   6  35  23    0.67    0.01
   6  35  25    0.13    0.00
   6  35  27    0.17    0.01
   6  35  29    0.00    0.01
   6  36   6    0.61    0.01
   6  36   8    0.37    0.01
   6  36  10    0.88    0.01
   6  36  12    0.04    0.01
   6  36  14    0.84    0.01
   6  36  16    0.02    0.01
   6  36  18    0.03    0.01
   6  36  20    0.03    0.01
   6  36  22    0.19    0.01
   6  36  24    0.04    0.00
   6  36  26    0.30    0.01
   6  36  28    0.06    0.01
   6  37   7    0.03    0.01
   6  37   9    0.44    0.01
   6  37  11    0.00    0.01
   6  37  13    0.40    0.01
   6  37  15    0.08    0.01
   6  37  17    0.02    0.01
   6  37  19    0.03    0.00
   6  37  21    0.07    0.00
   6  37  23    0.01    0.00
   6  37  25    0.32    0.01
   6  37  27    0.05    0.01
   6  38   6    0.11    0.01
   6  38   8    0.33    0.01
   6  38  10    0.04    0.01
   6  38  12    0.28    0.01
   6  38  14    0.07    0.01
   6  38  16    0.00    0.01
   6  38  18    0.37    0.01
   6  38  20    0.10    0.01
   6  38  22    0.11    0.01
   6  38  24    0.14    0.01
   6  39   7    0.27    0.01
   6  39   9    0.03    0.01
   6  39  11    0.24    0.01
   6  39  13    0.00    0.01
   6  39  15    0.03    0.00
   6  39  17    0.19    0.00
   6  39  19    0.03    0.01
   6  39  21    0.11    0.01
   6  39  23    0.01    0.01
   6  40   6    1.02    0.01
   6  40   8    0.34    0.01
   6  40  10    0.69    0.01
   6  40  12    0.15    0.01
   6  40  14    0.05    0.00
   6  40  16    0.16    0.01
   6  40  18    0.09    0.01
   6  40  20    0.32    0.01
   6  40  22    0.03    0.01
   6  41   7    0.08    0.01
   6  41   9    0.05    0.01
   6  41  11    0.00    0.00
   6  41  13    0.04    0.01
   6  41  15    0.05    0.01
   6  41  17    0.03    0.01
   6  41  19    0.28    0.01
   6  42   6    0.02    0.01
   6  42   8    0.08    0.01
   6  42  10    0.00    0.00
   6  42  12    0.01    0.01
   6  42  14    0.11    0.01
   6  42  16    0.07    0.01
   6  42  18    0.32    0.01
   6  43   7    0.01    0.01
   6  43   9    0.01    0.00
   6  43  11    0.04    0.01
   6  43  13    0.00    0.01
   6  43  15    0.00    0.01
   6  44   6    0.03    0.01
   6  44   8    0.00    0.01
   6  44  10    0.04    0.01
   6  44  12    0.04    0.01
   6  45   7    0.00    0.01
   7   8   7    9.05    0.11
   7   9   8   12.73    0.07
   7  10   7    1.57    0.03
   7  10   9    8.05    0.05
   7  11   8    0.96    0.01
   7  11  10    3.62    0.02
   7  12   7    1.26    0.03
   7  12   9    2.17    0.02
   7  12  11    3.70    0.03
   7  13   8    0.09    0.01
   7  13  10    0.08    0.01
   7  13  12    2.27    0.03
   7  14   7    3.49    0.03
   7  14   9    1.58    0.02
   7  14  11    0.96    0.02
   7  14  13    2.73    0.03
   7  15   8    1.07    0.01
   7  15  10    0.52    0.01
   7  15  12    0.06    0.01
   7  15  14    0.65    0.02
   7  16   7    0.09    0.01
   7  16   9    0.18    0.01
   7  16  11    0.02    0.01
   7  16  13    0.50    0.02
   7  16  15    0.93    0.01
   7  17   8    0.02    0.01
   7  17  10    0.24    0.01
   7  17  12    0.10    0.01
   7  17  14    0.12    0.01
   7  17  16    0.19    0.01
   7  18   7    3.83    0.06
   7  18   9    1.70    0.02
   7  18  11    0.02    0.01
   7  18  13    0.12    0.01
   7  18  15    0.15    0.01
   7  18  17    0.47    0.01
   7  19   8    0.33    0.01
   7  19  10    0.28    0.01
   7  19  12    0.51    0.01
   7  19  14    1.41    0.02
   7  19  16    1.23    0.02
   7  19  18    0.05    0.01
   7  20   7    6.72    0.08
   7  20   9    3.59    0.03
   7  20  11    0.42    0.01
   7  20  13    0.15    0.01
   7  20  15    0.28    0.01
   7  20  17    0.25    0.01
   7  20  19    0.05    0.01
   7  21   8    1.70    0.02
   7  21  10    0.63    0.02
   7  21  12    0.16    0.01
   7  21  14    0.08    0.01
   7  21  16    0.81    0.01
   7  21  18    0.63    0.01
   7  21  20    0.02    0.01
   7  22   7    5.16    0.05
   7  22   9    2.53    0.02
   7  22  11    0.93    0.01
   7  22  13    0.09    0.01
   7  22  15    0.90    0.01
   7  22  17    0.64    0.01
   7  22  19    0.09    0.01
   7  22  21    0.11    0.01
   7  23   8    0.89    0.02
   7  23  10    0.91    0.01
   7  23  12    0.00    0.01
   7  23  14    0.35    0.01
   7  23  16    0.66    0.01
   7  23  18    1.16    0.01
   7  23  20    1.12    0.01
   7  23  22    0.09    0.01
   7  24   7    5.10    0.05
   7  24   9    2.71    0.02
   7  24  11    0.53    0.01
   7  24  13    0.02    0.00
   7  24  15    0.49    0.01
   7  24  17    1.12    0.01
   7  24  19    0.70    0.01
   7  24  21    0.41    0.01
   7  24  23    0.12    0.01
   7  25   8    2.85    0.02
   7  25  10    1.61    0.01
   7  25  12    0.09    0.00
   7  25  14    0.14    0.00
   7  25  16    0.59    0.01
   7  25  18    1.33    0.01
   7  25  20    1.87    0.02
   7  25  22    0.86    0.01
   7  25  24    0.01    0.01
   7  26   7    3.47    0.03
   7  26   9    1.52    0.01
   7  26  11    0.18    0.01
   7  26  13    0.00    0.00
   7  26  15    0.17    0.01
   7  26  17    1.29    0.01
   7  26  19    1.78    0.02
   7  26  21    1.27    0.01
   7  26  23    0.58    0.01
   7  26  25    0.26    0.01
   7  27   8    0.29    0.01
   7  27  10    0.05    0.00
   7  27  12    0.01    0.00
   7  27  14    0.25    0.01
   7  27  16    1.36    0.01
   7  27  18    2.07    0.02
   7  27  20    1.82    0.01
   7  27  22    1.20    0.01
   7  27  24    0.31    0.01
   7  27  26    0.01    0.01
   7  28   7    0.67    0.01
   7  28   9    0.19    0.01
   7  28  11    0.08    0.00
   7  28  13    0.00    0.00
   7  28  15    0.30    0.01
   7  28  17    1.10    0.01
   7  28  19    1.41    0.01
   7  28  21    1.63    0.01
   7  28  23    0.89    0.01
   7  28  25    0.38    0.01
   7  28  27    0.14    0.01
   7  29   8    0.24    0.01
   7  29  10    0.18    0.01
   7  29  12    0.07    0.01
   7  29  14    0.06    0.01
   7  29  16    0.63    0.01
   7  29  18    0.86    0.01
   7  29  20    0.79    0.01
   7  29  22    0.46    0.01
   7  29  24    0.20    0.01
   7  29  26    0.01    0.01
   7  29  28    0.04    0.00
   7  30   7    0.00    0.01
   7  30   9    0.00    0.00
   7  30  11    0.01    0.01
   7  30  13    0.06    0.01
   7  30  15    0.48    0.01
   7  30  17    0.61    0.01
   7  30  19    0.60    0.01
   7  30  21    0.86    0.01
   7  30  23    0.60    0.01
   7  30  25    0.21    0.01
   7  30  27    0.07    0.00
   7  30  29    0.04    0.01
   7  31   8    0.04    0.00
   7  31  10    0.06    0.01
   7  31  12    0.01    0.01
   7  31  14    0.22    0.01
   7  31  16    0.15    0.01
   7  31  18    0.15    0.01
   7  31  20    0.25    0.01
   7  31  22    0.08    0.01
   7  31  24    0.01    0.01
   7  31  26    0.00    0.01
   7  31  28    0.00    0.01
   7  31  30    0.02    0.00
   7  32   7    0.01    0.01
   7  32   9    0.00    0.00
   7  32  11    0.12    0.01
   7  32  13    0.35    0.01
   7  32  15    0.25    0.01
   7  32  17    0.31    0.01
   7  32  19    0.31    0.01
   7  32  21    0.16    0.01
   7  32  23    0.08    0.01
   7  32  25    0.05    0.01
   7  32  27    0.01    0.01
   7  32  29    0.00    0.00
   7  32  31    0.01    0.01
   7  33   8    0.21    0.01
   7  33  10    0.84    0.01
   7  33  12    1.05    0.01
   7  33  14    0.59    0.01
   7  33  16    0.39    0.01
   7  33  18    0.18    0.01
   7  33  20    0.03    0.01
   7  33  22    0.00    0.01
   7  33  24    0.00    0.01
   7  33  26    0.00    0.01
   7  33  28    0.00    0.00
   7  33  30    0.00    0.01
   7  34   7    0.01    0.01
   7  34   9    0.10    0.01
   7  34  11    0.31    0.01
   7  34  13    0.24    0.01
   7  34  15    0.22    0.01
   7  34  17    0.15    0.01
   7  34  19    0.01    0.01
   7  34  21    0.01    0.01
   7  34  23    0.04    0.01
   7  34  25    0.02    0.00
   7  34  27    0.00    0.00
   7  34  29    0.00    0.01
   7  35   8    0.23    0.01
   7  35  10    0.61    0.01
   7  35  12    0.43    0.01
   7  35  14    0.23    0.01
   7  35  16    0.08    0.01
   7  35  18    0.01    0.01
   7  35  20    0.10    0.01
   7  35  22    0.15    0.01
   7  35  24    0.11    0.00
   7  35  26    0.03    0.01
   7  35  28    0.00    0.01
   7  36   7    0.05    0.01
   7  36   9    0.40    0.01
   7  36  11    0.35    0.01
   7  36  13    0.21    0.01
   7  36  15    0.15    0.01
   7  36  17    0.00    0.01
   7  36  19    0.19    0.01
   7  36  21    0.35    0.01
   7  36  23    0.45    0.01
   7  36  25    0.22    0.01
   7  36  27    0.05    0.01
   7  37   8    0.16    0.01
   7  37  10    0.12    0.01
   7  37  12    0.08    0.01
   7  37  14    0.07    0.01
   7  37  16    0.02    0.01
   7  37  18    0.26    0.01
   7  37  20    0.42    0.01
   7  37  22    0.48    0.01
   7  37  24    0.29    0.01
   7  37  26    0.08    0.01
   7  38   7    0.17    0.01
   7  38   9    0.24    0.01
   7  38  11    0.33    0.01
   7  38  13    0.29    0.01
   7  38  15    0.01    0.01
   7  38  17    0.10    0.01
   7  38  19    0.51    0.01
   7  38  21    0.88    0.01
   7  38  23    0.92    0.02
   7  38  25    0.53    0.01
   7  39   8    0.32    0.01
   7  39  10    0.30    0.01
   7  39  12    0.20    0.01
   7  39  14    0.04    0.01
   7  39  16    0.03    0.01
   7  39  18    0.25    0.01
   7  39  20    0.45    0.01
   7  39  22    0.46    0.01
   7  40   7    0.09    0.01
   7  40   9    0.10    0.01
   7  40  11    0.23    0.01
   7  40  13    0.15    0.01
   7  40  15    0.00    0.00
   7  40  17    0.14    0.01
   7  40  19    0.49    0.01
   7  40  21    0.83    0.02
   7  41   8    0.03    0.01
   7  41  10    0.02    0.00
   7  41  12    0.00    0.01
   7  41  14    0.04    0.01
   7  41  16    0.10    0.01
   7  41  18    0.22    0.01
   7  41  20    0.35    0.01
   7  42   7    0.04    0.01
   7  42   9    0.13    0.01
   7  42  11    0.08    0.01
   7  42  13    0.02    0.01
   7  42  15    0.00    0.01
   7  42  17    0.06    0.01
   7  43   8    0.01    0.00
   7  43  10    0.01    0.01
   7  43  12    0.00    0.01
   7  43  14    0.00    0.01
   7  44   7    0.04    0.01
   7  44   9    0.06    0.01
   7  44  11    0.03    0.01
   8   8   8   42.47    0.67
   8   9   9    0.90    0.02
   8  10   8    3.25    0.04
   8  10  10    6.41    0.05
   8  11   9    0.11    0.01
   8  11  11    5.28    0.04
   8  12   8    0.54    0.01
   8  12  10    0.97    0.01
   8  12  12    4.19    0.06
   8  13   9    0.57    0.01
   8  13  11    3.44    0.03
   8  13  13    3.37    0.05
   8  14   8    0.77    0.02
   8  14  10    0.17    0.01
   8  14  12    1.88    0.03
   8  14  14    1.12    0.03
   8  15   9    0.56    0.01
   8  15  11    0.20    0.01
   8  15  13    2.06    0.03
   8  15  15    3.32    0.05
   8  16   8    0.99    0.02
   8  16  10    0.46    0.01
   8  16  12    0.16    0.01
   8  16  14    0.03    0.01
   8  16  16    0.72    0.02
   8  17   9    0.65    0.01
   8  17  11    0.76    0.02
   8  17  13    1.54    0.02
   8  17  15    0.38    0.01
   8  17  17    2.79    0.04
   8  18   8    7.81    0.09
   8  18  10    4.15    0.04
   8  18  12    3.80    0.03
   8  18  14    0.48    0.01
   8  18  16    0.75    0.01
   8  18  18    1.63    0.02
   8  19   9    0.10    0.01
   8  19  11    2.45    0.02
   8  19  13    0.69    0.01
   8  19  15    2.04    0.02
   8  19  17    0.13    0.00
   8  19  19    0.46    0.01
   8  20   8    1.14    0.03
   8  20  10    5.43    0.04
   8  20  12    1.23    0.02
   8  20  14    2.13    0.03
   8  20  16    0.21    0.01
   8  20  18    0.00    0.00
   8  20  20    2.72    0.03
   8  21   9    0.56    0.01
   8  21  11    0.42    0.01
   8  21  13    2.84    0.03
   8  21  15    0.14    0.01
   8  21  17    0.22    0.01
   8  21  19    0.95    0.01
   8  21  21    0.04    0.01
   8  22   8    5.96    0.06
   8  22  10    3.51    0.04
   8  22  12    4.14    0.03
   8  22  14    0.34    0.01
   8  22  16    0.23    0.01
   8  22  18    0.19    0.01
   8  22  20    0.02    0.01
   8  22  22    2.59    0.03
   8  23   9    0.23    0.01
   8  23  11    0.62    0.01
   8  23  13    0.31    0.01
   8  23  15    0.64    0.01
   8  23  17    0.00    0.00
   8  23  19    0.03    0.01
   8  23  21    2.82    0.02
   8  23  23    0.34    0.01
   8  24   8    0.17    0.01
   8  24  10    1.16    0.01
   8  24  12    0.19    0.01
   8  24  14    0.22    0.01
   8  24  16    0.00    0.00
   8  24  18    0.03    0.01
   8  24  20    0.60    0.01
   8  24  22    0.05    0.01
   8  24  24    2.21    0.03
   8  25   9    0.27    0.01
   8  25  11    0.02    0.00
   8  25  13    0.25    0.01
   8  25  15    0.11    0.01
   8  25  17    0.01    0.01
   8  25  19    0.45    0.01
   8  25  21    0.52    0.01
   8  25  23    2.70    0.02
   8  25  25    0.77    0.01
   8  26   8    0.19    0.01
   8  26  10    0.12    0.01
   8  26  12    0.05    0.01
   8  26  14    0.00    0.00
   8  26  16    0.03    0.01
   8  26  18    0.00    0.01
   8  26  20    0.06    0.01
   8  26  22    0.53    0.01
   8  26  24    0.26    0.01
   8  26  26    0.48    0.01
   8  27   9    0.26    0.01
   8  27  11    0.04    0.00
   8  27  13    0.02    0.01
   8  27  15    0.15    0.01
   8  27  17    0.01    0.01
   8  27  19    0.21    0.01
   8  27  21    0.42    0.01
   8  27  23    0.60    0.01
   8  27  25    0.69    0.01
   8  27  27    0.34    0.01
   8  28   8    0.27    0.01
   8  28  10    0.30    0.01
   8  28  12    0.07    0.01
   8  28  14    0.00    0.01
   8  28  16    0.18    0.01
   8  28  18    0.07    0.01
   8  28  20    0.05    0.01
   8  28  22    0.06    0.01
   8  28  24    0.09    0.01
   8  28  26    0.17    0.01
   8  28  28    0.06    0.01
   8  29   9    0.12    0.01
   8  29  11    0.09    0.01
   8  29  13    0.15    0.01
   8  29  15    0.04    0.01
   8  29  17    0.00    0.01
   8  29  19    0.01    0.01
   8  29  21    0.02    0.01
   8  29  23    0.08    0.01
   8  29  25    0.07    0.01
   8  29  27    0.02    0.00
   8  29  29    0.05    0.01
   8  30   8    0.39    0.01
   8  30  10    0.02    0.01
   8  30  12    0.08    0.01
   8  30  14    0.49    0.01
   8  30  16    0.01    0.01
   8  30  18    0.09    0.01
   8  30  20    0.00    0.01
   8  30  22    0.00    0.01
   8  30  24    0.03    0.01
   8  30  26    0.00    0.01
   8  30  28    0.04    0.01
   8  30  30    0.03    0.01
   8  31   9    0.09    0.01
   8  31  11    0.04    0.01
   8  31  13    0.00    0.01
   8  31  15    0.26    0.01
   8  31  17    0.02    0.01
   8  31  19    0.09    0.01
   8  31  21    0.04    0.01
   8  31  23    0.31    0.01
   8  31  25    0.05    0.01
   8  31  27    0.22    0.01
   8  31  29    0.09    0.01
   8  31  31    0.37    0.01
   8  32   8    0.37    0.01
   8  32  10    0.11    0.01
   8  32  12    0.01    0.01
   8  32  14    0.31    0.01
   8  32  16    0.08    0.01
   8  32  18    0.15    0.01
   8  32  20    0.01    0.01
   8  32  22    0.48    0.01
   8  32  24    0.06    0.01
   8  32  26    0.45    0.01
   8  32  28    0.27    0.01
   8  32  30    0.44    0.01
   8  32  32    0.03    0.01
   8  33   9    0.01    0.01
   8  33  11    0.01    0.01
   8  33  13    0.26    0.01
   8  33  15    0.10    0.01
   8  33  17    0.23    0.01
   8  33  19    0.00    0.01
   8  33  21    0.58    0.01
   8  33  23    0.14    0.01
   8  33  25    0.94    0.01
   8  33  27    0.40    0.01
   8  33  29    0.36    0.01
   8  33  31    0.03    0.01
   8  34   8    0.01    0.01
   8  34  10    0.03    0.01
   8  34  12    0.36    0.01
   8  34  14    0.25    0.01
   8  34  16    0.05    0.01
   8  34  18    0.12    0.01
   8  34  20    0.05    0.01
   8  34  22    0.00    0.01
   8  34  24    0.65    0.01
   8  34  26    0.38    0.01
   8  34  28    0.55    0.01
   8  34  30    0.16    0.01
   8  35   9    0.17    0.01
   8  35  11    0.30    0.01
   8  35  13    0.12    0.01
   8  35  15    0.23    0.01
   8  35  17    0.04    0.01
   8  35  19    0.07    0.01
   8  35  21    0.01    0.01
   8  35  23    0.74    0.01
   8  35  25    0.36    0.01
   8  35  27    0.55    0.01
   8  35  29    0.22    0.01
   8  36   8    0.26    0.01
   8  36  10    0.59    0.01
   8  36  12    0.02    0.01
   8  36  14    0.37    0.01
   8  36  16    0.21    0.01
   8  36  18    0.05    0.01
   8  36  20    0.24    0.01
   8  36  22    0.06    0.00
   8  36  24    0.06    0.00
   8  36  26    0.55    0.01
   8  37   9    0.59    0.01
   8  37  11    0.10    0.01
   8  37  13    0.33    0.01
   8  37  15    0.11    0.01
   8  37  17    0.00    0.01
   8  37  19    0.08    0.01
   8  37  21    0.03    0.00
   8  37  23    0.01    0.01
   8  37  25    0.33    0.01
   8  38   8    1.60    0.02
   8  38  10    0.72    0.01
   8  38  12    0.79    0.01
   8  38  14    0.00    0.00
   8  38  16    0.00    0.01
   8  38  18    0.32    0.01
   8  38  20    0.18    0.01
   8  38  22    0.11    0.01
   8  38  24    0.10    0.01
   8  39   9    0.08    0.01
   8  39  11    0.30    0.01
   8  39  13    0.01    0.01
   8  39  15    0.01    0.01
   8  39  17    0.17    0.01
   8  39  19    0.05    0.00
   8  39  21    0.09    0.01
   8  39  23    0.01    0.01
   8  40   8    0.17    0.01
   8  40  10    0.46    0.01
   8  40  12    0.08    0.01
   8  40  14    0.01    0.01
   8  40  16    0.21    0.01
   8  40  18    0.14    0.01
   8  40  20    0.37    0.01
   8  41   9    0.06    0.00
   8  41  11    0.01    0.00
   8  41  13    0.01    0.01
   8  41  15    0.04    0.01
   8  41  17    0.03    0.01
   8  41  19    0.21    0.01
   8  42   8    0.44    0.01
   8  42  10    0.16    0.01
   8  42  12    0.11    0.01
   8  42  14    0.00    0.01
   8  42  16    0.02    0.01
   8  43   9    0.01    0.01
   8  43  11    0.01    0.01
   8  43  13    0.02    0.01
   8  43  15    0.00    0.02
   8  44   8    0.01    0.01
   8  44  10    0.02    0.01
   9  10   9    4.20    0.04
   9  11  10    3.43    0.03
   9  12   9    0.83    0.02
   9  12  11    3.05    0.03
   9  13  10    0.02    0.01
   9  13  12    0.93    0.02
   9  14   9    0.40    0.01
   9  14  11    0.80    0.02
   9  14  13    1.39    0.02
   9  15  10    0.90    0.01
   9  15  12    0.24    0.01
   9  15  14    0.27    0.02
   9  16   9    0.54    0.02
   9  16  11    0.58    0.01
   9  16  13    0.75    0.02
   9  16  15    1.08    0.02
   9  17  10    0.76    0.02
   9  17  12    1.41    0.03
   9  17  14    0.63    0.01
   9  17  16    0.10    0.01
   9  18   9    0.17    0.02
   9  18  11    0.59    0.01
   9  18  13    0.75    0.01
   9  18  15    0.71    0.01
   9  18  17    0.81    0.01
   9  19  10    0.54    0.01
   9  19  12    0.59    0.01
   9  19  14    0.96    0.01
   9  19  16    0.55    0.01
   9  19  18    0.07    0.00
   9  20   9    1.15    0.02
   9  20  11    0.07    0.01
   9  20  13    0.86    0.01
   9  20  15    1.00    0.01
   9  20  17    0.63    0.01
   9  20  19    0.49    0.01
   9  21  10    1.20    0.01
   9  21  12    0.70    0.02
   9  21  14    0.86    0.01
   9  21  16    1.25    0.01
   9  21  18    0.51    0.01
   9  21  20    0.01    0.01
   9  22   9    0.83    0.01
   9  22  11    0.03    0.01
   9  22  13    0.51    0.01
   9  22  15    1.40    0.01
   9  22  17    0.70    0.01
   9  22  19    0.22    0.01
   9  22  21    0.12    0.01
   9  23  10    0.05    0.00
   9  23  12    0.12    0.00
   9  23  14    0.46    0.01
   9  23  16    0.50    0.01
   9  23  18    0.61    0.01
   9  23  20    0.46    0.01
   9  23  22    0.01    0.01
   9  24   9    1.28    0.02
   9  24  11    0.07    0.00
   9  24  13    0.09    0.00
   9  24  15    0.40    0.01
   9  24  17    0.54    0.01
   9  24  19    0.40    0.01
   9  24  21    0.15    0.01
   9  24  23    0.13    0.01
   9  25  10    0.09    0.00
   9  25  12    0.05    0.01
   9  25  14    0.25    0.01
   9  25  16    0.37    0.01
   9  25  18    0.64    0.01
   9  25  20    0.86    0.01
   9  25  22    0.43    0.01
   9  25  24    0.01    0.01
   9  26   9    0.75    0.01
   9  26  11    0.07    0.01
   9  26  13    0.02    0.00
   9  26  15    0.00    0.01
   9  26  17    0.26    0.01
   9  26  19    0.69    0.01
   9  26  21    0.45    0.01
   9  26  23    0.33    0.01
   9  26  25    0.26    0.01
   9  27  10    0.12    0.01
   9  27  12    0.11    0.01
   9  27  14    0.01    0.01
   9  27  16    0.16    0.01
   9  27  18    0.43    0.01
   9  27  20    0.42    0.01
   9  27  22    0.48    0.01
   9  27  24    0.11    0.01
   9  27  26    0.03    0.01
   9  28   9    0.14    0.01
   9  28  11    0.17    0.01
   9  28  13    0.19    0.01
   9  28  15    0.02    0.01
   9  28  17    0.06    0.01
   9  28  19    0.34    0.01
   9  28  21    0.66    0.01
   9  28  23    0.59    0.01
   9  28  25    0.40    0.01
   9  28  27    0.16    0.01
   9  29  10    0.22    0.01
   9  29  12    0.32    0.01
   9  29  14    0.08    0.01
   9  29  16    0.02    0.01
   9  29  18    0.10    0.01
   9  29  20    0.16    0.01
   9  29  22    0.24    0.01
   9  29  24    0.20    0.01
   9  29  26    0.05    0.01
   9  29  28    0.00    0.00
   9  30   9    0.08    0.01
   9  30  11    0.24    0.01
   9  30  13    0.09    0.01
   9  30  15    0.00    0.01
   9  30  17    0.01    0.01
   9  30  19    0.15    0.01
   9  30  21    0.55    0.01
   9  30  23    0.77    0.01
   9  30  25    0.49    0.01
   9  30  27    0.22    0.01
   9  30  29    0.07    0.01
   9  31  10    0.02    0.01
   9  31  12    0.09    0.01
   9  31  14    0.18    0.01
   9  31  16    0.06    0.01
   9  31  18    0.07    0.01
   9  31  20    0.17    0.01
   9  31  22    0.19    0.01
   9  31  24    0.14    0.01
   9  31  26    0.19    0.01
   9  31  28    0.14    0.01
   9  31  30    0.01    0.01
   9  32   9    0.17    0.01
   9  32  11    0.04    0.01
   9  32  13    0.00    0.01
   9  32  15    0.01    0.01
   9  32  17    0.00    0.01
   9  32  19    0.11    0.01
   9  32  21    0.15    0.01
   9  32  23    0.28    0.01
   9  32  25    0.34    0.01
   9  32  27    0.21    0.01
   9  32  29    0.08    0.01
   9  32  31    0.01    0.01
   9  33  10    0.09    0.01
   9  33  12    0.14    0.01
   9  33  14    0.00    0.01
   9  33  16    0.00    0.01
   9  33  18    0.00    0.01
   9  33  20    0.02    0.01
   9  33  22    0.00    0.01
   9  33  24    0.02    0.01
   9  33  26    0.09    0.01
   9  33  28    0.16    0.01
   9  33  30    0.11    0.01
   9  34   9    0.16    0.01
   9  34  11    0.15    0.01
   9  34  13    0.05    0.01
   9  34  15    0.01    0.01
   9  34  17    0.00    0.01
   9  34  19    0.01    0.01
   9  34  21    0.01    0.01
   9  34  23    0.00    0.01
   9  34  25    0.04    0.00
   9  34  27    0.08    0.01
   9  34  29    0.09    0.01
   9  35  10    0.36    0.01
   9  35  12    0.21    0.01
   9  35  14    0.04    0.01
   9  35  16    0.00    0.01
   9  35  18    0.08    0.01
   9  35  20    0.20    0.01
   9  35  22    0.12    0.01
   9  35  24    0.02    0.01
   9  35  26    0.01    0.01
   9  35  28    0.11    0.01
   9  36   9    0.64    0.01
   9  36  11    0.33    0.01
   9  36  13    0.13    0.01
   9  36  15    0.03    0.01
   9  36  17    0.03    0.01
   9  36  19    0.21    0.01
   9  36  21    0.32    0.01
   9  36  23    0.22    0.01
   9  36  25    0.05    0.01
   9  36  27    0.00    0.01
   9  37  10    0.31    0.01
   9  37  12    0.15    0.01
   9  37  14    0.08    0.01
   9  37  16    0.01    0.01
   9  37  18    0.21    0.01
   9  37  20    0.34    0.01
   9  37  22    0.29    0.01
   9  37  24    0.09    0.01
   9  37  26    0.00    0.01
   9  38   9    0.22    0.01
   9  38  11    0.24    0.01
   9  38  13    0.22    0.01
   9  38  15    0.01    0.01
   9  38  17    0.07    0.01
   9  38  19    0.26    0.01
   9  38  21    0.49    0.01
   9  38  23    0.41    0.01
   9  39  10    0.07    0.01
   9  39  12    0.06    0.01
   9  39  14    0.00    0.01
   9  39  16    0.04    0.01
   9  39  18    0.19    0.01
   9  39  20    0.30    0.01
   9  39  22    0.28    0.01
   9  40   9    0.09    0.01
   9  40  11    0.19    0.01
   9  40  13    0.11    0.01
   9  40  15    0.00    0.01
   9  40  17    0.08    0.01
   9  40  19    0.22    0.01
   9  40  21    0.44    0.01
   9  41  10    0.14    0.00
   9  41  12    0.06    0.01
   9  41  14    0.00    0.00
   9  41  16    0.01    0.01
   9  41  18    0.06    0.01
   9  42   9    0.21    0.01
   9  42  11    0.11    0.01
   9  42  13    0.01    0.01
   9  42  15    0.00    0.01
   9  42  17    0.03    0.01
   9  43  10    0.01    0.01
   9  43  12    0.02    0.01
   9  43  14    0.01    0.01
   9  44   9    0.07    0.01
   9  44  11    0.01    0.02
  10  10  10   17.82    0.26
  10  11  11    0.03    0.01
  10  12  10    2.43    0.05
  10  12  12    0.70    0.02
  10  13  11    1.71    0.03
  10  13  13    4.43    0.07
  10  14  10    0.39    0.02
  10  14  12    0.29    0.01
  10  14  14    1.68    0.03
  10  15  11    1.71    0.03
  10  15  13    6.02    0.06
  10  15  15    8.46    0.08
  10  16  10    2.17    0.05
  10  16  12    4.71    0.05
  10  16  14    4.27    0.04
  10  16  16    1.52    0.02
  10  17  11    2.33    0.03
  10  17  13    4.19    0.03
  10  17  15    3.88    0.03
  10  17  17    7.78    0.08
  10  18  10    5.52    0.07
  10  18  12    8.59    0.06
  10  18  14    4.70    0.03
  10  18  16    4.28    0.04
  10  18  18    0.10    0.01
  10  19  11    3.78    0.03
  10  19  13    2.54    0.03
  10  19  15    4.67    0.04
  10  19  17    0.29    0.01
  10  19  19    1.00    0.01
  10  20  10   10.72    0.11
  10  20  12    6.77    0.05
  10  20  14    6.74    0.05
  10  20  16    0.26    0.01
  10  20  18    0.12    0.01
  10  20  20    1.52    0.02
  10  21  11    1.83    0.02
  10  21  13    4.27    0.03
  10  21  15    0.58    0.01
  10  21  17    0.42    0.01
  10  21  19    0.50    0.01
  10  21  21    0.05    0.01
  10  22  10    2.82    0.03
  10  22  12    4.39    0.03
  10  22  14    0.52    0.01
  10  22  16    0.16    0.01
  10  22  18    0.21    0.01
  10  22  20    0.06    0.01
  10  22  22    4.47    0.05
  10  23  11    1.00    0.01
  10  23  13    0.38    0.01
  10  23  15    0.44    0.01
  10  23  17    0.00    0.00
  10  23  19    0.18    0.01
  10  23  21    4.25    0.03
  10  23  23    1.40    0.02
  10  24  10    1.74    0.02
  10  24  12    0.34    0.01
  10  24  14    0.09    0.01
  10  24  16    0.00    0.00
  10  24  18    0.07    0.01
  10  24  20    1.51    0.01
  10  24  22    0.95    0.01
  10  24  24    3.38    0.03
  10  25  11    0.01    0.00
  10  25  13    0.06    0.00
  10  25  15    0.03    0.01
  10  25  17    0.04    0.01
  10  25  19    1.23    0.01
  10  25  21    1.97    0.02
  10  25  23    3.85    0.03
  10  25  25    1.52    0.02
  10  26  10    0.04    0.01
  10  26  12    0.21    0.01
  10  26  14    0.39    0.01
  10  26  16    0.39    0.01
  10  26  18    0.87    0.01
  10  26  20    1.15    0.01
  10  26  22    1.51    0.01
  10  26  24    0.69    0.01
  10  26  26    0.44    0.01
  10  27  11    0.10    0.01
  10  27  13    0.01    0.01
  10  27  15    0.00    0.01
  10  27  17    0.41    0.01
  10  27  19    1.13    0.01
  10  27  21    1.42    0.01
  10  27  23    1.36    0.01
  10  27  25    0.99    0.01
  10  27  27    0.16    0.01
  10  28  10    1.01    0.02
  10  28  12    0.63    0.01
  10  28  14    0.61    0.01
  10  28  16    1.61    0.02
  10  28  18    1.35    0.01
  10  28  20    0.69    0.01
  10  28  22    0.46    0.01
  10  28  24    0.14    0.01
  10  28  26    0.00    0.00
  10  28  28    0.13    0.01
  10  29  11    0.01    0.01
  10  29  13    0.01    0.01
  10  29  15    0.31    0.01
  10  29  17    0.19    0.01
  10  29  19    0.23    0.01
  10  29  21    0.26    0.01
  10  29  23    0.14    0.01
  10  29  25    0.02    0.01
  10  29  27    0.09    0.01
  10  29  29    0.65    0.01
  10  30  10    0.03    0.01
  10  30  12    0.03    0.01
  10  30  14    0.57    0.01
  10  30  16    0.23    0.01
  10  30  18    0.41    0.01
  10  30  20    0.10    0.01
  10  30  22    0.02    0.01
  10  30  24    0.12    0.01
  10  30  26    0.34    0.01
  10  30  28    0.79    0.01
  10  30  30    0.94    0.02
  10  31  11    0.00    0.01
  10  31  13    0.13    0.01
  10  31  15    0.00    0.01
  10  31  17    0.17    0.01
  10  31  19    0.00    0.01
  10  31  21    0.00    0.01
  10  31  23    0.31    0.01
  10  31  25    0.24    0.01
  10  31  27    0.65    0.01
  10  31  29    0.69    0.01
  10  31  31    1.03    0.02
  10  32  10    0.01    0.01
  10  32  12    0.19    0.01
  10  32  14    0.03    0.01
  10  32  16    0.82    0.01
  10  32  18    0.14    0.01
  10  32  20    0.15    0.01
  10  32  22    0.15    0.01
  10  32  24    0.11    0.01
  10  32  26    0.92    0.01
  10  32  28    1.03    0.01
  10  32  30    1.37    0.02
  10  33  11    0.00    0.01
  10  33  13    0.10    0.01
  10  33  15    0.20    0.01
  10  33  17    0.01    0.01
  10  33  19    0.04    0.01
  10  33  21    0.25    0.01
  10  33  23    0.17    0.01
  10  33  25    1.09    0.01
  10  33  27    0.82    0.01
  10  33  29    0.82    0.02
  10  34  10    0.03    0.01
  10  34  12    0.09    0.01
  10  34  14    0.41    0.01
  10  34  16    0.05    0.01
  10  34  18    0.59    0.01
  10  34  20    0.01    0.01
  10  34  22    0.02    0.01
  10  34  24    0.61    0.01
  10  34  26    0.67    0.01
  10  34  28    0.98    0.01
  10  35  11    0.22    0.01
  10  35  13    0.14    0.01
  10  35  15    0.03    0.01
  10  35  17    0.18    0.01
  10  35  19    0.00    0.01
  10  35  21    0.00    0.01
  10  35  23    0.55    0.01
  10  35  25    0.42    0.01
  10  35  27    0.70    0.01
  10  36  10    0.54    0.01
  10  36  12    0.01    0.01
  10  36  14    0.12    0.01
  10  36  16    0.41    0.01
  10  36  18    0.27    0.01
  10  36  20    0.37    0.01
  10  36  22    0.01    0.00
  10  36  24    0.09    0.01
  10  36  26    0.60    0.01
  10  37  11    0.03    0.01
  10  37  13    0.10    0.01
  10  37  15    0.18    0.01
  10  37  17    0.01    0.01
  10  37  19    0.06    0.01
  10  37  21    0.03    0.00
  10  37  23    0.03    0.01
  10  37  25    0.33    0.01
  10  38  10    0.31    0.01
  10  38  12    0.30    0.01
  10  38  14    0.01    0.01
  10  38  16    0.01    0.01
  10  38  18    0.40    0.01
  10  38  20    0.20    0.01
  10  38  22    0.10    0.01
  10  38  24    0.09    0.01
  10  39  11    0.15    0.01
  10  39  13    0.00    0.01
  10  39  15    0.00    0.01
  10  39  17    0.14    0.01
  10  39  19    0.04    0.01
  10  39  21    0.05    0.01
  10  40  10    0.70    0.01
  10  40  12    0.21    0.01
  10  40  14    0.05    0.01
  10  40  16    0.05    0.01
  10  40  18    0.06    0.01
  10  40  20    0.18    0.01
  10  41  11    0.03    0.00
  10  41  13    0.01    0.01
  10  41  15    0.01    0.01
  10  41  17    0.01    0.01
  10  42  10    0.06    0.01
  10  42  12    0.06    0.01
  10  42  14    0.00    0.01
  10  42  16    0.00    0.01
  10  43  11    0.00    0.01
  10  43  13    0.05    0.01
  10  44  10    0.05    0.02
  11  12  11    0.84    0.02
  11  13  12    0.01    0.01
  11  14  11    0.32    0.02
  11  14  13    0.29    0.01
  11  15  12    0.94    0.02
  11  15  14    0.02    0.01
  11  16  11    0.40    0.02
  11  16  13    0.42    0.01
  11  16  15    0.76    0.01
  11  17  12    3.06    0.02
  11  17  14    0.90    0.01
  11  17  16    0.08    0.01
  11  18  11    1.75    0.02
  11  18  13    1.35    0.01
  11  18  15    1.08    0.01
  11  18  17    0.88    0.01
  11  19  12    3.02    0.02
  11  19  14    1.57    0.02
  11  19  16    0.34    0.01
  11  19  18    0.14    0.00
  11  20  11    1.18    0.02
  11  20  13    1.93    0.02
  11  20  15    1.64    0.01
  11  20  17    0.93    0.01
  11  20  19    0.66    0.01
  11  21  12    1.48    0.01
  11  21  14    0.87    0.01
  11  21  16    0.61    0.01
  11  21  18    0.17    0.01
  11  21  20    0.08    0.01
  11  22  11    0.08    0.01
  11  22  13    0.80    0.01
  11  22  15    1.44    0.01
  11  22  17    0.80    0.01
  11  22  19    0.29    0.01
  11  22  21    0.25    0.01
  11  23  12    1.26    0.01
  11  23  14    0.87    0.01
  11  23  16    0.42    0.01
  11  23  18    0.36    0.01
  11  23  20    0.21    0.01
  11  23  22    0.01    0.01
  11  24  11    0.00    0.01
  11  24  13    0.09    0.00
  11  24  15    0.21    0.01
  11  24  17    0.22    0.01
  11  24  19    0.12    0.01
  11  24  21    0.06    0.01
  11  24  23    0.09    0.01
  11  25  12    0.00    0.00
  11  25  14    0.00    0.00
  11  25  16    0.00    0.01
  11  25  18    0.04    0.01
  11  25  20    0.13    0.01
  11  25  22    0.03    0.01
  11  25  24    0.04    0.01
  11  26  11    0.06    0.01
  11  26  13    0.13    0.01
  11  26  15    0.14    0.01
  11  26  17    0.01    0.01
  11  26  19    0.02    0.01
  11  26  21    0.04    0.01
  11  26  23    0.09    0.01
  11  26  25    0.18    0.01
  11  27  12    0.31    0.01
  11  27  14    0.36    0.01
  11  27  16    0.10    0.01
  11  27  18    0.00    0.01
  11  27  20    0.01    0.01
  11  27  22    0.05    0.01
  11  27  24    0.03    0.01
  11  27  26    0.02    0.01
  11  28  11    0.51    0.01
  11  28  13    0.75    0.01
  11  28  15    0.50    0.01
  11  28  17    0.17    0.01
  11  28  19    0.00    0.01
  11  28  21    0.18    0.01
  11  28  23    0.34    0.01
  11  28  25    0.38    0.01
  11  28  27    0.19    0.01
  11  29  12    0.07    0.01
  11  29  14    0.09    0.01
  11  29  16    0.02    0.01
  11  29  18    0.00    0.01
  11  29  20    0.02    0.01
  11  29  22    0.10    0.01
  11  29  24    0.30    0.01
  11  29  26    0.18    0.01
  11  29  28    0.01    0.01
  11  30  11    0.86    0.01
  11  30  13    0.88    0.01
  11  30  15    0.51    0.01
  11  30  17    0.35    0.01
  11  30  19    0.03    0.01
  11  30  21    0.20    0.01
  11  30  23    0.66    0.01
  11  30  25    0.60    0.01
  11  30  27    0.36    0.01
  11  30  29    0.05    0.01
  11  31  12    0.05    0.01
  11  31  14    0.09    0.01
  11  31  16    0.29    0.01
  11  31  18    0.16    0.01
  11  31  20    0.00    0.01
  11  31  22    0.04    0.01
  11  31  24    0.22    0.01
  11  31  26    0.42    0.01
  11  31  28    0.33    0.01
  11  31  30    0.05    0.01
  11  32  11    0.16    0.01
  11  32  13    0.26    0.01
  11  32  15    0.55    0.01
  11  32  17    0.38    0.01
  11  32  19    0.04    0.01
  11  32  21    0.02    0.01
  11  32  23    0.28    0.01
  11  32  25    0.58    0.01
  11  32  27    0.51    0.01
  11  32  29    0.16    0.01
  11  32  31    0.01    0.01
  11  33  12    0.02    0.01
  11  33  14    0.29    0.01
  11  33  16    0.44    0.01
  11  33  18    0.29    0.01
  11  33  20    0.17    0.01
  11  33  22    0.01    0.01
  11  33  24    0.10    0.01
  11  33  26    0.37    0.01
  11  33  28    0.51    0.01
  11  33  30    0.33    0.01
  11  34  11    0.00    0.01
  11  34  13    0.11    0.01
  11  34  15    0.21    0.01
  11  34  17    0.20    0.01
  11  34  19    0.16    0.01
  11  34  21    0.03    0.01
  11  34  23    0.03    0.01
  11  34  25    0.24    0.01
  11  34  27    0.36    0.01
  11  34  29    0.25    0.01
  11  35  12    0.03    0.01
  11  35  14    0.03    0.01
  11  35  16    0.16    0.01
  11  35  18    0.28    0.01
  11  35  20    0.25    0.01
  11  35  22    0.05    0.01
  11  35  24    0.02    0.00
  11  35  26    0.21    0.01
  11  35  28    0.42    0.01
  11  36  11    0.08    0.01
  11  36  13    0.00    0.01
  11  36  15    0.01    0.01
  11  36  17    0.07    0.01
  11  36  19    0.15    0.01
  11  36  21    0.10    0.01
  11  36  23    0.02    0.01
  11  36  25    0.03    0.01
  11  37  12    0.00    0.01
  11  37  14    0.00    0.01
  11  37  16    0.06    0.01
  11  37  18    0.19    0.01
  11  37  20    0.20    0.01
  11  37  22    0.08    0.01
  11  37  24    0.00    0.01
  11  38  11    0.16    0.01
  11  38  13    0.09    0.01
  11  38  15    0.00    0.01
  11  38  17    0.03    0.01
  11  38  19    0.10    0.01
  11  38  21    0.12    0.01
  11  38  23    0.08    0.01
  11  39  12    0.08    0.01
  11  39  14    0.01    0.01
  11  39  16    0.01    0.01
  11  39  18    0.04    0.01
  11  39  20    0.07    0.01
  11  39  22    0.05    0.01
  11  40  11    0.23    0.01
  11  40  13    0.12    0.01
  11  40  15    0.01    0.01
  11  40  17    0.00    0.01
  11  40  19    0.02    0.01
  11  41  12    0.01    0.01
  11  41  14    0.00    0.01
  11  41  16    0.00    0.01
  11  41  18    0.00    0.01
  11  42  11    0.03    0.01
  11  42  13    0.00    0.01
  11  42  15    0.00    0.01
  11  43  12    0.01    0.01
  12  12  12    0.14    0.03
  12  13  13    0.93    0.03
  12  14  12    2.41    0.04
  12  14  14    5.75    0.06
  12  15  13    4.04    0.03
  12  15  15    6.17    0.06
  12  16  12   11.04    0.11
  12  16  14    9.62    0.07
  12  16  16    6.47    0.06
  12  17  13    4.65    0.03
  12  17  15    4.65    0.03
  12  17  17    7.82    0.08
  12  18  12   13.05    0.12
  12  18  14    8.63    0.07
  12  18  16    7.34    0.05
  12  18  18    0.14    0.01
  12  19  13    3.19    0.03
  12  19  15    5.08    0.04
  12  19  17    0.83    0.01
  12  19  19    1.61    0.02
  12  20  12    7.05    0.07
  12  20  14    7.15    0.05
  12  20  16    0.82    0.01
  12  20  18    0.25    0.01
  12  20  20    0.83    0.02
  12  21  13    3.55    0.03
  12  21  15    0.66    0.01
  12  21  17    0.53    0.01
  12  21  19    0.03    0.01
  12  21  21    0.02    0.01
  12  22  12    5.30    0.05
  12  22  14    0.98    0.01
  12  22  16    0.36    0.01
  12  22  18    0.02    0.01
  12  22  20    0.07    0.01
  12  22  22    3.92    0.04
  12  23  13    0.37    0.01
  12  23  15    0.25    0.01
  12  23  17    0.01    0.00
  12  23  19    0.10    0.01
  12  23  21    3.32    0.03
  12  23  23    1.77    0.02
  12  24  12    0.06    0.01
  12  24  14    0.21    0.01
  12  24  16    0.21    0.01
  12  24  18    0.36    0.01
  12  24  20    2.32    0.02
  12  24  22    1.68    0.02
  12  24  24    3.62    0.04
  12  25  13    0.00    0.00
  12  25  15    0.00    0.00
  12  25  17    0.08    0.01
  12  25  19    1.24    0.01
  12  25  21    2.05    0.02
  12  25  23    3.47    0.03
  12  25  25    1.30    0.03
  12  26  12    1.01    0.01
  12  26  14    1.06    0.01
  12  26  16    0.89    0.01
  12  26  18    1.54    0.02
  12  26  20    1.92    0.02
  12  26  22    1.58    0.02
  12  26  24    0.73    0.01
  12  26  26    0.23    0.01
  12  27  13    0.13    0.01
  12  27  15    0.10    0.01
  12  27  17    0.66    0.01
  12  27  19    1.17    0.01
  12  27  21    1.13    0.01
  12  27  23    1.25    0.02
  12  27  25    0.56    0.01
  12  27  27    0.00    0.01
  12  28  12    0.53    0.01
  12  28  14    0.69    0.01
  12  28  16    1.59    0.02
  12  28  18    1.48    0.01
  12  28  20    0.81    0.01
  12  28  22    0.44    0.01
  12  28  24    0.04    0.01
  12  28  26    0.11    0.01
  12  28  28    0.75    0.01
  12  29  13    0.20    0.01
  12  29  15    0.96    0.01
  12  29  17    0.72    0.01
  12  29  19    0.44    0.01
  12  29  21    0.37    0.01
  12  29  23    0.18    0.01
  12  29  25    0.00    0.01
  12  29  27    0.34    0.01
  12  29  29    1.02    0.02
  12  30  12    0.48    0.01
  12  30  14    1.79    0.02
  12  30  16    1.23    0.01
  12  30  18    1.17    0.01
  12  30  20    0.55    0.01
  12  30  22    0.14    0.01
  12  30  24    0.10    0.01
  12  30  26    0.66    0.01
  12  30  28    1.44    0.01
  12  30  30    1.43    0.02
  12  31  13    0.57    0.01
  12  31  15    0.32    0.01
  12  31  17    0.75    0.01
  12  31  19    0.25    0.01
  12  31  21    0.14    0.01
  12  31  23    0.08    0.01
  12  31  25    0.27    0.01
  12  31  27    0.75    0.01
  12  31  29    0.93    0.01
  12  31  31    1.16    0.03
  12  32  12    0.92    0.01
  12  32  14    0.89    0.01
  12  32  16    2.07    0.02
  12  32  18    0.91    0.01
  12  32  20    0.64    0.01
  12  32  22    0.00    0.01
  12  32  24    0.07    0.01
  12  32  26    0.92    0.01
  12  32  28    1.46    0.01
  12  32  30    1.57    0.02
  12  33  13    0.03    0.01
  12  33  15    0.66    0.01
  12  33  17    0.16    0.01
  12  33  19    0.28    0.01
  12  33  21    0.02    0.01
  12  33  23    0.05    0.01
  12  33  25    0.85    0.01
  12  33  27    0.82    0.01
  12  33  29    0.78    0.02
  12  34  12    0.01    0.01
  12  34  14    0.70    0.01
  12  34  16    0.37    0.01
  12  34  18    0.98    0.01
  12  34  20    0.12    0.01
  12  34  22    0.03    0.01
  12  34  24    0.43    0.01
  12  34  26    0.66    0.01
  12  34  28    1.01    0.02
  12  35  13    0.34    0.01
  12  35  15    0.04    0.01
  12  35  17    0.37    0.01
  12  35  19    0.01    0.01
  12  35  21    0.01    0.01
  12  35  23    0.32    0.01
  12  35  25    0.35    0.01
  12  35  27    0.56    0.01
  12  36  12    0.15    0.01
  12  36  14    0.03    0.01
  12  36  16    0.81    0.01
  12  36  18    0.45    0.01
  12  36  20    0.37    0.01
  12  36  22    0.00    0.00
  12  36  24    0.06    0.01
  12  36  26    0.44    0.01
  12  37  13    0.00    0.01
  12  37  15    0.30    0.01
  12  37  17    0.05    0.01
  12  37  19    0.04    0.01
  12  37  21    0.02    0.00
  12  37  23    0.03    0.01
  12  37  25    0.24    0.02
  12  38  12    0.16    0.01
  12  38  14    0.02    0.01
  12  38  16    0.02    0.01
  12  38  18    0.25    0.01
  12  38  20    0.10    0.01
  12  38  22    0.02    0.01
  12  39  13    0.00    0.01
  12  39  15    0.00    0.01
  12  39  17    0.06    0.01
  12  39  19    0.00    0.01
  12  39  21    0.00    0.01
  12  40  12    0.07    0.01
  12  40  14    0.02    0.01
  12  40  16    0.01    0.01
  12  40  18    0.00    0.01
  12  41  13    0.00    0.01
  12  41  15    0.00    0.01
  12  41  17    0.00    0.01
  12  42  12    0.07    0.01
  12  42  14    0.02    0.01
  13  14  13    0.02    0.01
  13  15  14    0.51    0.01
  13  16  13    0.48    0.01
  13  16  15    0.17    0.01
  13  17  14    1.52    0.02
  13  17  16    0.02    0.00
  13  18  13    1.44    0.02
  13  18  15    0.80    0.01
  13  18  17    0.78    0.01
  13  19  14    1.75    0.01
  13  19  16    0.19    0.00
  13  19  18    0.23    0.01
  13  20  13    2.25    0.02
  13  20  15    1.37    0.01
  13  20  17    0.89    0.01
  13  20  19    0.66    0.01
  13  21  14    1.96    0.01
  13  21  16    0.74    0.01
  13  21  18    0.12    0.01
  13  21  20    0.05    0.01
  13  22  13    1.18    0.02
  13  22  15    1.04    0.01
  13  22  17    0.63    0.01
  13  22  19    0.27    0.01
  13  22  21    0.12    0.01
  13  23  14    0.16    0.01
  13  23  16    0.02    0.00
  13  23  18    0.01    0.01
  13  23  20    0.01    0.01
  13  23  22    0.07    0.01
  13  24  13    0.11    0.01
  13  24  15    0.09    0.01
  13  24  17    0.11    0.01
  13  24  19    0.09    0.01
  13  24  21    0.02    0.01
  13  24  23    0.14    0.01
  13  25  14    0.03    0.00
  13  25  16    0.04    0.01
  13  25  18    0.00    0.01
  13  25  20    0.01    0.01
  13  25  22    0.00    0.01
  13  25  24    0.06    0.01
  13  26  13    0.31    0.01
  13  26  15    0.36    0.01
  13  26  17    0.11    0.01
  13  26  19    0.00    0.01
  13  26  21    0.00    0.01
  13  26  23    0.08    0.01
  13  26  25    0.13    0.01
  13  27  14    0.27    0.01
  13  27  16    0.14    0.01
  13  27  18    0.04    0.01
  13  27  20    0.01    0.01
  13  27  22    0.02    0.01
  13  27  24    0.01    0.01
  13  27  26    0.00    0.01
  13  28  13    1.33    0.02
  13  28  15    1.35    0.01
  13  28  17    0.75    0.01
  13  28  19    0.16    0.01
  13  28  21    0.01    0.01
  13  28  23    0.15    0.01
  13  28  25    0.24    0.01
  13  28  27    0.10    0.01
  13  29  14    0.55    0.01
  13  29  16    0.47    0.01
  13  29  18    0.29    0.01
  13  29  20    0.07    0.01
  13  29  22    0.00    0.01
  13  29  24    0.16    0.01
  13  29  26    0.19    0.01
  13  29  28    0.02    0.01
  13  30  13    1.63    0.02
  13  30  15    1.79    0.02
  13  30  17    1.45    0.01
  13  30  19    0.46    0.01
  13  30  21    0.00    0.01
  13  30  23    0.28    0.01
  13  30  25    0.40    0.01
  13  30  27    0.28    0.01
  13  30  29    0.05    0.00
  13  31  14    1.09    0.01
  13  31  16    1.50    0.01
  13  31  18    1.02    0.01
  13  31  20    0.26    0.01
  13  31  22    0.00    0.01
  13  31  24    0.15    0.01
  13  31  26    0.54    0.01
  13  31  28    0.45    0.01
  13  31  30    0.09    0.01
  13  32  13    0.84    0.01
  13  32  15    1.63    0.02
  13  32  17    1.31    0.01
  13  32  19    0.42    0.01
  13  32  21    0.01    0.01
  13  32  23    0.19    0.01
  13  32  25    0.58    0.01
  13  32  27    0.59    0.01
  13  32  29    0.23    0.01
  13  33  14    0.59    0.01
  13  33  16    0.91    0.01
  13  33  18    0.67    0.01
  13  33  20    0.27    0.01
  13  33  22    0.00    0.01
  13  33  24    0.19    0.01
  13  33  26    0.72    0.01
  13  33  28    0.84    0.02
  13  34  13    0.63    0.01
  13  34  15    0.85    0.01
  13  34  17    0.66    0.01
  13  34  19    0.35    0.01
  13  34  21    0.04    0.01
  13  34  23    0.08    0.01
  13  34  25    0.40    0.01
  13  34  27    0.55    0.01
  13  35  14    0.66    0.01
  13  35  16    0.80    0.01
  13  35  18    0.71    0.01
  13  35  20    0.31    0.01
  13  35  22    0.02    0.01
  13  35  24    0.09    0.01
  13  35  26    0.44    0.01
  13  36  13    0.13    0.01
  13  36  15    0.18    0.01
  13  36  17    0.16    0.01
  13  36  19    0.10    0.01
  13  36  21    0.01    0.01
  13  36  23    0.03    0.01
  13  36  25    0.19    0.01
  13  37  14    0.01    0.01
  13  37  16    0.07    0.01
  13  37  18    0.12    0.01
  13  37  20    0.05    0.00
  13  37  22    0.00    0.01
  13  37  24    0.10    0.01
  13  38  13    0.03    0.01
  13  38  15    0.00    0.01
  13  38  17    0.01    0.01
  13  38  19    0.00    0.01
  13  38  21    0.00    0.01
  13  39  14    0.00    0.01
  13  39  16    0.00    0.01
  13  39  18    0.00    0.01
  13  39  20    0.00    0.01
  13  40  13    0.05    0.01
  13  40  15    0.01    0.01
  13  40  17    0.01    0.01
  13  40  19    0.02    0.01
  13  41  14    0.00    0.01
  13  41  16    0.01    0.01
  13  42  13    0.00    0.01
  14  14  14   11.35    0.16
  14  15  15    1.42    0.02
  14  16  14   10.54    0.10
  14  16  16    6.34    0.07
  14  17  15    1.97    0.02
  14  17  17    3.99    0.04
  14  18  14    8.06    0.08
  14  18  16    5.74    0.04
  14  18  18    0.19    0.01
  14  19  15    3.14    0.02
  14  19  17    0.56    0.01
  14  19  19    1.37    0.02
  14  20  14    7.62    0.07
  14  20  16    1.23    0.01
  14  20  18    0.46    0.01
  14  20  20    0.03    0.01
  14  21  15    0.47    0.01
  14  21  17    0.53    0.01
  14  21  19    0.10    0.01
  14  21  21    0.33    0.01
  14  22  14    0.08    0.01
  14  22  16    0.02    0.00
  14  22  18    0.03    0.01
  14  22  20    0.00    0.01
  14  22  22    2.74    0.03
  14  23  15    0.16    0.01
  14  23  17    0.13    0.01
  14  23  19    0.03    0.01
  14  23  21    1.06    0.01
  14  23  23    0.44    0.01
  14  24  14    0.24    0.01
  14  24  16    0.07    0.01
  14  24  18    0.09    0.01
  14  24  20    0.87    0.01
  14  24  22    0.90    0.01
  14  24  24    1.61    0.02
  14  25  15    0.00    0.00
  14  25  17    0.01    0.01
  14  25  19    0.44    0.01
  14  25  21    0.81    0.01
  14  25  23    1.29    0.01
  14  25  25    0.36    0.01
  14  26  14    0.56    0.01
  14  26  16    0.33    0.01
  14  26  18    0.73    0.01
  14  26  20    0.82    0.01
  14  26  22    0.71    0.01
  14  26  24    0.24    0.01
  14  26  26    0.05    0.01
  14  27  15    0.24    0.01
  14  27  17    0.57    0.01
  14  27  19    0.66    0.01
  14  27  21    0.45    0.01
  14  27  23    0.50    0.01
  14  27  25    0.13    0.01
  14  27  27    0.08    0.01
  14  28  14    0.81    0.01
  14  28  16    1.57    0.02
  14  28  18    1.47    0.01
  14  28  20    0.63    0.01
  14  28  22    0.35    0.01
  14  28  24    0.00    0.01
  14  28  26    0.16    0.01
  14  28  28    0.66    0.01
  14  29  15    1.64    0.01
  14  29  17    1.21    0.01
  14  29  19    0.61    0.01
  14  29  21    0.41    0.01
  14  29  23    0.16    0.01
  14  29  25    0.00    0.01
  14  29  27    0.37    0.01
  14  29  29    0.75    0.01
  14  30  14    3.48    0.04
  14  30  16    2.73    0.02
  14  30  18    2.11    0.02
  14  30  20    1.02    0.01
  14  30  22    0.30    0.01
  14  30  24    0.04    0.01
  14  30  26    0.56    0.01
  14  30  28    1.08    0.01
  14  30  30    1.09    0.03
  14  31  15    1.12    0.01
  14  31  17    1.41    0.01
  14  31  19    0.70    0.01
  14  31  21    0.35    0.01
  14  31  23    0.00    0.01
  14  31  25    0.13    0.01
  14  31  27    0.48    0.01
  14  31  29    0.58    0.01
  14  31  31    0.69    0.03
  14  32  14    1.32    0.02
  14  32  16    2.39    0.02
  14  32  18    1.30    0.01
  14  32  20    0.77    0.01
  14  32  22    0.01    0.01
  14  32  24    0.05    0.01
  14  32  26    0.66    0.01
  14  32  28    1.09    0.02
  14  32  30    1.15    0.04
  14  33  15    1.58    0.02
  14  33  17    0.72    0.01
  14  33  19    0.65    0.01
  14  33  21    0.02    0.01
  14  33  23    0.00    0.01
  14  33  25    0.36    0.01
  14  33  27    0.44    0.01
  14  33  29    0.37    0.02
  14  34  14    2.19    0.03
  14  34  16    1.39    0.01
  14  34  18    1.57    0.02
  14  34  20    0.32    0.01
  14  34  22    0.09    0.01
  14  34  24    0.18    0.01
  14  34  26    0.34    0.01
  14  34  28    0.52    0.04
  14  35  15    0.28    0.01
  14  35  17    0.56    0.01
  14  35  19    0.07    0.01
  14  35  21    0.01    0.01
  14  35  23    0.16    0.01
  14  35  25    0.18    0.01
  14  36  14    0.04    0.01
  14  36  16    0.58    0.01
  14  36  18    0.23    0.01
  14  36  20    0.11    0.01
  14  36  22    0.03    0.00
  14  36  24    0.10    0.01
  14  37  15    0.32    0.01
  14  37  17    0.06    0.01
  14  37  19    0.03    0.01
  14  37  21    0.02    0.01
  14  37  23    0.03    0.01
  14  38  14    0.19    0.01
  14  38  16    0.07    0.01
  14  38  18    0.12    0.01
  14  38  20    0.01    0.01
  14  38  22    0.00    0.01
  14  39  15    0.00    0.00
  14  39  17    0.02    0.01
  14  39  19    0.01    0.01
  14  40  14    0.00    0.01
  14  40  16    0.00    0.01
  14  40  18    0.02    0.01
  14  41  15    0.00    0.01
  15  16  15    0.02    0.01
  15  17  16    0.05    0.01
  15  18  15    0.71    0.01
  15  18  17    0.45    0.01
  15  19  16    0.75    0.01
  15  19  18    0.01    0.01
  15  20  15    1.18    0.02
  15  20  17    0.76    0.01
  15  20  19    0.26    0.01
  15  21  16    0.13    0.01
  15  21  18    0.00    0.01
  15  21  20    0.17    0.01
  15  22  15    0.85    0.01
  15  22  17    0.55    0.01
  15  22  19    0.10    0.01
  15  22  21    0.17    0.01
  15  23  16    0.09    0.01
  15  23  18    0.03    0.01
  15  23  20    0.02    0.01
  15  23  22    0.02    0.01
  15  24  15    0.08    0.01
  15  24  17    0.09    0.01
  15  24  19    0.02    0.01
  15  24  21    0.04    0.01
  15  24  23    0.07    0.01
  15  25  16    0.01    0.01
  15  25  18    0.04    0.01
  15  25  20    0.04    0.01
  15  25  22    0.01    0.01
  15  25  24    0.03    0.01
  15  26  15    0.26    0.01
  15  26  17    0.07    0.01
  15  26  19    0.02    0.01
  15  26  21    0.01    0.01
  15  26  23    0.08    0.01
  15  26  25    0.10    0.01
  15  27  16    0.19    0.01
  15  27  18    0.07    0.01
  15  27  20    0.01    0.01
  15  27  22    0.01    0.01
  15  27  24    0.00    0.01
  15  27  26    0.00    0.01
  15  28  15    1.55    0.02
  15  28  17    0.95    0.01
  15  28  19    0.39    0.01
  15  28  21    0.01    0.01
  15  28  23    0.03    0.01
  15  28  25    0.12    0.01
  15  28  27    0.04    0.01
  15  29  16    1.54    0.01
  15  29  18    0.99    0.01
  15  29  20    0.33    0.01
  15  29  22    0.02    0.01
  15  29  24    0.06    0.01
  15  29  26    0.11    0.01
  15  29  28    0.03    0.00
  15  30  15    2.45    0.03
  15  30  17    1.98    0.02
  15  30  19    0.87    0.01
  15  30  21    0.07    0.01
  15  30  23    0.07    0.01
  15  30  25    0.21    0.01
  15  30  27    0.19    0.01
  15  30  29    0.02    0.01
  15  31  16    1.70    0.02
  15  31  18    1.23    0.01
  15  31  20    0.39    0.01
  15  31  22    0.01    0.01
  15  31  24    0.12    0.01
  15  31  26    0.46    0.01
  15  31  28    0.46    0.01
  15  31  30    0.11    0.01
  15  32  15    2.55    0.03
  15  32  17    1.92    0.02
  15  32  19    0.77    0.01
  15  32  21    0.08    0.01
  15  32  23    0.07    0.01
  15  32  25    0.37    0.01
  15  32  27    0.45    0.01
  15  32  29    0.16    0.01
  15  33  16    1.80    0.02
  15  33  18    1.25    0.01
  15  33  20    0.50    0.01
  15  33  22    0.03    0.01
  15  33  24    0.12    0.01
  15  33  26    0.56    0.01
  15  33  28    0.70    0.02
  15  34  15    1.13    0.02
  15  34  17    0.83    0.01
  15  34  19    0.37    0.01
  15  34  21    0.02    0.01
  15  34  23    0.10    0.00
  15  34  25    0.39    0.01
  15  34  27    0.51    0.03
  15  35  16    0.50    0.01
  15  35  18    0.40    0.01
  15  35  20    0.10    0.01
  15  35  22    0.01    0.00
  15  35  24    0.20    0.01
  15  35  26    0.55    0.02
  15  36  15    0.30    0.01
  15  36  17    0.21    0.01
  15  36  19    0.07    0.01
  15  36  21    0.00    0.01
  15  36  23    0.07    0.01
  15  37  16    0.28    0.01
  15  37  18    0.16    0.01
  15  37  20    0.02    0.01
  15  37  22    0.02    0.01
  15  38  15    0.01    0.01
  15  38  17    0.00    0.00
  15  38  19    0.01    0.01
  15  38  21    0.06    0.01
  15  39  16    0.00    0.01
  15  39  18    0.02    0.01
  15  40  15    0.02    0.01
  15  40  17    0.05    0.01
  16  16  16    3.72    0.06
  16  17  17    0.81    0.02
  16  18  16    3.97    0.04
  16  18  18    0.50    0.01
  16  19  17    0.09    0.01
  16  19  19    0.65    0.01
  16  20  16    0.03    0.01
  16  20  18    0.13    0.01
  16  20  20    0.09    0.01
  16  21  17    0.34    0.01
  16  21  19    0.24    0.01
  16  21  21    0.79    0.01
  16  22  16    0.04    0.01
  16  22  18    0.20    0.01
  16  22  20    0.19    0.01
  16  22  22    0.24    0.01
  16  23  17    0.34    0.01
  16  23  19    0.39    0.01
  16  23  21    0.02    0.01
  16  23  23    0.08    0.01
  16  24  16    0.06    0.01
  16  24  18    0.27    0.01
  16  24  20    0.01    0.01
  16  24  22    0.00    0.01
  16  24  24    0.11    0.01
  16  25  17    0.05    0.01
  16  25  19    0.00    0.01
  16  25  21    0.01    0.01
  16  25  23    0.02    0.01
  16  25  25    0.02    0.01
  16  26  16    0.08    0.01
  16  26  18    0.08    0.01
  16  26  20    0.14    0.01
  16  26  22    0.03    0.01
  16  26  24    0.00    0.01
  16  26  26    0.00    0.01
  16  27  17    0.37    0.01
  16  27  19    0.30    0.01
  16  27  21    0.08    0.01
  16  27  23    0.05    0.01
  16  27  25    0.00    0.01
  16  27  27    0.09    0.01
  16  28  16    2.02    0.03
  16  28  18    1.30    0.02
  16  28  20    0.53    0.01
  16  28  22    0.20    0.01
  16  28  24    0.00    0.01
  16  28  26    0.07    0.01
  16  28  28    0.23    0.01
  16  29  17    1.26    0.01
  16  29  19    0.60    0.01
  16  29  21    0.31    0.01
  16  29  23    0.06    0.01
  16  29  25    0.00    0.01
  16  29  27    0.17    0.01
  16  29  29    0.30    0.01
  16  30  16    2.46    0.03
  16  30  18    1.61    0.02
  16  30  20    0.82    0.01
  16  30  22    0.22    0.01
  16  30  24    0.01    0.01
  16  30  26    0.24    0.01
  16  30  28    0.42    0.01
  16  30  30    0.41    0.01
  16  31  17    1.71    0.02
  16  31  19    0.90    0.01
  16  31  21    0.39    0.01
  16  31  23    0.00    0.01
  16  31  25    0.03    0.00
  16  31  27    0.12    0.01
  16  31  29    0.16    0.01
  16  32  16    3.00    0.03
  16  32  18    1.56    0.02
  16  32  20    0.87    0.01
  16  32  22    0.05    0.01
  16  32  24    0.00    0.00
  16  32  26    0.20    0.01
  16  32  28    0.41    0.01
  16  33  17    0.99    0.01
  16  33  19    0.73    0.01
  16  33  21    0.06    0.01
  16  33  23    0.01    0.00
  16  33  25    0.08    0.01
  16  33  27    0.09    0.01
  16  34  16    0.95    0.02
  16  34  18    0.84    0.01
  16  34  20    0.14    0.01
  16  34  22    0.02    0.00
  16  34  24    0.12    0.01
  16  34  26    0.15    0.01
  16  35  17    0.69    0.01
  16  35  19    0.15    0.01
  16  35  21    0.04    0.01
  16  35  23    0.04    0.01
  16  35  25    0.02    0.01
  16  36  16    0.96    0.02
  16  36  18    0.26    0.01
  16  36  20    0.08    0.01
  16  36  22    0.02    0.01
  16  36  24    0.04    0.02
  16  37  17    0.04    0.01
  16  37  19    0.01    0.00
  16  37  21    0.02    0.01
  16  38  16    0.00    0.01
  16  38  18    0.00    0.01
  16  38  20    0.05    0.01
  16  39  17    0.00    0.01
  16  39  19    0.08    0.01
  16  40  16    0.03    0.01
  17  18  17    0.01    0.01
  17  19  18    0.09    0.01
  17  20  17    0.22    0.01
  17  20  19    0.34    0.01
  17  21  18    0.10    0.01
  17  21  20    0.00    0.01
  17  22  17    0.25    0.01
  17  22  19    0.24    0.01
  17  22  21    0.03    0.01
  17  23  18    0.29    0.01
  17  23  20    0.16    0.01
  17  23  22    0.00    0.01
  17  24  17    0.02    0.01
  17  24  19    0.06    0.01
  17  24  21    0.00    0.01
  17  24  23    0.01    0.01
  17  25  18    0.14    0.01
  17  25  20    0.10    0.01
  17  25  22    0.02    0.01
  17  25  24    0.00    0.01
  17  26  17    0.09    0.01
  17  26  19    0.01    0.01
  17  26  21    0.00    0.01
  17  26  23    0.03    0.01
  17  26  25    0.03    0.01
  17  27  18    0.14    0.01
  17  27  20    0.02    0.01
  17  27  22    0.00    0.01
  17  27  24    0.00    0.01
  17  27  26    0.00    0.01
  17  28  17    0.80    0.02
  17  28  19    0.26    0.01
  17  28  21    0.02    0.01
  17  28  23    0.01    0.01
  17  28  25    0.07    0.01
  17  28  27    0.02    0.00
  17  29  18    0.82    0.01
  17  29  20    0.25    0.01
  17  29  22    0.01    0.01
  17  29  24    0.06    0.01
  17  29  26    0.07    0.01
  17  29  28    0.02    0.00
  17  30  17    1.66    0.03
  17  30  19    0.60    0.01
  17  30  21    0.07    0.01
  17  30  23    0.03    0.01
  17  30  25    0.11    0.01
  17  30  27    0.10    0.00
  17  30  29    0.01    0.01
  17  31  18    1.22    0.01
  17  31  20    0.47    0.01
  17  31  22    0.03    0.01
  17  31  24    0.05    0.00
  17  31  26    0.21    0.01
  17  31  28    0.21    0.01
  17  32  17    1.57    0.02
  17  32  19    0.59    0.01
  17  32  21    0.08    0.01
  17  32  23    0.02    0.00
  17  32  25    0.16    0.01
  17  32  27    0.18    0.01
  17  33  18    0.76    0.01
  17  33  20    0.30    0.01
  17  33  22    0.01    0.00
  17  33  24    0.11    0.01
  17  33  26    0.34    0.01
  17  34  17    0.73    0.01
  17  34  19    0.29    0.01
  17  34  21    0.03    0.00
  17  34  23    0.04    0.00
  17  34  25    0.17    0.01
  17  35  18    0.45    0.01
  17  35  20    0.12    0.01
  17  35  22    0.00    0.00
  17  35  24    0.10    0.01
  17  36  17    0.14    0.01
  17  36  19    0.02    0.00
  17  36  21    0.00    0.01
  17  36  23    0.05    0.01
  17  37  18    0.01    0.00
  17  37  20    0.01    0.01
  17  37  22    0.06    0.03
  17  38  17    0.00    0.01
  17  38  19    0.03    0.01
  17  39  18    0.05    0.01
  18  18  18    0.37    0.02
  18  19  19    0.13    0.01
  18  20  18    0.07    0.01
  18  20  20    0.38    0.01
  18  21  19    0.25    0.01
  18  21  21    1.14    0.02
  18  22  18    0.44    0.01
  18  22  20    1.61    0.02
  18  22  22    0.38    0.01
  18  23  19    0.59    0.01
  18  23  21    0.19    0.01
  18  23  23    0.77    0.02
  18  24  18    0.63    0.01
  18  24  20    0.56    0.01
  18  24  22    0.71    0.01
  18  24  24    0.19    0.01
  18  25  19    0.10    0.01
  18  25  21    0.25    0.01
  18  25  23    0.29    0.01
  18  25  25    0.44    0.01
  18  26  18    0.02    0.01
  18  26  20    0.02    0.01
  18  26  22    0.11    0.01
  18  26  24    0.12    0.01
  18  26  26    0.03    0.01
  18  27  19    0.06    0.01
  18  27  21    0.01    0.01
  18  27  23    0.04    0.01
  18  27  25    0.10    0.01
  18  27  27    0.11    0.01
  18  28  18    0.79    0.02
  18  28  20    0.13    0.01
  18  28  22    0.02    0.01
  18  28  24    0.01    0.01
  18  28  26    0.02    0.00
  18  28  28    0.02    0.01
  18  29  19    0.34    0.01
  18  29  21    0.11    0.01
  18  29  23    0.00    0.01
  18  29  25    0.01    0.01
  18  29  27    0.05    0.00
  18  29  29    0.05    0.01
  18  30  18    1.11    0.02
  18  30  20    0.46    0.01
  18  30  22    0.13    0.01
  18  30  24    0.00    0.01
  18  30  26    0.04    0.00
  18  30  28    0.04    0.01
  18  30  30    0.03    0.02
  18  31  19    0.64    0.01
  18  31  21    0.27    0.01
  18  31  23    0.01    0.00
  18  31  25    0.00    0.00
  18  31  27    0.00    0.01
  18  31  29    0.00    0.01
  18  32  18    0.90    0.02
  18  32  20    0.43    0.01
  18  32  22    0.03    0.00
  18  32  24    0.00    0.00
  18  32  26    0.04    0.01
  18  32  28    0.06    0.01
  18  33  19    0.55    0.01
  18  33  21    0.10    0.01
  18  33  23    0.03    0.00
  18  33  25    0.00    0.01
  18  34  18    0.67    0.01
  18  34  20    0.11    0.00
  18  34  22    0.03    0.00
  18  34  24    0.02    0.01
  18  35  19    0.12    0.01
  18  35  21    0.05    0.00
  18  35  23    0.00    0.01
  18  36  18    0.04    0.01
  18  36  20    0.00    0.01
  18  36  22    0.04    0.01
  18  37  19    0.00    0.01
  18  37  21    0.01    0.02
  18  38  18    0.01    0.01
  19  20  19    0.00    0.01
  19  21  20    0.09    0.01
  19  22  19    0.00    0.01
  19  22  21    0.02    0.01
  19  23  20    0.48    0.01
  19  23  22    0.17    0.01
  19  24  19    0.00    0.01
  19  24  21    0.00    0.01
  19  24  23    0.02    0.01
  19  25  20    0.13    0.01
  19  25  22    0.09    0.01
  19  25  24    0.02    0.01
  19  26  19    0.05    0.01
  19  26  21    0.00    0.01
  19  26  23    0.00    0.01
  19  26  25    0.00    0.01
  19  27  20    0.00    0.01
  19  27  22    0.04    0.01
  19  27  24    0.02    0.01
  19  27  26    0.00    0.00
  19  28  19    0.11    0.01
  19  28  21    0.00    0.01
  19  28  23    0.01    0.01
  19  28  25    0.04    0.01
  19  28  27    0.01    0.00
  19  29  20    0.06    0.01
  19  29  22    0.00    0.01
  19  29  24    0.06    0.01
  19  29  26    0.04    0.00
  19  29  28    0.00    0.00
  19  30  19    0.21    0.01
  19  30  21    0.01    0.01
  19  30  23    0.02    0.01
  19  30  25    0.05    0.00
  19  30  27    0.04    0.01
  19  30  29    0.00    0.01
  19  31  20    0.24    0.01
  19  31  22    0.01    0.01
  19  31  24    0.03    0.00
  19  31  26    0.08    0.01
  19  31  28    0.06    0.01
  19  32  19    0.28    0.01
  19  32  21    0.03    0.01
  19  32  23    0.00    0.00
  19  32  25    0.04    0.01
  19  32  27    0.05    0.01
  19  33  20    0.24    0.01
  19  33  22    0.04    0.00
  19  33  24    0.01    0.01
  19  33  26    0.08    0.01
  19  34  19    0.16    0.01
  19  34  21    0.03    0.00
  19  34  23    0.00    0.01
  19  35  20    0.04    0.00
  19  35  22    0.00    0.01
  19  36  19    0.01    0.01
  19  36  21    0.00    0.01
  19  37  20    0.01    0.01
  20  20  20    0.92    0.03
  20  21  21    0.84    0.01
  20  22  20    3.08    0.03
  20  22  22    2.24    0.03
  20  23  21    0.40    0.01
  20  23  23    1.21    0.02
  20  24  20    0.82    0.01
  20  24  22    1.59    0.02
  20  24  24    0.53    0.01
  20  25  21    0.44    0.01
  20  25  23    0.62    0.01
  20  25  25    0.68    0.01
  20  26  20    0.21    0.01
  20  26  22    0.56    0.01
  20  26  24    0.31    0.01
  20  26  26    0.10    0.01
  20  27  21    0.13    0.01
  20  27  23    0.22    0.01
  20  27  25    0.24    0.01
  20  27  27    0.11    0.01
  20  28  20    0.00    0.01
  20  28  22    0.06    0.01
  20  28  24    0.06    0.01
  20  28  26    0.02    0.00
  20  28  28    0.00    0.01
  20  29  21    0.00    0.01
  20  29  23    0.02    0.01
  20  29  25    0.02    0.00
  20  29  27    0.02    0.00
  20  29  29    0.00    0.01
  20  30  20    0.19    0.01
  20  30  22    0.02    0.01
  20  30  24    0.00    0.00
  20  30  26    0.00    0.00
  20  30  28    0.00    0.01
  20  31  21    0.10    0.01
  20  31  23    0.01    0.00
  20  31  25    0.00    0.01
  20  31  27    0.01    0.01
  20  32  20    0.26    0.01
  20  32  22    0.03    0.00
  20  32  24    0.03    0.01
  20  32  26    0.00    0.01
  20  33  21    0.07    0.00
  20  33  23    0.07    0.01
  20  33  25    0.02    0.01
  20  34  20    0.03    0.01
  20  34  22    0.02    0.01
  20  34  24    0.00    0.01
  20  35  21    0.05    0.01
  20  36  20    0.00    0.02
  21  22  21    0.42    0.01
  21  23  22    0.26    0.01
  21  24  21    0.13    0.01
  21  24  23    0.06    0.01
  21  25  22    0.37    0.01
  21  25  24    0.16    0.01
  21  26  21    0.02    0.01
  21  26  23    0.00    0.01
  21  26  25    0.02    0.01
  21  27  22    0.21    0.01
  21  27  24    0.09    0.01
  21  27  26    0.03    0.00
  21  28  21    0.00    0.01
  21  28  23    0.03    0.01
  21  28  25    0.01    0.00
  21  28  27    0.00    0.00
  21  29  22    0.02    0.01
  21  29  24    0.04    0.00
  21  29  26    0.01    0.00
  21  29  28    0.00    0.01
  21  30  21    0.00    0.01
  21  30  23    0.02    0.00
  21  30  25    0.01    0.00
  21  30  27    0.01    0.01
  21  31  22    0.01    0.00
  21  31  24    0.00    0.00
  21  31  26    0.01    0.01
  21  32  21    0.02    0.01
  21  32  23    0.00    0.01
  21  32  25    0.00    0.01
  21  33  22    0.03    0.01
  21  33  24    0.01    0.01
  21  34  21    0.05    0.01
  21  34  23    0.02    0.01
  22  22  22    1.01    0.03
  22  23  23    0.88    0.01
  22  24  22    1.55    0.02
  22  24  24    1.11    0.03
  22  25  23    0.51    0.01
  22  25  25    0.51    0.01
  22  26  22    0.50    0.01
  22  26  24    0.52    0.01
  22  26  26    0.17    0.01
  22  27  23    0.28    0.01
  22  27  25    0.24    0.01
  22  27  27    0.10    0.01
  22  28  22    0.07    0.01
  22  28  24    0.13    0.01
  22  28  26    0.02    0.00
  22  28  28    0.00    0.01
  22  29  23    0.04    0.00
  22  29  25    0.02    0.00
  22  29  27    0.01    0.01
  22  30  22    0.01    0.01
  22  30  24    0.00    0.00
  22  30  26    0.00    0.01
  22  31  23    0.00    0.00
  22  31  25    0.01    0.01
  22  32  22    0.03    0.01
  22  32  24    0.03    0.01
  22  33  23    0.08    0.01
  22  34  22    0.07    0.02
  23  24  23    0.35    0.01
  23  25  24    0.24    0.01
  23  26  23    0.02    0.01
  23  26  25    0.03    0.01
  23  27  24    0.13    0.01
  23  27  26    0.03    0.00
  23  28  23    0.00    0.01
  23  28  25    0.00    0.00
  23  28  27    0.00    0.01
  23  29  24    0.04    0.00
  23  29  26    0.01    0.01
  23  30  23    0.00    0.01
  23  30  25    0.00    0.01
  23  31  24    0.00    0.01
  23  32  23    0.02    0.01
  24  24  24    0.50    0.03
  24  25  25    0.28    0.01
  24  26  24    0.33    0.02
  24  26  26    0.17    0.01
  24  27  25    0.12    0.01
  24  27  27    0.04    0.01
  24  28  24    0.10    0.01
  24  28  26    0.03    0.01
  24  29  25    0.02    0.01
  24  30  24    0.00    0.01
  25  26  25    0.06    0.01
  25  27  26    0.04    0.01
  25  28  25    0.00    0.01
  25  28  27    0.00    0.01
  26  26  26    0.11    0.02
  26  27  27    0.01    0.01
  26  28  26    0.02    0.02
   0   0   0    0.00    0.00
;
_shelx_hkl_checksum              83951
_olex2_submission_special_instructions 'No special instructions were received'
#END Tags that were not found in dictionaries
loop_
_space_group_symop_operation_xyz
'x, y, z'
'-y, x, z'
'-x, -y, z'
'y, -x, z'
'x, -z, y'
'x, -y, -z'
'x, z, -y'
'z, y, -x'
'-x, y, -z'
'-z, y, x'
'z, x, y'
'y, z, x'
'-y, -z, x'
'z, -x, -y'
'-y, z, -x'
'-z, -x, y'
'-z, x, -y'
'y, -z, -x'
'y, x, -z'
'-y, -x, -z'
'-x, z, y'
'-x, -z, -y'
'z, -y, x'
'-z, -y, -x'
'x+1/2, y+1/2, z+1/2'
'-y+1/2, x+1/2, z+1/2'
'-x+1/2, -y+1/2, z+1/2'
'y+1/2, -x+1/2, z+1/2'
'x+1/2, -z+1/2, y+1/2'
'x+1/2, -y+1/2, -z+1/2'
'x+1/2, z+1/2, -y+1/2'
'z+1/2, y+1/2, -x+1/2'
'-x+1/2, y+1/2, -z+1/2'
'-z+1/2, y+1/2, x+1/2'
'z+1/2, x+1/2, y+1/2'
'y+1/2, z+1/2, x+1/2'
'-y+1/2, -z+1/2, x+1/2'
'z+1/2, -x+1/2, -y+1/2'
'-y+1/2, z+1/2, -x+1/2'
'-z+1/2, -x+1/2, y+1/2'
'-z+1/2, x+1/2, -y+1/2'
'y+1/2, -z+1/2, -x+1/2'
'y+1/2, x+1/2, -z+1/2'
'-y+1/2, -x+1/2, -z+1/2'
'-x+1/2, z+1/2, y+1/2'
'-x+1/2, -z+1/2, -y+1/2'
'z+1/2, -y+1/2, x+1/2'
'-z+1/2, -y+1/2, -x+1/2'
'-x, -y, -z'
'y, -x, -z'
'x, y, -z'
'-y, x, -z'
'-x, z, -y'
'-x, y, z'
'-x, -z, y'
'-z, -y, x'
'x, -y, z'
'z, -y, -x'
'-z, -x, -y'
'-y, -z, -x'
'y, z, -x'
'-z, x, y'
'y, -z, x'
'z, x, -y'
'z, -x, y'
'-y, z, x'
'-y, -x, z'
'y, x, z'
'x, -z, -y'
'x, z, y'
'-z, y, -x'
'z, y, x'
'-x+1/2, -y+1/2, -z+1/2'
'y+1/2, -x+1/2, -z+1/2'
'x+1/2, y+1/2, -z+1/2'
'-y+1/2, x+1/2, -z+1/2'
'-x+1/2, z+1/2, -y+1/2'
'-x+1/2, y+1/2, z+1/2'
'-x+1/2, -z+1/2, y+1/2'
'-z+1/2, -y+1/2, x+1/2'
'x+1/2, -y+1/2, z+1/2'
'z+1/2, -y+1/2, -x+1/2'
'-z+1/2, -x+1/2, -y+1/2'
'-y+1/2, -z+1/2, -x+1/2'
'y+1/2, z+1/2, -x+1/2'
'-z+1/2, x+1/2, y+1/2'
'y+1/2, -z+1/2, x+1/2'
'z+1/2, x+1/2, -y+1/2'
'z+1/2, -x+1/2, y+1/2'
'-y+1/2, z+1/2, x+1/2'
'-y+1/2, -x+1/2, z+1/2'
'y+1/2, x+1/2, z+1/2'
'x+1/2, -z+1/2, -y+1/2'
'x+1/2, z+1/2, y+1/2'
'-z+1/2, y+1/2, -x+1/2'
'z+1/2, y+1/2, x+1/2'
loop_
_atom_site_label
_atom_site_type_symbol
_atom_site_fract_x
_atom_site_fract_y
_atom_site_fract_z
_atom_site_U_iso_or_equiv
_atom_site_adp_type
_atom_site_occupancy
_atom_site_site_symmetry_order
_atom_site_calc_flag
_atom_site_refinement_flags_posn
_atom_site_refinement_flags_adp
_atom_site_refinement_flags_occupancy
_atom_site_disorder_assembly
_atom_site_disorder_group
Zr1 Zr 0.30015(3) 0.30015(3) 0.23527(3) 0.0696(4) Uani 0.5 2 d S TU P . 2
Zr2 Zr 0.28462(3) 0.28462(3) 0.22107(4) 0.0685(4) Uani 0.5 2 d S TU P . 1
Fe3 Fe 0.2500 0.5000 0.0000 0.1776(17) Uani 1 8 d S TU P . .
O4 O 0.28233(12) 0.28233(12) 0.28233(12) 0.0785(19) Uani 1 6 d S TU P . .
O2 O 0.2330(2) 0.29043(18) 0.2330(2) 0.0660(16) Uani 0.5 2 d S TU P A 1
C7 C 0.2500 0.40958(8) 0.09042(8) 0.123(3) Uani 1 2 d S TU P . .
C11 C 0.25098(16) 0.42669(8) 0.02810(8) 0.117(2) Uani 1 1 d . U . . .
C12 C 0.25285(18) 0.39136(8) 0.01744(8) 0.130(2) Uani 1 1 d . U . . .
H12 H 0.2539 0.3715 0.0322 0.156 Uiso 1 1 calc R . . . .
C13 C 0.2791(2) 0.37772(11) 0.13535(11) 0.128(2) Uani 1 1 d . U . . .
H13 H 0.2994 0.3734 0.1488 0.153 Uiso 1 1 calc R . . . .
N14 N 0.25008(19) 0.44841(9) 0.0000 0.119(2) Uani 1 2 d S TU P . .
C19 C 0.2500 0.35897(9) 0.14103(9) 0.120(3) Uani 1 2 d S TU P . .
C23 C 0.2795(2) 0.40374(11) 0.10949(10) 0.134(2) Uani 1 1 d . U . . .
H23 H 0.3000 0.4170 0.1054 0.161 Uiso 1 1 calc R . . . .
C28 C 0.2500 0.43698(7) 0.06302(7) 0.129(3) Uani 1 2 d S TU P . .
C1 C 0.2500 0.33145(11) 0.16855(11) 0.124(3) Uani 1 2 d S TU P . .
O10 O 0.3530(2) 0.3064(5) 0.2573(4) 0.200(6) Uani 0.5 1 d . U . B 2
O12 O 0.24758(14) 0.3159(2) 0.24758(14) 0.075(2) Uani 0.5 2 d S TU P . 2
O8 O 0.3361(3) 0.3032(6) 0.2441(4) 0.269(8) Uani 0.5 1 d . U . C 1
O1 O 0.2714(2) 0.32137(18) 0.1810(2) 0.097(3) Uani 0.5 1 d . U . D 1
O20 O 0.2846(2) 0.33533(18) 0.1908(2) 0.096(2) Uani 0.5 1 d . U . D 2
loop_
_atom_site_aniso_label
_atom_site_aniso_U_11
_atom_site_aniso_U_22
_atom_site_aniso_U_33
_atom_site_aniso_U_23
_atom_site_aniso_U_13
_atom_site_aniso_U_12
Zr1 0.0708(5) 0.0708(5) 0.0670(6) 0.0448(4) 0.0448(4) 0.0417(5)
Zr2 0.0695(5) 0.0695(5) 0.0666(7) 0.0375(5) 0.0375(5) 0.0357(5)
Fe3 0.494(5) 0.0194(4) 0.0194(4) 0.000 0.000 0.000
O4 0.0785(19) 0.0785(19) 0.0785(19) 0.056(2) 0.056(2) 0.056(2)
O2 0.072(2) 0.054(4) 0.072(2) 0.006(3) 0.033(4) 0.006(3)
C7 0.307(9) 0.0314(12) 0.0314(12) 0.0023(18) 0.011(2) 0.011(2)
C11 0.288(6) 0.0305(13) 0.0331(13) 0.0041(12) 0.001(2) 0.008(2)
C12 0.324(7) 0.0290(13) 0.0366(15) 0.0023(12) -0.005(3) 0.002(2)
C13 0.250(6) 0.072(2) 0.061(2) 0.035(2) 0.038(3) 0.039(3)
N14 0.298(7) 0.0353(17) 0.0224(14) 0.000 0.000 0.003(3)
C19 0.236(7) 0.0623(19) 0.0623(19) 0.035(3) 0.066(3) 0.066(3)
C23 0.287(7) 0.063(2) 0.0524(19) 0.0260(18) 0.008(3) 0.000(3)
C28 0.334(9) 0.0261(11) 0.0261(11) 0.0069(16) 0.000(2) 0.000(2)
C1 0.165(6) 0.103(3) 0.103(3) 0.068(4) 0.081(3) 0.081(3)
O10 0.067(4) 0.344(17) 0.187(10) 0.072(10) 0.045(5) 0.056(7)
O12 0.064(2) 0.096(5) 0.064(2) 0.039(3) 0.043(3) 0.039(3)
O8 0.104(6) 0.56(2) 0.146(9) 0.056(10) 0.030(5) -0.063(11)
O1 0.123(6) 0.067(4) 0.101(5) 0.057(4) 0.071(4) 0.042(4)
O20 0.129(6) 0.061(4) 0.097(5) 0.050(4) 0.075(4) 0.050(4)
loop_
_atom_type_symbol
_atom_type_description
_atom_type_scat_dispersion_real
_atom_type_scat_dispersion_imag
_atom_type_scat_source
C C 0.0181 0.0091 'International Tables Vol C Tables 4.2.6.8 and 6.1.1.4'
H H 0.0000 0.0000 'International Tables Vol C Tables 4.2.6.8 and 6.1.1.4'
N N 0.0311 0.0180 'International Tables Vol C Tables 4.2.6.8 and 6.1.1.4'
O O 0.0492 0.0322 'International Tables Vol C Tables 4.2.6.8 and 6.1.1.4'
Fe Fe -1.1336 3.1974 'International Tables Vol C Tables 4.2.6.8 and 6.1.1.4'
Zr Zr -0.1862 2.2449 'International Tables Vol C Tables 4.2.6.8 and 6.1.1.4'
loop_
_geom_angle_atom_site_label_1
_geom_angle_atom_site_label_2
_geom_angle_atom_site_label_3
_geom_angle
_geom_angle_site_symmetry_1
_geom_angle_site_symmetry_3
Zr1 Zr1 Zr1 60.0 11 12
O4 Zr1 Zr1 30.75(5) . 11
O4 Zr1 Zr1 30.75(5) . 12
O4 Zr1 O10 90.3(4) . .
O4 Zr1 O10 90.3(4) . 68
O4 Zr1 O12 65.68(15) . .
O4 Zr1 O12 65.68(15) . 12
O4 Zr1 O20 141.1(2) . .
O4 Zr1 O20 141.1(2) . 68
O10 Zr1 Zr1 78.8(4) . 12
O10 Zr1 Zr1 112.2(3) . 11
O10 Zr1 Zr1 112.2(3) 68 12
O10 Zr1 Zr1 78.8(4) 68 11
O10 Zr1 O10 69.7(9) . 68
O10 Zr1 O20 117.9(4) 68 68
O10 Zr1 O20 76.7(4) 68 .
O10 Zr1 O20 76.7(4) . 68
O10 Zr1 O20 117.9(4) . .
O12 Zr1 Zr1 92.46(13) 12 11
O12 Zr1 Zr1 35.33(13) . 11
O12 Zr1 Zr1 92.46(13) . 12
O12 Zr1 Zr1 35.33(13) 12 12
O12 Zr1 O10 76.2(5) . 68
O12 Zr1 O10 76.2(5) 12 .
O12 Zr1 O10 138.0(5) . .
O12 Zr1 O10 138.0(5) 12 68
O12 Zr1 O12 118.3(4) 12 .
O12 Zr1 O20 75.6(2) . .
O12 Zr1 O20 75.6(2) 12 68
O12 Zr1 O20 143.0(3) . 68
O12 Zr1 O20 143.0(3) 12 .
O20 Zr1 Zr1 110.3(2) . 11
O20 Zr1 Zr1 163.3(2) 68 11
O20 Zr1 Zr1 110.3(2) 68 12
O20 Zr1 Zr1 163.3(2) . 12
O20 Zr1 O20 75.2(4) . 68
Zr2 Zr2 Zr2 80.28(10) 83 84
Zr2 Zr2 Zr2 49.86(5) 84 11
Zr2 Zr2 Zr2 49.86(5) 83 12
Zr2 Zr2 Zr2 90.0 83 11
Zr2 Zr2 Zr2 90.0 84 12
Zr2 Zr2 Zr2 60.0 11 12
O4 Zr2 Zr2 92.37(12) . 84
O4 Zr2 Zr2 92.37(12) . 83
O4 Zr2 Zr2 42.90(11) . 12
O4 Zr2 Zr2 42.90(11) . 11
O2 Zr2 Zr2 92.7(3) 12 84
O2 Zr2 Zr2 20.9(3) . 84
O2 Zr2 Zr2 43.57(14) 83 84
O2 Zr2 Zr2 92.7(3) . 83
O2 Zr2 Zr2 20.8(3) 12 83
O2 Zr2 Zr2 85.31(19) 12 11
O2 Zr2 Zr2 43.57(14) 83 83
O2 Zr2 Zr2 80.9(3) 83 12
O2 Zr2 Zr2 32.5(3) . 11
O2 Zr2 Zr2 32.5(3) 12 12
O2 Zr2 Zr2 80.9(3) 83 11
O2 Zr2 Zr2 85.31(19) . 12
O2 Zr2 O4 75.1(3) 12 .
O2 Zr2 O4 111.7(4) 83 .
O2 Zr2 O4 75.1(3) . .
O2 Zr2 O2 62.8(4) 83 12
O2 Zr2 O2 99.2(4) . 12
O2 Zr2 O2 62.8(4) 83 .
O2 Zr2 O8 135.9(6) . .
O2 Zr2 O8 97.0(6) 12 .
O2 Zr2 O8 97.0(6) . 68
O2 Zr2 O8 157.0(6) 83 .
O2 Zr2 O8 157.0(6) 83 68
O2 Zr2 O8 135.9(6) 12 68
O2 Zr2 O1 88.3(4) 83 68
O2 Zr2 O1 82.0(3) . .
O2 Zr2 O1 82.1(3) 12 68
O2 Zr2 O1 145.3(4) 12 .
O2 Zr2 O1 88.3(4) 83 .
O2 Zr2 O1 145.3(4) . 68
O8 Zr2 Zr2 156.7(5) . 84
O8 Zr2 Zr2 114.4(6) . 83
O8 Zr2 Zr2 109.8(3) . 11
O8 Zr2 Zr2 87.0(5) 68 11
O8 Zr2 Zr2 156.7(5) 68 83
O8 Zr2 Zr2 109.8(3) 68 12
O8 Zr2 Zr2 114.4(6) 68 84
O8 Zr2 Zr2 87.0(5) . 12
O8 Zr2 O4 69.9(3) . .
O8 Zr2 O4 69.9(3) 68 .
O8 Zr2 O8 46.1(12) . 68
O1 Zr2 Zr2 109.9(2) . 11
O1 Zr2 Zr2 125.1(3) . 83
O1 Zr2 Zr2 76.2(3) . 84
O1 Zr2 Zr2 125.1(3) 68 84
O1 Zr2 Zr2 109.9(2) 68 12
O1 Zr2 Zr2 166.2(3) 68 11
O1 Zr2 Zr2 166.2(3) . 12
O1 Zr2 Zr2 76.2(3) 68 83
O1 Zr2 O4 137.0(3) 68 .
O1 Zr2 O4 137.0(3) . .
O1 Zr2 O8 106.0(5) 68 68
O1 Zr2 O8 77.4(5) . 68
O1 Zr2 O8 77.4(5) 68 .
O1 Zr2 O8 106.0(5) . .
O1 Zr2 O1 78.2(5) 68 .
N14 Fe3 N14 90.000(1) 6_565 77
N14 Fe3 N14 90.000(1) 79_554 6_565
N14 Fe3 N14 90.000(1) 77 .
N14 Fe3 N14 179.8(4) 79_554 77
N14 Fe3 N14 179.8(4) 6_565 .
N14 Fe3 N14 90.000(1) 79_554 .
Zr1 O4 Zr1 118.50(9) . 11
Zr1 O4 Zr1 118.50(9) 11 12
Zr1 O4 Zr1 118.50(9) . 12
Zr2 O4 Zr2 94.2(2) . 11
Zr2 O4 Zr2 94.2(2) 12 11
Zr2 O4 Zr2 94.2(2) . 12
Zr2 O2 Zr2 115.6(3) 84 11
Zr2 O2 Zr2 115.6(3) 84 .
Zr2 O2 Zr2 115.1(5) . 11
C23 C7 C23 120.7(5) . 46
C23 C7 C28 119.6(3) . .
C23 C7 C28 119.6(3) 46 .
N14 C11 C12 111.0(3) . .
N14 C11 C28 125.8(3) . .
C28 C11 C12 123.3(3) . .
C12 C12 C11 106.78(17) 51 .
C19 C13 C23 120.2(6) . .
C11 N14 Fe3 127.69(17) . .
C11 N14 Fe3 127.69(17) 51 .
C11 N14 C11 104.5(3) 51 .
C13 C19 C13 121.0(6) 46 .
C13 C19 C1 119.5(3) 46 .
C13 C19 C1 119.5(3) . .
C7 C23 C13 118.9(6) . .
C11 C28 C7 118.56(19) . .
C11 C28 C7 118.56(19) 46 .
C11 C28 C11 122.9(4) . 46
C19 C1 O20 108.4(3) . 46
C19 C1 O20 108.4(3) . .
O1 C1 C19 126.5(5) . .
O1 C1 C19 126.5(5) 46 .
O1 C1 O1 107.1(10) . 46
O20 C1 O20 143.3(7) 46 .
Zr1 O12 Zr1 109.3(3) 11 .
O8 O8 Zr2 67.0(6) 68 .
C1 O1 Zr2 140.2(7) . .
C1 O1 O1 36.5(5) . 46
O1 O1 Zr2 103.8(2) 46 .
C1 O20 Zr1 125.0(5) . .
loop_
_geom_bond_atom_site_label_1
_geom_bond_atom_site_label_2
_geom_bond_distance
_geom_bond_site_symmetry_2
Zr1 Zr1 3.5261(12) 12
Zr1 Zr1 3.5261(12) 11
Zr1 O4 2.0515(12) .
Zr1 O10 2.213(12) .
Zr1 O10 2.213(12) 68
Zr1 O12 2.161(4) 12
Zr1 O12 2.161(4) .
Zr1 O20 2.259(8) .
Zr1 O20 2.259(8) 68
Zr2 Zr2 3.4537(13) 11
Zr2 Zr2 2.679(3) 83
Zr2 Zr2 2.679(3) 84
Zr2 Zr2 3.4537(13) 12
Zr2 O4 2.357(4) .
Zr2 O2 2.047(6) 12
Zr2 O2 2.047(6) .
Zr2 O2 1.057(10) 83
Zr2 O8 2.282(15) 68
Zr2 O8 2.282(15) .
Zr2 O1 2.151(8) 68
Zr2 O1 2.151(8) .
Fe3 N14 1.982(4) 79_554
Fe3 N14 1.982(4) 77
Fe3 N14 1.982(4) .
Fe3 N14 1.982(4) 6_565
O4 Zr1 2.0515(12) 11
O4 Zr1 2.0515(12) 12
O4 Zr2 2.357(4) 12
O4 Zr2 2.357(4) 11
O2 Zr2 1.057(10) 84
O2 Zr2 2.047(6) 11
C7 C23 1.370(7) .
C7 C23 1.370(7) 46
C7 C28 1.489(6) .
C11 C12 1.420(4) .
C11 N14 1.365(4) .
C11 C28 1.399(4) .
C12 C12 1.340(6) 51
C13 C19 1.348(7) .
C13 C23 1.410(5) .
N14 C11 1.365(4) 51
C19 C13 1.348(7) 46
C19 C1 1.495(7) .
C28 C11 1.399(4) 46
C1 O1 1.028(9) .
C1 O1 1.028(9) 46
C1 O20 1.588(10) 46
C1 O20 1.588(10) .
O12 Zr1 2.161(4) 11
O8 O8 1.79(4) 68
O1 O1 1.653(19) 46
loop_
_geom_torsion_atom_site_label_1
_geom_torsion_atom_site_label_2
_geom_torsion_atom_site_label_3
_geom_torsion_atom_site_label_4
_geom_torsion
_geom_torsion_site_symmetry_1
_geom_torsion_site_symmetry_4
C12 C11 N14 Fe3 -176.4(5) . .
C12 C11 N14 C11 0.7(9) . 51
C12 C11 C28 C7 -1.6(7) . .
C12 C11 C28 C11 178.4(7) . 46
C13 C19 C1 O1 -13.2(7) . .
C13 C19 C1 O1 166.8(7) . 46
C13 C19 C1 O1 166.8(7) 46 .
C13 C19 C1 O1 -13.2(7) 46 46
C13 C19 C1 O20 -169.5(4) 46 .
C13 C19 C1 O20 -169.5(4) . 46
C13 C19 C1 O20 10.5(4) . .
C13 C19 C1 O20 10.5(4) 46 46
N14 C11 C12 C12 -0.4(6) . 51
N14 C11 C28 C7 177.9(5) . .
N14 C11 C28 C11 -2.1(5) . 46
C19 C13 C23 C7 0.1(6) . .
C19 C1 O1 Zr2 177.8(6) . .
C19 C1 O1 O1 -179.994(3) . 46
C19 C1 O20 Zr1 -178.1(4) . .
C23 C7 C23 C13 -0.1(3) 46 .
C23 C7 C28 C11 105.8(4) . .
C23 C7 C28 C11 -74.2(4) . 46
C23 C7 C28 C11 -74.2(4) 46 .
C23 C7 C28 C11 105.8(4) 46 46
C23 C13 C19 C13 -0.1(3) . 46
C23 C13 C19 C1 179.9(3) . .
C28 C7 C23 C13 179.9(3) . .
C28 C11 C12 C12 179.2(4) . 51
C28 C11 N14 Fe3 4.0(10) . .
C28 C11 N14 C11 -178.9(2) . 51
O1 C1 O1 Zr2 -2.2(6) 46 .
O1 C1 O20 Zr1 -42.4(12) . .
O1 C1 O20 Zr1 24.0(11) 46 .
O20 C1 O1 Zr2 -28.6(14) 46 .
O20 C1 O1 Zr2 122(2) . .
O20 C1 O1 O1 124.6(18) . 46
O20 C1 O1 O1 -26.4(8) 46 46
O20 C1 O20 Zr1 1.9(4) 46 .
#BEGIN Loops that were not found in dictionaries:
loop_
_smtbx_masks_void_nr
_smtbx_masks_void_average_x
_smtbx_masks_void_average_y
_smtbx_masks_void_average_z
_smtbx_masks_void_volume
_smtbx_masks_void_count_electrons
1 -0.021 -0.157 -0.582 45004.5 5148.0
#END Loops that were not found in dictionaries
