#------------------------------------------------------------------------------
#$Date: 2016-02-16 22:30:59 +0200 (Tue, 16 Feb 2016) $
#$Revision: 176467 $
#$URL: svn://www.crystallography.net/cod/cif/4/12/24/4122443.cif $
#------------------------------------------------------------------------------
#
# This file is available in the Crystallography Open Database (COD),
# http://www.crystallography.net/
#
# All data on this site have been placed in the public domain by the
# contributors.
#
data_4122443
loop_
_publ_author_name
'Kapelewski, Matthew T.'
'Geier, Stephen J.'
'Hudson, Matthew R.'
'St\"uck, David'
'Mason, Jarad A.'
'Nelson, Jocienne N.'
'Xiao, Dianne J.'
'Hulvey, Zeric'
'Gilmour, Elizabeth'
'FitzGerald, Stephen A.'
'Head-Gordon, Martin'
'Brown, Craig M.'
'Long, Jeffrey R.'
_publ_section_title
;
 M2(m-dobdc) (M = Mg, Mn, Fe, Co, Ni) Metal-Organic Frameworks Exhibiting
 Increased Charge Density and Enhanced H2 Binding at the Open Metal Sites.
;
_journal_issue                   34
_journal_name_full               'Journal of the American Chemical Society'
_journal_page_first              12119
_journal_paper_doi               10.1021/ja506230r
_journal_volume                  136
_journal_year                    2014
_chemical_formula_sum            'C4 H Co D4.92 O3'
_chemical_formula_weight         165.88
_chemical_name_systematic        ' ?'
_space_group_IT_number           148
_symmetry_cell_setting           trigonal
_symmetry_space_group_name_Hall  '-R 3'
_symmetry_space_group_name_H-M   'R -3 :H'
_audit_creation_date             2013-06-25T17:10
_audit_creation_method           'from EXP file using GSAS2CIF'
_audit_update_record
' 2013-06-25T17:10  Initial CIF as created by GSAS2CIF'
_cell_angle_alpha                90.0
_cell_angle_beta                 90.0
_cell_angle_gamma                120.0
_cell_formula_units_Z            18
_cell_length_a                   25.8781(10)
_cell_length_b                   25.8781
_cell_length_c                   6.88197(33)
_cell_volume                     3991.2(2)
_computing_structure_refinement  GSAS
_diffrn_radiation_probe          neutron
_diffrn_radiation_wavelength     2.078
_exptl_absorpt_correction_T_max  1.00000
_exptl_absorpt_correction_T_min  1.00000
_exptl_absorpt_process_details
;   GSAS Absorption/surface roughness correction: function number 0
 No correction is applied.
;
_pd_block_id                     2013-06-25T17:10|CO_2P25_D2_R||BT1
_pd_calc_method                  'Rietveld Refinement'
_pd_instr_location               ' ?'
_pd_meas_2theta_range_inc        0.05
_pd_meas_2theta_range_max        166.25
_pd_meas_2theta_range_min        1.5
_pd_meas_number_of_points        3296
_pd_phase_name                   'Co_dobdc 2.25 D2 per Co'
_pd_proc_2theta_range_inc        0.05
_pd_proc_2theta_range_max        166.2865
_pd_proc_2theta_range_min        1.5365
_pd_proc_info_datetime           2013-06-25T17:10:30
_pd_proc_info_excluded_regions   ' ?'
_pd_proc_ls_background_function
;   GSAS Background function number 1 with 12 terms.
 Shifted Chebyshev function of 1st kind
      1:    1650.33     2:   -231.025     3:    243.043     4:    101.630    
      5:    110.188     6:    56.3571     7:    56.8582     8:    35.1794    
      9:    26.7683    10:    14.9044    11:    1.78532    12:    1.68151    
;
_pd_proc_ls_peak_cutoff          0.00010
_pd_proc_ls_profile_function
;
 CW Profile function number 3 with  19 terms
 Pseudovoigt profile coefficients as parameterized in
 P. Thompson, D.E. Cox & J.B. Hastings (1987). J. Appl. Cryst.,20,79-83.
 Asymmetry correction of L.W. Finger, D.E. Cox & A. P. Jephcoat (1994).
 J. Appl. Cryst.,27,892-900.
 Peak tails are ignored  where the intensity is below 0.0001 times the peak
   Aniso. broadening axis   0.0   0.0   1.0
;
_pd_proc_ls_prof_R_factor        0.0234
_pd_proc_ls_prof_wR_expected     0.0235
_pd_proc_ls_prof_wR_factor       0.0281
_pd_proc_number_of_points        3296
_pd_spec_mounting                ' ?'
_refine_ls_goodness_of_fit_all   1.21
_refine_ls_matrix_type           full
_refine_ls_number_parameters     67
_refine_ls_number_restraints     1
_refine_ls_R_Fsqd_factor         0.07748
_refine_ls_shift/su_max          5.70
_refine_ls_shift/su_mean         1.18
_reflns_d_resolution_high        1.053
_reflns_d_resolution_low         12.939
_reflns_limit_h_max              24
_reflns_limit_h_min              0
_reflns_limit_k_max              12
_reflns_limit_k_min              -11
_reflns_limit_l_max              6
_reflns_limit_l_min              -6
_reflns_number_total             803
_cod_data_source_file            CO_regular_2P25_D2_R.cif
_cod_data_source_block           CO_2P25_D2_R_publ
_cod_depositor_comments
;
The following automatic conversions were performed:

'_geom_bond_publ_flag' value 'N' changed to 'n' according to
/usr/data/users/saulius/crontab/automatic-downloads/rss-feeds/ACS/lib/dictionaries/cif_core.dic
dictionary named 'cif_core.dic' version 2.4.2 from 2011-04-26 (68
times).

'_geom_angle_publ_flag' value 'N' changed to 'n' according
to
/usr/data/users/saulius/crontab/automatic-downloads/rss-feeds/ACS/lib/dictionaries/cif_core.dic
dictionary named 'cif_core.dic' version 2.4.2 from 2011-04-26 (47
times).

Automatic conversion script
Id: cif_fix_values 2281 2013-09-26 08:29:07Z andrius 

 Adding full bibliography for 4122440--4122455.cif.
;
_cod_original_cell_volume        3991.26(28)
_cod_original_sg_symbol_H-M      'R -3'
_cod_original_formula_sum        'C4 H D4.92 Co O3'
_cod_database_code               4122443
#BEGIN Tags that were not found in dictionaries:
_gsas_exptl_extinct_corr_t_min   1.00000
_gsas_exptl_extinct_corr_t_max   1.00000
#END Tags that were not found in dictionaries
loop_
_symmetry_equiv_pos_site_id
_symmetry_equiv_pos_as_xyz
1 +x,+y,+z
2 -y,x-y,+z
3 y-x,-x,+z
-1 -x,-y,-z
-2 +y,y-x,-z
-3 x-y,+x,-z
101 +x+1/3,+y+2/3,+z+2/3
102 -y+1/3,x-y+2/3,+z+2/3
103 y-x+1/3,-x+2/3,+z+2/3
-101 -x+2/3,-y+1/3,-z+1/3
-102 +y+2/3,y-x+1/3,-z+1/3
-103 x-y+2/3,+x+1/3,-z+1/3
201 +x+2/3,+y+1/3,+z+1/3
202 -y+2/3,x-y+1/3,+z+1/3
203 y-x+2/3,-x+1/3,+z+1/3
-201 -x+1/3,-y+2/3,-z+2/3
-202 +y+1/3,y-x+2/3,-z+2/3
-203 x-y+1/3,+x+2/3,-z+2/3
loop_
_atom_site_type_symbol
_atom_site_label
_atom_site_fract_x
_atom_site_fract_y
_atom_site_fract_z
_atom_site_occupancy
_atom_site_thermal_displace_type
_atom_site_U_iso_or_equiv
_atom_site_symmetry_multiplicity
Co Co 0.3814(12) 0.3505(12) 0.132(4) 1.0 Uiso 0.004(7) 18
O O1 0.3246(6) 0.2940(6) 0.3646(19) 1.0 Uiso 0.009(4) 18
O O2 0.3006(6) 0.2281(6) 0.5986(17) 1.0 Uiso 0.0087(31) 18
O O3 0.3570(6) 0.2745(7) -0.0028(23) 1.0 Uiso 0.012(4) 18
C C1 0.3143(6) 0.2450(6) 0.4264(14) 1.0 Uiso 0.0133(31) 18
C C2 0.3296(5) 0.2087(5) 0.2869(17) 1.0 Uiso 0.0103(29) 18
C C3 0.3463(5) 0.2251(6) 0.0882(16) 1.0 Uiso 0.018(4) 18
C C4 0.3501(5) 0.1811(6) -0.0292(15) 1.0 Uiso 0.008(4) 18
H H 0.3633(8) 0.1945(7) -0.166(4) 1.0 Uiso 0.010(6) 18
D D1 0.4642(5) 0.3493(4) 0.2501(15) 1.595(31) Uiso 0.065(4) 18
D D2 0.4587(5) 0.2999(4) 0.6734(18) 1.92(5) Uiso 0.130(7) 18
D D3 0.2400(8) 0.4877(7) 0.8515(27) 1.397(33) Uiso 0.152(10) 18
loop_
_atom_type_symbol
_atom_type_number_in_cell
_atom_type_scat_length_neutron
_atom_type_scat_source
Co 18.0 0.2490 International_Tables_Vol_C
O 54.0 0.5803 International_Tables_Vol_C
C 72.0 0.6646 International_Tables_Vol_C
H 18.0 -0.3739 International_Tables_Vol_C
D 88.478 0.6671 International_Tables_Vol_C
loop_
_geom_angle_atom_site_label_1
_geom_angle_atom_site_label_2
_geom_angle_atom_site_label_3
_geom_angle
_geom_angle_site_symmetry_1
_geom_angle_site_symmetry_3
_geom_angle_publ_flag
Co Co Co 113.1(11) 103_554 202_555 n
Co Co O1 98.3(12) 103_554 1_555 n
Co Co O1 47.0(8) 103_554 103_554 n
Co Co O2 85.9(8) 103_554 202_554 n
Co Co O3 44.3(10) 103_554 1_555 n
Co Co O3 138.0(16) 103_554 202_555 n
Co Co D1 130.1(17) 103_554 1_555 n
Co Co O1 43.8(5) 202_555 1_555 n
Co Co O1 71.3(13) 202_555 103_554 n
Co Co O2 134.8(19) 202_555 202_554 n
Co Co O3 124.3(14) 202_555 1_555 n
Co Co O3 41.4(11) 202_555 202_555 n
Co Co D1 108.4(9) 202_555 1_555 n
O1 Co O1 82.8(10) 1_555 103_554 n
O1 Co O2 175.7(15) 1_555 202_554 n
O1 Co O3 84.4(11) 1_555 1_555 n
O1 Co O3 80.4(12) 1_555 202_555 n
O1 Co D1 92.8(11) 1_555 1_555 n
O1 Co O2 100.6(14) 103_554 202_554 n
O1 Co O3 86.0(11) 103_554 1_555 n
O1 Co O3 91.7(13) 103_554 202_555 n
O1 Co D1 173.9(14) 103_554 1_555 n
O2 Co O3 98.4(15) 202_554 1_555 n
O2 Co O3 96.8(13) 202_554 202_555 n
O2 Co D1 83.9(11) 202_554 1_555 n
O3 Co O3 164.8(18) 1_555 202_555 n
O3 Co D1 89.3(14) 1_555 1_555 n
O3 Co D1 91.8(11) 202_555 1_555 n
Co O1 Co 89.3(6) 1_555 202_555 n
Co O1 C1 132.3(14) 1_555 1_555 n
Co O1 C1 136.8(13) 202_555 1_555 n
Co O2 C1 119.6(13) 103_555 1_555 n
Co O3 Co 94.3(14) 1_555 103_554 n
Co O3 C3 123.4(15) 1_555 1_555 n
Co O3 C3 127.8(13) 103_554 1_555 n
O1 C1 O2 124.4(13) 1_555 1_555 n
O1 C1 C2 115.2(10) 1_555 1_555 n
O2 C1 C2 119.7(11) 1_555 1_555 n
C1 C2 C3 123.5(10) 1_555 1_555 n
C1 C2 C4 113.6(10) 1_555 -201_555 n
C3 C2 C4 122.2(11) 1_555 -201_555 n
O3 C3 C2 128.6(12) 1_555 1_555 n
O3 C3 C4 115.7(12) 1_555 1_555 n
C2 C3 C4 115.7(12) 1_555 1_555 n
C2 C4 C3 122.1(11) -201_555 1_555 n
C2 C4 H 124.3(14) -201_555 1_555 n
C3 C4 H 113.6(14) 1_555 1_555 n
loop_
_geom_bond_atom_site_label_1
_geom_bond_atom_site_label_2
_geom_bond_distance
_geom_bond_site_symmetry_2
_geom_bond_publ_flag
Co Co 2.974(30) 103_554 n
Co Co 2.974(30) 202_555 n
Co O1 2.173(31) 1_555 n
Co O1 2.058(29) 103_554 n
Co O1 3.026(32) 202_554 n
Co O2 2.002(30) 202_554 n
Co O3 1.971(32) 1_555 n
Co O3 2.084(32) 202_555 n
Co C1 3.138(31) 1_555 n
Co C1 3.074(31) 103_554 n
Co C1 2.837(33) 202_554 n
Co C2 3.389(31) 1_555 n
Co C3 2.916(31) 1_555 n
Co C3 3.077(34) 202_555 n
Co D1 2.307(29) 1_555 n
O1 Co 2.173(31) 1_555 n
O1 Co 3.026(32) 103_555 n
O1 Co 2.058(29) 202_555 n
O1 O2 2.197(17) 1_555 n
O1 C1 1.232(16) 1_555 n
O1 C2 2.335(19) 1_555 n
O2 Co 2.002(30) 103_555 n
O2 O1 2.197(17) 1_555 n
O2 C1 1.252(12) 1_555 n
O2 C2 2.407(18) 1_555 n
O3 Co 1.971(32) 1_555 n
O3 Co 2.084(32) 103_554 n
O3 C2 2.483(19) 1_555 n
O3 C3 1.323(18) 1_555 n
O3 C4 2.338(21) 1_555 n
C1 Co 3.138(31) 1_555 n
C1 Co 2.837(33) 103_555 n
C1 Co 3.074(31) 202_555 n
C1 O1 1.232(16) 1_555 n
C1 O2 1.252(12) 1_555 n
C1 C2 1.528(15) 1_555 n
C1 C3 2.607(15) 1_555 n
C1 C4 2.471(17) -201_444 n
C2 Co 3.389(31) 1_555 n
C2 O1 2.335(19) 1_555 n
C2 O2 2.407(18) 1_555 n
C2 O3 2.483(19) 1_555 n
C2 C1 1.528(15) 1_555 n
C2 C3 1.432(14) 1_555 n
C2 C3 2.504(16) -201_444 n
C2 C4 2.429(14) 1_555 n
C2 C4 1.425(16) -201_444 n
C2 H 2.153(23) -201_444 n
C3 Co 2.916(31) 1_555 n
C3 Co 3.077(34) 103_554 n
C3 O3 1.323(18) 1_555 n
C3 C1 2.607(15) 1_555 n
C3 C2 1.432(14) 1_555 n
C3 C2 2.504(16) -201_444 n
C3 C4 1.437(15) 1_555 n
C3 C4 2.502(15) -201_444 n
C3 H 2.053(25) 1_555 n
C4 O3 2.338(21) 1_555 n
C4 C1 2.471(17) -201_444 n
C4 C2 2.429(14) 1_555 n
C4 C2 1.425(16) -201_444 n
C4 C3 1.437(15) 1_555 n
C4 C3 2.502(15) -201_444 n
C4 H 1.000(30) 1_555 n
H C2 2.153(23) -201_444 n
H C3 2.053(25) 1_555 n
H C4 1.000(30) 1_555 n
D1 Co 2.307(29) 1_555 n
loop_
_pd_meas_intensity_total
_pd_proc_ls_weight
_pd_proc_intensity_bkg_calc
_pd_calc_intensity_total
6000(170) 0.0 2176. .
5600(160) 0.0 2176. .
4590(150) 0.0 2176. .
4290(140) 0.0 2176. .
3850(140) 0.0 2175. .
3610(130) 0.0 2175. .
3240(120) 0.0 2175. .
2900(120) 0.0 2175. .
2590(110) 0.0 2174. .
2640(110) 0.0 2174. .
2580(110) 0.0 2174. .
2740(120) 0.0 2174. .
2630(110) 0.0 2173. .
2570(110) 0.0 2173. .
2370(110) 0.0 2173. .
2530(110) 0.0 2172. .
2640(110) 0.0 2172. .
2360(110) 0.0 2172. .
2620(110) 0.0 2171. .
2570(110) 0.0 2171. .
2560(110) 0.0 2171. .
2510(110) 0.0 2170. .
2530(110) 0.0 2170. .
2480(110) 0.0 2169. .
2700(110) 0.0 2169. .
2680(110) 0.0 2168. .
2610(110) 0.0 2168. .
2770(120) 0.0 2167. .
2610(110) 0.0 2167. .
2630(110) 0.0 2166. .
2580(110) 0.0 2166. .
2590(110) 0.0 2165. .
2700(110) 0.0 2165. .
2660(110) 0.0 2164. .
2490(110) 0.0 2164. .
2400(110) 0.0 2163. .
2490(110) 0.0 2163. .
2570(110) 0.0 2162. .
2290(110) 0.0 2162. .
2460(110) 0.0 2161. .
2660(110) 0.0 2160. .
2620(110) 0.0 2160. .
2410(110) 0.0 2159. .
2380(110) 0.0 2159. .
2350(110) 0.0 2158. .
2560(110) 0.0 2157. .
2460(110) 0.0 2157. .
2410(110) 0.0 2156. .
2400(110) 0.0 2155. .
2430(110) 0.0 2155. .
2340(110) 0.0 2154. .
2580(110) 0.0 2153. .
2530(110) 0.0 2153. .
2430(110) 0.0 2152. .
2530(110) 0.0 2151. .
2290(110) 0.0 2151. .
2390(110) 0.0 2150. .
2280(110) 0.0 2149. .
2400(110) 0.0 2148. .
2310(110) 0.0 2148. .
2370(110) 0.0 2147. .
2420(110) 0.0 2146. .
2430(110) 0.0 2145. .
2360(110) 0.0 2145. .
2200(100) 0.0 2144. .
2260(110) 0.0 2143. .
2320(110) 0.0 2142. .
2170(100) 0.0 2142. .
2260(110) 0.0 2141. .
2240(110) 0.0 2140. .
2320(110) 0.0 2139. .
2230(110) 0.0 2138. .
2320(110) 0.0 2138. .
2090(100) 0.0 2137. .
2020(100) 0.0 2136. .
2100(100) 0.0 2135. .
2380(110) 0.0 2134. .
2300(110) 0.0 2133. .
2140(100) 0.0 2133. .
2210(100) 0.0 2132. .
2230(110) 0.0 2131. .
1953(98) 0.0 2130. .
2260(110) 0.0 2129. .
2280(110) 0.0 2128. .
2390(110) 0.0 2127. .
2110(100) 0.0 2127. .
2260(110) 0.0 2126. .
1868(97) 0.0 2125. .
2130(100) 0.0 2124. .
2360(110) 0.0 2123. .
2150(100) 0.0 2122. .
2340(110) 0.0 2121. .
2100(100) 0.0 2120. .
2110(100) 0.0 2119. .
2190(100) 0.0 2119. .
2360(110) 0.0 2118. .
2180(100) 0.0 2117. .
2320(110) 0.0 2116. .
2090(100) 0.0 2115. .
2210(100) 0.0 2114. .
2306(72) 0.0 2113. .
2258(72) 0.0 2112. .
2183(71) 0.0 2111. .
2233(71) 0.0001984 2110. 2119.
2257(72) 0.0001929 2109. 2119.
2288(72) 0.0001929 2108. 2118.
2264(72) 0.0001929 2107. 2118.
2109(69) 0.0002100 2106. 2117.
2194(71) 0.0001984 2106. 2117.
2243(71) 0.0001984 2105. 2116.
1977(67) 0.0002228 2104. 2116.
2052(68) 0.0002163 2103. 2115.
2146(70) 0.0002041 2102. 2115.
2157(70) 0.0002041 2101. 2115.
2157(70) 0.0002041 2100. 2114.
2159(70) 0.0002041 2099. 2114.
2166(70) 0.0002041 2098. 2114.
2212(71) 0.0001984 2097. 2114.
2158(70) 0.0002041 2096. 2114.
2145(70) 0.0002041 2095. 2114.
2102(69) 0.0002100 2094. 2114.
2060(69) 0.0002100 2093. 2115.
2144(70) 0.0002041 2092. 2115.
2001(68) 0.0002163 2091. 2116.
2040(68) 0.0002163 2090. 2117.
2060(69) 0.0002100 2089. 2118.
2028(68) 0.0002163 2088. 2119.
2037(68) 0.0002163 2087. 2121.
2159(70) 0.0002041 2086. 2123.
2180(70) 0.0002041 2085. 2125.
2209(71) 0.0001984 2084. 2128.
2060(69) 0.0002100 2083. 2132.
2155(70) 0.0002041 2082. 2136.
2137(70) 0.0002041 2081. 2141.
2161(70) 0.0002041 2080. 2147.
2217(71) 0.0001984 2080. 2155.
2199(71) 0.0001984 2079. 2165.
2302(72) 0.0001929 2078. 2178.
2239(71) 0.0001984 2077. 2198.
2167(70) 0.0002041 2076. 2233.
2514(75) 0.0001778 2075. 2303.
2602(77) 0.0001687 2074. 2443.
2939(81) 0.0001524 2073. 2705.
3315(86) 0.0001352 2072. 3142.
3853(93) 0.0001156 2071. 3795.
4431(99) 0.0001020 2070. 4697.
5390(110) 0.0000842 2069. 5894.
6820(120) 0.0000672 2068. 7494.
9370(140) 0.0000489 2067. 9701.
12400(160) 0.0000372 2066. 12778.
16600(190) 0.0000277 2065. 16801.
20510(210) 0.0000225 2064. 21165.
23080(220) 0.0000199 2063. 24302.
23540(230) 0.0000196 2062. 24295.
19610(210) 0.0000236 2061. 20486.
14110(180) 0.0000327 2060. 14564.
8620(140) 0.0000533 2059. 9059.
5420(110) 0.0000842 2058. 5367.
3427(87) 0.0001321 2057. 3470.
2444(74) 0.0001826 2056. 2689.
2152(70) 0.0002041 2055. 2409.
2091(69) 0.0002100 2054. 2302.
2091(69) 0.0002100 2053. 2248.
1987(67) 0.0002228 2052. 2213.
1948(67) 0.0002228 2051. 2186.
1970(67) 0.0002228 2050. 2165.
2038(68) 0.0002163 2049. 2148.
1953(67) 0.0002228 2048. 2135.
2066(69) 0.0002100 2047. 2123.
2027(68) 0.0002163 2046. 2114.
2070(69) 0.0002100 2045. 2105.
2125(70) 0.0002041 2044. 2098.
2098(69) 0.0002100 2043. 2092.
2070(69) 0.0002100 2042. 2086.
1958(67) 0.0002228 2041. 2081.
2018(68) 0.0002163 2040. 2077.
1933(67) 0.0002228 2039. 2073.
2023(68) 0.0002163 2038. 2069.
1949(67) 0.0002228 2037. 2066.
1978(67) 0.0002228 2036. 2063.
1972(67) 0.0002228 2035. 2060.
1998(68) 0.0002163 2035. 2057.
1972(67) 0.0002228 2034. 2055.
2032(68) 0.0002163 2033. 2053.
2026(68) 0.0002163 2032. 2050.
2081(69) 0.0002100 2031. 2048.
2074(69) 0.0002100 2030. 2046.
2177(70) 0.0002041 2029. 2044.
2086(69) 0.0002100 2028. 2042.
2020(68) 0.0002163 2027. 2041.
2039(68) 0.0002163 2026. 2039.
2002(68) 0.0002163 2025. 2037.
2007(68) 0.0002163 2024. 2036.
2013(68) 0.0002163 2023. 2034.
2084(69) 0.0002100 2022. 2033.
2060(69) 0.0002100 2021. 2031.
2145(96) 0.0001085 2020. 2030.
2067(94) 0.0001132 2019. 2028.
1954(91) 0.0001208 2018. 2027.
1999(92) 0.0001181 2017. 2026.
2043(67) 0.0002228 2016. 2024.
2027(67) 0.0002228 2016. 2023.
2073(68) 0.0002163 2015. 2022.
1989(67) 0.0002228 2014. 2021.
2046(67) 0.0002228 2013. 2020.
2067(68) 0.0002163 2012. 2018.
2105(68) 0.0002163 2011. 2017.
2032(67) 0.0002228 2010. 2016.
1960(66) 0.0002296 2009. 2015.
2016(67) 0.0002228 2008. 2014.
2014(67) 0.0002228 2007. 2013.
1942(66) 0.0002296 2006. 2011.
2077(68) 0.0002163 2005. 2010.
2103(68) 0.0002163 2004. 2009.
2099(68) 0.0002163 2004. 2008.
2153(69) 0.0002100 2003. 2007.
2008(67) 0.0002228 2002. 2006.
2024(67) 0.0002228 2001. 2005.
1960(66) 0.0002296 2000. 2004.
2062(68) 0.0002163 1999. 2003.
2001(67) 0.0002228 1998. 2002.
2006(67) 0.0002228 1997. 2001.
2047(67) 0.0002228 1996. 2000.
2007(67) 0.0002228 1995. 1999.
1936(66) 0.0002296 1994. 1998.
1937(66) 0.0002296 1994. 1997.
2041(67) 0.0002228 1993. 1996.
1965(66) 0.0002296 1992. 1995.
2062(68) 0.0002163 1991. 1994.
2008(67) 0.0002228 1990. 1993.
1994(67) 0.0002228 1989. 1992.
2065(68) 0.0002163 1988. 1991.
2194(70) 0.0002041 1987. 1990.
2120(69) 0.0002100 1987. 1989.
2046(67) 0.0002228 1986. 1988.
2009(67) 0.0002228 1985. 1987.
2064(68) 0.0002163 1984. 1986.
1959(66) 0.0002296 1983. 1986.
2018(67) 0.0002228 1982. 1985.
2050(68) 0.0002163 1981. 1984.
1959(66) 0.0002296 1980. 1983.
2006(67) 0.0002228 1980. 1982.
1957(66) 0.0002296 1979. 1981.
2027(67) 0.0002228 1978. 1980.
2016(67) 0.0002228 1977. 1979.
1941(66) 0.0002296 1976. 1978.
2026(67) 0.0002228 1975. 1977.
1977(66) 0.0002296 1975. 1977.
1987(67) 0.0002228 1974. 1976.
2026(67) 0.0002228 1973. 1975.
1956(66) 0.0002296 1972. 1974.
2011(67) 0.0002228 1971. 1973.
2051(68) 0.0002163 1970. 1972.
1961(66) 0.0002296 1970. 1972.
2046(67) 0.0002228 1969. 1971.
1984(66) 0.0002296 1968. 1970.
2005(67) 0.0002228 1967. 1969.
2011(67) 0.0002228 1966. 1968.
1980(66) 0.0002296 1965. 1967.
2002(67) 0.0002228 1965. 1967.
1926(66) 0.0002296 1964. 1966.
1955(66) 0.0002296 1963. 1965.
1958(66) 0.0002296 1962. 1964.
1883(65) 0.0002367 1961. 1963.
1987(67) 0.0002228 1961. 1963.
1951(66) 0.0002296 1960. 1962.
2060(68) 0.0002163 1959. 1961.
1988(67) 0.0002228 1958. 1960.
1908(65) 0.0002367 1957. 1960.
1961(66) 0.0002296 1957. 1959.
1960(66) 0.0002296 1956. 1958.
1860(64) 0.0002441 1955. 1957.
1977(66) 0.0002296 1954. 1957.
2013(67) 0.0002228 1953. 1956.
1985(66) 0.0002296 1953. 1956.
1994(67) 0.0002228 1952. 1955.
2043(67) 0.0002228 1951. 1954.
1901(65) 0.0002367 1950. 1954.
1940(66) 0.0002296 1949. 1954.
1958(66) 0.0002296 1949. 1954.
1965(66) 0.0002296 1948. 1955.
2048(68) 0.0002163 1947. 1958.
2020(67) 0.0002228 1946. 1964.
2098(68) 0.0002163 1946. 1978.
2090(68) 0.0002163 1945. 2001.
2265(71) 0.0001984 1944. 2037.
2312(72) 0.0001929 1943. 2085.
2466(74) 0.0001826 1943. 2132.
2477(74) 0.0001826 1942. 2159.
2420(73) 0.0001877 1941. 2148.
2273(71) 0.0001984 1940. 2100.
2178(70) 0.0002041 1940. 2042.
2125(69) 0.0002100 1939. 1994.
2035(67) 0.0002228 1938. 1965.
1991(67) 0.0002228 1937. 1951.
1935(66) 0.0002296 1937. 1945.
1991(96) 0.0001085 1936. 1942.
1994(65) 0.0002367 1935. 1940.
1915(64) 0.0002441 1935. 1939.
1866(63) 0.0002520 1934. 1938.
1942(64) 0.0002441 1933. 1937.
1946(64) 0.0002441 1932. 1936.
1903(64) 0.0002441 1932. 1935.
1896(64) 0.0002441 1931. 1935.
1985(65) 0.0002367 1930. 1934.
1843(63) 0.0002520 1930. 1933.
2051(66) 0.0002296 1929. 1932.
2008(65) 0.0002367 1928. 1932.
1943(64) 0.0002441 1927. 1931.
1925(64) 0.0002441 1927. 1931.
1902(64) 0.0002441 1926. 1930.
1936(64) 0.0002441 1925. 1929.
2006(65) 0.0002367 1925. 1929.
1995(65) 0.0002367 1924. 1929.
2017(66) 0.0002296 1923. 1928.
2006(65) 0.0002367 1923. 1928.
1903(64) 0.0002441 1922. 1928.
1978(65) 0.0002367 1921. 1927.
1908(64) 0.0002441 1921. 1927.
1904(64) 0.0002441 1920. 1928.
1837(63) 0.0002520 1919. 1928.
1933(64) 0.0002441 1919. 1929.
1991(65) 0.0002367 1918. 1930.
1980(65) 0.0002367 1917. 1932.
1950(64) 0.0002441 1917. 1937.
1954(65) 0.0002367 1916. 1948.
1912(64) 0.0002441 1915. 1973.
1875(63) 0.0002520 1915. 2022.
1921(64) 0.0002441 1914. 2110.
2125(67) 0.0002228 1913. 2247.
2277(70) 0.0002041 1913. 2417.
2310(70) 0.0002041 1912. 2572.
2311(70) 0.0002041 1911. 2637.
2290(70) 0.0002041 1911. 2564.
2141(67) 0.0002228 1910. 2390.
2111(67) 0.0002228 1909. 2207.
2024(66) 0.0002296 1909. 2074.
1956(65) 0.0002367 1908. 2002.
2016(66) 0.0002296 1907. 1970.
1916(64) 0.0002441 1907. 1953.
1817(62) 0.0002601 1906. 1941.
1924(64) 0.0002441 1906. 1931.
1927(64) 0.0002441 1905. 1923.
2005(65) 0.0002367 1904. 1918.
1931(64) 0.0002441 1904. 1915.
1949(64) 0.0002441 1903. 1913.
1952(64) 0.0002441 1902. 1912.
1855(63) 0.0002520 1902. 1911.
1957(65) 0.0002367 1901. 1910.
2019(66) 0.0002296 1901. 1909.
1892(64) 0.0002441 1900. 1909.
1917(64) 0.0002441 1899. 1908.
1967(65) 0.0002367 1899. 1908.
1877(63) 0.0002520 1898. 1907.
2030(66) 0.0002296 1898. 1907.
1980(65) 0.0002367 1897. 1907.
1878(63) 0.0002520 1896. 1907.
1874(63) 0.0002520 1896. 1907.
1923(64) 0.0002441 1895. 1907.
1872(63) 0.0002520 1895. 1908.
1916(64) 0.0002441 1894. 1908.
1992(65) 0.0002367 1894. 1909.
1805(62) 0.0002601 1893. 1911.
1836(63) 0.0002520 1892. 1912.
1993(65) 0.0002367 1892. 1915.
1891(64) 0.0002441 1891. 1918.
1881(63) 0.0002520 1891. 1922.
1883(63) 0.0002520 1890. 1928.
1911(64) 0.0002441 1889. 1938.
1917(64) 0.0002441 1889. 1957.
1892(64) 0.0002441 1888. 1997.
2002(65) 0.0002367 1888. 2084.
2302(70) 0.0002041 1887. 2264.
2627(75) 0.0001778 1887. 2590.
3093(81) 0.0001524 1886. 3082.
3751(89) 0.0001262 1886. 3670.
4259(94) 0.0001132 1885. 4153.
4279(95) 0.0001108 1884. 4274.
3830(90) 0.0001235 1884. 3922.
3182(82) 0.0001487 1883. 3299.
2547(73) 0.0001877 1883. 2706.
2187(68) 0.0002163 1882. 2300.
2045(66) 0.0002296 1882. 2083.
1902(64) 0.0002441 1881. 1987.
1887(63) 0.0002520 1881. 1947.
1940(64) 0.0002441 1880. 1929.
1877(63) 0.0002520 1880. 1919.
1852(63) 0.0002520 1879. 1912.
1936(64) 0.0002441 1878. 1906.
1878(63) 0.0002520 1878. 1902.
1880(63) 0.0002520 1877. 1898.
1791(62) 0.0002601 1877. 1895.
1869(63) 0.0002520 1876. 1893.
1827(62) 0.0002601 1876. 1891.
1852(63) 0.0002520 1875. 1889.
1836(63) 0.0002520 1875. 1888.
1817(59) 0.0002873 1874. 1886.
1900(60) 0.0002778 1874. 1885.
1842(59) 0.0002873 1873. 1884.
1919(61) 0.0002687 1873. 1884.
1987(62) 0.0002601 1872. 1883.
1918(61) 0.0002687 1872. 1882.
1914(61) 0.0002687 1871. 1882.
1914(61) 0.0002687 1871. 1882.
1947(61) 0.0002687 1870. 1882.
1920(61) 0.0002687 1870. 1882.
1860(60) 0.0002778 1869. 1883.
1807(59) 0.0002873 1869. 1884.
1890(60) 0.0002778 1868. 1886.
1850(60) 0.0002778 1868. 1890.
1864(60) 0.0002778 1867. 1898.
1929(61) 0.0002687 1867. 1915.
1916(61) 0.0002687 1866. 1954.
1965(61) 0.0002687 1866. 2031.
2115(64) 0.0002441 1865. 2163.
2420(68) 0.0002163 1865. 2345.
2479(69) 0.0002100 1864. 2531.
2568(70) 0.0002041 1864. 2640.
2528(69) 0.0002100 1863. 2600.
2439(68) 0.0002163 1863. 2428.
2212(65) 0.0002367 1862. 2221.
2014(62) 0.0002601 1862. 2058.
1903(60) 0.0002778 1861. 1959.
1823(59) 0.0002873 1861. 1911.
1878(60) 0.0002778 1861. 1890.
1880(60) 0.0002778 1860. 1881.
1872(60) 0.0002778 1860. 1876.
1806(59) 0.0002873 1859. 1873.
1913(61) 0.0002687 1859. 1870.
1873(60) 0.0002778 1858. 1868.
1912(61) 0.0002687 1858. 1866.
1882(60) 0.0002778 1857. 1865.
1911(61) 0.0002687 1857. 1864.
1945(61) 0.0002687 1856. 1863.
1763(58) 0.0002973 1856. 1862.
1817(59) 0.0002873 1855. 1861.
1848(60) 0.0002778 1855. 1860.
1870(60) 0.0002778 1855. 1859.
1738(58) 0.0002973 1854. 1858.
1837(59) 0.0002873 1854. 1857.
1918(61) 0.0002687 1853. 1857.
1950(61) 0.0002687 1853. 1856.
1825(59) 0.0002873 1852. 1856.
1864(60) 0.0002778 1852. 1855.
1836(59) 0.0002873 1851. 1854.
1825(59) 0.0002873 1851. 1854.
1881(60) 0.0002778 1851. 1853.
1777(58) 0.0002973 1850. 1853.
1785(59) 0.0002873 1850. 1852.
1878(60) 0.0002778 1849. 1852.
1829(59) 0.0002873 1849. 1851.
1818(59) 0.0002873 1848. 1851.
1895(60) 0.0002778 1848. 1851.
1862(60) 0.0002778 1847. 1851.
1838(59) 0.0002873 1847. 1851.
1799(59) 0.0002873 1847. 1852.
1855(60) 0.0002778 1846. 1855.
1757(58) 0.0002973 1846. 1858.
1807(59) 0.0002873 1845. 1862.
1860(60) 0.0002778 1845. 1864.
1921(61) 0.0002687 1845. 1863.
1859(60) 0.0002778 1844. 1858.
1906(60) 0.0002778 1844. 1853.
1924(61) 0.0002687 1843. 1849.
1769(58) 0.0002973 1843. 1847.
1750(58) 0.0002973 1842. 1845.
1804(59) 0.0002873 1842. 1845.
1854(60) 0.0002778 1842. 1844.
1868(60) 0.0002778 1841. 1844.
1859(60) 0.0002778 1841. 1843.
1767(58) 0.0002973 1840. 1843.
1739(58) 0.0002973 1840. 1842.
1777(58) 0.0002973 1840. 1842.
1870(60) 0.0002778 1839. 1842.
1822(59) 0.0002873 1839. 1841.
1866(60) 0.0002778 1838. 1841.
1794(59) 0.0002873 1838. 1841.
1864(60) 0.0002778 1838. 1841.
1855(60) 0.0002778 1837. 1840.
1958(61) 0.0002687 1837. 1841.
1889(60) 0.0002778 1836. 1841.
1848(60) 0.0002778 1836. 1841.
1830(59) 0.0002873 1836. 1841.
1798(59) 0.0002873 1835. 1843.
1854(60) 0.0002778 1835. 1847.
1949(61) 0.0002687 1834. 1856.
1924(61) 0.0002687 1834. 1871.
1974(61) 0.0002687 1834. 1893.
2032(62) 0.0002601 1833. 1916.
2099(63) 0.0002520 1833. 1931.
2011(62) 0.0002601 1832. 1927.
2068(63) 0.0002520 1832. 1907.
1940(61) 0.0002687 1832. 1881.
1859(60) 0.0002778 1831. 1861.
1816(59) 0.0002873 1831. 1848.
1802(59) 0.0002873 1830. 1841.
1905(60) 0.0002778 1830. 1838.
1800(58) 0.0002973 1830. 1837.
1843(59) 0.0002873 1829. 1836.
1804(58) 0.0002973 1829. 1836.
1825(58) 0.0002973 1829. 1835.
1793(58) 0.0002973 1828. 1835.
1839(59) 0.0002873 1828. 1835.
1899(59) 0.0002873 1827. 1835.
1929(60) 0.0002778 1827. 1836.
1766(57) 0.0003078 1827. 1836.
1857(59) 0.0002873 1826. 1836.
1876(59) 0.0002873 1826. 1837.
1899(59) 0.0002873 1826. 1838.
1847(59) 0.0002873 1825. 1839.
1929(60) 0.0002778 1825. 1840.
1864(59) 0.0002873 1824. 1842.
1862(59) 0.0002873 1824. 1844.
1769(57) 0.0003078 1824. 1848.
1799(58) 0.0002973 1823. 1852.
1859(59) 0.0002873 1823. 1861.
1866(59) 0.0002873 1823. 1878.
1834(58) 0.0002973 1822. 1912.
1942(60) 0.0002778 1822. 1978.
2092(62) 0.0002601 1821. 2088.
2326(66) 0.0002296 1821. 2242.
2451(67) 0.0002228 1821. 2415.
2616(70) 0.0002041 1820. 2569.
2722(71) 0.0001984 1820. 2681.
2763(72) 0.0001929 1820. 2778.
2847(73) 0.0001877 1819. 2872.
2795(72) 0.0001929 1819. 2903.
2737(71) 0.0001984 1819. 2787.
2474(68) 0.0002163 1818. 2545.
2259(65) 0.0002367 1818. 2284.
2061(62) 0.0002601 1817. 2083.
1906(60) 0.0002778 1817. 1959.
1837(58) 0.0002973 1817. 1897.
1834(58) 0.0002973 1816. 1868.
1846(59) 0.0002873 1816. 1854.
1862(59) 0.0002873 1816. 1847.
1876(59) 0.0002873 1815. 1842.
1879(59) 0.0002873 1815. 1838.
1747(57) 0.0003078 1815. 1835.
1824(58) 0.0002973 1814. 1833.
1753(57) 0.0003078 1814. 1832.
1753(57) 0.0003078 1814. 1830.
1810(58) 0.0002973 1813. 1830.
1817(58) 0.0002973 1813. 1829.
1840(58) 0.0002973 1813. 1830.
1833(58) 0.0002973 1812. 1831.
1931(60) 0.0002778 1812. 1834.
1867(59) 0.0002873 1812. 1842.
1883(59) 0.0002873 1811. 1859.
1911(60) 0.0002778 1811. 1895.
2005(61) 0.0002687 1810. 1955.
2118(63) 0.0002520 1810. 2035.
2222(64) 0.0002441 1810. 2114.
2256(65) 0.0002367 1809. 2154.
2234(64) 0.0002441 1809. 2126.
2085(62) 0.0002601 1809. 2047.
1960(60) 0.0002778 1808. 1961.
1882(59) 0.0002873 1808. 1895.
1848(59) 0.0002873 1808. 1855.
1850(59) 0.0002873 1807. 1835.
1872(59) 0.0002873 1807. 1826.
1845(59) 0.0002873 1807. 1821.
1817(58) 0.0002973 1806. 1819.
1826(58) 0.0002973 1806. 1817.
1840(58) 0.0002973 1806. 1815.
1830(58) 0.0002973 1805. 1814.
1899(59) 0.0002873 1805. 1813.
1929(60) 0.0002778 1805. 1812.
1839(58) 0.0002973 1804. 1812.
1851(59) 0.0002873 1804. 1811.
1849(59) 0.0002873 1804. 1810.
1822(58) 0.0002973 1803. 1810.
1719(57) 0.0003078 1803. 1809.
1762(57) 0.0003078 1803. 1809.
1834(58) 0.0002973 1802. 1808.
1900(59) 0.0002873 1802. 1808.
1956(60) 0.0002778 1802. 1808.
1968(60) 0.0002778 1801. 1807.
1861(59) 0.0002873 1801. 1807.
1786(58) 0.0002973 1801. 1807.
1795(58) 0.0002973 1800. 1806.
1829(58) 0.0002973 1800. 1806.
1808(58) 0.0002973 1800. 1806.
1865(59) 0.0002873 1799. 1805.
1825(58) 0.0002973 1799. 1805.
1782(58) 0.0002973 1799. 1805.
1800(58) 0.0002973 1798. 1805.
1887(59) 0.0002873 1798. 1805.
1816(58) 0.0002973 1798. 1805.
1806(58) 0.0002973 1797. 1804.
1900(59) 0.0002873 1797. 1804.
1830(58) 0.0002973 1797. 1804.
1822(58) 0.0002973 1796. 1804.
1842(59) 0.0002873 1796. 1804.
1768(57) 0.0003078 1796. 1804.
1878(59) 0.0002873 1795. 1804.
1810(56) 0.0003189 1795. 1804.
1814(56) 0.0003189 1795. 1805.
1849(56) 0.0003189 1794. 1805.
1887(57) 0.0003078 1794. 1805.
1905(57) 0.0003078 1794. 1806.
1824(56) 0.0003189 1793. 1806.
1798(56) 0.0003189 1793. 1807.
1810(56) 0.0003189 1793. 1808.
1793(56) 0.0003189 1792. 1809.
1817(56) 0.0003189 1792. 1811.
1803(56) 0.0003189 1792. 1813.
1823(56) 0.0003189 1791. 1817.
1876(57) 0.0003078 1791. 1824.
1805(56) 0.0003189 1791. 1838.
1901(57) 0.0003078 1790. 1865.
1936(58) 0.0002973 1790. 1913.
1992(59) 0.0002873 1790. 1985.
2010(59) 0.0002873 1789. 2071.
2112(60) 0.0002778 1789. 2138.
2074(60) 0.0002778 1789. 2151.
1996(59) 0.0002873 1788. 2098.
1955(58) 0.0002973 1788. 2013.
1873(57) 0.0003078 1788. 1935.
1863(57) 0.0003078 1787. 1881.
1822(56) 0.0003189 1787. 1852.
1818(56) 0.0003189 1787. 1839.
1838(56) 0.0003189 1786. 1835.
1842(56) 0.0003189 1786. 1834.
1815(56) 0.0003189 1786. 1836.
1756(55) 0.0003306 1786. 1840.
1859(57) 0.0003078 1785. 1845.
1841(56) 0.0003189 1785. 1851.
1844(56) 0.0003189 1785. 1860.
1880(57) 0.0003078 1784. 1872.
1827(56) 0.0003189 1784. 1888.
1740(55) 0.0003306 1784. 1915.
1893(57) 0.0003078 1783. 1961.
1931(58) 0.0002973 1783. 2052.
2094(60) 0.0002778 1783. 2224.
2334(63) 0.0002520 1782. 2522.
2895(71) 0.0001984 1782. 2968.
3559(78) 0.0001644 1782. 3534.
4229(85) 0.0001384 1781. 4123.
4568(89) 0.0001262 1781. 4623.
4913(92) 0.0001181 1781. 4996.
5127(94) 0.0001132 1780. 5205.
4888(92) 0.0001181 1780. 5081.
4381(87) 0.0001321 1780. 4518.
3618(79) 0.0001602 1779. 3727.
2946(71) 0.0001984 1779. 3004.
2470(65) 0.0002367 1779. 2489.
2121(60) 0.0002778 1778. 2187.
1954(58) 0.0002973 1778. 2033.
1888(57) 0.0003078 1778. 1961.
1805(56) 0.0003189 1777. 1925.
1873(57) 0.0003078 1777. 1905.
1834(56) 0.0003189 1777. 1893.
1840(56) 0.0003189 1776. 1887.
1806(56) 0.0003189 1776. 1885.
1818(56) 0.0003189 1776. 1887.
1879(57) 0.0003078 1776. 1894.
1811(56) 0.0003189 1775. 1912.
1835(56) 0.0003189 1775. 1951.
2023(59) 0.0002873 1775. 2038.
2216(62) 0.0002601 1774. 2216.
2390(64) 0.0002441 1774. 2539.
2949(71) 0.0001984 1774. 3025.
3643(79) 0.0001602 1773. 3600.
4171(85) 0.0001384 1773. 4060.
4226(85) 0.0001384 1773. 4146.
3804(81) 0.0001524 1772. 3785.
3148(74) 0.0001826 1772. 3205.
2588(67) 0.0002228 1772. 2664.
2240(62) 0.0002601 1771. 2281.
2039(59) 0.0002873 1771. 2058.
1936(58) 0.0002973 1771. 1946.
1806(56) 0.0003189 1770. 1893.
1801(56) 0.0003189 1770. 1866.
1859(57) 0.0003078 1770. 1852.
1868(57) 0.0003078 1769. 1845.
1874(57) 0.0003078 1769. 1845.
1849(56) 0.0003189 1769. 1853.
1886(57) 0.0003078 1768. 1868.
1994(59) 0.0002873 1768. 1884.
1882(57) 0.0003078 1768. 1891.
1823(56) 0.0003189 1767. 1883.
1802(56) 0.0003189 1767. 1862.
1839(56) 0.0003189 1767. 1838.
1881(57) 0.0003078 1767. 1819.
1857(57) 0.0003078 1766. 1806.
1879(57) 0.0003078 1766. 1799.
1887(57) 0.0003078 1766. 1795.
1800(56) 0.0003189 1765. 1792.
1807(56) 0.0003189 1765. 1791.
1804(56) 0.0003189 1765. 1789.
1842(56) 0.0003189 1764. 1789.
1777(55) 0.0003306 1764. 1788.
1752(55) 0.0003306 1764. 1788.
1795(56) 0.0003189 1763. 1787.
1757(55) 0.0003306 1763. 1787.
1810(44) 0.000517 1763. 1788.
1812(52) 0.000370 1762. 1788.
1836(53) 0.000356 1762. 1789.
1794(52) 0.000370 1762. 1790.
1744(51) 0.000384 1761. 1792.
1787(52) 0.000370 1761. 1796.
1847(53) 0.000356 1761. 1801.
1812(52) 0.000370 1760. 1807.
1804(52) 0.000370 1760. 1815.
1813(52) 0.000370 1760. 1822.
1821(52) 0.000370 1759. 1829.
1865(53) 0.000356 1759. 1839.
1824(52) 0.000370 1759. 1857.
1872(53) 0.000356 1758. 1899.
1998(55) 0.0003306 1758. 1986.
2276(58) 0.0002973 1758. 2148.
2464(61) 0.0002687 1757. 2401.
2796(65) 0.0002367 1757. 2719.
3096(68) 0.0002163 1757. 3009.
3084(68) 0.0002163 1756. 3125.
2979(67) 0.0002228 1756. 2987.
2682(63) 0.0002520 1756. 2684.
2374(60) 0.0002778 1756. 2370.
2115(56) 0.0003189 1755. 2129.
2031(55) 0.0003306 1755. 1980.
1844(53) 0.000356 1755. 1903.
1858(53) 0.000356 1754. 1872.
1922(54) 0.0003429 1754. 1868.
1887(53) 0.000356 1754. 1890.
2012(55) 0.0003306 1753. 1948.
2142(57) 0.0003078 1753. 2054.
2294(59) 0.0002873 1753. 2211.
2425(60) 0.0002778 1752. 2390.
2596(62) 0.0002601 1752. 2525.
2547(62) 0.0002601 1752. 2535.
2447(60) 0.0002778 1751. 2409.
2221(58) 0.0002973 1751. 2224.
1981(55) 0.0003306 1751. 2054.
1817(52) 0.000370 1750. 1934.
1863(53) 0.000356 1750. 1862.
1790(52) 0.000370 1750. 1825.
1915(54) 0.0003429 1749. 1806.
1877(53) 0.000356 1749. 1797.
1786(52) 0.000370 1749. 1791.
1806(52) 0.000370 1748. 1786.
1785(52) 0.000370 1748. 1783.
1819(52) 0.000370 1748. 1781.
1897(53) 0.000356 1747. 1779.
1903(53) 0.000356 1747. 1778.
1764(52) 0.000370 1747. 1777.
1759(52) 0.000370 1746. 1776.
1832(53) 0.000356 1746. 1776.
1846(53) 0.000356 1746. 1776.
1860(53) 0.000356 1745. 1776.
1794(52) 0.000370 1745. 1776.
1818(52) 0.000370 1745. 1776.
1779(52) 0.000370 1744. 1777.
1794(52) 0.000370 1744. 1778.
1820(52) 0.000370 1744. 1780.
1806(52) 0.000370 1743. 1782.
1839(53) 0.000356 1743. 1785.
1876(53) 0.000356 1743. 1790.
1854(53) 0.000356 1742. 1798.
1855(53) 0.000356 1742. 1810.
1859(53) 0.000356 1742. 1826.
1893(53) 0.000356 1741. 1842.
1826(52) 0.000370 1741. 1853.
1868(53) 0.000356 1741. 1855.
1889(53) 0.000356 1740. 1852.
1853(53) 0.000356 1740. 1850.
1811(52) 0.000370 1740. 1853.
1786(52) 0.000370 1739. 1864.
1814(52) 0.000370 1739. 1887.
1807(52) 0.000370 1739. 1930.
1791(52) 0.000370 1738. 2018.
2032(55) 0.0003306 1738. 2190.
2333(59) 0.0002873 1738. 2503.
2824(65) 0.0002367 1737. 2989.
3521(72) 0.0001929 1737. 3610.
4193(79) 0.0001602 1737. 4200.
4636(83) 0.0001452 1737. 4466.
4417(81) 0.0001524 1736. 4222.
3841(75) 0.0001778 1736. 3652.
3023(67) 0.0002228 1736. 3052.
2531(61) 0.0002687 1735. 2596.
2244(58) 0.0002973 1735. 2333.
2079(56) 0.0003189 1735. 2256.
2184(57) 0.0003078 1734. 2355.
2474(61) 0.0002687 1734. 2643.
3072(68) 0.0002163 1734. 3130.
3840(75) 0.0001778 1733. 3759.
4484(81) 0.0001524 1733. 4349.
4657(83) 0.0001452 1733. 4594.
4454(81) 0.0001524 1732. 4309.
3860(76) 0.0001731 1732. 3695.
3267(70) 0.0002041 1732. 3053.
2686(63) 0.0002520 1731. 2551.
2182(57) 0.0003078 1731. 2230.
2029(55) 0.0003306 1731. 2054.
1851(53) 0.000356 1730. 1969.
1853(50) 0.000400 1730. 1932.
1802(49) 0.000416 1730. 1916.
1791(49) 0.000416 1729. 1912.
1798(49) 0.000416 1729. 1915.
1852(50) 0.000400 1729. 1928.
1890(50) 0.000400 1728. 1966.
1917(51) 0.000384 1728. 2055.
2069(53) 0.000356 1728. 2232.
2417(57) 0.0003078 1727. 2526.
2922(62) 0.0002601 1727. 2933.
3349(67) 0.0002228 1727. 3370.
3673(70) 0.0002041 1726. 3660.
3669(70) 0.0002041 1726. 3614.
3421(67) 0.0002228 1726. 3267.
2857(62) 0.0002601 1725. 2823.
2431(57) 0.0003078 1725. 2438.
2103(53) 0.000356 1725. 2171.
1852(50) 0.000400 1724. 2019.
1869(50) 0.000400 1724. 1950.
1888(50) 0.000400 1724. 1938.
1937(51) 0.000384 1723. 1974.
1988(52) 0.000370 1723. 2060.
2163(54) 0.0003429 1723. 2194.
2392(56) 0.0003189 1722. 2354.
2522(58) 0.0002973 1722. 2485.
2540(58) 0.0002973 1721. 2514.
2374(56) 0.0003189 1721. 2424.
2388(56) 0.0003189 1721. 2291.
2201(54) 0.0003429 1720. 2194.
2114(53) 0.000356 1720. 2184.
2291(55) 0.0003306 1720. 2282.
2459(57) 0.0003078 1719. 2469.
2806(61) 0.0002687 1719. 2688.
2959(63) 0.0002520 1719. 2832.
2918(62) 0.0002601 1718. 2803.
2811(61) 0.0002687 1718. 2624.
2535(58) 0.0002973 1718. 2394.
2236(55) 0.0003306 1717. 2181.
2021(52) 0.000370 1717. 2019.
1894(50) 0.000400 1717. 1912.
1865(50) 0.000400 1716. 1847.
1856(50) 0.000400 1716. 1811.
1789(49) 0.000416 1716. 1790.
1790(49) 0.000416 1715. 1777.
1804(49) 0.000416 1715. 1768.
1839(50) 0.000400 1715. 1762.
1829(50) 0.000400 1714. 1757.
1778(49) 0.000416 1714. 1753.
1743(48) 0.000434 1714. 1750.
1730(48) 0.000434 1713. 1747.
1757(49) 0.000416 1713. 1744.
1752(48) 0.000434 1713. 1742.
1789(49) 0.000416 1712. 1741.
1759(49) 0.000416 1712. 1739.
1784(49) 0.000416 1712. 1738.
1756(49) 0.000416 1711. 1737.
1753(48) 0.000434 1711. 1736.
1704(48) 0.000434 1711. 1735.
1724(48) 0.000434 1710. 1734.
1785(49) 0.000416 1710. 1733.
1770(49) 0.000416 1710. 1733.
1775(49) 0.000416 1709. 1733.
1769(49) 0.000416 1709. 1733.
1828(49) 0.000416 1709. 1735.
1776(49) 0.000416 1708. 1737.
1829(49) 0.000416 1708. 1741.
1788(49) 0.000416 1708. 1745.
1811(49) 0.000416 1707. 1748.
1705(48) 0.000434 1707. 1748.
1737(48) 0.000434 1707. 1746.
1791(49) 0.000416 1706. 1742.
1772(49) 0.000416 1706. 1738.
1715(48) 0.000434 1706. 1736.
1736(48) 0.000434 1705. 1735.
1791(49) 0.000416 1705. 1735.
1816(49) 0.000416 1705. 1736.
1817(49) 0.000416 1704. 1737.
1793(49) 0.000416 1704. 1739.
1757(49) 0.000416 1704. 1741.
1768(49) 0.000416 1703. 1744.
1809(49) 0.000416 1703. 1748.
1720(48) 0.000434 1703. 1753.
1726(48) 0.000434 1702. 1760.
1772(49) 0.000416 1702. 1772.
1749(48) 0.000434 1702. 1791.
1775(49) 0.000416 1701. 1817.
1865(50) 0.000400 1701. 1852.
1878(50) 0.000400 1701. 1892.
1955(51) 0.000384 1700. 1929.
1971(51) 0.000384 1700. 1959.
2015(52) 0.000370 1700. 2000.
2073(53) 0.000356 1699. 2089.
2188(54) 0.0003429 1699. 2269.
2543(58) 0.0002973 1699. 2571.
2974(63) 0.0002520 1698. 2988.
3551(69) 0.0002100 1698. 3441.
3942(72) 0.0001929 1697. 3763.
3824(71) 0.0001984 1697. 3760.
3520(68) 0.0002163 1697. 3435.
3023(63) 0.0002520 1696. 2977.
2479(54) 0.0003429 1696. 2553.
2137(50) 0.000400 1696. 2238.
2001(49) 0.000416 1695. 2041.
1888(47) 0.000453 1695. 1936.
1835(47) 0.000453 1695. 1892.
1850(47) 0.000453 1694. 1885.
1890(47) 0.000453 1694. 1901.
1856(47) 0.000453 1694. 1930.
1879(47) 0.000453 1693. 1960.
1978(48) 0.000434 1693. 1976.
1886(47) 0.000453 1693. 1977.
1938(48) 0.000434 1692. 1984.
1992(49) 0.000416 1692. 2027.
2075(50) 0.000400 1692. 2130.
2236(51) 0.000384 1691. 2303.
2483(54) 0.0003429 1691. 2529.
2570(55) 0.0003306 1691. 2753.
2701(56) 0.0003189 1690. 2885.
2719(57) 0.0003078 1690. 2874.
2712(56) 0.0003189 1690. 2750.
2541(55) 0.0003306 1689. 2554.
2327(52) 0.000370 1689. 2332.
2208(51) 0.000384 1689. 2134.
2039(49) 0.000416 1688. 1985.
1898(47) 0.000453 1688. 1885.
1782(46) 0.000473 1688. 1825.
1756(46) 0.000473 1687. 1791.
1786(46) 0.000473 1687. 1772.
1717(45) 0.000494 1687. 1761.
1723(45) 0.000494 1686. 1756.
1735(45) 0.000494 1686. 1755.
1760(46) 0.000473 1686. 1760.
1794(46) 0.000473 1685. 1773.
1782(46) 0.000473 1685. 1798.
1813(46) 0.000473 1685. 1833.
1904(48) 0.000434 1684. 1875.
1947(48) 0.000434 1684. 1910.
1900(47) 0.000453 1684. 1921.
1875(47) 0.000453 1683. 1900.
1895(47) 0.000453 1683. 1862.
1839(47) 0.000453 1683. 1824.
1789(46) 0.000473 1682. 1797.
1780(46) 0.000473 1682. 1787.
1800(46) 0.000473 1682. 1797.
1767(46) 0.000473 1681. 1833.
2009(49) 0.000416 1681. 1897.
2145(50) 0.000400 1681. 1987.
2233(51) 0.000384 1680. 2091.
2315(52) 0.000370 1680. 2175.
2375(53) 0.000356 1680. 2198.
2328(52) 0.000370 1679. 2145.
2148(50) 0.000400 1679. 2052.
2044(49) 0.000416 1679. 1962.
1904(47) 0.000453 1678. 1901.
1863(47) 0.000453 1678. 1882.
1917(48) 0.000434 1678. 1909.
1958(48) 0.000434 1677. 1977.
2177(51) 0.000384 1677. 2071.
2269(52) 0.000370 1677. 2162.
2222(51) 0.000384 1676. 2204.
2161(51) 0.000384 1676. 2168.
2054(49) 0.000416 1675. 2075.
1930(48) 0.000434 1675. 1967.
1872(47) 0.000453 1675. 1875.
1850(47) 0.000453 1674. 1808.
1768(46) 0.000473 1674. 1766.
1748(46) 0.000473 1674. 1743.
1756(46) 0.000473 1673. 1730.
1712(45) 0.000494 1673. 1725.
1687(45) 0.000494 1673. 1724.
1763(46) 0.000473 1672. 1729.
1786(46) 0.000473 1672. 1739.
1841(47) 0.000453 1672. 1759.
1866(47) 0.000453 1671. 1789.
1928(48) 0.000434 1671. 1825.
2019(49) 0.000416 1671. 1862.
1930(48) 0.000434 1670. 1885.
1925(48) 0.000434 1670. 1887.
1871(47) 0.000453 1670. 1869.
1878(47) 0.000453 1669. 1839.
1814(46) 0.000473 1669. 1805.
1782(46) 0.000473 1669. 1776.
1780(46) 0.000473 1668. 1758.
1733(45) 0.000494 1668. 1753.
1734(45) 0.000494 1668. 1761.
1813(46) 0.000473 1667. 1779.
1806(46) 0.000473 1667. 1802.
1811(46) 0.000473 1667. 1819.
1841(47) 0.000453 1666. 1824.
1788(46) 0.000473 1666. 1817.
1746(46) 0.000473 1666. 1811.
1827(47) 0.000453 1665. 1817.
1881(47) 0.000453 1665. 1839.
1891(47) 0.000453 1665. 1875.
1875(47) 0.000453 1664. 1911.
1862(47) 0.000453 1664. 1926.
1840(47) 0.000453 1664. 1908.
1835(47) 0.000453 1663. 1864.
1853(47) 0.000453 1663. 1815.
1806(46) 0.000473 1663. 1773.
1726(43) 0.000541 1662. 1742.
1679(42) 0.000567 1662. 1723.
1749(43) 0.000541 1662. 1712.
1698(43) 0.000541 1661. 1707.
1721(43) 0.000541 1661. 1706.
1661(42) 0.000567 1661. 1708.
1724(43) 0.000541 1660. 1713.
1677(42) 0.000567 1660. 1724.
1694(43) 0.000541 1660. 1744.
1815(44) 0.000517 1659. 1778.
1826(44) 0.000517 1659. 1831.
1848(44) 0.000517 1659. 1903.
2012(46) 0.000473 1658. 1984.
2110(47) 0.000453 1658. 2055.
2075(47) 0.000453 1658. 2083.
2033(47) 0.000453 1657. 2054.
1967(46) 0.000473 1657. 1987.
1920(45) 0.000494 1657. 1916.
1787(44) 0.000517 1657. 1863.
1814(44) 0.000517 1656. 1841.
1787(44) 0.000517 1656. 1857.
1822(44) 0.000517 1656. 1915.
1885(45) 0.000494 1655. 2012.
1994(46) 0.000473 1655. 2135.
2108(47) 0.000453 1655. 2253.
2191(48) 0.000434 1654. 2318.
2229(49) 0.000416 1654. 2290.
2050(47) 0.000453 1654. 2186.
1973(46) 0.000473 1653. 2056.
1885(45) 0.000494 1653. 1938.
1853(45) 0.000494 1653. 1850.
1750(43) 0.000541 1652. 1794.
1726(43) 0.000541 1652. 1764.
1706(43) 0.000541 1652. 1752.
1588(41) 0.000595 1651. 1748.
1683(43) 0.000541 1651. 1745.
1720(43) 0.000541 1651. 1740.
1688(43) 0.000541 1650. 1733.
1629(42) 0.000567 1650. 1728.
1737(43) 0.000541 1650. 1728.
1714(43) 0.000541 1649. 1735.
1702(43) 0.000541 1649. 1748.
1805(44) 0.000517 1649. 1768.
1802(44) 0.000517 1648. 1792.
1828(44) 0.000517 1648. 1819.
1889(45) 0.000494 1648. 1853.
1970(46) 0.000473 1647. 1905.
1976(46) 0.000473 1647. 1977.
2068(47) 0.000453 1647. 2064.
2230(49) 0.000416 1646. 2141.
2215(48) 0.000434 1646. 2171.
2140(48) 0.000434 1646. 2131.
2017(46) 0.000473 1645. 2044.
1990(46) 0.000473 1645. 1944.
1850(44) 0.000517 1645. 1857.
1778(44) 0.000517 1644. 1793.
1749(43) 0.000541 1644. 1751.
1729(43) 0.000541 1644. 1726.
1675(42) 0.000567 1643. 1714.
1675(42) 0.000567 1643. 1710.
1679(42) 0.000567 1643. 1712.
1673(42) 0.000567 1643. 1720.
1698(43) 0.000541 1642. 1739.
1732(43) 0.000541 1642. 1772.
1880(45) 0.000494 1642. 1824.
1923(45) 0.000494 1641. 1896.
2080(47) 0.000453 1641. 1980.
2163(48) 0.000434 1641. 2059.
2208(48) 0.000434 1640. 2100.
2194(48) 0.000434 1640. 2082.
2104(47) 0.000453 1640. 2015.
1949(46) 0.000473 1639. 1930.
1784(44) 0.000517 1639. 1852.
1788(44) 0.000517 1639. 1793.
1722(43) 0.000541 1638. 1753.
1671(42) 0.000567 1638. 1730.
1621(42) 0.000567 1638. 1719.
1666(42) 0.000567 1637. 1716.
1613(42) 0.000567 1637. 1720.
1655(42) 0.000567 1637. 1730.
1747(43) 0.000541 1636. 1751.
1768(44) 0.000517 1636. 1790.
1875(45) 0.000494 1636. 1855.
2017(46) 0.000473 1636. 1954.
2190(48) 0.000434 1635. 2086.
2323(50) 0.000400 1635. 2240.
2435(51) 0.000384 1635. 2381.
2435(51) 0.000384 1634. 2456.
2362(50) 0.000400 1634. 2425.
2224(49) 0.000416 1634. 2309.
2122(47) 0.000453 1633. 2166.
1953(46) 0.000473 1633. 2041.
1946(46) 0.000473 1633. 1960.
1951(46) 0.000473 1632. 1931.
2066(47) 0.000453 1632. 1953.
2101(47) 0.000453 1632. 2017.
2299(49) 0.000416 1631. 2102.
2342(50) 0.000400 1631. 2179.
2347(50) 0.000400 1631. 2210.
2287(49) 0.000416 1630. 2175.
2193(47) 0.000453 1630. 2094.
2062(45) 0.000494 1630. 2003.
1928(44) 0.000517 1630. 1924.
1868(43) 0.000541 1629. 1866.
1814(42) 0.000567 1629. 1824.
1794(42) 0.000567 1629. 1792.
1700(41) 0.000595 1628. 1766.
1727(41) 0.000595 1628. 1747.
1716(41) 0.000595 1628. 1734.
1637(40) 0.000625 1627. 1728.
1676(41) 0.000595 1627. 1730.
1749(42) 0.000567 1627. 1741.
1733(42) 0.000567 1626. 1759.
1744(42) 0.000567 1626. 1787.
1879(43) 0.000541 1626. 1824.
1915(44) 0.000517 1626. 1871.
1966(44) 0.000517 1625. 1929.
2055(45) 0.000494 1625. 2007.
2157(46) 0.000473 1625. 2115.
2392(49) 0.000416 1624. 2257.
2451(49) 0.000416 1624. 2417.
2513(50) 0.000400 1624. 2553.
2574(50) 0.000400 1623. 2611.
2507(50) 0.000400 1623. 2563.
2278(48) 0.000434 1623. 2438.
2146(46) 0.000473 1622. 2290.
2041(45) 0.000494 1622. 2163.
1938(44) 0.000517 1622. 2084.
1946(44) 0.000517 1622. 2072.
2063(45) 0.000494 1621. 2129.
2219(47) 0.000453 1621. 2248.
2472(49) 0.000416 1621. 2402.
2729(52) 0.000370 1620. 2549.
2733(52) 0.000370 1620. 2622.
2690(52) 0.000370 1620. 2578.
2592(51) 0.000384 1619. 2435.
2297(48) 0.000434 1619. 2256.
2182(47) 0.000453 1619. 2087.
1999(45) 0.000494 1619. 1953.
1907(44) 0.000517 1618. 1858.
1850(43) 0.000541 1618. 1797.
1690(41) 0.000595 1618. 1758.
1675(41) 0.000595 1617. 1734.
1630(40) 0.000625 1617. 1717.
1720(41) 0.000595 1617. 1705.
1698(41) 0.000595 1616. 1697.
1688(41) 0.000595 1616. 1691.
1577(40) 0.000625 1616. 1688.
1652(41) 0.000595 1616. 1689.
1586(40) 0.000625 1615. 1693.
1670(41) 0.000595 1615. 1703.
1700(41) 0.000595 1615. 1722.
1709(41) 0.000595 1614. 1753.
1755(42) 0.000567 1614. 1800.
1855(43) 0.000541 1614. 1862.
1976(44) 0.000517 1613. 1935.
1934(44) 0.000517 1613. 2004.
2001(45) 0.000494 1613. 2048.
1964(44) 0.000517 1613. 2047.
1975(44) 0.000517 1612. 2006.
1900(43) 0.000541 1612. 1952.
1920(44) 0.000517 1612. 1910.
1848(43) 0.000541 1611. 1895.
1896(43) 0.000541 1611. 1918.
2007(45) 0.000494 1611. 1979.
2200(47) 0.000453 1610. 2072.
2270(47) 0.000453 1610. 2177.
2386(49) 0.000416 1610. 2264.
2434(49) 0.000416 1610. 2297.
2376(48) 0.000434 1609. 2267.
2287(48) 0.000434 1609. 2202.
2296(48) 0.000434 1609. 2136.
2154(46) 0.000473 1608. 2086.
2158(46) 0.000473 1608. 2048.
2084(45) 0.000494 1608. 2011.
2044(45) 0.000494 1608. 1968.
1903(44) 0.000517 1607. 1922.
1885(43) 0.000541 1607. 1875.
1778(42) 0.000567 1607. 1833.
1754(42) 0.000567 1606. 1801.
1754(42) 0.000567 1606. 1785.
1703(41) 0.000595 1606. 1784.
1766(42) 0.000567 1605. 1798.
1809(42) 0.000567 1605. 1819.
1783(42) 0.000567 1605. 1837.
1759(42) 0.000567 1605. 1839.
1802(42) 0.000567 1604. 1822.
1779(42) 0.000567 1604. 1792.
1783(42) 0.000567 1604. 1760.
1710(41) 0.000595 1603. 1734.
1711(41) 0.000595 1603. 1714.
1765(42) 0.000567 1603. 1700.
1681(41) 0.000595 1603. 1690.
1651(41) 0.000595 1602. 1683.
1702(41) 0.000595 1602. 1679.
1704(41) 0.000595 1602. 1679.
1646(41) 0.000595 1601. 1684.
1683(41) 0.000595 1601. 1697.
1719(41) 0.000595 1601. 1717.
1764(42) 0.000567 1601. 1745.
1781(40) 0.000625 1600. 1780.
1836(41) 0.000595 1600. 1819.
1848(41) 0.000595 1600. 1859.
1974(42) 0.000567 1599. 1904.
2101(44) 0.000517 1599. 1959.
2150(44) 0.000517 1599. 2027.
2180(45) 0.000494 1599. 2097.
2127(44) 0.000517 1598. 2149.
2154(44) 0.000517 1598. 2155.
2166(44) 0.000517 1598. 2106.
2124(44) 0.000517 1597. 2020.
1993(43) 0.000541 1597. 1924.
1871(41) 0.000595 1597. 1836.
1760(40) 0.000625 1597. 1766.
1723(40) 0.000625 1596. 1716.
1660(39) 0.000657 1596. 1682.
1689(39) 0.000657 1596. 1661.
1607(38) 0.000693 1596. 1647.
1635(39) 0.000657 1595. 1639.
1650(39) 0.000657 1595. 1633.
1597(38) 0.000693 1595. 1629.
1616(38) 0.000693 1594. 1626.
1612(38) 0.000693 1594. 1623.
1659(39) 0.000657 1594. 1621.
1600(38) 0.000693 1594. 1619.
1609(38) 0.000693 1593. 1618.
1615(38) 0.000693 1593. 1617.
1619(38) 0.000693 1593. 1616.
1641(39) 0.000657 1592. 1615.
1654(39) 0.000657 1592. 1615.
1685(39) 0.000657 1592. 1614.
1681(39) 0.000657 1592. 1614.
1695(39) 0.000657 1591. 1614.
1631(39) 0.000657 1591. 1614.
1634(39) 0.000657 1591. 1615.
1655(39) 0.000657 1590. 1616.
1708(39) 0.000657 1590. 1619.
1697(39) 0.000657 1590. 1622.
1596(38) 0.000693 1590. 1628.
1623(39) 0.000657 1589. 1636.
1633(39) 0.000657 1589. 1646.
1646(39) 0.000657 1589. 1659.
1679(39) 0.000657 1589. 1672.
1665(39) 0.000657 1588. 1683.
1668(39) 0.000657 1588. 1688.
1696(39) 0.000657 1588. 1685.
1684(39) 0.000657 1587. 1679.
1657(39) 0.000657 1587. 1672.
1615(38) 0.000693 1587. 1669.
1639(39) 0.000657 1587. 1674.
1696(39) 0.000657 1586. 1688.
1776(40) 0.000625 1586. 1717.
1753(40) 0.000625 1586. 1764.
1768(40) 0.000625 1586. 1830.
1879(41) 0.000595 1585. 1913.
1965(42) 0.000567 1585. 2005.
1978(42) 0.000567 1585. 2086.
2066(43) 0.000541 1584. 2132.
2065(43) 0.000541 1584. 2122.
2009(43) 0.000541 1584. 2064.
1873(41) 0.000595 1584. 1983.
1924(42) 0.000567 1583. 1904.
1798(41) 0.000595 1583. 1843.
1785(40) 0.000625 1583. 1807.
1788(40) 0.000625 1583. 1796.
1784(40) 0.000625 1582. 1807.
1823(41) 0.000595 1582. 1833.
1873(41) 0.000595 1582. 1861.
1843(41) 0.000595 1582. 1879.
1909(42) 0.000567 1581. 1881.
1862(41) 0.000595 1581. 1871.
1886(41) 0.000595 1581. 1858.
1810(41) 0.000595 1580. 1846.
1804(41) 0.000595 1580. 1834.
1787(40) 0.000625 1580. 1815.
1760(40) 0.000625 1580. 1787.
1782(40) 0.000625 1579. 1753.
1754(40) 0.000625 1579. 1719.
1693(39) 0.000657 1579. 1688.
1683(39) 0.000657 1579. 1664.
1681(39) 0.000657 1578. 1647.
1692(39) 0.000657 1578. 1636.
1604(38) 0.000693 1578. 1629.
1619(38) 0.000693 1578. 1628.
1610(38) 0.000693 1577. 1630.
1641(39) 0.000657 1577. 1637.
1686(39) 0.000657 1577. 1648.
1728(40) 0.000625 1576. 1663.
1781(40) 0.000625 1576. 1681.
1838(41) 0.000595 1576. 1699.
1811(41) 0.000595 1576. 1713.
1794(40) 0.000625 1575. 1718.
1788(40) 0.000625 1575. 1712.
1719(40) 0.000625 1575. 1701.
1736(40) 0.000625 1575. 1690.
1713(40) 0.000625 1574. 1685.
1693(39) 0.000657 1574. 1688.
1749(40) 0.000625 1574. 1699.
1742(40) 0.000625 1574. 1715.
1697(39) 0.000657 1573. 1733.
1647(54) 0.0003429 1573. 1745.
1772(39) 0.000657 1573. 1744.
1755(38) 0.000693 1573. 1730.
1663(37) 0.000730 1572. 1709.
1661(37) 0.000730 1572. 1685.
1649(37) 0.000730 1572. 1665.
1632(37) 0.000730 1572. 1650.
1613(37) 0.000730 1571. 1641.
1645(37) 0.000730 1571. 1638.
1645(37) 0.000730 1571. 1641.
1592(37) 0.000730 1570. 1652.
1691(38) 0.000693 1570. 1669.
1770(39) 0.000657 1570. 1696.
1772(39) 0.000657 1570. 1730.
1844(39) 0.000657 1569. 1771.
1885(40) 0.000625 1569. 1816.
1873(40) 0.000625 1569. 1859.
1874(40) 0.000625 1569. 1894.
1984(41) 0.000595 1568. 1921.
2053(41) 0.000595 1568. 1949.
2023(41) 0.000595 1568. 1982.
2098(42) 0.000567 1568. 2019.
2069(42) 0.000567 1567. 2047.
2023(41) 0.000595 1567. 2051.
1935(40) 0.000625 1567. 2022.
1936(40) 0.000625 1567. 1971.
1957(41) 0.000595 1566. 1916.
1919(40) 0.000625 1566. 1872.
1888(40) 0.000625 1566. 1848.
1821(39) 0.000657 1566. 1846.
1823(39) 0.000657 1565. 1860.
1892(40) 0.000625 1565. 1883.
1869(40) 0.000625 1565. 1899.
1847(39) 0.000657 1565. 1895.
1827(39) 0.000657 1564. 1868.
1833(39) 0.000657 1564. 1827.
1858(40) 0.000625 1564. 1784.
1792(39) 0.000657 1564. 1746.
1746(38) 0.000693 1563. 1717.
1757(38) 0.000693 1563. 1698.
1692(38) 0.000693 1563. 1685.
1699(38) 0.000693 1563. 1674.
1653(37) 0.000730 1562. 1663.
1676(38) 0.000693 1562. 1650.
1690(38) 0.000693 1562. 1638.
1626(37) 0.000730 1562. 1627.
1613(37) 0.000730 1561. 1619.
1588(37) 0.000730 1561. 1614.
1579(37) 0.000730 1561. 1613.
1654(37) 0.000730 1561. 1615.
1651(37) 0.000730 1560. 1622.
1609(37) 0.000730 1560. 1631.
1655(37) 0.000730 1560. 1643.
1639(37) 0.000730 1560. 1655.
1618(37) 0.000730 1559. 1664.
1685(38) 0.000693 1559. 1666.
1727(38) 0.000693 1559. 1661.
1669(38) 0.000693 1559. 1651.
1631(37) 0.000730 1558. 1640.
1592(37) 0.000730 1558. 1630.
1616(37) 0.000730 1558. 1624.
1597(37) 0.000730 1558. 1623.
1600(37) 0.000730 1557. 1628.
1608(37) 0.000730 1557. 1640.
1643(37) 0.000730 1557. 1660.
1701(38) 0.000693 1557. 1689.
1708(38) 0.000693 1556. 1724.
1734(38) 0.000693 1556. 1763.
1745(38) 0.000693 1556. 1801.
1791(39) 0.000657 1556. 1827.
1855(39) 0.000657 1555. 1833.
1768(39) 0.000657 1555. 1815.
1736(38) 0.000693 1555. 1782.
1683(38) 0.000693 1555. 1744.
1674(38) 0.000693 1554. 1709.
1669(38) 0.000693 1554. 1682.
1669(38) 0.000693 1554. 1664.
1632(37) 0.000730 1554. 1655.
1631(37) 0.000730 1553. 1652.
1698(38) 0.000693 1553. 1652.
1710(38) 0.000693 1553. 1652.
1616(37) 0.000730 1553. 1649.
1616(37) 0.000730 1552. 1644.
1619(37) 0.000730 1552. 1640.
1634(37) 0.000730 1552. 1637.
1637(37) 0.000730 1552. 1637.
1666(37) 0.000730 1551. 1640.
1627(37) 0.000730 1551. 1643.
1607(37) 0.000730 1551. 1645.
1620(37) 0.000730 1551. 1642.
1654(37) 0.000730 1550. 1636.
1624(37) 0.000730 1550. 1628.
1643(37) 0.000730 1550. 1622.
1660(37) 0.000730 1550. 1619.
1607(37) 0.000730 1549. 1622.
1597(37) 0.000730 1549. 1631.
1669(38) 0.000693 1549. 1648.
1690(38) 0.000693 1549. 1673.
1749(38) 0.000693 1549. 1704.
1768(39) 0.000657 1548. 1738.
1747(38) 0.000693 1548. 1769.
1763(38) 0.000693 1548. 1789.
1785(39) 0.000657 1548. 1790.
1724(38) 0.000693 1547. 1772.
1741(38) 0.000693 1547. 1741.
1761(38) 0.000693 1547. 1705.
1721(38) 0.000693 1547. 1671.
1647(37) 0.000730 1546. 1641.
1643(37) 0.000730 1546. 1618.
1589(37) 0.000730 1546. 1602.
1576(36) 0.000772 1546. 1591.
1606(37) 0.000730 1545. 1585.
1603(37) 0.000730 1545. 1583.
1604(37) 0.000730 1545. 1582.
1632(37) 0.000730 1545. 1584.
1613(37) 0.000730 1544. 1586.
1567(36) 0.000772 1544. 1589.
1569(36) 0.000772 1544. 1590.
1574(36) 0.000772 1544. 1589.
1584(37) 0.000730 1543. 1586.
1566(36) 0.000772 1543. 1581.
1560(36) 0.000772 1543. 1577.
1547(36) 0.000772 1543. 1572.
1548(36) 0.000772 1542. 1569.
1589(37) 0.000730 1542. 1566.
1623(37) 0.000730 1542. 1564.
1593(37) 0.000730 1542. 1563.
1604(37) 0.000730 1541. 1562.
1580(36) 0.000772 1541. 1562.
1546(36) 0.000772 1541. 1562.
1549(36) 0.000772 1541. 1563.
1557(36) 0.000772 1541. 1564.
1560(36) 0.000772 1540. 1566.
1583(37) 0.000730 1540. 1570.
1563(36) 0.000772 1540. 1575.
1574(36) 0.000772 1540. 1583.
1551(36) 0.000772 1539. 1594.
1575(36) 0.000772 1539. 1609.
1592(37) 0.000730 1539. 1628.
1648(37) 0.000730 1539. 1650.
1647(37) 0.000730 1538. 1673.
1658(37) 0.000730 1538. 1693.
1671(37) 0.000730 1538. 1706.
1740(38) 0.000693 1538. 1709.
1695(38) 0.000693 1537. 1701.
1708(38) 0.000693 1537. 1688.
1638(37) 0.000730 1537. 1673.
1682(38) 0.000693 1537. 1659.
1675(38) 0.000693 1536. 1646.
1663(37) 0.000730 1536. 1635.
1533(36) 0.000772 1536. 1625.
1633(37) 0.000730 1536. 1617.
1667(37) 0.000730 1536. 1612.
1643(37) 0.000730 1535. 1611.
1671(37) 0.000730 1535. 1613.
1687(38) 0.000693 1535. 1619.
1647(37) 0.000730 1535. 1627.
1623(37) 0.000730 1534. 1637.
1671(37) 0.000730 1534. 1647.
1762(38) 0.000693 1534. 1657.
1774(39) 0.000657 1534. 1668.
1739(38) 0.000693 1533. 1682.
1728(38) 0.000693 1533. 1696.
1720(38) 0.000693 1533. 1711.
1714(38) 0.000693 1533. 1721.
1750(38) 0.000693 1532. 1724.
1700(38) 0.000693 1532. 1718.
1708(38) 0.000693 1532. 1702.
1697(38) 0.000693 1532. 1681.
1683(38) 0.000693 1531. 1658.
1602(37) 0.000730 1531. 1638.
1619(37) 0.000730 1531. 1621.
1657(37) 0.000730 1531. 1609.
1591(37) 0.000730 1531. 1602.
1573(36) 0.000772 1530. 1600.
1587(37) 0.000730 1530. 1601.
1588(37) 0.000730 1530. 1605.
1546(36) 0.000772 1530. 1612.
1598(37) 0.000730 1529. 1622.
1614(37) 0.000730 1529. 1633.
1662(37) 0.000730 1529. 1648.
1662(37) 0.000730 1529. 1668.
1743(38) 0.000693 1528. 1695.
1778(39) 0.000657 1528. 1732.
1875(40) 0.000625 1528. 1780.
1924(40) 0.000625 1528. 1835.
1990(41) 0.000595 1527. 1893.
2102(42) 0.000567 1527. 1944.
2089(42) 0.000567 1527. 1977.
2117(42) 0.000567 1527. 1984.
2097(42) 0.000567 1526. 1965.
2000(41) 0.000595 1526. 1929.
1952(40) 0.000625 1526. 1888.
1890(40) 0.000625 1526. 1847.
1808(39) 0.000657 1526. 1807.
1766(39) 0.000657 1525. 1771.
1694(38) 0.000693 1525. 1740.
1692(38) 0.000693 1525. 1715.
1636(37) 0.000730 1525. 1700.
1651(37) 0.000730 1524. 1695.
1666(30) 0.001111 1524.1 1704.0
1696(38) 0.000693 1524. 1729.
1836(39) 0.000657 1524. 1772.
1879(39) 0.000657 1523. 1837.
2059(41) 0.000595 1523. 1923.
2139(42) 0.000567 1523. 2029.
2375(44) 0.000517 1523. 2148.
2431(45) 0.000494 1522. 2264.
2540(46) 0.000473 1522. 2357.
2555(46) 0.000473 1522. 2403.
2532(46) 0.000473 1522. 2387.
2419(45) 0.000494 1522. 2313.
2238(43) 0.000541 1521. 2204.
2151(42) 0.000567 1521. 2085.
2033(41) 0.000595 1521. 1971.
1919(40) 0.000625 1521. 1874.
1808(39) 0.000657 1520. 1799.
1786(39) 0.000657 1520. 1744.
1732(38) 0.000693 1520. 1709.
1698(38) 0.000693 1520. 1689.
1689(37) 0.000730 1519. 1682.
1718(38) 0.000693 1519. 1684.
1676(37) 0.000730 1519. 1693.
1697(38) 0.000693 1519. 1704.
1712(38) 0.000693 1518. 1715.
1677(37) 0.000730 1518. 1721.
1708(38) 0.000693 1518. 1719.
1657(37) 0.000730 1518. 1709.
1673(37) 0.000730 1517. 1694.
1690(37) 0.000730 1517. 1677.
1695(38) 0.000693 1517. 1662.
1624(37) 0.000730 1517. 1653.
1609(37) 0.000730 1517. 1651.
1611(37) 0.000730 1516. 1658.
1727(38) 0.000693 1516. 1674.
1716(38) 0.000693 1516. 1700.
1701(38) 0.000693 1516. 1733.
1724(38) 0.000693 1515. 1771.
1777(38) 0.000693 1515. 1808.
1762(38) 0.000693 1515. 1836.
1829(39) 0.000657 1515. 1847.
1799(39) 0.000657 1514. 1837.
1798(39) 0.000657 1514. 1810.
1751(38) 0.000693 1514. 1772.
1693(38) 0.000693 1514. 1732.
1670(37) 0.000730 1513. 1696.
1586(36) 0.000772 1513. 1667.
1561(36) 0.000772 1513. 1647.
1614(37) 0.000730 1513. 1636.
1602(37) 0.000730 1512. 1634.
1669(37) 0.000730 1512. 1641.
1683(37) 0.000730 1512. 1654.
1698(38) 0.000693 1512. 1673.
1766(38) 0.000693 1512. 1695.
1746(38) 0.000693 1511. 1718.
1809(39) 0.000657 1511. 1737.
1786(39) 0.000657 1511. 1752.
1806(39) 0.000657 1511. 1762.
1798(39) 0.000657 1510. 1766.
1776(38) 0.000693 1510. 1770.
1802(39) 0.000657 1510. 1775.
1788(39) 0.000657 1510. 1784.
1770(38) 0.000693 1509. 1797.
1811(39) 0.000657 1509. 1811.
1832(39) 0.000657 1509. 1820.
1815(39) 0.000657 1509. 1823.
1867(39) 0.000657 1508. 1820.
1882(40) 0.000625 1508. 1815.
1795(39) 0.000657 1508. 1808.
1800(39) 0.000657 1508. 1799.
1799(39) 0.000657 1507. 1785.
1720(38) 0.000693 1507. 1764.
1712(38) 0.000693 1507. 1737.
1762(38) 0.000693 1507. 1706.
1715(38) 0.000693 1507. 1676.
1684(37) 0.000730 1506. 1647.
1646(37) 0.000730 1506. 1623.
1576(36) 0.000772 1506. 1604.
1554(36) 0.000772 1506. 1588.
1589(36) 0.000772 1505. 1576.
1579(36) 0.000772 1505. 1566.
1603(37) 0.000730 1505. 1559.
1537(36) 0.000772 1505. 1552.
1547(36) 0.000772 1504. 1547.
1554(36) 0.000772 1504. 1543.
1522(36) 0.000772 1504. 1540.
1513(36) 0.000772 1504. 1537.
1515(36) 0.000772 1503. 1535.
1553(36) 0.000772 1503. 1534.
1513(35) 0.000816 1502.9 1533.0
1513(35) 0.000816 1502.7 1532.7
1566(36) 0.000772 1502. 1533.
1519(36) 0.000772 1502. 1534.
1551(36) 0.000772 1502. 1536.
1569(36) 0.000772 1502. 1539.
1552(36) 0.000772 1501. 1543.
1526(36) 0.000772 1501. 1548.
1584(36) 0.000772 1501. 1554.
1586(36) 0.000772 1501. 1560.
1526(36) 0.000772 1501. 1566.
1555(50) 0.000400 1500. 1571.
1577(35) 0.000816 1500.0 1574.1
1597(35) 0.000816 1499.8 1576.5
1633(36) 0.000772 1500. 1579.
1653(36) 0.000772 1499. 1582.
1594(35) 0.000816 1499.1 1587.4
1564(35) 0.000816 1498.8 1594.1
1597(35) 0.000816 1498.6 1601.7
1637(36) 0.000772 1498. 1609.
1629(36) 0.000772 1498. 1615.
1629(36) 0.000772 1498. 1619.
1606(35) 0.000816 1497.6 1620.3
1641(36) 0.000772 1497. 1621.
1616(36) 0.000772 1497. 1622.
1647(36) 0.000772 1497. 1623.
1601(35) 0.000816 1496.6 1621.8
1628(36) 0.000772 1496. 1619.
1600(35) 0.000816 1496.2 1612.3
1612(36) 0.000772 1496. 1604.
1594(35) 0.000816 1495.7 1594.0
1545(35) 0.000816 1495.4 1584.8
1568(35) 0.000816 1495.2 1577.5
1551(35) 0.000816 1494.9 1572.9
1539(35) 0.000816 1494.7 1571.4
1585(35) 0.000816 1494.4 1573.2
1534(35) 0.000816 1494.2 1577.9
1542(35) 0.000816 1494.0 1584.8
1606(35) 0.000816 1493.7 1592.9
1556(35) 0.000816 1493.5 1600.8
1534(35) 0.000816 1493.2 1606.6
1566(35) 0.000816 1493.0 1609.4
1590(35) 0.000816 1492.7 1609.3
1531(35) 0.000816 1492.5 1607.8
1537(35) 0.000816 1492.2 1607.2
1573(35) 0.000816 1492.0 1609.9
1604(35) 0.000816 1491.8 1618.0
1562(35) 0.000816 1491.5 1633.3
1664(36) 0.000772 1491. 1657.
1745(37) 0.000730 1491. 1689.
1734(37) 0.000730 1491. 1730.
1852(38) 0.000693 1491. 1778.
1914(39) 0.000657 1490. 1830.
1896(38) 0.000693 1490. 1879.
1879(38) 0.000693 1490. 1918.
1939(39) 0.000657 1490. 1939.
1889(38) 0.000693 1489. 1935.
1887(38) 0.000693 1489. 1907.
1846(38) 0.000693 1489. 1863.
1789(37) 0.000730 1489. 1811.
1770(37) 0.000730 1488. 1759.
1759(37) 0.000730 1488. 1711.
1633(36) 0.000772 1488. 1672.
1597(35) 0.000816 1487.6 1641.5
1597(35) 0.000816 1487.3 1620.2
1585(35) 0.000816 1487.1 1607.2
1588(35) 0.000816 1486.8 1601.1
1604(35) 0.000816 1486.6 1600.3
1578(35) 0.000816 1486.3 1603.2
1591(35) 0.000816 1486.1 1607.9
1533(35) 0.000816 1485.8 1612.7
1540(35) 0.000816 1485.6 1616.5
1514(34) 0.000865 1485.4 1619.3
1597(35) 0.000816 1485.1 1622.3
1622(36) 0.000772 1485. 1627.
1545(35) 0.000816 1484.6 1634.8
1600(35) 0.000816 1484.4 1646.2
1574(35) 0.000816 1484.1 1661.0
1620(36) 0.000772 1484. 1678.
1668(36) 0.000772 1484. 1696.
1701(36) 0.000772 1483. 1712.
1699(36) 0.000772 1483. 1726.
1741(37) 0.000730 1483. 1737.
1736(37) 0.000730 1483. 1746.
1723(37) 0.000730 1482. 1750.
1749(37) 0.000730 1482. 1749.
1756(37) 0.000730 1482. 1743.
1695(36) 0.000772 1482. 1734.
1803(38) 0.000693 1481. 1725.
1733(37) 0.000730 1481. 1720.
1765(37) 0.000730 1481. 1719.
1737(37) 0.000730 1481. 1723.
1738(37) 0.000730 1480. 1729.
1778(37) 0.000730 1480. 1734.
1718(37) 0.000730 1480. 1734.
1738(37) 0.000730 1480. 1726.
1734(37) 0.000730 1479. 1710.
1671(36) 0.000772 1479. 1688.
1712(37) 0.000730 1479. 1664.
1637(36) 0.000772 1479. 1640.
1638(36) 0.000772 1478. 1619.
1638(36) 0.000772 1478. 1603.
1528(35) 0.000816 1477.9 1590.9
1586(35) 0.000816 1477.6 1584.3
1537(35) 0.000816 1477.4 1582.7
1590(35) 0.000816 1477.1 1586.1
1651(36) 0.000772 1477. 1594.
1664(36) 0.000772 1477. 1606.
1640(36) 0.000772 1476. 1621.
1632(36) 0.000772 1476. 1639.
1725(37) 0.000730 1476. 1659.
1707(36) 0.000772 1476. 1681.
1793(37) 0.000730 1475. 1703.
1773(37) 0.000730 1475. 1725.
1843(38) 0.000693 1475. 1744.
1854(38) 0.000693 1475. 1757.
1840(38) 0.000693 1474. 1762.
1724(37) 0.000730 1474. 1758.
1745(37) 0.000730 1474. 1749.
1782(37) 0.000730 1474. 1739.
1772(37) 0.000730 1473. 1733.
1791(37) 0.000730 1473. 1734.
1770(37) 0.000730 1473. 1745.
1795(37) 0.000730 1473. 1770.
1899(38) 0.000693 1472. 1807.
1921(39) 0.000657 1472. 1856.
1942(39) 0.000657 1472. 1914.
1949(39) 0.000657 1472. 1975.
2053(40) 0.000625 1471. 2031.
2057(40) 0.000625 1471. 2071.
2168(41) 0.000595 1471. 2087.
2117(41) 0.000595 1471. 2075.
2065(40) 0.000625 1470. 2040.
2083(40) 0.000625 1470. 1992.
1993(39) 0.000657 1470. 1940.
1939(39) 0.000657 1470. 1892.
1873(38) 0.000693 1469. 1851.
1848(38) 0.000693 1469. 1819.
1780(37) 0.000730 1469. 1796.
1800(37) 0.000730 1468. 1779.
1758(37) 0.000730 1468. 1767.
1834(38) 0.000693 1468. 1756.
1688(36) 0.000772 1468. 1747.
1745(37) 0.000730 1467. 1735.
1781(37) 0.000730 1467. 1720.
1760(37) 0.000730 1467. 1700.
1579(35) 0.000816 1466.7 1677.3
1663(36) 0.000772 1466. 1653.
1584(35) 0.000816 1466.2 1629.3
1701(36) 0.000772 1466. 1608.
1548(35) 0.000816 1465.7 1591.3
1549(35) 0.000816 1465.4 1578.6
1554(35) 0.000816 1465.1 1570.5
1591(35) 0.000816 1464.9 1567.0
1576(35) 0.000816 1464.6 1567.6
1625(35) 0.000816 1464.4 1571.6
1625(35) 0.000816 1464.1 1578.2
1612(35) 0.000816 1463.9 1586.0
1648(36) 0.000772 1464. 1594.
1682(36) 0.000772 1463. 1599.
1569(35) 0.000816 1463.1 1600.5
1590(35) 0.000816 1462.8 1597.8
1523(34) 0.000865 1462.6 1591.0
1585(35) 0.000816 1462.3 1581.4
1585(35) 0.000816 1462.0 1570.5
1522(34) 0.000865 1461.8 1559.7
1527(34) 0.000865 1461.5 1550.3
1516(34) 0.000865 1461.3 1542.9
1579(35) 0.000816 1461.0 1538.0
1594(35) 0.000816 1460.8 1535.4
1585(35) 0.000816 1460.5 1535.0
1492(34) 0.000865 1460.2 1536.4
1501(34) 0.000865 1460.0 1538.6
1493(34) 0.000865 1459.7 1540.8
1480(34) 0.000865 1459.5 1541.9
1524(34) 0.000865 1459.2 1541.2
1523(34) 0.000865 1458.9 1538.5
1534(34) 0.000865 1458.7 1534.4
1542(35) 0.000816 1458.4 1529.7
1582(35) 0.000816 1458.2 1525.3
1547(35) 0.000816 1457.9 1522.0
1528(34) 0.000865 1457.6 1520.1
1485(34) 0.000865 1457.4 1520.1
1604(35) 0.000816 1457.1 1521.9
1508(34) 0.000865 1456.9 1525.6
1566(35) 0.000816 1456.6 1530.7
1520(34) 0.000865 1456.3 1536.7
1604(35) 0.000816 1456.1 1542.7
1553(35) 0.000816 1455.8 1547.8
1578(35) 0.000816 1455.5 1550.9
1581(35) 0.000816 1455.3 1551.3
1490(34) 0.000865 1455.0 1549.2
1528(34) 0.000865 1454.8 1545.3
1589(35) 0.000816 1454.5 1540.7
1538(35) 0.000816 1454.2 1536.4
1492(34) 0.000865 1454.0 1533.0
1494(34) 0.000865 1453.7 1530.9
1565(35) 0.000816 1453.5 1530.3
1578(35) 0.000816 1453.2 1531.0
1590(35) 0.000816 1452.9 1533.0
1543(35) 0.000816 1452.7 1536.4
1553(35) 0.000816 1452.4 1541.1
1534(34) 0.000865 1452.1 1546.8
1597(35) 0.000816 1451.9 1553.2
1545(35) 0.000816 1451.6 1559.4
1598(35) 0.000816 1451.4 1564.8
1562(35) 0.000816 1451.1 1568.4
1669(36) 0.000772 1451. 1570.
1591(35) 0.000816 1450.6 1570.3
1576(35) 0.000816 1450.3 1569.8
1588(35) 0.000816 1450.0 1569.3
1569(35) 0.000816 1449.8 1569.0
1596(36) 0.000772 1450. 1569.
1588(36) 0.000772 1449. 1568.
1618(36) 0.000772 1449. 1568.
1562(36) 0.000772 1449. 1567.
1557(36) 0.000772 1448. 1566.
1565(36) 0.000772 1448. 1565.
1607(36) 0.000772 1448. 1564.
1618(36) 0.000772 1448. 1565.
1579(36) 0.000772 1447. 1566.
1609(36) 0.000772 1447. 1569.
1588(36) 0.000772 1447. 1575.
1660(37) 0.000730 1447. 1584.
1649(37) 0.000730 1446. 1596.
1547(36) 0.000772 1446. 1611.
1610(36) 0.000772 1446. 1629.
1625(37) 0.000730 1446. 1646.
1691(37) 0.000730 1445. 1664.
1660(37) 0.000730 1445. 1679.
1785(38) 0.000693 1445. 1691.
1738(38) 0.000693 1445. 1699.
1716(38) 0.000693 1444. 1700.
1762(38) 0.000693 1444. 1695.
1754(38) 0.000693 1444. 1681.
1779(38) 0.000693 1443. 1661.
1645(37) 0.000730 1443. 1637.
1640(37) 0.000730 1443. 1612.
1617(36) 0.000772 1443. 1587.
1551(36) 0.000772 1442. 1564.
1547(36) 0.000772 1442. 1544.
1556(36) 0.000772 1442. 1527.
1516(35) 0.000816 1441.6 1513.7
1470(35) 0.000816 1441.3 1502.8
1488(35) 0.000816 1441.1 1494.4
1416(34) 0.000865 1440.8 1488.1
1498(35) 0.000816 1440.5 1483.5
1460(35) 0.000816 1440.3 1480.2
1489(35) 0.000816 1440.0 1477.9
1450(35) 0.000816 1439.7 1476.3
1453(35) 0.000816 1439.5 1475.4
1464(35) 0.000816 1439.2 1475.1
1446(34) 0.000865 1438.9 1475.4
1480(35) 0.000816 1438.7 1476.2
1438(34) 0.000865 1438.4 1477.8
1453(35) 0.000816 1438.1 1480.1
1461(35) 0.000816 1437.9 1483.1
1534(36) 0.000772 1438. 1487.
1518(35) 0.000816 1437.3 1491.6
1448(35) 0.000816 1437.1 1497.0
1510(35) 0.000816 1436.8 1502.8
1526(35) 0.000816 1436.5 1508.9
1486(35) 0.000816 1436.3 1514.8
1517(35) 0.000816 1436.0 1520.4
1521(35) 0.000816 1435.7 1525.4
1498(35) 0.000816 1435.5 1530.1
1555(36) 0.000772 1435. 1535.
1495(35) 0.000816 1434.9 1540.6
1578(36) 0.000772 1435. 1548.
1567(36) 0.000772 1434. 1556.
1583(36) 0.000772 1434. 1566.
1652(37) 0.000730 1434. 1578.
1659(37) 0.000730 1434. 1589.
1646(37) 0.000730 1433. 1601.
1621(37) 0.000730 1433. 1613.
1624(37) 0.000730 1433. 1623.
1681(37) 0.000730 1433. 1632.
1686(37) 0.000730 1432. 1639.
1658(37) 0.000730 1432. 1643.
1596(36) 0.000772 1432. 1644.
1637(37) 0.000730 1431. 1643.
1674(37) 0.000730 1431. 1642.
1651(37) 0.000730 1431. 1640.
1689(37) 0.000730 1431. 1638.
1644(37) 0.000730 1430. 1637.
1688(37) 0.000730 1430. 1636.
1669(37) 0.000730 1430. 1633.
1575(36) 0.000772 1430. 1627.
1639(37) 0.000730 1429. 1618.
1609(36) 0.000772 1429. 1605.
1568(36) 0.000772 1429. 1591.
1597(36) 0.000772 1429. 1577.
1505(35) 0.000816 1428.3 1562.2
1479(35) 0.000816 1428.0 1549.1
1523(35) 0.000816 1427.8 1537.7
1558(36) 0.000772 1427. 1529.
1453(35) 0.000816 1427.2 1522.1
1464(35) 0.000816 1427.0 1518.5
1465(35) 0.000816 1426.7 1518.0
1480(35) 0.000816 1426.4 1520.7
1537(36) 0.000772 1426. 1526.
1535(36) 0.000772 1426. 1535.
1493(35) 0.000816 1425.6 1546.1
1540(36) 0.000772 1425. 1559.
1594(36) 0.000772 1425. 1574.
1589(36) 0.000772 1425. 1588.
1552(36) 0.000772 1425. 1602.
1583(36) 0.000772 1424. 1613.
1620(37) 0.000730 1424. 1620.
1524(35) 0.000816 1423.8 1624.6
1657(37) 0.000730 1424. 1627.
1590(37) 0.000730 1423. 1627.
1617(37) 0.000730 1423. 1629.
1615(37) 0.000730 1423. 1631.
1671(37) 0.000730 1422. 1634.
1666(37) 0.000730 1422. 1638.
1621(37) 0.000730 1422. 1641.
1675(38) 0.000693 1422. 1643.
1682(38) 0.000693 1421. 1643.
1755(38) 0.000693 1421. 1641.
1675(38) 0.000693 1421. 1638.
1668(37) 0.000730 1421. 1632.
1657(37) 0.000730 1420. 1624.
1667(37) 0.000730 1420. 1614.
1703(38) 0.000693 1420. 1600.
1571(36) 0.000772 1420. 1585.
1590(37) 0.000730 1419. 1568.
1520(36) 0.000772 1419. 1551.
1516(36) 0.000772 1419. 1536.
1546(36) 0.000772 1418. 1521.
1534(36) 0.000772 1418. 1509.
1513(36) 0.000772 1418. 1499.
1561(36) 0.000772 1418. 1490.
1554(36) 0.000772 1417. 1484.
1483(35) 0.000816 1417.2 1479.5
1504(36) 0.000772 1417. 1477.
1454(35) 0.000816 1416.6 1475.6
1450(35) 0.000816 1416.4 1476.1
1436(35) 0.000816 1416.1 1478.4
1449(35) 0.000816 1415.8 1482.5
1437(35) 0.000816 1415.6 1488.7
1479(35) 0.000816 1415.3 1497.2
1569(36) 0.000772 1415. 1508.
1543(36) 0.000772 1415. 1522.
1568(36) 0.000772 1415. 1539.
1640(37) 0.000730 1414. 1558.
1663(37) 0.000730 1414. 1580.
1714(38) 0.000693 1414. 1602.
1679(38) 0.000693 1413. 1626.
1711(38) 0.000693 1413. 1647.
1736(38) 0.000693 1413. 1666.
1718(38) 0.000693 1413. 1678.
1741(38) 0.000693 1412. 1683.
1719(38) 0.000693 1412. 1679.
1669(37) 0.000730 1412. 1668.
1690(38) 0.000693 1412. 1652.
1664(37) 0.000730 1411. 1634.
1664(37) 0.000730 1411. 1614.
1670(37) 0.000730 1411. 1596.
1564(36) 0.000772 1411. 1580.
1602(37) 0.000730 1410. 1568.
1599(37) 0.000730 1410. 1559.
1554(36) 0.000772 1410. 1553.
1606(37) 0.000730 1410. 1551.
1592(37) 0.000730 1409. 1551.
1590(37) 0.000730 1409. 1554.
1552(36) 0.000772 1409. 1558.
1582(36) 0.000772 1408. 1562.
1588(37) 0.000730 1408. 1567.
1531(36) 0.000772 1408. 1573.
1565(36) 0.000772 1408. 1580.
1585(36) 0.000772 1407. 1590.
1547(36) 0.000772 1407. 1604.
1658(37) 0.000730 1407. 1622.
1717(38) 0.000693 1407. 1644.
1721(38) 0.000693 1406. 1671.
1750(38) 0.000693 1406. 1703.
1868(40) 0.000625 1406. 1738.
1899(40) 0.000625 1406. 1776.
1901(40) 0.000625 1405. 1813.
1880(40) 0.000625 1405. 1849.
1901(40) 0.000625 1405. 1878.
2028(41) 0.000595 1405. 1898.
1985(41) 0.000595 1404. 1904.
1908(40) 0.000625 1404. 1896.
1934(40) 0.000625 1404. 1874.
1906(40) 0.000625 1404. 1841.
1850(39) 0.000657 1403. 1802.
1826(39) 0.000657 1403. 1759.
1780(39) 0.000657 1403. 1716.
1683(38) 0.000693 1403. 1676.
1737(38) 0.000693 1402. 1640.
1650(37) 0.000730 1402. 1609.
1621(37) 0.000730 1402. 1583.
1580(36) 0.000772 1402. 1562.
1488(35) 0.000816 1401.2 1547.3
1433(35) 0.000816 1401.0 1537.6
1548(36) 0.000772 1401. 1533.
1550(36) 0.000772 1400. 1533.
1480(35) 0.000816 1400.2 1538.2
1441(35) 0.000816 1400.0 1548.3
1521(36) 0.000772 1400. 1563.
1523(36) 0.000772 1399. 1584.
1596(37) 0.000730 1399. 1610.
1634(37) 0.000730 1399. 1641.
1671(37) 0.000730 1399. 1677.
1766(39) 0.000657 1398. 1718.
1751(38) 0.000693 1398. 1762.
1769(39) 0.000657 1398. 1806.
1778(39) 0.000657 1398. 1850.
1934(40) 0.000625 1397. 1889.
1895(40) 0.000625 1397. 1920.
1938(39) 0.000657 1397. 1941.
1903(38) 0.000693 1397. 1949.
1935(39) 0.000657 1396. 1946.
1994(39) 0.000657 1396. 1932.
1923(39) 0.000657 1396. 1911.
1905(38) 0.000693 1396. 1889.
1860(38) 0.000693 1395. 1867.
1828(38) 0.000693 1395. 1849.
1838(38) 0.000693 1395. 1838.
1942(39) 0.000657 1395. 1834.
1845(38) 0.000693 1394. 1838.
1875(38) 0.000693 1394. 1847.
1856(38) 0.000693 1394. 1861.
1872(38) 0.000693 1394. 1875.
1949(39) 0.000657 1393. 1887.
1930(39) 0.000657 1393. 1892.
1900(38) 0.000693 1393. 1888.
1905(38) 0.000693 1393. 1874.
1934(39) 0.000657 1392. 1851.
1863(38) 0.000693 1392. 1822.
1849(38) 0.000693 1392. 1790.
1769(37) 0.000730 1392. 1757.
1798(37) 0.000730 1391. 1727.
1739(37) 0.000730 1391. 1700.
1690(36) 0.000772 1391. 1676.
1664(36) 0.000772 1391. 1656.
1607(35) 0.000816 1390.4 1640.2
1631(35) 0.000816 1390.2 1627.0
1685(36) 0.000772 1390. 1616.
1585(35) 0.000816 1389.7 1605.7
1606(35) 0.000816 1389.4 1595.9
1636(35) 0.000816 1389.2 1585.9
1558(35) 0.000816 1389.0 1575.7
1561(35) 0.000816 1388.7 1565.7
1563(35) 0.000816 1388.5 1556.4
1522(34) 0.000865 1388.2 1548.4
1585(35) 0.000816 1388.0 1541.8
1611(35) 0.000816 1387.7 1536.8
1561(35) 0.000816 1387.5 1533.4
1481(34) 0.000865 1387.3 1531.5
1544(34) 0.000865 1387.0 1530.8
1550(35) 0.000816 1386.8 1531.0
1471(34) 0.000865 1386.5 1531.9
1525(34) 0.000865 1386.3 1533.1
1494(34) 0.000865 1386.0 1534.4
1507(34) 0.000865 1385.8 1535.4
1531(34) 0.000865 1385.6 1536.1
1501(34) 0.000865 1385.3 1536.7
1497(34) 0.000865 1385.1 1537.5
1517(34) 0.000865 1384.8 1538.8
1569(35) 0.000816 1384.6 1540.9
1560(35) 0.000816 1384.4 1543.8
1564(35) 0.000816 1384.1 1547.4
1501(34) 0.000865 1383.9 1551.2
1525(34) 0.000865 1383.7 1554.8
1547(34) 0.000865 1383.4 1557.5
1547(34) 0.000865 1383.2 1558.9
1503(34) 0.000865 1382.9 1558.7
1567(35) 0.000816 1382.7 1557.0
1486(34) 0.000865 1382.5 1553.7
1505(34) 0.000865 1382.2 1549.4
1508(34) 0.000865 1382.0 1544.4
1498(34) 0.000865 1381.8 1539.2
1519(34) 0.000865 1381.5 1534.3
1532(34) 0.000865 1381.3 1530.2
1459(33) 0.000918 1381.1 1527.4
1511(34) 0.000865 1380.8 1526.1
1591(35) 0.000816 1380.6 1526.5
1532(34) 0.000865 1380.4 1528.7
1553(35) 0.000816 1380.1 1532.6
1508(34) 0.000865 1379.9 1537.6
1541(34) 0.000865 1379.7 1543.5
1559(35) 0.000816 1379.4 1549.4
1497(34) 0.000865 1379.2 1554.6
1613(35) 0.000816 1379.0 1558.6
1646(36) 0.000772 1379. 1561.
1583(35) 0.000816 1378.5 1562.3
1577(35) 0.000816 1378.3 1562.6
1574(35) 0.000816 1378.0 1563.0
1572(35) 0.000816 1377.8 1564.3
1651(36) 0.000772 1378. 1567.
1573(35) 0.000816 1377.4 1573.3
1634(35) 0.000816 1377.1 1582.4
1627(35) 0.000816 1376.9 1594.8
1639(36) 0.000772 1377. 1611.
1638(36) 0.000772 1376. 1629.
1637(36) 0.000772 1376. 1650.
1610(35) 0.000816 1376.0 1672.4
1664(36) 0.000772 1376. 1694.
1779(37) 0.000730 1376. 1712.
1715(36) 0.000772 1375. 1726.
1724(36) 0.000772 1375. 1733.
1709(36) 0.000772 1375. 1733.
1709(36) 0.000772 1375. 1724.
1748(37) 0.000730 1374. 1708.
1738(37) 0.000730 1374. 1686.
1634(35) 0.000816 1374.0 1660.8
1667(36) 0.000772 1374. 1634.
1631(35) 0.000816 1373.5 1607.9
1565(48) 0.000434 1373. 1583.
1573(35) 0.000816 1373.1 1560.4
1567(35) 0.000816 1372.9 1540.8
1583(35) 0.000816 1372.7 1524.5
1532(34) 0.000865 1372.4 1511.7
1470(33) 0.000918 1372.2 1502.3
1483(34) 0.000865 1372.0 1496.2
1488(34) 0.000865 1371.8 1493.1
1446(33) 0.000918 1371.6 1492.8
1467(33) 0.000918 1371.3 1495.1
1460(33) 0.000918 1371.1 1499.6
1490(34) 0.000865 1370.9 1506.1
1543(34) 0.000865 1370.7 1514.4
1517(34) 0.000865 1370.5 1524.1
1503(34) 0.000865 1370.3 1534.9
1530(34) 0.000865 1370.1 1546.3
1516(34) 0.000865 1369.8 1557.6
1548(34) 0.000865 1369.6 1568.1
1593(35) 0.000816 1369.4 1577.1
1582(35) 0.000816 1369.2 1583.9
1616(35) 0.000816 1369.0 1588.0
1620(35) 0.000816 1368.8 1588.9
1613(35) 0.000816 1368.6 1586.5
1592(35) 0.000816 1368.4 1580.8
1607(35) 0.000816 1368.1 1572.0
1591(35) 0.000816 1367.9 1560.7
1594(35) 0.000816 1367.7 1547.6
1595(35) 0.000816 1367.5 1533.5
1509(34) 0.000865 1367.3 1519.2
1541(34) 0.000865 1367.1 1505.4
1541(34) 0.000865 1366.9 1492.6
1540(34) 0.000865 1366.7 1481.1
1525(34) 0.000865 1366.5 1471.2
1452(33) 0.000918 1366.3 1463.1
1444(33) 0.000918 1366.1 1456.9
1410(33) 0.000918 1365.9 1452.7
1432(33) 0.000918 1365.7 1450.4
1450(33) 0.000918 1365.5 1450.2
1430(33) 0.000918 1365.3 1452.1
1455(33) 0.000918 1365.0 1456.3
1481(34) 0.000865 1364.8 1462.7
1485(34) 0.000865 1364.6 1471.5
1464(33) 0.000918 1364.4 1482.7
1489(34) 0.000865 1364.2 1496.5
1527(34) 0.000865 1364.0 1512.7
1523(34) 0.000865 1363.8 1531.3
1570(35) 0.000816 1363.6 1552.0
1614(35) 0.000816 1363.4 1574.4
1662(36) 0.000772 1363. 1598.
1680(36) 0.000772 1363. 1621.
1643(35) 0.000816 1362.8 1643.8
1650(35) 0.000816 1362.6 1664.0
1677(36) 0.000772 1362. 1681.
1702(36) 0.000772 1362. 1693.
1725(36) 0.000772 1362. 1699.
1735(36) 0.000772 1362. 1701.
1742(36) 0.000772 1362. 1697.
1723(36) 0.000772 1361. 1689.
1701(36) 0.000772 1361. 1678.
1717(36) 0.000772 1361. 1665.
1708(36) 0.000772 1361. 1652.
1687(36) 0.000772 1361. 1639.
1686(36) 0.000772 1361. 1629.
1719(36) 0.000772 1360. 1620.
1661(36) 0.000772 1360. 1613.
1611(35) 0.000816 1359.9 1608.8
1609(35) 0.000816 1359.8 1606.2
1633(35) 0.000816 1359.6 1605.1
1590(35) 0.000816 1359.4 1604.9
1628(35) 0.000816 1359.2 1604.9
1638(35) 0.000816 1359.0 1604.6
1625(35) 0.000816 1358.8 1603.5
1655(36) 0.000772 1359. 1602.
1659(36) 0.000772 1358. 1599.
1632(35) 0.000816 1358.3 1597.3
1661(36) 0.000772 1358. 1596.
1614(35) 0.000816 1357.9 1595.9
1604(35) 0.000816 1357.7 1597.3
1623(35) 0.000816 1357.5 1600.1
1637(35) 0.000816 1357.3 1604.1
1660(36) 0.000772 1357. 1609.
1610(35) 0.000816 1357.0 1613.5
1593(35) 0.000816 1356.8 1617.1
1612(35) 0.000816 1356.6 1618.7
1631(35) 0.000816 1356.4 1617.4
1647(35) 0.000816 1356.3 1612.9
1661(36) 0.000772 1356. 1605.
1623(35) 0.000816 1355.9 1594.0
1693(36) 0.000772 1356. 1581.
1630(35) 0.000816 1355.6 1566.5
1629(35) 0.000816 1355.4 1551.7
1585(35) 0.000816 1355.2 1537.2
1584(35) 0.000816 1355.0 1523.7
1625(35) 0.000816 1354.9 1511.4
1611(35) 0.000816 1354.7 1500.8
1531(34) 0.000865 1354.5 1491.9
1493(34) 0.000865 1354.3 1484.6
1488(34) 0.000865 1354.2 1478.7
1495(34) 0.000865 1354.0 1474.1
1521(34) 0.000865 1353.8 1470.3
1487(34) 0.000865 1353.7 1467.1
1505(34) 0.000865 1353.5 1464.0
1457(33) 0.000918 1353.3 1460.9
1476(33) 0.000918 1353.1 1457.4
1468(33) 0.000918 1353.0 1453.7
1499(34) 0.000865 1352.8 1449.8
1526(34) 0.000865 1352.6 1445.8
1472(33) 0.000918 1352.5 1441.9
1486(33) 0.000918 1352.3 1438.3
1454(33) 0.000918 1352.1 1434.9
1429(33) 0.000918 1352.0 1431.8
1422(33) 0.000918 1351.8 1429.1
1367(32) 0.000977 1351.7 1426.7
1390(32) 0.000977 1351.5 1424.7
1409(33) 0.000918 1351.3 1423.0
1421(33) 0.000918 1351.2 1421.6
1399(32) 0.000977 1351.0 1420.4
1405(33) 0.000918 1350.8 1419.4
1424(33) 0.000918 1350.7 1418.6
1410(33) 0.000918 1350.5 1418.0
1392(32) 0.000977 1350.4 1417.6
1416(33) 0.000918 1350.2 1417.4
1424(33) 0.000918 1350.1 1417.7
1439(33) 0.000918 1349.9 1418.3
1422(33) 0.000918 1349.7 1419.4
1421(33) 0.000918 1349.6 1421.1
1386(32) 0.000977 1349.4 1423.3
1403(33) 0.000918 1349.3 1425.9
1442(33) 0.000918 1349.1 1429.0
1414(33) 0.000918 1349.0 1432.5
1363(32) 0.000977 1348.8 1436.3
1450(33) 0.000918 1348.7 1440.1
1497(34) 0.000865 1348.5 1444.0
1481(33) 0.000918 1348.4 1447.8
1456(33) 0.000918 1348.2 1451.4
1450(33) 0.000918 1348.1 1455.0
1448(33) 0.000918 1347.9 1458.8
1482(33) 0.000918 1347.8 1462.9
1499(34) 0.000865 1347.6 1467.5
1506(34) 0.000865 1347.5 1472.9
1498(34) 0.000865 1347.3 1479.2
1546(34) 0.000865 1347.2 1486.5
1529(34) 0.000865 1347.0 1494.6
1524(34) 0.000865 1346.9 1503.5
1519(34) 0.000865 1346.8 1512.8
1535(34) 0.000865 1346.6 1522.3
1544(34) 0.000865 1346.5 1531.4
1571(34) 0.000865 1346.3 1539.8
1527(34) 0.000865 1346.2 1546.8
1546(34) 0.000865 1346.1 1552.0
1530(34) 0.000865 1345.9 1555.3
1513(34) 0.000865 1345.8 1556.5
1559(34) 0.000865 1345.6 1555.8
1572(34) 0.000865 1345.5 1553.7
1595(35) 0.000816 1345.4 1550.6
1586(35) 0.000816 1345.2 1547.2
1575(34) 0.000865 1345.1 1543.8
1595(35) 0.000816 1345.0 1540.9
1575(34) 0.000865 1344.8 1538.7
1584(35) 0.000816 1344.7 1537.2
1589(35) 0.000816 1344.6 1536.4
1527(34) 0.000865 1344.4 1536.2
1532(34) 0.000865 1344.3 1536.1
1553(34) 0.000865 1344.2 1536.2
1558(34) 0.000865 1344.0 1536.2
1527(34) 0.000865 1343.9 1536.3
1537(34) 0.000865 1343.8 1536.6
1571(34) 0.000865 1343.6 1537.5
1598(35) 0.000816 1343.5 1539.5
1608(35) 0.000816 1343.4 1543.0
1584(35) 0.000816 1343.3 1548.2
1554(34) 0.000865 1343.1 1555.5
1572(34) 0.000865 1343.0 1565.0
1580(35) 0.000816 1342.9 1576.5
1601(35) 0.000816 1342.8 1590.0
1613(35) 0.000816 1342.6 1605.0
1640(35) 0.000816 1342.5 1621.1
1669(36) 0.000772 1342. 1638.
1709(36) 0.000772 1342. 1654.
1681(36) 0.000772 1342. 1669.
1699(36) 0.000772 1342. 1681.
1702(36) 0.000772 1342. 1691.
1705(36) 0.000772 1342. 1698.
1758(36) 0.000772 1342. 1701.
1716(36) 0.000772 1342. 1700.
1699(36) 0.000772 1341. 1697.
1705(36) 0.000772 1341. 1691.
1729(36) 0.000772 1341. 1684.
1726(36) 0.000772 1341. 1676.
1697(36) 0.000772 1341. 1668.
1679(36) 0.000772 1341. 1660.
1670(36) 0.000772 1341. 1653.
1642(35) 0.000816 1340.6 1648.1
1690(36) 0.000772 1341. 1644.
1678(36) 0.000772 1340. 1642.
1626(35) 0.000816 1340.3 1642.1
1682(36) 0.000772 1340. 1643.
1680(36) 0.000772 1340. 1646.
1662(35) 0.000816 1340.0 1650.3
1594(35) 0.000816 1339.9 1655.4
1616(35) 0.000816 1339.8 1661.2
1635(36) 0.000772 1340. 1668.
1661(36) 0.000772 1340. 1675.
1675(37) 0.000730 1339. 1683.
1719(37) 0.000730 1339. 1692.
1711(37) 0.000730 1339. 1702.
1718(37) 0.000730 1339. 1714.
1715(37) 0.000730 1339. 1728.
1734(37) 0.000730 1339. 1742.
1761(38) 0.000693 1339. 1757.
1775(38) 0.000693 1339. 1773.
1761(38) 0.000693 1339. 1787.
1802(38) 0.000693 1339. 1800.
1829(38) 0.000693 1338. 1809.
1831(38) 0.000693 1338. 1814.
1805(38) 0.000693 1338. 1815.
1840(38) 0.000693 1338. 1811.
1787(38) 0.000693 1338. 1803.
1711(37) 0.000730 1338. 1790.
1809(38) 0.000693 1338. 1775.
1803(38) 0.000693 1338. 1759.
1779(38) 0.000693 1338. 1742.
1724(37) 0.000730 1338. 1725.
1716(37) 0.000730 1337. 1710.
1744(37) 0.000730 1337. 1696.
1678(37) 0.000730 1337. 1684.
1666(36) 0.000772 1337. 1674.
1694(37) 0.000730 1337. 1666.
1680(37) 0.000730 1337. 1659.
1639(36) 0.000772 1337. 1653.
1564(35) 0.000816 1336.8 1646.7
1638(36) 0.000772 1337. 1641.
1602(36) 0.000772 1337. 1634.
1675(37) 0.000730 1337. 1627.
1629(36) 0.000772 1336. 1619.
1634(36) 0.000772 1336. 1611.
1599(36) 0.000772 1336. 1602.
1615(36) 0.000772 1336. 1593.
1612(36) 0.000772 1336. 1585.
1546(35) 0.000816 1336.1 1577.1
1549(35) 0.000816 1336.0 1569.4
1527(35) 0.000816 1335.9 1562.1
1539(35) 0.000816 1335.8 1555.0
1510(35) 0.000816 1335.8 1548.0
1525(35) 0.000816 1335.7 1541.0
1543(35) 0.000816 1335.6 1534.1
1496(35) 0.000816 1335.5 1527.1
1503(35) 0.000816 1335.4 1520.2
1510(35) 0.000816 1335.4 1513.4
1452(34) 0.000865 1335.3 1507.1
1504(35) 0.000816 1335.2 1501.2
1473(34) 0.000865 1335.1 1496.1
1477(34) 0.000865 1335.1 1491.9
1482(34) 0.000865 1335.0 1488.7
1459(34) 0.000865 1334.9 1486.7
1500(35) 0.000816 1334.8 1485.7
1460(34) 0.000865 1334.8 1485.9
1478(34) 0.000865 1334.7 1487.2
1477(34) 0.000865 1334.6 1489.4
1469(34) 0.000865 1334.6 1492.3
1493(34) 0.000865 1334.5 1495.9
1519(35) 0.000816 1334.4 1499.8
1538(35) 0.000816 1334.4 1503.8
1496(35) 0.000816 1334.3 1507.6
1468(34) 0.000865 1334.2 1511.0
1419(34) 0.000865 1334.2 1513.8
1442(34) 0.000865 1334.1 1515.8
1546(35) 0.000816 1334.0 1517.0
1441(34) 0.000865 1334.0 1517.5
1468(34) 0.000865 1333.9 1517.6
1517(35) 0.000816 1333.8 1517.3
1529(35) 0.000816 1333.8 1517.1
1545(35) 0.000816 1333.7 1517.0
1530(35) 0.000816 1333.6 1517.2
1602(36) 0.000772 1334. 1518.
1559(35) 0.000816 1333.5 1518.5
1555(35) 0.000816 1333.5 1519.6
1583(36) 0.000772 1333. 1521.
1577(35) 0.000816 1333.3 1522.1
1576(35) 0.000816 1333.3 1523.2
1563(35) 0.000816 1333.2 1524.1
1543(35) 0.000816 1333.2 1524.4
1582(36) 0.000772 1333. 1524.
1542(35) 0.000816 1333.1 1522.7
1550(35) 0.000816 1333.0 1520.5
1508(35) 0.000816 1333.0 1517.3
1593(36) 0.000772 1333. 1513.
1539(35) 0.000816 1332.8 1508.6
1533(35) 0.000816 1332.8 1503.6
1565(35) 0.000816 1332.7 1498.5
1535(35) 0.000816 1332.7 1493.6
1480(34) 0.000865 1332.6 1489.2
1473(34) 0.000865 1332.6 1485.4
1522(35) 0.000816 1332.5 1482.3
1540(35) 0.000816 1332.5 1479.9
1501(35) 0.000816 1332.4 1478.3
1535(35) 0.000816 1332.4 1477.4
1468(34) 0.000865 1332.3 1477.0
1495(35) 0.000816 1332.3 1477.1
1549(35) 0.000816 1332.2 1477.4
1466(28) 0.001276 1332.2 1477.8
1466(35) 0.000816 1332.2 1478.3
1478(35) 0.000816 1332.1 1478.8
1510(36) 0.000772 1332. 1479.
1503(36) 0.000772 1332. 1480.
1526(36) 0.000772 1332. 1481.
1512(36) 0.000772 1332. 1482.
1512(36) 0.000772 1332. 1483.
1466(35) 0.000816 1331.8 1484.3
1514(36) 0.000772 1332. 1486.
1581(36) 0.000772 1332. 1488.
1571(36) 0.000772 1332. 1489.
1504(36) 0.000772 1332. 1491.
1547(36) 0.000772 1332. 1492.
1601(37) 0.000730 1332. 1492.
1476(35) 0.000816 1331.6 1492.2
1529(36) 0.000772 1332. 1491.
1534(36) 0.000772 1331. 1490.
1515(36) 0.000772 1331. 1488.
1587(37) 0.000730 1331. 1486.
1469(35) 0.000816 1331.4 1483.8
1555(36) 0.000772 1331. 1482.
1566(36) 0.000772 1331. 1480.
1534(36) 0.000772 1331. 1478.
1581(36) 0.000772 1331. 1477.
1521(36) 0.000772 1331. 1476.
1525(36) 0.000772 1331. 1475.
1523(36) 0.000772 1331. 1474.
1489(35) 0.000816 1331.1 1473.6
1469(35) 0.000816 1331.1 1473.0
1496(35) 0.000816 1331.0 1472.3
1439(35) 0.000816 1331.0 1471.6
1451(35) 0.000816 1331.0 1470.8
1498(35) 0.000816 1331.0 1469.9
1471(35) 0.000816 1330.9 1468.9
1482(35) 0.000816 1330.9 1468.0
1445(35) 0.000816 1330.9 1467.0
1496(35) 0.000816 1330.8 1466.2
1564(36) 0.000772 1331. 1466.
1563(36) 0.000772 1331. 1466.
1481(35) 0.000816 1330.8 1465.9
1559(36) 0.000772 1331. 1467.
1546(36) 0.000772 1331. 1469.
1521(36) 0.000772 1331. 1471.
1567(36) 0.000772 1331. 1475.
1507(36) 0.000772 1331. 1479.
1518(36) 0.000772 1331. 1484.
1519(36) 0.000772 1331. 1489.
1532(36) 0.000772 1331. 1495.
1551(36) 0.000772 1331. 1501.
1545(36) 0.000772 1331. 1508.
1505(36) 0.000772 1330. 1514.
1516(36) 0.000772 1330. 1519.
1549(36) 0.000772 1330. 1523.
1588(37) 0.000730 1330. 1527.
1582(36) 0.000772 1330. 1529.
1504(36) 0.000772 1330. 1529.
1520(36) 0.000772 1330. 1528.
1518(36) 0.000772 1330. 1527.
1612(37) 0.000730 1330. 1524.
1569(36) 0.000772 1330. 1520.
1575(36) 0.000772 1330. 1517.
1493(35) 0.000816 1330.3 1512.9
1488(35) 0.000816 1330.3 1509.6
1470(35) 0.000816 1330.2 1506.7
1448(35) 0.000816 1330.2 1504.6
1485(35) 0.000816 1330.2 1503.2
1500(35) 0.000816 1330.2 1502.8
1498(35) 0.000816 1330.2 1503.3
1436(35) 0.000816 1330.2 1504.8
1480(35) 0.000816 1330.2 1507.3
1530(36) 0.000772 1330. 1511.
1540(36) 0.000772 1330. 1515.
1499(35) 0.000816 1330.1 1520.8
1567(36) 0.000772 1330. 1527.
1589(37) 0.000730 1330. 1535.
1590(37) 0.000730 1330. 1543.
1614(37) 0.000730 1330. 1552.
1549(36) 0.000772 1330. 1561.
1552(36) 0.000772 1330. 1571.
1579(36) 0.000772 1330. 1581.
1584(36) 0.000772 1330. 1591.
1563(36) 0.000772 1330. 1601.
1604(37) 0.000730 1330. 1609.
1556(36) 0.000772 1330. 1616.
1606(37) 0.000730 1330. 1621.
1619(37) 0.000730 1330. 1624.
1616(37) 0.000730 1330. 1625.
1587(37) 0.000730 1330. 1623.
1627(37) 0.000730 1330. 1619.
1607(37) 0.000730 1330. 1612.
1597(37) 0.000730 1330. 1604.
1608(37) 0.000730 1330. 1595.
1608(37) 0.000730 1330. 1585.
1574(36) 0.000772 1330. 1575.
1550(36) 0.000772 1330. 1564.
1528(36) 0.000772 1330. 1554.
1550(36) 0.000772 1330. 1545.
1587(37) 0.000730 1330. 1537.
1576(36) 0.000772 1330. 1530.
1504(36) 0.000772 1330. 1524.
1491(34) 0.000865 1329.9 1518.6
1505(34) 0.000865 1329.8 1514.7
1469(34) 0.000865 1329.8 1511.8
1461(34) 0.000865 1329.8 1509.9
1488(34) 0.000865 1329.8 1508.6
1473(34) 0.000865 1329.8 1508.0
1488(34) 0.000865 1329.8 1507.7
1535(35) 0.000816 1329.8 1507.7
1509(35) 0.000816 1329.8 1507.8
1437(34) 0.000865 1329.8 1507.9
1495(34) 0.000865 1329.8 1507.9
1543(35) 0.000816 1329.8 1508.0
1542(35) 0.000816 1329.8 1508.1
1479(34) 0.000865 1329.8 1508.2
1508(35) 0.000816 1329.8 1508.3
1475(34) 0.000865 1329.8 1508.6
1551(35) 0.000816 1329.8 1508.9
1486(34) 0.000865 1329.8 1509.3
1471(34) 0.000865 1329.8 1509.7
1504(34) 0.000865 1329.8 1510.0
1461(34) 0.000865 1329.8 1510.3
1538(35) 0.000816 1329.8 1510.4
1478(34) 0.000865 1329.8 1510.3
1471(34) 0.000865 1329.8 1510.0
1510(35) 0.000816 1329.8 1509.4
1514(35) 0.000816 1329.8 1508.6
1503(34) 0.000865 1329.8 1507.6
1490(34) 0.000865 1329.8 1506.4
1514(35) 0.000816 1329.8 1505.3
1551(35) 0.000816 1329.8 1504.3
1527(35) 0.000816 1329.8 1503.5
1479(34) 0.000865 1329.8 1503.0
1512(35) 0.000816 1329.8 1503.0
1506(34) 0.000865 1329.8 1503.5
1533(35) 0.000816 1329.8 1504.5
1554(35) 0.000816 1329.8 1505.9
1531(35) 0.000816 1329.8 1507.9
1506(34) 0.000865 1329.8 1510.1
1475(34) 0.000865 1329.8 1512.6
1463(34) 0.000865 1329.8 1515.2
1518(35) 0.000816 1329.8 1517.9
1521(35) 0.000816 1329.8 1520.4
1508(35) 0.000816 1329.8 1522.8
1538(35) 0.000816 1329.8 1524.9
1506(34) 0.000865 1329.8 1526.8
1495(34) 0.000865 1329.8 1528.5
1512(35) 0.000816 1329.8 1530.0
1568(35) 0.000816 1329.8 1531.5
1567(35) 0.000816 1329.8 1533.0
1511(35) 0.000816 1329.8 1534.6
1603(36) 0.000772 1330. 1536.
1601(36) 0.000772 1330. 1538.
1558(35) 0.000816 1329.8 1540.2
1602(36) 0.000772 1330. 1542.
1548(35) 0.000816 1329.8 1544.2
1591(35) 0.000816 1329.8 1546.1
1581(35) 0.000816 1329.8 1547.8
1548(35) 0.000816 1329.8 1549.2
1613(36) 0.000772 1330. 1550.
1605(36) 0.000772 1330. 1551.
1554(35) 0.000816 1329.8 1550.9
1650(36) 0.000772 1330. 1550.
1593(35) 0.000816 1329.8 1549.0
1558(35) 0.000816 1329.8 1546.9
1544(35) 0.000816 1329.8 1543.9
1591(35) 0.000816 1329.8 1540.2
1543(35) 0.000816 1329.8 1535.6
1574(35) 0.000816 1329.8 1530.5
1576(35) 0.000816 1329.8 1524.8
1497(34) 0.000865 1329.8 1518.7
1525(35) 0.000816 1329.8 1512.5
1540(35) 0.000816 1329.8 1506.4
1533(35) 0.000816 1329.8 1500.4
1492(34) 0.000865 1329.8 1494.8
1511(35) 0.000816 1329.8 1489.7
1466(34) 0.000865 1329.8 1485.3
1491(34) 0.000865 1329.8 1481.6
1421(33) 0.000918 1329.8 1478.7
1453(34) 0.000865 1329.8 1476.8
1466(34) 0.000865 1329.8 1475.8
1483(34) 0.000865 1329.8 1475.7
1429(34) 0.000865 1329.8 1476.6
1494(34) 0.000865 1329.8 1478.5
1440(34) 0.000865 1329.8 1481.2
1440(34) 0.000865 1329.8 1484.8
1453(34) 0.000865 1329.8 1489.2
1494(34) 0.000865 1329.8 1494.3
1499(34) 0.000865 1329.8 1499.9
1543(35) 0.000816 1329.8 1506.0
1516(35) 0.000816 1329.8 1512.3
1535(35) 0.000816 1329.8 1518.9
1580(35) 0.000816 1329.8 1525.3
1555(35) 0.000816 1329.8 1531.7
1526(35) 0.000816 1329.8 1537.7
1537(35) 0.000816 1329.8 1543.3
1546(35) 0.000816 1329.8 1548.3
1610(36) 0.000772 1330. 1553.
1527(35) 0.000816 1329.8 1556.2
1581(35) 0.000816 1329.8 1559.0
1545(49) 0.000416 1330. 1561.
1575(35) 0.000816 1329.8 1561.7
1636(35) 0.000816 1329.8 1561.7
1611(35) 0.000816 1329.8 1560.7
1592(35) 0.000816 1329.8 1558.9
1583(35) 0.000816 1329.8 1556.2
1566(35) 0.000816 1329.8 1553.0
1536(34) 0.000865 1329.8 1549.2
1592(35) 0.000816 1329.8 1545.1
1595(35) 0.000816 1329.8 1540.9
1582(35) 0.000816 1329.8 1536.7
1578(35) 0.000816 1329.8 1532.6
1585(35) 0.000816 1329.8 1528.8
1557(34) 0.000865 1329.8 1525.4
1596(35) 0.000816 1329.8 1522.3
1578(35) 0.000816 1329.8 1519.6
1535(34) 0.000865 1329.8 1517.3
1576(35) 0.000816 1329.8 1515.3
1579(35) 0.000816 1329.8 1513.6
1527(34) 0.000865 1329.8 1512.1
1608(35) 0.000816 1329.8 1510.8
1528(34) 0.000865 1329.8 1509.5
1456(33) 0.000918 1329.7 1508.2
1534(34) 0.000865 1329.7 1506.9
1569(35) 0.000816 1329.7 1505.6
1494(34) 0.000865 1329.7 1504.2
1531(34) 0.000865 1329.7 1502.9
1548(34) 0.000865 1329.7 1501.5
1523(34) 0.000865 1329.7 1500.3
1454(33) 0.000918 1329.7 1499.1
1510(34) 0.000865 1329.7 1497.9
1426(33) 0.000918 1329.7 1496.9
1523(34) 0.000865 1329.7 1495.8
1540(34) 0.000865 1329.7 1494.8
1560(34) 0.000865 1329.7 1493.8
1454(33) 0.000918 1329.6 1492.7
1475(34) 0.000865 1329.6 1491.6
1490(34) 0.000865 1329.6 1490.3
1512(34) 0.000865 1329.6 1488.9
1516(34) 0.000865 1329.6 1487.4
1423(33) 0.000918 1329.6 1485.7
1480(34) 0.000865 1329.6 1483.9
1498(34) 0.000865 1329.6 1482.0
1514(34) 0.000865 1329.6 1479.9
1533(34) 0.000865 1329.6 1477.7
1507(34) 0.000865 1329.5 1475.5
1528(34) 0.000865 1329.5 1473.2
1514(34) 0.000865 1329.5 1470.9
1505(34) 0.000865 1329.5 1468.5
1523(34) 0.000865 1329.5 1466.3
1449(33) 0.000918 1329.5 1464.1
1455(33) 0.000918 1329.5 1462.0
1481(34) 0.000865 1329.4 1460.1
1457(33) 0.000918 1329.4 1458.4
1476(34) 0.000865 1329.4 1457.0
1459(33) 0.000918 1329.4 1455.8
1481(34) 0.000865 1329.4 1454.8
1478(34) 0.000865 1329.4 1454.2
1500(34) 0.000865 1329.4 1454.0
1453(33) 0.000918 1329.3 1454.1
1478(34) 0.000865 1329.3 1454.6
1499(34) 0.000865 1329.3 1455.4
1472(33) 0.000918 1329.3 1456.6
1468(33) 0.000918 1329.3 1458.2
1549(34) 0.000865 1329.2 1460.2
1434(33) 0.000918 1329.2 1462.6
1474(34) 0.000865 1329.2 1465.5
1555(34) 0.000865 1329.2 1468.7
1480(34) 0.000865 1329.2 1472.4
1512(34) 0.000865 1329.2 1476.5
1525(34) 0.000865 1329.1 1481.1
1541(34) 0.000865 1329.1 1485.9
1496(34) 0.000865 1329.1 1491.1
1507(34) 0.000865 1329.1 1496.6
1543(34) 0.000865 1329.0 1502.2
1573(35) 0.000816 1329.0 1507.9
1536(34) 0.000865 1329.0 1513.5
1555(34) 0.000865 1329.0 1519.0
1581(35) 0.000816 1329.0 1524.2
1537(34) 0.000865 1328.9 1529.0
1579(35) 0.000816 1328.9 1533.2
1568(35) 0.000816 1328.9 1536.8
1557(34) 0.000865 1328.9 1539.6
1556(34) 0.000865 1328.8 1541.6
1547(34) 0.000865 1328.8 1542.7
1524(34) 0.000865 1328.8 1543.0
1524(34) 0.000865 1328.8 1542.5
1541(34) 0.000865 1328.7 1541.2
1589(35) 0.000816 1328.7 1539.4
1587(35) 0.000816 1328.7 1537.0
1616(35) 0.000816 1328.7 1534.3
1585(35) 0.000816 1328.6 1531.4
1559(34) 0.000865 1328.6 1528.5
1549(34) 0.000865 1328.6 1525.8
1567(35) 0.000816 1328.5 1523.3
1551(34) 0.000865 1328.5 1521.3
1503(34) 0.000865 1328.5 1519.8
1515(34) 0.000865 1328.5 1519.0
1569(35) 0.000816 1328.4 1518.9
1524(34) 0.000865 1328.4 1519.6
1584(29) 0.001189 1328.4 1521.2
1566(34) 0.000865 1328.3 1523.6
1546(34) 0.000865 1328.3 1526.8
1595(35) 0.000816 1328.3 1530.9
1554(34) 0.000865 1328.2 1535.8
1614(35) 0.000816 1328.2 1541.5
1564(34) 0.000865 1328.2 1547.8
1561(34) 0.000865 1328.1 1554.7
1589(35) 0.000816 1328.1 1562.1
1596(35) 0.000816 1328.1 1569.8
1613(35) 0.000816 1328.0 1577.6
1588(35) 0.000816 1328.0 1585.5
1571(35) 0.000816 1328.0 1593.2
1588(35) 0.000816 1327.9 1600.6
1634(35) 0.000816 1327.9 1607.5
1625(35) 0.000816 1327.9 1613.8
1617(35) 0.000816 1327.8 1619.4
1645(35) 0.000816 1327.8 1624.1
1615(35) 0.000816 1327.8 1627.9
1596(35) 0.000816 1327.7 1630.8
1628(35) 0.000816 1327.7 1632.7
1677(36) 0.000772 1328. 1634.
1696(36) 0.000772 1328. 1634.
1678(36) 0.000772 1328. 1633.
1614(35) 0.000816 1327.5 1631.2
1616(35) 0.000816 1327.5 1628.8
1703(36) 0.000772 1327. 1626.
1662(36) 0.000772 1327. 1622.
1628(35) 0.000816 1327.4 1618.0
1611(35) 0.000816 1327.3 1613.5
1660(36) 0.000772 1327. 1609.
1655(35) 0.000816 1327.2 1604.2
1636(35) 0.000816 1327.2 1599.6
1625(35) 0.000816 1327.2 1595.1
1651(35) 0.000816 1327.1 1590.7
1617(35) 0.000816 1327.1 1586.7
1617(35) 0.000816 1327.0 1582.9
1646(35) 0.000816 1327.0 1579.4
1617(35) 0.000816 1327.0 1576.2
1612(35) 0.000816 1326.9 1573.3
1622(35) 0.000816 1326.9 1570.7
1595(35) 0.000816 1326.8 1568.4
1568(35) 0.000816 1326.8 1566.2
1515(34) 0.000865 1326.7 1564.3
1560(34) 0.000865 1326.7 1562.5
1565(34) 0.000865 1326.7 1560.8
1577(35) 0.000816 1326.6 1559.2
1574(35) 0.000816 1326.6 1557.7
1544(34) 0.000865 1326.5 1556.2
1553(34) 0.000865 1326.5 1554.7
1566(34) 0.000865 1326.4 1553.2
1559(34) 0.000865 1326.4 1551.5
1563(34) 0.000865 1326.3 1549.8
1566(35) 0.000816 1326.3 1547.9
1565(34) 0.000865 1326.3 1545.9
1513(34) 0.000865 1326.2 1543.6
1514(34) 0.000865 1326.2 1541.1
1511(34) 0.000865 1326.1 1538.4
1526(34) 0.000865 1326.1 1535.4
1511(34) 0.000865 1326.0 1532.2
1520(34) 0.000865 1326.0 1528.8
1531(34) 0.000865 1325.9 1525.2
1572(35) 0.000816 1325.9 1521.5
1542(34) 0.000865 1325.8 1517.8
1479(34) 0.000865 1325.8 1514.0
1492(34) 0.000865 1325.7 1510.4
1472(33) 0.000918 1325.7 1506.9
1479(34) 0.000865 1325.7 1503.7
1505(34) 0.000865 1325.6 1500.7
1504(34) 0.000865 1325.6 1498.1
1470(33) 0.000918 1325.5 1495.9
1462(33) 0.000918 1325.5 1494.1
1512(34) 0.000865 1325.4 1492.8
1519(34) 0.000865 1325.4 1492.0
1474(33) 0.000918 1325.3 1491.7
1487(34) 0.000865 1325.3 1491.9
1491(34) 0.000865 1325.2 1492.6
1511(34) 0.000865 1325.2 1493.9
1544(34) 0.000865 1325.1 1495.7
1543(34) 0.000865 1325.1 1497.9
1548(34) 0.000865 1325.1 1500.6
1545(34) 0.000865 1325.0 1503.8
1535(34) 0.000865 1325.0 1507.3
1507(34) 0.000865 1324.9 1511.1
1522(34) 0.000865 1324.9 1515.1
1549(34) 0.000865 1324.8 1519.3
1545(34) 0.000865 1324.8 1523.5
1554(34) 0.000865 1324.7 1527.8
1528(34) 0.000865 1324.7 1531.9
1555(34) 0.000865 1324.6 1535.8
1560(34) 0.000865 1324.6 1539.3
1544(34) 0.000865 1324.6 1542.4
1569(35) 0.000816 1324.5 1545.0
1574(35) 0.000816 1324.5 1547.1
1553(34) 0.000865 1324.4 1548.5
1569(35) 0.000816 1324.4 1549.3
1612(35) 0.000816 1324.3 1549.4
1592(35) 0.000816 1324.3 1548.9
1546(34) 0.000865 1324.3 1547.9
1536(34) 0.000865 1324.2 1546.3
1578(35) 0.000816 1324.2 1544.4
1573(35) 0.000816 1324.1 1542.0
1565(35) 0.000816 1324.1 1539.4
1558(35) 0.000816 1324.0 1536.6
1548(35) 0.000816 1324.0 1533.6
1573(35) 0.000816 1324.0 1530.7
1554(35) 0.000816 1323.9 1527.7
1532(35) 0.000816 1323.9 1524.8
1600(35) 0.000816 1323.9 1521.9
1586(35) 0.000816 1323.8 1519.2
1572(35) 0.000816 1323.8 1516.6
1547(35) 0.000816 1323.7 1514.1
1519(34) 0.000865 1323.7 1511.7
1485(34) 0.000865 1323.7 1509.5
1495(34) 0.000865 1323.6 1507.4
1497(34) 0.000865 1323.6 1505.3
1523(34) 0.000865 1323.6 1503.2
1528(34) 0.000865 1323.5 1501.2
1529(34) 0.000865 1323.5 1499.2
1516(34) 0.000865 1323.5 1497.2
1475(34) 0.000865 1323.4 1495.0
1514(34) 0.000865 1323.4 1492.8
1455(34) 0.000865 1323.4 1490.5
1454(34) 0.000865 1323.4 1488.2
1450(34) 0.000865 1323.3 1485.7
1483(34) 0.000865 1323.3 1483.1
1521(34) 0.000865 1323.3 1480.5
1492(34) 0.000865 1323.3 1477.9
1468(34) 0.000865 1323.2 1475.2
1488(34) 0.000865 1323.2 1472.6
1476(34) 0.000865 1323.2 1470.0
1468(34) 0.000865 1323.2 1467.5
1423(33) 0.000918 1323.2 1465.1
1433(33) 0.000918 1323.1 1462.9
1417(33) 0.000918 1323.1 1460.8
1434(33) 0.000918 1323.1 1458.9
1488(34) 0.000865 1323.1 1457.2
1488(34) 0.000865 1323.1 1455.7
1462(34) 0.000865 1323.1 1454.3
1444(34) 0.000865 1323.0 1453.2
1432(33) 0.000918 1323.0 1452.3
1450(34) 0.000865 1323.0 1451.5
1503(34) 0.000865 1323.0 1451.0
1496(34) 0.000865 1323.0 1450.6
1522(34) 0.000865 1323.0 1450.3
1420(33) 0.000918 1323.0 1450.2
1477(34) 0.000865 1323.0 1450.1
1469(34) 0.000865 1323.0 1450.2
1501(34) 0.000865 1323.0 1450.3
1498(34) 0.000865 1323.0 1450.4
1484(34) 0.000865 1323.0 1450.5
1524(34) 0.000865 1323.0 1450.6
1465(34) 0.000865 1323.0 1450.7
1464(34) 0.000865 1323.0 1450.6
1498(34) 0.000865 1323.0 1450.5
1475(34) 0.000865 1323.0 1450.3
1489(34) 0.000865 1323.0 1450.0
1454(34) 0.000865 1323.1 1449.5
1472(34) 0.000865 1323.1 1448.9
1447(34) 0.000865 1323.1 1448.2
1443(34) 0.000865 1323.1 1447.4
1461(34) 0.000865 1323.1 1446.4
1504(34) 0.000865 1323.1 1445.3
1447(34) 0.000865 1323.2 1444.2
1442(34) 0.000865 1323.2 1442.9
1442(34) 0.000865 1323.2 1441.5
1428(33) 0.000918 1323.3 1440.0
1396(33) 0.000918 1323.3 1438.4
1418(33) 0.000918 1323.3 1436.7
1451(34) 0.000865 1323.4 1434.9
1461(34) 0.000865 1323.4 1433.1
1456(34) 0.000865 1323.4 1431.2
1453(34) 0.000865 1323.5 1429.4
1499(34) 0.000865 1323.5 1427.5
1457(34) 0.000865 1323.6 1425.6
1442(33) 0.000918 1323.6 1423.8
1375(33) 0.000918 1323.7 1422.0
1367(33) 0.000918 1323.7 1420.4
1419(33) 0.000918 1323.8 1418.9
1398(33) 0.000918 1323.8 1417.5
1413(33) 0.000918 1323.9 1416.2
1455(34) 0.000865 1324.0 1415.2
1392(33) 0.000918 1324.0 1414.4
1396(33) 0.000918 1324.1 1413.8
1410(33) 0.000918 1324.2 1413.4
1389(33) 0.000918 1324.3 1413.3
1418(33) 0.000918 1324.3 1413.5
1427(33) 0.000918 1324.4 1413.9
1387(33) 0.000918 1324.5 1414.6
1402(33) 0.000918 1324.6 1415.7
1442(33) 0.000918 1324.7 1417.0
1485(34) 0.000865 1324.8 1418.6
1452(34) 0.000865 1324.9 1420.6
1444(34) 0.000865 1325.0 1422.8
1430(33) 0.000918 1325.1 1425.4
1417(33) 0.000918 1325.2 1428.3
1449(34) 0.000865 1325.3 1431.6
1455(34) 0.000865 1325.4 1435.1
1489(34) 0.000865 1325.5 1439.0
1503(34) 0.000865 1325.6 1443.1
1428(34) 0.000865 1325.7 1447.6
1448(34) 0.000865 1325.9 1452.3
1476(34) 0.000865 1326.0 1457.3
1455(34) 0.000865 1326.1 1462.6
1546(35) 0.000816 1326.2 1468.1
1523(35) 0.000816 1326.4 1473.8
1493(34) 0.000865 1326.5 1479.7
1487(34) 0.000865 1326.7 1485.8
1459(34) 0.000865 1326.8 1492.0
1490(34) 0.000865 1327.0 1498.2
1478(34) 0.000865 1327.1 1504.6
1509(34) 0.000865 1327.3 1510.9
1569(35) 0.000816 1327.5 1517.2
1553(35) 0.000816 1327.6 1523.4
1544(35) 0.000816 1327.8 1529.5
1549(35) 0.000816 1328.0 1535.3
1543(35) 0.000816 1328.2 1541.0
1538(35) 0.000816 1328.3 1546.3
1551(35) 0.000816 1328.5 1551.2
1563(35) 0.000816 1328.7 1555.7
1541(35) 0.000816 1328.9 1559.9
1632(36) 0.000772 1329. 1564.
1673(36) 0.000772 1329. 1567.
1626(36) 0.000772 1330. 1569.
1591(35) 0.000816 1329.8 1571.6
1624(36) 0.000772 1330. 1573.
1575(35) 0.000816 1330.2 1574.8
1611(36) 0.000772 1330. 1576.
1592(35) 0.000816 1330.7 1576.2
1597(35) 0.000816 1330.9 1576.5
1632(36) 0.000772 1331. 1576.
1616(36) 0.000772 1331. 1576.
1666(36) 0.000772 1332. 1576.
1697(36) 0.000772 1332. 1575.
1618(36) 0.000772 1332. 1574.
1564(35) 0.000816 1332.5 1573.0
1598(35) 0.000816 1332.8 1571.9
1600(35) 0.000816 1333.0 1570.7
1620(36) 0.000772 1333. 1569.
1632(36) 0.000772 1334. 1568.
1664(36) 0.000772 1334. 1567.
1580(35) 0.000816 1334.2 1565.6
1600(35) 0.000816 1334.5 1564.2
1572(35) 0.000816 1334.9 1562.9
1576(35) 0.000816 1335.2 1561.6
1609(36) 0.000772 1336. 1560.
1593(35) 0.000816 1335.9 1559.0
1605(35) 0.000816 1336.2 1557.7
1565(35) 0.000816 1336.5 1556.4
1567(35) 0.000816 1336.9 1555.2
1554(35) 0.000816 1337.3 1553.9
1595(35) 0.000816 1337.6 1552.7
1608(36) 0.000772 1338. 1552.
1580(35) 0.000816 1338.4 1550.4
1554(35) 0.000816 1338.8 1549.3
1569(35) 0.000816 1339.2 1548.3
1587(35) 0.000816 1339.6 1547.4
1585(35) 0.000816 1340.0 1546.5
1595(35) 0.000816 1340.4 1545.8
1591(35) 0.000816 1340.8 1545.1
1573(35) 0.000816 1341.3 1544.6
1562(35) 0.000816 1341.7 1544.2
1531(35) 0.000816 1342.1 1543.9
1494(34) 0.000865 1342.6 1543.8
1499(34) 0.000865 1343.1 1543.8
1556(35) 0.000816 1343.5 1543.9
1592(35) 0.000816 1344.0 1544.1
1557(35) 0.000816 1344.5 1544.3
1551(35) 0.000816 1345.0 1544.7
1565(35) 0.000816 1345.5 1545.1
1541(35) 0.000816 1346.0 1545.6
1553(35) 0.000816 1346.5 1546.2
1562(35) 0.000816 1347.0 1546.7
1562(35) 0.000816 1347.5 1547.3
1548(35) 0.000816 1348.1 1547.9
1557(35) 0.000816 1348.6 1548.5
1552(35) 0.000816 1349.2 1549.2
1516(34) 0.000865 1349.8 1549.8
1528(35) 0.000816 1350.3 1550.5
1542(35) 0.000816 1350.9 1551.2
1571(35) 0.000816 1351.5 1552.0
1550(35) 0.000816 1352.1 1552.9
1567(35) 0.000816 1352.7 1553.8
1562(35) 0.000816 1353.4 1554.9
1581(35) 0.000816 1354.0 1556.1
1595(35) 0.000816 1354.6 1557.5
1564(35) 0.000816 1355.3 1559.0
1550(35) 0.000816 1355.9 1560.7
1604(35) 0.000816 1356.6 1562.7
1585(35) 0.000816 1357.3 1564.8
1519(35) 0.000816 1358.0 1567.1
1573(35) 0.000816 1358.7 1569.7
1596(35) 0.000816 1359.4 1572.4
1583(35) 0.000816 1360.1 1575.4
1608(36) 0.000772 1361. 1579.
1613(36) 0.000772 1362. 1582.
1619(36) 0.000772 1362. 1586.
1625(36) 0.000772 1363. 1589.
1650(36) 0.000772 1364. 1593.
1635(36) 0.000772 1365. 1597.
1597(29) 0.001189 1365.4 1601.6
1576(35) 0.000816 1366.2 1605.8
1620(36) 0.000772 1367. 1610.
1632(36) 0.000772 1368. 1615.
1609(36) 0.000772 1369. 1619.
1629(36) 0.000772 1370. 1623.
1633(36) 0.000772 1370. 1628.
1628(36) 0.000772 1371. 1632.
1693(37) 0.000730 1372. 1636.
1692(37) 0.000730 1373. 1641.
1695(37) 0.000730 1374. 1645.
1706(37) 0.000730 1375. 1649.
1665(36) 0.000772 1376. 1652.
1654(36) 0.000772 1377. 1656.
1667(36) 0.000772 1378. 1660.
1686(36) 0.000772 1379. 1663.
1694(37) 0.000730 1380. 1666.
1695(37) 0.000730 1381. 1669.
1685(36) 0.000772 1382. 1672.
1714(37) 0.000730 1383. 1675.
1735(37) 0.000730 1384. 1677.
1711(37) 0.000730 1385. 1680.
1695(37) 0.000730 1386. 1682.
1683(36) 0.000772 1387. 1684.
1692(37) 0.000730 1388. 1686.
1731(37) 0.000730 1389. 1688.
1715(37) 0.000730 1390. 1690.
1674(36) 0.000772 1392. 1691.
1723(37) 0.000730 1393. 1693.
1730(37) 0.000730 1394. 1694.
1718(37) 0.000730 1395. 1695.
1707(37) 0.000730 1396. 1696.
1722(37) 0.000730 1397. 1697.
1739(37) 0.000730 1399. 1698.
1708(37) 0.000730 1400. 1699.
1745(37) 0.000730 1401. 1699.
1772(37) 0.000730 1402. 1700.
1757(37) 0.000730 1404. 1700.
1754(37) 0.000730 1405. 1700.
1788(38) 0.000693 1406. 1700.
1736(37) 0.000730 1408. 1700.
1746(37) 0.000730 1409. 1700.
1729(37) 0.000730 1410. 1699.
1709(37) 0.000730 1412. 1699.
1711(37) 0.000730 1413. 1698.
1677(36) 0.000772 1415. 1697.
1693(37) 0.000730 1416. 1696.
1735(37) 0.000730 1418. 1695.
1723(37) 0.000730 1419. 1694.
1723(37) 0.000730 1421. 1693.
1721(37) 0.000730 1422. 1691.
1714(37) 0.000730 1424. 1690.
1700(37) 0.000730 1425. 1688.
1720(37) 0.000730 1427. 1687.
1740(37) 0.000730 1428. 1685.
1755(37) 0.000730 1430. 1684.
1770(37) 0.000730 1432. 1682.
1743(37) 0.000730 1433. 1681.
1735(37) 0.000730 1435. 1680.
1702(37) 0.000730 1436. 1679.
1699(37) 0.000730 1438. 1678.
1735(37) 0.000730 1440. 1678.
1703(37) 0.000730 1442. 1677.
1663(36) 0.000772 1443. 1677.
1687(36) 0.000772 1445. 1677.
1698(37) 0.000730 1447. 1677.
1704(37) 0.000730 1449. 1677.
1716(37) 0.000730 1451. 1678.
1708(37) 0.000730 1453. 1679.
1722(37) 0.000730 1454. 1680.
1705(37) 0.000730 1456. 1681.
1699(37) 0.000730 1458. 1682.
1687(36) 0.000772 1460. 1684.
1692(37) 0.000730 1462. 1686.
1729(37) 0.000730 1464. 1688.
1767(37) 0.000730 1466. 1690.
1732(37) 0.000730 1468. 1693.
1739(37) 0.000730 1470. 1695.
1766(37) 0.000730 1472. 1698.
1760(37) 0.000730 1474. 1701.
1756(37) 0.000730 1477. 1704.
1746(37) 0.000730 1479. 1707.
1726(37) 0.000730 1481. 1710.
1788(38) 0.000693 1483. 1714.
1740(37) 0.000730 1485. 1717.
1724(37) 0.000730 1488. 1720.
1749(37) 0.000730 1490. 1724.
1721(37) 0.000730 1492. 1727.
1780(37) 0.000730 1494. 1731.
1826(38) 0.000693 1497. 1734.
1773(37) 0.000730 1499. 1738.
1742(37) 0.000730 1502. 1741.
1781(37) 0.000730 1504. 1745.
1816(38) 0.000693 1506. 1748.
1767(37) 0.000730 1509. 1751.
1758(37) 0.000730 1511. 1754.
1736(37) 0.000730 1514. 1757.
1753(37) 0.000730 1517. 1760.
1812(38) 0.000693 1519. 1762.
1778(37) 0.000730 1522. 1765.
1769(38) 0.000693 1524. 1767.
1818(38) 0.000693 1527. 1770.
1765(38) 0.000693 1530. 1772.
1745(38) 0.000693 1532. 1773.
1750(38) 0.000693 1535. 1775.
1792(38) 0.000693 1538. 1776.
1795(38) 0.000693 1541. 1778.
1797(38) 0.000693 1544. 1779.
1837(39) 0.000657 1547. 1780.
1800(38) 0.000693 1549. 1780.
1793(38) 0.000693 1552. 1781.
1776(38) 0.000693 1555. 1781.
1781(38) 0.000693 1558. 1782.
1840(39) 0.000657 1561. 1782.
1793(38) 0.000693 1564. 1782.
1807(38) 0.000693 1567. 1782.
1771(38) 0.000693 1571. 1782.
1860(39) 0.000657 1574. 1782.
1823(39) 0.000657 1577. 1781.
1753(38) 0.000693 1580. 1781.
1820(38) 0.000693 1583. 1781.
1818(38) 0.000693 1587. 1780.
1811(38) 0.000693 1590. 1780.
1818(38) 0.000693 1593. 1780.
1842(39) 0.000657 1597. 1779.
1771(38) 0.000693 1600. 1779.
1792(38) 0.000693 1603. 1779.
1835(39) 0.000657 1607. 1779.
1775(38) 0.000693 1610. 1779.
1765(38) 0.000693 1614. 1779.
1812(38) 0.000693 1618. 1779.
1765(38) 0.000693 1621. 1779.
1775(38) 0.000693 1625. 1780.
1834(39) 0.000657 1628. 1780.
1774(38) 0.000693 1632. 1781.
1753(38) 0.000693 1636. 1782.
1776(38) 0.000693 1640. 1783.
1715(37) 0.000730 1644. 1784.
1753(38) 0.000693 1647. 1785.
1795(38) 0.000693 1651. 1787.
1819(39) 0.000657 1655. 1788.
1823(39) 0.000657 1659. 1790.
1853(39) 0.000657 1663. 1792.
1780(38) 0.000693 1667. 1794.
1800(38) 0.000693 1671. 1796.
1863(39) 0.000657 1676. 1799.
1890(39) 0.000657 1680. 1801.
1829(39) 0.000657 1684. 1804.
1807(38) 0.000693 1688. 1807.
1857(39) 0.000657 1693. 1810.
1850(39) 0.000657 1697. 1813.
1831(39) 0.000657 1701. 1816.
1870(39) 0.000657 1706. 1820.
1848(39) 0.000657 1710. 1823.
1869(39) 0.000657 1715. 1827.
1902(39) 0.000657 1719. 1831.
1871(39) 0.000657 1724. 1835.
1878(39) 0.000657 1728. 1839.
1867(39) 0.000657 1733. 1843.
1889(39) 0.000657 1738. 1847.
1931(40) 0.000625 1743. 1852.
1932(40) 0.000625 1747. 1856.
1900(39) 0.000657 1752. 1861.
1852(39) 0.000657 1757. 1866.
1915(39) 0.000657 1762. 1871.
1911(39) 0.000657 1767. 1876.
1870(39) 0.000657 1772. 1881.
1860(39) 0.000657 1777. 1886.
1866(39) 0.000657 1782. 1892.
1908(39) 0.000657 1788. 1897.
1923(40) 0.000625 1793. 1903.
1966(40) 0.000625 1798. 1909.
1936(40) 0.000625 1803. 1915.
1910(39) 0.000657 1809. 1921.
1935(40) 0.000625 1814. 1927.
1955(40) 0.000625 1820. 1933.
1880(39) 0.000657 1825. 1939.
1940(40) 0.000625 1831. 1945.
2005(40) 0.000625 1836. 1952.
1999(40) 0.000625 1842. 1958.
2013(40) 0.000625 1848. 1965.
2015(40) 0.000625 1853. 1972.
1982(40) 0.000625 1859. 1979.
1986(40) 0.000625 1865. 1985.
2002(40) 0.000625 1871. 1992.
2074(41) 0.000595 1877. 1999.
2060(41) 0.000595 1883. 2007.
2060(41) 0.000595 1889. 2014.
2040(41) 0.000595 1895. 2021.
2031(41) 0.000595 1902. 2028.
2137(42) 0.000567 1908. 2036.
2122(41) 0.000595 1914. 2043.
2095(41) 0.000595 1920. 2050.
2077(41) 0.000595 1927. 2058.
2041(41) 0.000595 1933. 2066.
2072(41) 0.000595 1940. 2073.
2088(41) 0.000595 1946. 2081.
2075(41) 0.000595 1953. 2089.
2051(41) 0.000595 1960. 2096.
2075(41) 0.000595 1967. 2104.
2125(60) 0.0002778 1973. 2112.
2173(60) 0.0002778 1980. 2120.
2107(59) 0.0002873 1987. 2128.
2146(60) 0.0002778 1994. 2136.
2095(59) 0.0002873 2001. 2144.
2160(60) 0.0002778 2008. 2152.
2138(60) 0.0002778 2016. 2160.
2077(59) 0.0002873 2023. 2168.
2124(60) 0.0002778 2030. 2176.
2132(60) 0.0002778 2038. 2184.
2270(62) 0.0002601 2045. 2192.
2253(61) 0.0002687 2053. 2201.
2280(62) 0.0002601 2060. 2209.
2190(61) 0.0002687 2068. 2217.
2217(61) . . .
2249(61) . . .
2212(61) . . .
2239(61) . . .
2303(62) . . .
2307(62) . . .
2260(61) . . .
2251(61) . . .
2258(61) . . .
2259(61) . . .
2176(60) . . .
2298(62) . . .
2313(62) . . .
2371(63) . . .
2345(63) . . .
2397(63) . . .
2411(63) . . .
2369(63) . . .
2380(63) . . .
2372(63) . . .
2352(63) . . .
2343(62) . . .
2387(63) . . .
2316(62) . . .
2362(63) . . .
2429(64) . . .
2260(61) . . .
2395(63) . . .
2376(63) . . .
2423(63) . . .
2424(63) . . .
2371(63) . . .
2370(63) . . .
2459(64) . . .
2408(63) . . .
2438(64) . . .
2428(64) . . .
2426(64) . . .
2505(64) . . .
2492(64) . . .
2384(63) . . .
2412(63) . . .
2533(65) . . .
2508(65) . . .
2433(64) . . .
2456(64) . . .
2530(65) . . .
2517(65) . . .
2526(65) . . .
2506(64) . . .
2595(66) . . .
2584(65) . . .
2517(65) . . .
2522(65) . . .
2607(66) . . .
2598(66) . . .
2585(65) . . .
2646(66) . . .
2513(65) . . .
2620(66) . . .
2532(65) . . .
2577(65) . . .
2604(66) . . .
2617(66) . . .
2596(66) . . .
2697(67) . . .
2606(66) . . .
2692(67) . . .
2728(67) . . .
2673(66) . . .
2715(67) . . .
2718(67) . . .
2668(66) . . .
2725(67) . . .
2666(66) . . .
2722(67) . . .
2860(69) . . .
2806(68) . . .
2848(68) . . .
2780(68) . . .
2659(66) . . .
2688(67) . . .
2770(68) . . .
2727(67) . . .
2683(67) . . .
2853(69) . . .
loop_
_refln_index_h
_refln_index_k
_refln_index_l
_refln_observed_status
_refln_F_squared_meas
_refln_F_squared_calc
_refln_phase_calc
_refln_d_spacing
_gsas_i100_meas
1 1 0 o 821.405 853.950 180.00 12.93908 100.00
3 0 0 o 59.259 21.830 0.00 7.47038 2.42
1 0 1 o 61.276 92.260 0.00 6.57881 1.95
2 2 0 o 2.168 3.367 180.00 6.46954 0.07
2 0 -1 o 363.582 383.735 180.00 5.86433 9.21
2 1 1 o 123.755 139.952 0.00 5.34134 2.61
3 -1 1 o 8.597 9.722 0.00 5.34134 0.18
4 1 0 o 0.000 1.346 0.00 4.89051 0.00
5 -1 0 o 0.000 2.596 180.00 4.89051 0.00
4 -1 -1 o 26.746 12.161 180.00 4.61280 0.42
3 1 -1 o 27.842 12.659 0.00 4.61280 0.44
4 0 1 o 163.266 159.771 180.00 4.34495 2.30
3 3 0 o 272.481 286.644 180.00 4.31303 3.79
5 -2 1 o 41.301 30.085 180.00 4.11892 0.52
3 2 1 o 111.515 81.231 0.00 4.11892 1.42
5 0 -1 o 1.536 1.305 180.00 3.75587 0.02
6 0 0 o 128.496 140.287 0.00 3.73519 1.35
6 -2 -1 o 9.533 10.028 180.00 3.60698 0.09
4 2 -1 o 639.282 672.478 180.00 3.60698 6.30
7 -2 0 o 92.345 96.942 0.00 3.58865 0.90
5 2 0 o 1100.571 1155.335 0.00 3.58865 10.73
6 -1 1 o 1076.721 1098.894 0.00 3.47450 9.87
5 1 1 o 29.108 29.707 0.00 3.47450 0.27
1 0 -2 o 50.049 43.700 180.00 3.40115 0.44
4 3 1 o 74.753 71.110 180.00 3.24817 0.60
7 -3 1 o 708.731 674.198 0.00 3.24817 5.72
4 4 0 o 1.420 1.382 0.00 3.23477 0.01
2 0 2 o 8.374 8.183 180.00 3.28941 0.07
2 1 -2 o 285.896 262.467 0.00 3.18800 2.23
3 -1 -2 o 197.800 181.592 180.00 3.18800 1.54
6 1 -1 o 27.971 22.487 0.00 3.06100 0.20
7 -1 -1 o 12.513 10.060 0.00 3.06100 0.09
3 1 2 o 69.050 70.597 180.00 3.01048 0.48
4 -1 2 o 1613.982 1650.155 0.00 3.01048 11.30
8 -1 0 o 610.820 604.865 180.00 2.96843 4.16
7 1 0 o 1270.753 1258.359 180.00 2.96843 8.66
4 0 -2 o 8.154 13.667 180.00 2.93216 0.05
5 -2 -2 o 38.860 38.661 180.00 2.85966 0.25
3 2 -2 o 481.329 478.869 180.00 2.85966 3.06
8 -3 -1 o 103.324 107.484 180.00 2.90284 0.68
5 3 -1 o 2.353 2.448 0.00 2.90284 0.02
7 0 1 o 1188.330 1236.174 180.00 2.90284 7.77
6 2 1 o 130.207 116.913 180.00 2.83244 0.81
8 -2 1 o 725.579 651.491 180.00 2.83244 4.54
9 -3 0 o 2.154 1.882 180.00 2.82354 0.01
6 3 0 o 77.092 67.352 180.00 2.82354 0.48
5 0 2 o 28.535 15.341 0.00 2.72944 0.17
4 2 2 o 56.104 55.282 0.00 2.67067 0.31
6 -2 2 o 49.494 48.769 180.00 2.67067 0.28
6 -1 -2 o 47.395 56.095 0.00 2.61554 0.26
5 1 -2 o 79.516 94.113 0.00 2.61554 0.43
9 -4 1 o 5.409 5.313 0.00 2.64846 0.03
5 4 1 o 1868.587 1835.213 0.00 2.64846 10.33
8 0 -1 o 763.381 836.021 0.00 2.59466 4.07
5 5 0 o 384.242 399.891 0.00 2.58782 2.04
19 4 0 o 48.817 43.494 180.00 1.05297 0.24
23 -4 0 o 227.906 203.055 180.00 1.05297 1.13
9 -2 -1 o 84.848 83.165 180.00 2.54402 0.44
7 2 -1 o 111.847 109.629 180.00 2.54402 0.57
4 3 -2 o 213.848 170.941 180.00 2.51480 1.08
7 -3 -2 o 394.990 315.737 0.00 2.51480 1.99
9 0 0 o 545.902 511.705 0.00 2.49013 2.70
6 1 2 o 114.822 117.514 180.00 2.42487 0.54
7 -1 2 o 11.964 12.245 0.00 2.42487 0.06
13 6 4 o 18.771 16.625 180.00 1.05335 0.09
19 -6 4 o 217.045 192.230 180.00 1.05335 1.06
9 -1 1 o 206.232 154.168 0.00 2.45103 0.99
8 1 1 o 1.295 0.968 0.00 2.45103 0.01
10 -2 0 o 24.360 20.643 0.00 2.44526 0.12
8 2 0 o 66.897 56.688 0.00 2.44526 0.32
6 4 -1 o 107.890 115.497 0.00 2.40820 0.50
10 -4 -1 o 137.428 147.117 180.00 2.40820 0.64
10 -3 1 o 169.750 181.163 0.00 2.36755 0.77
7 3 1 o 260.120 277.609 0.00 2.36755 1.18
5 3 2 o 226.224 291.427 180.00 2.34394 1.01
8 -3 2 o 340.935 439.202 180.00 2.34394 1.51
7 0 -2 o 28.776 37.070 180.00 2.34394 0.13
7 4 0 o 21.188 44.667 180.00 2.32393 0.09
11 -4 0 o 1.778 3.748 0.00 2.32393 0.01
6 2 -2 o 8.492 8.621 180.00 2.30640 0.04
8 -2 -2 o 78.861 80.057 180.00 2.30640 0.34
0 0 3 o 1913.820 1879.790 0.00 2.29400 2.73
1 1 -3 o 403.510 379.624 180.00 2.25878 1.68
1 1 3 o 203.658 191.602 180.00 2.25878 0.85
23 -8 -2 o 36.037 31.214 0.00 1.05481 0.17
15 8 -2 o 83.522 72.343 0.00 1.05481 0.39
6 5 1 o 604.360 613.773 180.00 2.22335 2.45
11 -5 1 o 147.378 149.673 180.00 2.22335 0.60
9 1 -1 o 113.730 115.502 180.00 2.22335 0.46
10 -1 -1 o 198.829 201.927 0.00 2.22335 0.81
5 4 -2 o 762.033 658.990 0.00 2.20376 3.04
9 -4 -2 o 80.182 69.339 180.00 2.20376 0.32
3 0 3 o 21.453 22.998 180.00 2.19294 0.08
3 0 -3 o 63.989 68.597 0.00 2.19294 0.25
8 0 2 o 147.246 143.585 180.00 2.17248 0.57
2 2 -3 o 882.821 920.589 0.00 2.16211 3.41
2 2 3 o 0.471 0.491 0.00 2.16211 0.00
8 3 -1 o 337.617 362.721 180.00 2.16047 1.30
11 -3 -1 o 44.319 47.614 180.00 2.16047 0.17
6 6 0 o 75.703 86.371 180.00 2.15651 0.29
7 2 2 o 41.429 39.648 0.00 2.14249 0.16
9 -2 2 o 1460.122 1397.354 0.00 2.14249 5.55
10 0 1 o 23.746 26.370 0.00 2.13097 0.09
11 -2 1 o 159.623 178.983 180.00 2.10264 0.59
9 2 1 o 389.134 436.330 180.00 2.10264 1.43
11 -1 0 o 1.386 1.807 180.00 2.12717 0.01
10 1 0 o 4.497 5.865 0.00 2.12717 0.02
9 -1 -2 o 11.132 9.916 0.00 2.08606 0.04
8 1 -2 o 1084.561 966.112 0.00 2.08606 3.95
4 1 3 o 149.485 136.758 0.00 2.07687 0.54
4 1 -3 o 3.411 3.120 180.00 2.07687 0.01
5 -1 -3 o 16.191 14.813 180.00 2.07687 0.06
5 -1 3 o 235.191 215.169 180.00 2.07687 0.85
12 -3 0 o 62.402 63.916 180.00 2.07191 0.22
9 3 0 o 61.646 63.142 180.00 2.07191 0.22
10 -4 2 o 260.880 292.894 180.00 2.05946 0.93
6 4 2 o 18.220 20.456 0.00 2.05946 0.06
7 5 -1 o 5.533 5.384 0.00 2.04923 0.02
12 -5 -1 o 39.938 38.864 0.00 2.04923 0.14
7 3 -2 o 224.305 204.857 180.00 2.03386 0.78
10 -3 -2 o 9.450 8.631 180.00 2.03386 0.03
3 3 -3 o 633.774 564.382 180.00 2.02534 2.20
3 3 3 o 1.794 1.598 0.00 2.02534 0.01
8 4 1 o 349.559 312.690 0.00 2.02400 1.21
12 -4 1 o 62.852 56.223 180.00 2.02400 0.22
23 -5 1 o 123.011 105.612 0.00 1.05694 0.54
18 5 1 o 169.342 145.389 180.00 1.05694 0.75
8 5 0 o 62.316 61.081 180.00 1.97319 0.21
13 -5 0 o 70.672 69.271 180.00 1.97319 0.23
6 0 -3 o 655.538 713.718 0.00 1.95478 2.14
6 0 3 o 232.721 253.375 0.00 1.95478 0.76
11 0 -1 o 52.425 57.111 0.00 1.95357 0.17
10 -1 2 o 56.579 57.141 180.00 1.94024 0.18
11 -5 -2 o 73.867 74.600 0.00 1.94024 0.24
9 1 2 o 141.306 142.709 0.00 1.94024 0.46
6 5 -2 o 159.741 161.327 0.00 1.94024 0.52
7 -2 -3 o 184.292 179.301 180.00 1.93284 0.59
7 -2 3 o 56.614 55.080 0.00 1.93284 0.18
5 2 3 o 4.275 4.160 180.00 1.93284 0.01
5 2 -3 o 1.363 1.326 180.00 1.93284 0.00
12 -2 -1 o 64.394 61.498 180.00 1.93167 0.21
10 2 -1 o 25.078 23.951 180.00 1.93167 0.08
8 3 2 o 3.791 3.844 0.00 1.89803 0.01
11 -3 2 o 294.665 298.817 180.00 1.89803 0.92
7 6 1 o 159.102 109.843 180.00 1.91050 0.50
13 -6 1 o 176.434 121.809 0.00 1.91050 0.56
10 0 -2 o 492.990 436.965 180.00 1.87793 1.51
4 4 -3 o 1.296 1.227 180.00 1.87122 0.00
4 4 3 o 16.732 15.842 180.00 1.87122 0.05
12 -1 1 o 838.610 803.035 0.00 1.87016 2.56
9 4 -1 o 4.646 4.449 0.00 1.87016 0.01
13 -4 -1 o 72.031 68.976 180.00 1.87016 0.22
11 1 1 o 0.941 0.901 180.00 1.87016 0.00
12 0 0 o 1.014 0.986 180.00 1.86759 0.00
9 2 -2 o 444.671 434.701 180.00 1.85846 1.34
11 -2 -2 o 202.105 197.573 0.00 1.85846 0.61
7 7 0 o 27.023 23.807 0.00 1.84844 0.08
11 2 0 o 111.351 98.099 0.00 1.84844 0.33
13 -2 0 o 9.286 8.181 0.00 1.84844 0.03
8 -1 -3 o 299.339 339.264 180.00 1.81515 0.87
7 1 -3 o 37.918 42.975 0.00 1.81515 0.11
7 1 3 o 203.181 230.281 180.00 1.81515 0.59
8 -1 3 o 3.608 4.089 180.00 1.81515 0.01
10 3 1 o 32.470 32.561 0.00 1.83228 0.10
13 -3 1 o 156.118 156.553 0.00 1.83228 0.46
8 4 -2 o 2.995 3.062 180.00 1.80349 0.01
12 -4 -2 o 140.423 143.530 180.00 1.80349 0.41
12 -5 2 o 8.138 9.551 0.00 1.82127 0.02
7 5 2 o 2.337 2.742 0.00 1.82127 0.01
14 -4 0 o 0.439 0.447 180.00 1.79433 0.00
10 4 0 o 150.342 153.207 0.00 1.79433 0.43
6 3 3 o 8.857 8.423 180.00 1.78045 0.03
9 -3 -3 o 8.920 8.483 180.00 1.78045 0.03
9 -3 3 o 1.629 1.550 180.00 1.78045 0.00
6 3 -3 o 224.408 213.408 180.00 1.78045 0.63
14 -6 -1 o 231.570 219.267 0.00 1.77953 0.65
8 6 -1 o 143.566 135.938 0.00 1.77953 0.41
14 10 1 o 71.879 64.317 0.00 1.06048 0.29
24 -10 1 o 26.194 23.438 0.00 1.06048 0.11
19 -7 -4 o 237.107 212.052 180.00 1.06040 0.97
12 7 -4 o 26.967 24.118 180.00 1.06040 0.11
14 -5 1 o 0.129 0.125 180.00 1.76294 0.00
9 5 1 o 73.474 71.312 180.00 1.76294 0.20
12 -2 2 o 22.745 24.169 0.00 1.73725 0.06
10 2 2 o 341.907 363.315 180.00 1.73725 0.93
11 0 2 o 1.419 0.989 0.00 1.75313 0.00
12 1 -1 o 39.178 35.936 0.00 1.73109 0.11
13 -1 -1 o 81.700 74.939 180.00 1.73109 0.22
13 -6 -2 o 0.015 0.012 0.00 1.72180 0.00
7 6 -2 o 179.161 136.891 180.00 1.72180 0.48
5 5 3 o 49.880 42.187 0.00 1.71663 0.13
5 5 -3 o 45.908 38.828 0.00 1.71663 0.12
15 -4 -5 o 248.550 222.931 0.00 1.06106 1.00
11 4 -5 o 239.495 214.808 0.00 1.06106 0.96
1 0 4 o 93.993 82.291 180.00 1.71546 0.25
9 6 0 o 3.702 3.378 0.00 1.71382 0.01
15 -6 0 o 331.627 302.658 0.00 1.71382 0.89
15 6 -3 o 404.026 361.889 180.00 1.06067 1.64
21 -6 3 o 51.767 46.368 180.00 1.06067 0.21
15 6 3 o 0.095 0.085 180.00 1.06067 0.00
21 -6 -3 o 0.000 0.000 0.00 1.06067 0.00
11 3 -1 o 69.272 71.903 0.00 1.70092 0.18
14 -3 -1 o 0.001 0.001 180.00 1.70092 0.00
2 0 -4 o 14.083 14.415 0.00 1.70057 0.04
13 -4 2 o 378.452 320.854 0.00 1.69210 1.00
11 1 -2 o 228.408 193.645 0.00 1.69210 0.60
9 4 2 o 622.189 527.493 0.00 1.69210 1.64
12 -1 -2 o 100.170 84.925 0.00 1.69210 0.26
8 2 -3 o 260.003 227.488 0.00 1.67302 0.67
8 2 3 o 84.714 74.120 0.00 1.67302 0.22
10 -2 3 o 78.918 69.049 0.00 1.67302 0.20
10 -2 -3 o 805.433 704.707 0.00 1.67302 2.08
13 0 1 o 1590.704 1398.370 180.00 1.67227 4.11
8 7 1 o 2.131 1.873 180.00 1.67227 0.01
15 -7 1 o 124.843 109.748 180.00 1.67227 0.32
9 -3 -6 o 101.181 90.466 0.00 1.06267 0.39
9 -3 6 o 37.795 33.793 180.00 1.06267 0.15
6 3 6 o 27.218 24.336 180.00 1.06267 0.11
6 3 -6 o 3.703 3.311 180.00 1.06267 0.01
9 0 3 o 24.909 23.608 0.00 1.68719 0.07
9 0 -3 o 151.388 143.481 180.00 1.68719 0.40
3 -1 4 o 56.135 54.994 0.00 1.68607 0.15
2 1 4 o 62.594 61.321 0.00 1.68607 0.16
21 -2 2 o 711.380 637.939 0.00 1.06189 2.82
19 2 2 o 136.679 122.568 0.00 1.06189 0.54
14 9 2 o 0.001 0.001 0.00 1.06189 0.00
23 -9 2 o 99.468 89.199 0.00 1.06189 0.39
13 -3 -2 o 0.381 0.361 0.00 1.66388 0.00
10 3 -2 o 35.883 33.975 0.00 1.66388 0.09
12 2 1 o 42.745 44.254 0.00 1.65847 0.11
14 -2 1 o 72.921 75.496 180.00 1.65847 0.19
3 1 -4 o 156.560 162.741 0.00 1.65815 0.40
4 -1 -4 o 3.900 4.054 180.00 1.65815 0.01
13 1 0 o 88.791 93.535 180.00 1.65668 0.23
14 -1 0 o 71.061 74.858 0.00 1.65668 0.18
15 -5 -1 o 352.467 392.644 0.00 1.64501 0.89
10 5 -1 o 50.801 56.592 180.00 1.64501 0.13
4 0 4 o 438.165 489.573 180.00 1.64470 1.11
22 -2 0 o 195.162 173.735 0.00 1.06359 0.75
20 2 0 o 199.286 177.406 0.00 1.06359 0.76
11 -4 -3 o 31.024 28.484 0.00 1.63258 0.08
7 4 -3 o 28.061 25.763 180.00 1.63258 0.07
11 -4 3 o 2.037 1.870 180.00 1.63258 0.01
7 4 3 o 84.262 77.362 180.00 1.63258 0.21
5 -2 4 o 95.276 86.915 180.00 1.63158 0.24
3 2 4 o 1.933 1.763 0.00 1.63158 0.00
12 3 0 o 380.957 348.952 180.00 1.63017 0.95
15 -3 0 o 6.646 6.088 180.00 1.63017 0.02
9 5 -2 o 37.949 36.838 0.00 1.61144 0.09
14 -5 -2 o 4.353 4.225 180.00 1.61144 0.01
8 6 2 o 500.730 481.412 180.00 1.62409 1.25
14 -6 2 o 156.448 150.412 0.00 1.62409 0.39
5 0 -4 o 3.772 4.080 180.00 1.60624 0.01
15 -4 1 o 510.452 491.137 180.00 1.61905 1.26
11 4 1 o 8.598 8.273 0.00 1.61905 0.02
8 8 0 o 117.533 112.518 0.00 1.61738 0.29
13 11 -1 o 109.851 97.630 180.00 1.06406 0.42
24 -11 -1 o 2.184 1.941 0.00 1.06406 0.01
6 -2 -4 o 48.539 43.751 0.00 1.59400 0.12
4 2 -4 o 100.505 90.592 180.00 1.59400 0.24
12 1 2 o 0.781 0.735 0.00 1.58701 0.00
13 -1 2 o 252.586 237.763 180.00 1.58701 0.61
5 1 4 o 7.925 8.181 0.00 1.58204 0.02
6 -1 4 o 133.828 138.149 0.00 1.58204 0.32
16 -5 0 o 127.620 136.183 180.00 1.58076 0.31
11 5 0 o 0.297 0.317 0.00 1.58076 0.00
11 3 2 o 2.115 2.260 180.00 1.56367 0.01
14 -3 2 o 31.995 34.188 180.00 1.56367 0.08
11 -1 -3 o 130.475 134.866 180.00 1.55979 0.31
11 -1 3 o 457.069 472.451 180.00 1.55979 1.08
10 1 3 o 49.962 51.643 0.00 1.55979 0.12
10 1 -3 o 28.310 29.263 0.00 1.55979 0.07
16 -6 1 o 324.912 337.638 0.00 1.55917 0.77
10 6 1 o 230.256 239.275 0.00 1.55917 0.54
14 0 -1 o 175.827 182.714 0.00 1.55917 0.42
7 -3 4 o 102.027 106.301 0.00 1.55891 0.24
4 3 4 o 10.367 10.801 0.00 1.55891 0.02
20 0 2 o 0.160 0.143 180.00 1.06548 0.00
6 6 3 o 4.105 5.647 0.00 1.57124 0.01
6 6 -3 o 55.681 76.591 0.00 1.57124 0.13
9 7 -1 o 81.539 112.427 180.00 1.57062 0.19
16 -7 -1 o 49.070 67.659 180.00 1.57062 0.12
13 2 -1 o 94.595 128.371 180.00 1.54797 0.22
15 -2 -1 o 81.494 110.592 0.00 1.54797 0.19
13 0 -2 o 21.919 25.868 180.00 1.54132 0.05
8 7 -2 o 129.044 152.294 180.00 1.54132 0.30
15 -7 -2 o 157.061 185.355 0.00 1.54132 0.37
21 0 0 o 547.521 490.030 180.00 1.06720 1.98
15 9 0 o 313.914 280.953 0.00 1.06720 1.13
24 -9 0 o 158.059 141.462 0.00 1.06720 0.57
9 3 3 o 269.585 279.315 0.00 1.53760 0.63
9 3 -3 o 47.815 49.540 180.00 1.53760 0.11
12 -3 3 o 43.779 45.359 0.00 1.53760 0.10
12 -3 -3 o 115.825 120.005 180.00 1.53760 0.27
6 1 -4 o 2.025 2.053 0.00 1.53676 0.00
7 -1 -4 o 129.343 131.182 180.00 1.53676 0.30
14 -2 -2 o 682.987 653.355 180.00 1.53050 1.58
12 2 -2 o 98.267 94.004 180.00 1.53050 0.23
12 4 -1 o 101.902 87.757 0.00 1.51577 0.23
16 -4 -1 o 238.693 205.560 180.00 1.51577 0.55
7 0 4 o 319.168 275.435 180.00 1.51553 0.73
8 -3 -4 o 8.366 7.220 180.00 1.51553 0.02
5 3 -4 o 1.383 1.194 0.00 1.51553 0.00
10 7 0 o 30.497 26.607 180.00 1.51440 0.07
17 -7 0 o 301.186 262.768 180.00 1.51440 0.69
10 5 2 o 4.353 3.790 0.00 1.51990 0.01
15 -5 2 o 176.997 154.107 180.00 1.51990 0.41
14 1 1 o 78.986 73.311 0.00 1.50548 0.18
15 -1 1 o 2245.003 2083.724 0.00 1.50548 5.10
6 2 4 o 0.053 0.050 180.00 1.50524 0.00
8 -2 4 o 119.344 110.831 0.00 1.50524 0.27
10 5 5 o 12.956 11.681 0.00 1.06827 0.05
15 -5 5 o 99.094 89.341 180.00 1.06827 0.35
15 -4 -2 o 196.144 186.168 0.00 1.49935 0.44
11 4 -2 o 220.096 208.902 0.00 1.49935 0.50
19 -9 4 o 83.689 75.094 0.00 1.06759 0.30
10 9 4 o 750.736 673.633 0.00 1.06759 2.70
8 5 3 o 77.008 74.465 180.00 1.49593 0.17
8 5 -3 o 46.387 44.855 0.00 1.49593 0.10
13 -5 3 o 305.303 295.221 180.00 1.49593 0.69
13 -5 -3 o 179.166 173.249 0.00 1.49593 0.40
15 0 0 o 8.507 8.266 180.00 1.49408 0.02
9 -4 4 o 215.477 222.015 180.00 1.47558 0.48
5 4 4 o 0.585 0.602 180.00 1.47558 0.00
17 -8 1 o 1.257 1.168 0.00 1.48550 0.00
13 3 1 o 147.207 136.756 180.00 1.48550 0.33
9 8 1 o 5.675 5.272 180.00 1.48550 0.01
16 -3 1 o 150.659 139.963 180.00 1.48550 0.34
14 2 0 o 168.061 161.399 0.00 1.48421 0.38
16 -2 0 o 2.502 2.402 180.00 1.48421 0.01
7 1 -6 o 449.936 410.561 0.00 1.06991 1.56
7 1 6 o 140.322 128.042 0.00 1.06991 0.49
8 -1 -6 o 178.825 163.176 180.00 1.06991 0.62
8 -1 6 o 5.679 5.182 180.00 1.06991 0.02
17 -6 -1 o 20.936 18.756 180.00 1.46630 0.05
11 6 -1 o 31.297 28.038 0.00 1.46630 0.07
12 11 -2 o 42.189 38.276 180.00 1.06912 0.15
23 -11 -2 o 239.501 217.287 0.00 1.06912 0.84
8 0 -4 o 272.986 245.456 0.00 1.46608 0.60
16 -7 2 o 68.120 59.992 0.00 1.46064 0.15
9 7 2 o 17.076 15.038 0.00 1.46064 0.04
9 -2 -4 o 7.529 6.439 180.00 1.45676 0.02
7 2 -4 o 3.647 3.119 0.00 1.45676 0.01
13 4 0 o 8.881 7.582 0.00 1.45576 0.02
17 -4 0 o 336.682 287.446 0.00 1.45576 0.74
19 3 1 o 239.619 220.716 0.00 1.07133 0.82
17 6 -1 o 248.361 228.768 0.00 1.07133 0.85
23 -6 -1 o 112.418 103.549 0.00 1.07133 0.38
22 -3 1 o 124.123 114.331 180.00 1.07133 0.42
18 -4 4 o 123.141 113.365 0.00 1.07124 0.42
14 4 4 o 179.985 165.696 180.00 1.07124 0.61
7 7 3 o 325.989 293.462 180.00 1.43933 0.71
7 7 -3 o 11.393 10.256 0.00 1.43933 0.02
11 2 -3 o 7.070 6.365 0.00 1.43933 0.02
11 2 3 o 28.785 25.913 180.00 1.43933 0.06
13 -2 -3 o 136.185 122.597 180.00 1.43933 0.30
13 -2 3 o 243.082 218.828 0.00 1.43933 0.53
16 -6 -2 o 55.182 47.648 180.00 1.45142 0.12
14 0 2 o 166.406 143.686 0.00 1.45142 0.36
10 6 -2 o 0.543 0.469 0.00 1.45142 0.00
9 -1 4 o 0.060 0.055 180.00 1.43864 0.00
8 1 4 o 226.780 205.241 0.00 1.43864 0.49
9 9 0 o 0.307 0.282 0.00 1.43767 0.00
12 0 3 o 127.646 110.168 180.00 1.44832 0.28
12 0 -3 o 33.694 29.080 0.00 1.44832 0.07
12 5 1 o 31.669 27.336 180.00 1.44783 0.07
17 -5 1 o 23.629 20.397 0.00 1.44783 0.05
13 2 2 o 75.439 68.183 0.00 1.44238 0.16
15 -2 2 o 315.480 285.139 0.00 1.44238 0.69
10 -4 -4 o 2.393 3.274 0.00 1.42983 0.01
6 4 -4 o 0.698 0.956 0.00 1.42983 0.00
10 -3 4 o 135.568 141.582 0.00 1.42118 0.29
7 3 4 o 50.866 53.123 0.00 1.42118 0.11
15 -1 -2 o 554.530 566.423 0.00 1.40781 1.18
14 1 -2 o 71.978 73.522 180.00 1.40781 0.15
12 2 -5 o 22.567 20.863 180.00 1.07193 0.08
14 -2 -5 o 348.435 322.132 180.00 1.07193 1.18
18 -8 -1 o 53.942 62.814 180.00 1.40453 0.11
10 8 -1 o 0.843 0.982 180.00 1.40453 0.00
12 4 2 o 247.699 227.243 180.00 1.41622 0.53
16 -4 2 o 0.060 0.055 180.00 1.41622 0.00
14 -4 -3 o 39.700 36.790 0.00 1.41333 0.08
14 -4 3 o 0.587 0.544 0.00 1.41333 0.00
10 4 3 o 209.211 193.879 180.00 1.41333 0.45
10 4 -3 o 6.256 5.797 0.00 1.41333 0.01
16 -1 -1 o 317.916 296.170 180.00 1.41288 0.68
15 1 -1 o 16.355 15.236 180.00 1.41288 0.03
18 -6 0 o 7.405 6.990 180.00 1.41177 0.02
12 6 0 o 92.013 86.859 180.00 1.41177 0.20
17 -3 -1 o 0.033 0.036 180.00 1.39633 0.00
14 3 -1 o 63.308 68.604 180.00 1.39633 0.13
11 7 1 o 405.114 439.003 180.00 1.39633 0.86
18 -7 1 o 142.297 154.201 180.00 1.39633 0.30
17 -8 -2 o 185.410 171.634 180.00 1.39144 0.39
9 8 -2 o 272.724 252.460 180.00 1.39144 0.58
13 3 -2 o 79.768 73.841 0.00 1.39144 0.17
16 -3 -2 o 45.814 42.410 0.00 1.39144 0.10
10 -1 -4 o 10.384 9.077 180.00 1.38808 0.02
11 -5 4 o 33.815 29.560 180.00 1.38808 0.07
9 1 -4 o 209.756 183.363 180.00 1.38808 0.44
6 5 4 o 388.802 339.879 180.00 1.38808 0.82
11 6 2 o 0.174 0.147 180.00 1.37562 0.00
17 -6 2 o 17.675 14.970 180.00 1.37562 0.04
1 0 -5 o 3.869 3.234 0.00 1.37381 0.01
9 6 3 o 322.491 270.755 0.00 1.37297 0.67
9 6 -3 o 142.926 119.997 180.00 1.37297 0.30
15 -6 -3 o 196.926 165.334 180.00 1.37297 0.41
15 -6 3 o 26.275 22.060 0.00 1.37297 0.05
16 0 1 o 782.665 659.247 180.00 1.37256 1.64
8 3 -4 o 0.417 0.352 180.00 1.37238 0.00
11 -3 -4 o 14.279 12.045 180.00 1.37238 0.03
13 0 -5 o 741.317 692.183 0.00 1.07562 2.40
15 -7 -5 o 307.035 286.685 0.00 1.07562 1.00
8 7 -5 o 26.033 24.307 0.00 1.07562 0.08
2 0 5 o 23.688 21.132 180.00 1.36614 0.05
18 -5 -1 o 148.219 134.452 0.00 1.36490 0.31
13 5 -1 o 32.714 29.676 180.00 1.36490 0.07
15 2 1 o 19.750 17.915 0.00 1.36490 0.04
17 -2 1 o 50.378 45.699 180.00 1.36490 0.10
10 0 4 o 122.871 111.672 0.00 1.36472 0.26
20 -4 -3 o 13.280 11.937 0.00 1.07895 0.04
16 4 -3 o 99.543 89.475 0.00 1.07895 0.31
16 4 3 o 61.440 55.226 180.00 1.07895 0.19
20 -4 3 o 2.283 2.052 0.00 1.07895 0.01
21 -1 1 o 696.717 627.800 0.00 1.07875 2.18
20 1 1 o 12.964 11.682 180.00 1.07875 0.04
12 12 0 o 13.463 12.210 180.00 1.07826 0.04
12 5 -2 o 164.822 146.523 180.00 1.36033 0.34
17 -5 -2 o 33.547 29.822 0.00 1.36033 0.07
2 1 -5 o 2.761 2.439 0.00 1.35858 0.01
3 -1 -5 o 0.078 0.069 180.00 1.35858 0.00
11 -2 4 o 521.374 463.369 180.00 1.35719 1.08
9 2 4 o 1352.625 1202.139 180.00 1.35719 2.81
11 8 0 o 160.549 143.678 0.00 1.35638 0.33
16 1 0 o 507.505 454.178 180.00 1.35638 1.05
17 -1 0 o 204.151 182.699 0.00 1.35638 0.42
19 -8 0 o 52.610 47.082 0.00 1.35638 0.11
4 -1 5 o 291.265 299.539 0.00 1.34385 0.60
3 1 5 o 57.957 59.603 180.00 1.34385 0.12
14 -1 -3 o 117.274 119.141 0.00 1.34306 0.24
13 1 -3 o 82.403 83.715 180.00 1.34306 0.17
13 1 3 o 154.927 157.394 180.00 1.34306 0.32
14 -1 3 o 152.082 154.503 0.00 1.34306 0.31
14 4 1 o 0.955 0.965 0.00 1.34267 0.00
18 -4 1 o 0.280 0.283 180.00 1.34267 0.00
7 5 -4 o 86.855 87.546 0.00 1.34250 0.18
12 -5 -4 o 1108.934 1117.757 0.00 1.34250 2.29
18 -3 0 o 387.968 387.165 180.00 1.34172 0.80
15 3 0 o 363.932 363.180 0.00 1.34172 0.75
4 4 -6 o 41.001 36.374 180.00 1.08105 0.13
4 4 6 o 196.113 173.980 0.00 1.08105 0.60
22 -6 -2 o 132.924 118.152 180.00 1.08024 0.41
16 6 -2 o 170.431 151.491 0.00 1.08024 0.53
4 0 -5 o 1.684 1.604 180.00 1.33666 0.00
10 9 1 o 844.036 798.038 0.00 1.33550 1.74
19 -9 1 o 293.292 277.308 0.00 1.33550 0.60
8 4 4 o 1200.781 1134.335 0.00 1.33533 2.47
12 -4 4 o 139.892 132.151 180.00 1.33533 0.29
18 -8 2 o 107.914 109.816 0.00 1.32423 0.22
10 8 2 o 17.573 17.883 0.00 1.32423 0.04
8 8 -3 o 9.612 10.270 180.00 1.32187 0.02
8 8 3 o 285.245 304.756 0.00 1.32187 0.58
12 7 -1 o 39.044 41.907 0.00 1.32150 0.08
19 -7 -1 o 0.452 0.486 180.00 1.32150 0.00
16 -1 2 o 100.412 95.006 180.00 1.33122 0.21
15 1 2 o 20.655 19.543 180.00 1.33122 0.04
11 3 5 o 19.924 17.862 180.00 1.08314 0.06
14 -3 5 o 32.972 29.561 180.00 1.08314 0.10
12 9 3 o 413.621 369.714 180.00 1.08272 1.25
12 9 -3 o 101.192 90.450 0.00 1.08272 0.31
21 -9 3 o 798.831 714.033 180.00 1.08272 2.41
21 -9 -3 o 62.461 55.830 0.00 1.08272 0.19
3 2 -5 o 13.419 12.794 0.00 1.32958 0.03
5 -2 -5 o 2.792 2.662 0.00 1.32958 0.01
17 -2 4 o 376.902 336.203 180.00 1.08243 1.14
18 -5 -4 o 47.405 42.286 0.00 1.08243 0.14
13 5 -4 o 13.336 11.896 0.00 1.08243 0.04
15 2 4 o 26.474 23.615 0.00 1.08243 0.08
15 -3 3 o 232.633 222.622 180.00 1.32882 0.48
12 3 -3 o 0.013 0.013 180.00 1.32882 0.00
12 3 3 o 351.759 336.622 0.00 1.32882 0.72
15 -3 -3 o 1.261 1.207 0.00 1.32882 0.00
18 -7 -2 o 36.550 40.396 0.00 1.31735 0.07
11 7 -2 o 111.241 122.948 0.00 1.31735 0.23
14 3 2 o 6.973 7.707 0.00 1.31735 0.01
17 -3 2 o 196.862 217.580 180.00 1.31735 0.40
5 0 5 o 248.430 275.855 180.00 1.31576 0.51
11 0 -4 o 49.570 54.379 0.00 1.31450 0.10
14 5 0 o 49.496 53.506 180.00 1.31376 0.10
19 -5 0 o 40.094 43.342 180.00 1.31376 0.08
6 -1 -5 o 33.799 32.729 180.00 1.30236 0.07
5 1 -5 o 247.291 239.465 180.00 1.30236 0.50
11 5 3 o 2.720 2.642 0.00 1.30165 0.01
11 5 -3 o 1.046 1.016 0.00 1.30165 0.00
16 -5 3 o 235.075 228.308 0.00 1.30165 0.48
16 -5 -3 o 25.986 25.238 0.00 1.30165 0.05
13 -6 4 o 41.725 40.565 0.00 1.30114 0.09
7 6 4 o 1516.922 1474.770 180.00 1.30114 3.09
4 2 5 o 119.358 113.902 0.00 1.30901 0.24
6 -2 5 o 398.104 379.907 180.00 1.30901 0.81
13 6 1 o 44.629 41.907 0.00 1.30792 0.09
19 -6 1 o 188.412 176.919 0.00 1.30792 0.38
10 2 -4 o 5.739 5.381 180.00 1.30777 0.01
12 -2 -4 o 3.750 3.516 0.00 1.30777 0.01
16 0 -2 o 0.223 0.221 180.00 1.29733 0.00
17 0 -1 o 46.933 48.506 0.00 1.29476 0.10
10 10 0 o 48.228 50.032 180.00 1.29391 0.10
18 -5 2 o 4.715 4.648 180.00 1.29086 0.01
17 -2 -2 o 203.045 200.179 180.00 1.29086 0.41
15 2 -2 o 101.596 100.162 180.00 1.29086 0.21
13 5 2 o 66.462 65.524 0.00 1.29086 0.14
4 3 -5 o 452.965 428.039 0.00 1.28937 0.92
7 -3 -5 o 41.294 39.022 0.00 1.28937 0.08
16 0 4 o 17.108 15.643 180.00 1.08624 0.05
18 -2 -1 o 3.963 3.657 0.00 1.28833 0.01
16 2 -1 o 25.690 23.706 0.00 1.28833 0.05
9 4 -4 o 46.434 42.736 0.00 1.28818 0.09
13 -4 -4 o 241.495 222.263 180.00 1.28818 0.49
11 1 4 o 126.218 116.166 0.00 1.28818 0.26
12 -1 4 o 37.185 34.224 0.00 1.28818 0.08
12 1 5 o 15.662 14.310 0.00 1.09081 0.04
13 -1 5 o 5.623 5.137 0.00 1.09081 0.02
7 -1 5 o 933.349 858.811 0.00 1.27675 1.90
6 1 5 o 41.628 38.304 180.00 1.27675 0.08
19 -2 -3 o 10.472 9.617 0.00 1.09039 0.03
19 -2 3 o 78.206 71.819 180.00 1.09039 0.22
17 2 3 o 5.704 5.238 180.00 1.09039 0.02
17 2 -3 o 86.475 79.412 180.00 1.09039 0.25
22 -4 -1 o 65.642 60.425 180.00 1.09018 0.19
18 4 -1 o 174.890 160.990 180.00 1.09018 0.50
13 -3 4 o 900.967 819.659 0.00 1.27560 1.83
10 3 4 o 11.595 10.548 180.00 1.27560 0.02
10 9 -2 o 11.026 9.680 0.00 1.26591 0.02
19 -9 -2 o 6.157 5.405 0.00 1.26591 0.01
20 -7 0 o 274.923 248.503 0.00 1.27492 0.56
13 7 0 o 17.076 15.435 0.00 1.27492 0.03
5 3 5 o 1.508 1.293 0.00 1.26450 0.00
8 -3 5 o 482.520 413.875 180.00 1.26450 0.98
7 0 -5 o 462.344 396.568 0.00 1.26450 0.94
17 -7 3 o 191.148 161.508 180.00 1.26384 0.39
17 -7 -3 o 8.313 7.024 180.00 1.26384 0.02
10 7 3 o 235.840 199.270 180.00 1.26384 0.48
10 7 -3 o 0.614 0.519 0.00 1.26384 0.00
20 -8 1 o 142.719 119.639 180.00 1.26352 0.29
12 8 1 o 100.202 83.998 0.00 1.26352 0.20
18 -4 -2 o 118.356 105.442 180.00 1.27201 0.24
14 4 -2 o 41.917 37.344 0.00 1.27201 0.09
15 4 -1 o 385.942 343.529 0.00 1.26959 0.78
11 9 -1 o 293.500 261.245 180.00 1.26959 0.60
20 -9 -1 o 319.868 284.716 180.00 1.26959 0.65
19 -4 -1 o 33.686 29.984 0.00 1.26959 0.07
6 2 -5 o 104.530 85.304 180.00 1.25850 0.21
8 -2 -5 o 0.008 0.006 180.00 1.25850 0.00
5 2 6 o 127.012 114.125 180.00 1.09255 0.36
7 -2 6 o 10.343 9.294 0.00 1.09255 0.03
7 -2 -6 o 101.085 90.829 180.00 1.09255 0.28
5 2 -6 o 306.805 275.676 180.00 1.09255 0.86
18 -1 1 o 92.604 76.991 0.00 1.25754 0.19
17 1 1 o 173.159 143.964 0.00 1.25754 0.35
8 6 -4 o 2.167 1.808 180.00 1.25740 0.00
14 -6 -4 o 80.673 67.293 0.00 1.25740 0.16
15 7 2 o 23.086 20.867 180.00 1.09171 0.06
22 -7 2 o 28.074 25.377 0.00 1.09171 0.08
14 2 3 o 165.397 158.810 0.00 1.24614 0.34
14 2 -3 o 3.739 3.590 0.00 1.24614 0.01
16 -2 -3 o 10.723 10.296 180.00 1.24614 0.02
16 -2 3 o 0.757 0.726 180.00 1.24614 0.00
19 -3 1 o 147.852 140.790 0.00 1.24582 0.30
16 3 1 o 3.561 3.391 180.00 1.24582 0.01
6 0 -6 o 91.848 86.435 0.00 1.09647 0.25
6 0 6 o 0.630 0.593 180.00 1.09647 0.00
18 0 0 o 0.509 0.476 0.00 1.24506 0.00
12 7 2 o 50.275 48.662 0.00 1.25396 0.10
19 -7 2 o 12.818 12.407 0.00 1.25396 0.03
8 0 5 o 758.428 689.991 180.00 1.23535 1.55
15 0 -3 o 22.212 22.964 180.00 1.25196 0.05
15 0 3 o 6.393 6.609 180.00 1.25196 0.01
9 5 4 o 3.024 3.142 180.00 1.25150 0.01
14 -5 4 o 79.179 82.282 180.00 1.25150 0.16
19 -6 -2 o 0.039 0.036 180.00 1.24235 0.00
13 6 -2 o 27.068 24.838 180.00 1.24235 0.06
18 0 3 o 38.357 34.895 0.00 1.09428 0.11
18 0 -3 o 52.877 48.104 180.00 1.09428 0.15
9 -4 -5 o 0.038 0.035 180.00 1.24102 0.00
5 4 -5 o 292.232 269.800 0.00 1.24102 0.60
23 -8 1 o 14.711 13.340 180.00 1.09407 0.04
15 8 1 o 30.135 27.326 0.00 1.09407 0.08
21 -4 -2 o 0.058 0.053 0.00 1.09956 0.00
17 4 -2 o 103.500 95.833 180.00 1.09956 0.28
20 -6 -1 o 32.805 30.315 180.00 1.24009 0.07
14 6 -1 o 309.265 285.789 180.00 1.24009 0.63
12 1 -4 o 262.999 242.965 0.00 1.23996 0.54
13 -1 -4 o 236.644 218.619 180.00 1.23996 0.48
17 0 2 o 10.979 10.186 0.00 1.23105 0.02
19 -2 0 o 44.555 41.055 180.00 1.23934 0.09
17 2 0 o 2.162 1.992 0.00 1.23934 0.00
7 2 5 o 235.442 219.774 0.00 1.22976 0.48
9 -2 5 o 659.898 615.983 0.00 1.22976 1.35
14 -5 -5 o 134.790 126.063 180.00 1.09864 0.36
9 5 -5 o 4.962 4.641 180.00 1.09864 0.01
17 -4 -3 o 71.925 67.310 0.00 1.22915 0.15
17 -4 3 o 19.229 17.995 0.00 1.22915 0.04
13 4 3 o 204.243 191.137 180.00 1.22915 0.42
13 4 -3 o 1.806 1.690 180.00 1.22915 0.00
14 -3 -4 o 222.790 208.870 0.00 1.22872 0.46
11 3 -4 o 153.956 144.337 180.00 1.22872 0.32
21 -9 0 o 557.165 523.747 180.00 1.22812 1.14
12 9 0 o 168.124 158.041 180.00 1.22812 0.34
11 7 4 o 283.688 267.063 180.00 1.09791 0.77
14 3 -4 o 0.178 0.168 0.00 1.09791 0.00
18 -7 4 o 0.569 0.536 0.00 1.09791 0.00
17 -3 -4 o 14.657 13.798 0.00 1.09791 0.04
23 -7 0 o 420.894 397.051 180.00 1.09748 1.14
16 7 0 o 91.828 86.626 180.00 1.09748 0.25
9 -1 -5 o 917.356 908.610 180.00 1.21880 1.89
8 1 -5 o 135.771 134.476 0.00 1.21880 0.28
9 9 3 o 22.149 21.913 180.00 1.21821 0.05
9 9 -3 o 215.833 213.532 0.00 1.21821 0.44
8 7 4 o 410.629 405.940 0.00 1.21779 0.85
13 0 4 o 1288.950 1274.229 180.00 1.21779 2.66
15 -7 4 o 1.286 1.271 0.00 1.21779 0.00
14 -6 5 o 113.621 104.392 180.00 1.10262 0.30
8 6 5 o 611.179 561.532 180.00 1.10262 1.61
18 -2 2 o 253.948 243.357 0.00 1.22552 0.52
16 2 2 o 62.259 59.663 180.00 1.22552 0.13
21 -2 -1 o 441.575 404.754 0.00 1.10197 1.17
19 2 -1 o 125.126 114.692 0.00 1.10197 0.33
23 -9 -1 o 352.531 323.134 180.00 1.10197 0.93
14 9 -1 o 92.739 85.005 0.00 1.10197 0.24
18 -8 -4 o 95.255 87.296 0.00 1.10188 0.25
10 8 -4 o 21.970 20.134 180.00 1.10188 0.06
22 -9 -2 o 93.375 90.707 180.00 1.10759 0.24
13 9 -2 o 4.305 4.182 0.00 1.10759 0.01
7 3 -5 o 302.947 318.614 180.00 1.20812 0.63
10 -3 -5 o 49.217 51.762 0.00 1.20812 0.10
10 5 -4 o 8.971 9.473 180.00 1.20714 0.02
15 -5 -4 o 28.023 29.591 180.00 1.20714 0.06
20 -5 1 o 292.812 287.349 180.00 1.22335 0.60
15 5 1 o 98.378 96.543 0.00 1.22335 0.20
16 4 0 o 2.399 2.368 0.00 1.22263 0.00
20 -4 0 o 699.687 690.585 0.00 1.22263 1.44
20 0 -1 o 15.696 14.994 180.00 1.10599 0.04
6 4 5 o 379.356 378.796 180.00 1.21342 0.78
10 -4 5 o 217.292 216.971 180.00 1.21342 0.45
16 -1 -4 o 47.001 44.837 0.00 1.10590 0.12
15 1 -4 o 39.733 37.903 180.00 1.10590 0.10
22 -10 2 o 0.197 0.185 180.00 1.11167 0.00
18 2 -2 o 40.885 38.319 0.00 1.11167 0.10
20 -2 -2 o 60.285 56.502 0.00 1.11167 0.15
12 10 2 o 525.651 492.665 180.00 1.11167 1.32
11 4 4 o 582.030 503.442 180.00 1.19677 1.22
15 -4 4 o 289.615 250.510 180.00 1.19677 0.61
11 10 1 o 68.535 68.860 180.00 1.21256 0.14
21 -10 1 o 25.686 25.807 0.00 1.21256 0.05
15 6 0 o 18.693 16.100 180.00 1.19622 0.04
21 -6 0 o 120.482 103.771 180.00 1.19622 0.25
12 2 4 o 651.329 655.066 0.00 1.21243 1.35
14 -2 4 o 17.385 17.484 0.00 1.21243 0.04
12 8 -2 o 2.261 2.365 0.00 1.20410 0.00
20 -8 -2 o 93.573 97.880 180.00 1.20410 0.19
4 1 -6 o 57.616 52.854 180.00 1.11670 0.14
4 1 6 o 367.106 336.765 0.00 1.11670 0.91
5 -1 -6 o 9.352 8.579 0.00 1.11670 0.02
5 -1 6 o 505.412 463.641 180.00 1.11670 1.25
12 6 -3 o 62.212 63.290 0.00 1.20233 0.13
18 -6 -3 o 11.760 11.964 180.00 1.20233 0.02
12 6 3 o 27.846 28.328 180.00 1.20233 0.06
18 -6 3 o 197.390 200.810 180.00 1.20233 0.41
12 11 1 o 27.691 26.550 180.00 1.11005 0.07
23 -11 1 o 448.368 429.894 0.00 1.11005 1.14
21 -8 -1 o 163.728 165.299 0.00 1.20205 0.34
13 8 -1 o 309.372 312.340 0.00 1.20205 0.64
21 -5 2 o 166.528 153.385 180.00 1.11580 0.41
16 5 2 o 137.324 126.486 0.00 1.11580 0.34
19 0 -2 o 545.238 502.207 180.00 1.11580 1.35
19 -4 2 o 256.700 267.141 0.00 1.20935 0.53
20 -9 2 o 8.475 8.819 180.00 1.20935 0.02
15 4 2 o 1.556 1.619 0.00 1.20935 0.00
11 9 2 o 86.485 90.003 180.00 1.20935 0.18
9 7 -4 o 68.108 59.851 180.00 1.17681 0.15
16 -7 -4 o 74.952 65.865 180.00 1.17681 0.16
10 3 -5 o 244.959 225.794 180.00 1.11483 0.61
13 -3 -5 o 129.977 119.808 0.00 1.11484 0.32
21 -7 1 o 416.058 353.665 0.00 1.19180 0.87
14 7 1 o 155.285 131.998 180.00 1.19180 0.33
19 -1 -1 o 28.465 24.197 180.00 1.19180 0.06
18 1 -1 o 14.269 12.129 0.00 1.19180 0.03
11 11 0 o 1153.048 1030.892 0.00 1.17628 2.47
20 -6 2 o 5.261 4.290 0.00 1.18377 0.01
14 6 2 o 430.895 351.392 180.00 1.18377 0.91
20 -7 3 o 599.881 552.922 0.00 1.11439 1.49
13 7 -3 o 6.719 6.193 180.00 1.11439 0.02
20 -7 -3 o 151.117 139.287 0.00 1.11439 0.38
13 7 3 o 1.009 0.930 180.00 1.11439 0.00
3 3 -6 o 854.533 830.597 0.00 1.10847 2.18
3 3 6 o 0.484 0.470 180.00 1.10847 0.00
17 1 -2 o 190.702 171.707 0.00 1.19892 0.40
18 -1 -2 o 110.135 99.165 0.00 1.19892 0.23
16 1 -3 o 278.984 280.175 0.00 1.16756 0.60
16 1 3 o 44.950 45.141 180.00 1.16756 0.10
17 -1 3 o 6.865 6.894 180.00 1.16756 0.01
11 8 3 o 338.030 339.473 0.00 1.16756 0.73
17 -1 -3 o 3.049 3.062 180.00 1.16756 0.01
11 8 -3 o 79.789 80.130 180.00 1.16756 0.17
19 -8 -3 o 15.423 15.489 180.00 1.16756 0.03
19 -8 3 o 210.991 211.891 0.00 1.16756 0.46
15 -2 -4 o 28.112 28.283 180.00 1.16719 0.06
13 2 -4 o 0.276 0.277 0.00 1.16719 0.00
20 -3 -1 o 66.348 54.264 180.00 1.18182 0.14
17 3 -1 o 385.890 315.608 180.00 1.18182 0.82
7 6 -5 o 31.941 28.705 0.00 1.13177 0.07
13 -6 -5 o 137.621 123.681 0.00 1.13177 0.32
19 -3 -2 o 7.341 5.984 180.00 1.18876 0.02
16 3 -2 o 80.991 66.019 180.00 1.18876 0.17
12 -5 5 o 9.632 9.764 180.00 1.15867 0.02
7 5 5 o 84.745 85.905 0.00 1.15867 0.19
17 4 1 o 7.728 7.587 180.00 1.14425 0.02
21 -4 1 o 29.280 28.744 0.00 1.14425 0.07
17 -6 -4 o 62.656 55.796 0.00 1.13096 0.15
11 6 -4 o 264.901 235.896 0.00 1.13096 0.62
10 0 -5 o 87.055 84.746 180.00 1.17287 0.19
15 3 -3 o 77.193 77.800 180.00 1.15817 0.17
15 3 3 o 8.057 8.120 0.00 1.15817 0.02
18 -3 -3 o 10.565 10.648 180.00 1.15817 0.02
18 -3 3 o 117.634 118.559 0.00 1.15817 0.26
18 2 1 o 31.026 31.176 180.00 1.15792 0.07
22 -10 -1 o 163.152 163.941 0.00 1.15792 0.36
20 -2 1 o 116.282 116.845 180.00 1.15792 0.26
12 10 -1 o 88.707 89.136 180.00 1.15792 0.20
10 -1 5 o 253.416 203.764 180.00 1.18759 0.53
9 1 5 o 504.659 405.781 0.00 1.18759 1.07
11 -5 -5 o 64.968 52.239 0.00 1.18759 0.14
6 5 -5 o 49.878 40.106 0.00 1.18759 0.11
21 -8 2 o 83.986 76.889 180.00 1.15055 0.19
13 8 2 o 480.061 439.495 0.00 1.15055 1.07
16 -6 4 o 48.485 47.484 0.00 1.17197 0.10
14 0 -4 o 6.833 6.692 0.00 1.17197 0.01
10 6 4 o 251.945 246.739 0.00 1.17197 0.54
12 -2 5 o 1.238 1.091 180.00 1.13612 0.00
10 2 5 o 282.587 249.061 180.00 1.13612 0.65
11 1 -5 o 21.696 18.926 0.00 1.12320 0.05
12 -1 -5 o 232.431 202.762 180.00 1.12320 0.56
13 -4 5 o 253.531 221.168 0.00 1.12320 0.61
9 4 5 o 278.365 242.833 0.00 1.12320 0.67
2 2 -6 o 111.223 97.297 180.00 1.12939 0.26
2 2 6 o 126.155 110.360 180.00 1.12939 0.30
1 1 6 o 0.003 0.003 180.00 1.14252 0.00
1 1 -6 o 176.932 169.907 0.00 1.14252 0.40
22 -7 -1 o 15.259 13.552 180.00 1.13541 0.04
15 7 -1 o 559.713 497.111 180.00 1.13541 1.30
22 -6 1 o 65.518 57.429 180.00 1.12252 0.16
16 6 1 o 2.156 1.889 180.00 1.12252 0.01
11 -3 5 o 9.641 8.233 180.00 1.17771 0.02
8 3 5 o 79.729 68.088 180.00 1.17771 0.17
12 5 4 o 261.276 229.155 0.00 1.12242 0.63
17 -5 4 o 202.676 177.759 0.00 1.12242 0.49
14 1 4 o 24.198 22.236 180.00 1.14865 0.05
15 -1 4 o 711.145 653.494 0.00 1.14865 1.60
19 0 1 o 163.630 169.216 180.00 1.16258 0.36
16 5 -1 o 206.360 213.405 0.00 1.16258 0.45
21 -5 -1 o 1.697 1.755 0.00 1.16258 0.00
21 -7 -2 o 56.023 52.693 0.00 1.14156 0.13
18 1 2 o 16.197 15.234 0.00 1.14156 0.04
19 -1 2 o 174.911 164.513 180.00 1.14156 0.40
14 7 -2 o 321.001 301.920 180.00 1.14156 0.73
13 10 0 o 296.703 260.888 180.00 1.12196 0.72
23 -10 0 o 228.613 201.017 180.00 1.12196 0.55
22 -5 0 o 21.080 18.536 180.00 1.12196 0.05
17 5 0 o 3.702 3.255 0.00 1.12196 0.01
20 -1 0 o 344.340 318.582 0.00 1.14816 0.77
19 1 0 o 52.014 48.124 180.00 1.14816 0.12
14 8 0 o 95.696 98.939 0.00 1.16196 0.21
22 -8 0 o 228.624 236.371 0.00 1.16196 0.50
15 5 -2 o 141.140 140.356 0.00 1.16919 0.30
20 -5 -2 o 38.100 37.888 0.00 1.16919 0.08
11 0 5 o 30.703 28.206 0.00 1.14052 0.07
8 4 -5 o 1.128 1.090 0.00 1.15405 0.00
12 -4 -5 o 483.321 467.209 180.00 1.15405 1.07
3 0 6 o 17.694 15.985 0.00 1.13372 0.04
3 0 -6 o 4.852 4.383 0.00 1.13372 0.01
0 0 6 o 378.776 358.347 180.00 1.14700 0.28
9 2 -5 o 201.232 201.555 0.00 1.16808 0.44
11 -2 -5 o 767.922 769.154 0.00 1.16808 1.66
14 5 3 o 71.826 65.289 0.00 1.14004 0.16
19 -5 -3 o 159.791 145.247 180.00 1.14004 0.37
14 5 -3 o 19.784 17.983 0.00 1.14004 0.05
19 -5 3 o 177.772 161.591 180.00 1.14004 0.41
10 10 -3 o 273.799 235.285 180.00 1.12700 0.65
10 10 3 o 17.401 14.953 180.00 1.12700 0.04
22 -9 1 o 377.333 360.716 180.00 1.15331 0.84
13 9 1 o 28.546 27.289 180.00 1.15331 0.06
9 8 4 o 509.898 460.185 180.00 1.13970 1.17
16 -3 4 o 135.255 122.068 180.00 1.13970 0.31
17 -8 4 o 2.982 2.691 180.00 1.13970 0.01
13 3 4 o 7.622 6.879 0.00 1.13970 0.02
12 4 -4 o 16.762 15.994 180.00 1.15320 0.04
16 -4 -4 o 37.765 36.037 180.00 1.15320 0.08
17 3 2 o 21.414 19.373 0.00 1.13277 0.05
20 -3 2 o 365.225 330.401 180.00 1.13277 0.85
18 3 0 o 8.323 7.443 180.00 1.13922 0.02
21 -3 0 o 176.798 158.111 180.00 1.13922 0.41
21 -10 -2 o 194.998 199.656 0.00 1.15975 0.43
11 10 -2 o 5.307 5.434 0.00 1.15975 0.01
