#------------------------------------------------------------------------------
#$Date: 2016-03-22 21:51:41 +0200 (Tue, 22 Mar 2016) $
#$Revision: 179026 $
#$URL: svn://www.crystallography.net/cod/cif/4/12/24/4122444.cif $
#------------------------------------------------------------------------------
#
# This file is available in the Crystallography Open Database (COD),
# http://www.crystallography.net/
#
# All data on this site have been placed in the public domain by the
# contributors.
#
data_4122444
loop_
_publ_author_name
'Kapelewski, Matthew T.'
'Geier, Stephen J.'
'Hudson, Matthew R.'
'St\"uck, David'
'Mason, Jarad A.'
'Nelson, Jocienne N.'
'Xiao, Dianne J.'
'Hulvey, Zeric'
'Gilmour, Elizabeth'
'FitzGerald, Stephen A.'
'Head-Gordon, Martin'
'Brown, Craig M.'
'Long, Jeffrey R.'
_publ_section_title
;
 M2(m-dobdc) (M = Mg, Mn, Fe, Co, Ni) Metal-Organic Frameworks Exhibiting
 Increased Charge Density and Enhanced H2 Binding at the Open Metal Sites.
;
_journal_issue                   34
_journal_name_full               'Journal of the American Chemical Society'
_journal_page_first              12119
_journal_paper_doi               10.1021/ja506230r
_journal_volume                  136
_journal_year                    2014
_chemical_formula_sum            'C4 H D3.85 Ni O3'
_chemical_formula_weight         163.51
_chemical_name_systematic        ' ?'
_space_group_IT_number           160
_symmetry_cell_setting           trigonal
_symmetry_space_group_name_Hall  'R 3 -2"'
_symmetry_space_group_name_H-M   'R 3 m :H'
_audit_creation_date             2013-06-06T17:34
_audit_creation_method           'from EXP file using GSAS2CIF'
_audit_update_record
' 2013-06-06T17:34  Initial CIF as created by GSAS2CIF'
_cell_angle_alpha                90.0
_cell_angle_beta                 90.0
_cell_angle_gamma                120.0
_cell_formula_units_Z            18
_cell_length_a                   25.776(5)
_cell_length_b                   25.776
_cell_length_c                   6.7544(17)
_cell_volume                     3886.4(12)
_computing_structure_refinement  GSAS
_diffrn_radiation_probe          neutron
_diffrn_radiation_wavelength     2.078
_exptl_absorpt_correction_T_max  1.00000
_exptl_absorpt_correction_T_min  1.00000
_exptl_absorpt_process_details
;   GSAS Absorption/surface roughness correction: function number 0
 No correction is applied.
;
_pd_block_id                     2013-06-06T17:34|NI_PRIME_2P0_D2_R||BT1
_pd_calc_method                  'Rietveld Refinement'
_pd_instr_location               ' ?'
_pd_meas_2theta_range_inc        0.05
_pd_meas_2theta_range_max        166.25
_pd_meas_2theta_range_min        1.5
_pd_meas_number_of_points        3296
_pd_phase_name                   Ni_dobdc_prime_2.0_D2
_pd_proc_2theta_range_inc        0.05
_pd_proc_2theta_range_max        166.3116
_pd_proc_2theta_range_min        1.5616
_pd_proc_info_datetime           2013-06-06T17:34:53
_pd_proc_info_excluded_regions   ' ?'
_pd_proc_ls_background_function
;   GSAS Background function number 1 with 12 terms.
 Shifted Chebyshev function of 1st kind
      1:    633.205     2:   -203.106     3:    132.521     4:   -16.6945    
      5:    61.3697     6:   -31.1154     7:    49.5871     8:   -10.3509    
      9:    22.7456    10:   -3.27071    11:    5.79584    12:   -5.13015    
;
_pd_proc_ls_peak_cutoff          0.00050
_pd_proc_ls_profile_function
;
 CW Profile function number 3 with  19 terms
 Pseudovoigt profile coefficients as parameterized in
 P. Thompson, D.E. Cox & J.B. Hastings (1987). J. Appl. Cryst.,20,79-83.
 Asymmetry correction of L.W. Finger, D.E. Cox & A. P. Jephcoat (1994).
 J. Appl. Cryst.,27,892-900.
 Peak tails are ignored  where the intensity is below 0.0005 times the peak
   Aniso. broadening axis   0.0   0.0   1.0
;
_pd_proc_ls_prof_R_factor        0.0370
_pd_proc_ls_prof_wR_expected     0.0367
_pd_proc_ls_prof_wR_factor       0.0469
_pd_proc_number_of_points        3296
_pd_spec_mounting                ' ?'
_refine_ls_goodness_of_fit_all   1.29
_refine_ls_matrix_type           full
_refine_ls_number_parameters     69
_refine_ls_number_restraints     16
_refine_ls_R_Fsqd_factor         0.14026
_refine_ls_shift/su_max          2.69
_refine_ls_shift/su_mean         0.42
_reflns_d_resolution_high        1.059
_reflns_d_resolution_low         12.888
_reflns_limit_h_max              21
_reflns_limit_h_min              0
_reflns_limit_k_max              12
_reflns_limit_k_min              0
_reflns_limit_l_max              6
_reflns_limit_l_min              -6
_reflns_number_total             426
_cod_data_source_file            NI_PRIME_2P0_D2_R.cif
_cod_data_source_block           NI_PRIME_2P0_D2_R_publ
_cod_depositor_comments
;
The following automatic conversions were performed:

'_geom_bond_publ_flag' value 'N' changed to 'n' according to
/usr/data/users/saulius/crontab/automatic-downloads/rss-feeds/ACS/lib/dictionaries/cif_core.dic
dictionary named 'cif_core.dic' version 2.4.2 from 2011-04-26 (40
times).

'_geom_angle_publ_flag' value 'N' changed to 'n' according
to
/usr/data/users/saulius/crontab/automatic-downloads/rss-feeds/ACS/lib/dictionaries/cif_core.dic
dictionary named 'cif_core.dic' version 2.4.2 from 2011-04-26 (32
times).

Automatic conversion script
Id: cif_fix_values 2281 2013-09-26 08:29:07Z andrius 

 Adding full bibliography for 4122440--4122455.cif.
;
_cod_original_cell_volume        3886.5(13)
_cod_original_sg_symbol_H-M      'R 3 m'
_cod_database_code               4122444
#BEGIN Tags that were not found in dictionaries:
_gsas_exptl_extinct_corr_t_min   1.00000
_gsas_exptl_extinct_corr_t_max   1.00000
#END Tags that were not found in dictionaries
loop_
_symmetry_equiv_pos_site_id
_symmetry_equiv_pos_as_xyz
1 +x,+y,+z
2 -y,x-y,+z
3 y-x,-x,+z
4 y-x,+y,+z
5 -y,-x,+z
6 +x,x-y,+z
101 +x+1/3,+y+2/3,+z+2/3
102 -y+1/3,x-y+2/3,+z+2/3
103 y-x+1/3,-x+2/3,+z+2/3
104 y-x+1/3,+y+2/3,+z+2/3
105 -y+1/3,-x+2/3,+z+2/3
106 +x+1/3,x-y+2/3,+z+2/3
201 +x+2/3,+y+1/3,+z+1/3
202 -y+2/3,x-y+1/3,+z+1/3
203 y-x+2/3,-x+1/3,+z+1/3
204 y-x+2/3,+y+1/3,+z+1/3
205 -y+2/3,-x+1/3,+z+1/3
206 +x+2/3,x-y+1/3,+z+1/3
loop_
_atom_site_type_symbol
_atom_site_label
_atom_site_fract_x
_atom_site_fract_y
_atom_site_fract_z
_atom_site_occupancy
_atom_site_thermal_displace_type
_atom_site_U_iso_or_equiv
_atom_site_symmetry_multiplicity
C C1 0.6596(17) 0.8767(17) 0.832(7) 1.0 Uiso 0.017(12) 18
C C2 0.6717(25) 0.8359(13) 0.740(10) 1.0 Uiso 0.007(15) 9
C C6 0.6479(18) 0.8693(18) 0.051(6) 1.0 Uiso 0.018(11) 18
C C11 0.6320(15) 0.9094(14) 0.162(5) 1.0 Uiso 0.005(10) 18
Ni Ni2 0.3254(10) 0.3697(9) 0.5569(32) 1.0 Uiso 0.002(6) 18
H H7 0.673(4) 0.8364(20) 0.586(18) 1.0 Uiso 0.024(29) 9
O O9 0.6741(16) 0.9280(17) 0.764(6) 1.0 Uiso 0.008(12) 18
O O12 0.6556(15) 0.9640(17) 0.097(7) 1.0 Uiso 0.015(15) 18
O O15 0.6148(24) 0.8940(21) 0.351(8) 1.0 Uiso 0.049(23) 18
C C2m 0.6269(24) 0.8134(12) 0.138(8) 1.0 Uiso 0.009(16) 9
H H7m 0.623(4) 0.8116(20) 0.260(15) 1.0 Uiso 0.003(25) 9
D D1 0.2106(12) 0.2178(13) 0.009(4) 2.00(11) Uiso 0.089(17) 18
D D2 0.7823(22) 0.9545(19) 0.434(7) 1.64(10) Uiso 0.163(26) 18
D D3 0.5690(27) 0.138(5) 0.484(14) 0.43(11) Uiso 0.01(5) 9
loop_
_atom_type_symbol
_atom_type_number_in_cell
_atom_type_scat_length_neutron
_atom_type_scat_source
C 72.0 0.6646 International_Tables_Vol_C
Ni 18.0 1.0300 International_Tables_Vol_C
H 18.0 -0.3739 International_Tables_Vol_C
O 54.0 0.5803 International_Tables_Vol_C
D 69.321 0.6671 International_Tables_Vol_C
loop_
_geom_angle_atom_site_label_1
_geom_angle_atom_site_label_2
_geom_angle_atom_site_label_3
_geom_angle
_geom_angle_site_symmetry_1
_geom_angle_site_symmetry_3
_geom_angle_publ_flag
C2 C1 C6 117(5) 1_555 1_556 n
C2 C1 O9 125(6) 1_555 1_555 n
C6 C1 O9 115(4) 1_556 1_555 n
C1 C2 C1 121(7) 1_555 6_565 n
C1 C2 H7 117(4) 1_555 1_555 n
C1 C2 H7 117(4) 6_565 1_555 n
C1 C6 C11 120.8(33) 1_554 1_555 n
C1 C6 C2m 120(4) 1_554 1_555 n
C11 C6 C2m 114.2(32) 1_555 1_555 n
C6 C11 O12 116(4) 1_555 1_555 n
C6 C11 O15 115.7(33) 1_555 1_555 n
O12 C11 O15 123(4) 1_555 1_555 n
O9 Ni2 O9 164.0(27) 3_565 102_654 n
O9 Ni2 O12 82.0(16) 3_565 102_655 n
O9 Ni2 O12 99.4(13) 3_565 201_445 n
O9 Ni2 O15 96.7(24) 3_565 3_565 n
O9 Ni2 O12 82.6(23) 102_654 102_655 n
O9 Ni2 O12 83.5(15) 102_654 201_445 n
O9 Ni2 O15 98.5(21) 102_654 3_565 n
O12 Ni2 O12 85.4(9) 102_655 201_445 n
O12 Ni2 O15 176.5(24) 102_655 3_565 n
O12 Ni2 O15 98.0(21) 201_445 3_565 n
C1 O9 Ni2 131.2(30) 1_555 2_665 n
C1 O9 Ni2 131.9(35) 1_555 203_565 n
Ni2 O9 Ni2 89.6(19) 2_665 203_565 n
C11 O12 Ni2 130.0(34) 1_555 101_554 n
C11 O12 Ni2 134(4) 1_555 203_564 n
Ni2 O12 Ni2 95.1(17) 101_554 203_564 n
C11 O15 Ni2 121(4) 1_555 2_665 n
C6 C2m C6 115(5) 1_555 6_565 n
C6 C2m H7m 116.9(31) 1_555 1_555 n
C6 C2m H7m 116.8(31) 6_565 1_555 n
loop_
_geom_bond_atom_site_label_1
_geom_bond_atom_site_label_2
_geom_bond_distance
_geom_bond_site_symmetry_2
_geom_bond_publ_flag
C1 C2 1.39(5) 1_555 n
C1 C6 1.50(5) 1_556 n
C1 H7 2.08(10) 1_555 n
C1 O9 1.27(4) 1_555 n
C2 C1 1.39(5) 1_555 n
C2 C1 1.39(5) 6_565 n
C2 H7 1.04(15) 1_555 n
C6 C1 1.50(5) 1_554 n
C6 C11 1.49(5) 1_555 n
C6 C2m 1.39(4) 1_555 n
C6 H7m 1.91(10) 1_555 n
C11 C6 1.49(5) 1_555 n
C11 O12 1.30(5) 1_555 n
C11 O15 1.35(5) 1_555 n
Ni2 Ni2 2.899(22) 103_554 n
Ni2 Ni2 2.899(22) 202_555 n
Ni2 O9 2.13(4) 3_565 n
Ni2 O9 1.98(4) 102_654 n
Ni2 O12 1.91(4) 102_655 n
Ni2 O12 2.02(5) 201_445 n
Ni2 O15 2.00(5) 3_565 n
Ni2 D1 2.210(32) 103_555 n
H7 C1 2.08(10) 1_555 n
H7 C1 2.08(10) 6_565 n
H7 C2 1.04(15) 1_555 n
O9 C1 1.27(4) 1_555 n
O9 Ni2 2.13(4) 2_665 n
O9 Ni2 1.98(4) 203_565 n
O12 C11 1.30(5) 1_555 n
O12 Ni2 2.02(5) 101_554 n
O12 Ni2 1.91(4) 203_564 n
O15 C11 1.35(5) 1_555 n
O15 Ni2 2.00(5) 2_665 n
C2m C6 1.39(4) 1_555 n
C2m C6 1.39(4) 6_565 n
C2m H7m 0.83(13) 1_555 n
H7m C6 1.91(10) 1_555 n
H7m C6 1.91(10) 6_565 n
H7m C2m 0.83(13) 1_555 n
D1 Ni2 2.210(32) 202_554 n
loop_
_pd_meas_intensity_total
_pd_proc_ls_weight
_pd_proc_intensity_bkg_calc
_pd_calc_intensity_total
6790(180) 0.0 2101. .
6410(170) 0.0 2087. .
6160(170) 0.0 2073. .
5740(160) 0.0 2059. .
5410(160) 0.0 2046. .
5140(150) 0.0 2032. .
4850(150) 0.0 2019. .
4860(150) 0.0 2006. .
4780(150) 0.0 1993. .
4540(150) 0.0 1980. .
4260(140) 0.0 1967. .
4620(150) 0.0 1954. .
4310(140) 0.0 1941. .
4260(140) 0.0 1929. .
3970(140) 0.0 1916. .
3940(140) 0.0 1904. .
4010(140) 0.0 1892. .
4060(140) 0.0 1880. .
3710(130) 0.0 1868. .
3820(130) 0.0 1856. .
3710(130) 0.0 1844. .
3670(130) 0.0 1833. .
3230(120) 0.0 1821. .
3510(130) 0.0 1810. .
3170(120) 0.0 1798. .
3110(120) 0.0 1787. .
3250(120) 0.0 1776. .
3200(120) 0.0 1765. .
2830(110) 0.0 1754. .
2920(120) 0.0 1743. .
2940(120) 0.0 1733. .
2760(110) 0.0 1722. .
2650(110) 0.0 1712. .
2630(110) 0.0 1701. .
2450(110) 0.0 1691. .
2590(110) 0.0 1681. .
2310(100) 0.0 1670. .
2200(100) 0.0 1660. .
2220(100) 0.0 1651. .
1987(95) 0.0 1641. .
2034(96) 0.0 1631. .
2085(98) 0.0 1621. .
2099(98) 0.0 1612. .
2136(99) 0.0 1602. .
2099(98) 0.0 1593. .
1987(95) 0.0 1584. .
2029(96) 0.0 1574. .
1968(95) 0.0 1565. .
1838(92) 0.0 1556. .
1945(94) 0.0 1547. .
2066(97) 0.0 1539. .
1870(92) 0.0 1530. .
1954(95) 0.0 1521. .
1693(88) 0.0 1513. .
1777(90) 0.0 1504. .
1735(89) 0.0 1496. .
1805(91) 0.0 1487. .
1824(91) 0.0 1479. .
1642(86) 0.0 1471. .
1665(87) 0.0 1463. .
1730(89) 0.0 1455. .
1642(86) 0.0 1447. .
1492(82) 0.0 1439. .
1558(84) 0.0 1431. .
1674(87) 0.0 1423. .
1474(82) 0.0 1416. .
1511(83) 0.0 1408. .
1380(79) 0.0 1401. .
1394(79) 0.0 1393. .
1385(79) 0.0 1386. .
1492(82) 0.0 1378. .
1604(85) 0.0 1371. .
1544(84) 0.0 1364. .
1502(83) 0.0 1357. .
1310(77) 0.0 1350. .
1460(81) 0.0 1343. .
1427(80) 0.0 1336. .
1553(84) 0.0 1329. .
1287(76) 0.0 1323. .
1366(79) 0.0 1316. .
1343(78) 0.0 1310. .
1301(77) 0.0 1303. .
1282(76) 0.0 1297. .
1296(77) 0.0 1290. .
1236(75) 0.0 1284. .
1301(77) 0.0 1278. .
1324(77) 0.0 1271. .
1301(77) 0.0 1265. .
1268(76) 0.0 1259. .
1315(77) 0.0 1253. .
1194(73) 0.0 1247. .
1170(73) 0.0 1241. .
1334(78) 0.0 1235. .
1175(73) 0.0 1230. .
1254(75) 0.0 1224. .
1399(80) 0.0 1218. .
1091(70) 0.0 1213. .
1175(73) 0.0 1207. .
1049(69) 0.0 1202. .
1035(68) 0.0 1196. .
1282(52) 0.0 1191. .
1206(50) 0.0 1185. .
1197(50) 0.0 1180. .
1337(53) 0.000356 1175. 1226.
1280(52) 0.000370 1170. 1223.
1192(50) 0.000400 1165. 1221.
1191(50) 0.000400 1160. 1219.
1193(50) 0.000400 1155. 1217.
1168(49) 0.000416 1150. 1215.
1265(51) 0.000384 1145. 1213.
1186(50) 0.000400 1140. 1212.
1158(49) 0.000416 1135. 1212.
1130(48) 0.000434 1130. 1211.
1161(49) 0.000416 1126. 1211.
1183(50) 0.000400 1121. 1212.
1263(51) 0.000384 1116. 1213.
1173(49) 0.000416 1112. 1215.
1172(49) 0.000416 1107. 1218.
1275(51) 0.000384 1103. 1221.
1144(49) 0.000416 1098. 1226.
1218(50) 0.000400 1094. 1232.
1338(53) 0.000356 1090. 1239.
1338(53) 0.000356 1085. 1248.
1377(54) 0.0003429 1081. 1260.
1355(53) 0.000356 1077. 1275.
1384(54) 0.0003429 1073. 1295.
1464(55) 0.0003306 1069. 1323.
1534(57) 0.0003078 1065. 1360.
1450(55) 0.0003306 1061. 1411.
1619(59) 0.0002873 1057. 1478.
1669(59) 0.0002873 1053. 1563.
1757(61) 0.0002687 1049. 1669.
1909(64) 0.0002441 1045. 1794.
2053(66) 0.0002296 1041. 1942.
2234(69) 0.0002100 1037. 2114.
2330(71) 0.0001984 1034. 2307.
2371(71) 0.0001984 1030. 2518.
2590(75) 0.0001778 1026. 2754.
2901(79) 0.0001602 1023. 3021.
3192(83) 0.0001452 1019. 3313.
3534(88) 0.0001291 1016. 3635.
3828(91) 0.0001208 1012. 4004.
4342(97) 0.0001063 1009. 4425.
4770(100) 0.0000961 1005. 4902.
5480(110) 0.0000826 1002. 5463.
6280(120) 0.0000718 999. 6129.
7100(130) 0.0000640 995. 6915.
8120(130) 0.0000557 992. 7844.
9200(140) 0.0000489 989. 8904.
10350(150) 0.0000439 986. 10035.
11440(160) 0.0000396 982. 11120.
12220(170) 0.0000367 979. 11958.
12390(170) 0.0000363 976. 12293.
11770(160) 0.0000381 973. 11882.
10350(150) 0.0000439 970. 10670.
8840(140) 0.0000510 967. 8923.
7050(130) 0.0000640 964. 7064.
5430(110) 0.0000842 961. 5411.
4192(96) 0.0001085 958. 4103.
3252(84) 0.0001417 955. 3155.
2705(76) 0.0001731 953. 2513.
2206(69) 0.0002100 950. 2097.
1912(64) 0.0002441 947. 1831.
1762(61) 0.0002687 944. 1657.
1627(59) 0.0002873 942. 1537.
1447(55) 0.0003306 939. 1448.
1447(55) 0.0003306 936. 1379.
1309(52) 0.000370 934. 1323.
1153(49) 0.000416 931. 1277.
1238(51) 0.000384 928. 1237.
1165(49) 0.000416 926. 1204.
1193(50) 0.000400 923. 1174.
1064(47) 0.000453 921. 1149.
1115(48) 0.000434 918. 1127.
956(44) 0.000517 916. 1107.
1011(45) 0.000494 914. 1089.
1042(46) 0.000473 911. 1073.
991(45) 0.000494 909. 1059.
952(44) 0.000517 907. 1046.
970(44) 0.000517 904. 1034.
964(44) 0.000517 902. 1023.
942(44) 0.000517 900. 1013.
987(45) 0.000494 898. 1004.
933(43) 0.000541 895. 995.
861(42) 0.000567 893. 987.
968(44) 0.000517 891. 979.
887(42) 0.000567 889. 972.
940(44) 0.000517 887. 966.
940(44) 0.000517 885. 960.
925(43) 0.000541 883. 954.
928(43) 0.000541 881. 948.
942(44) 0.000517 879. 943.
897(43) 0.000541 877. 938.
935(43) 0.000541 875. 933.
848(41) 0.000595 873. 929.
998(45) 0.000494 871. 924.
981(61) 0.0002687 869. 920.
849(56) 0.0003189 867. 916.
944(59) 0.0002873 865. 912.
913(58) 0.0002973 864. 908.
895(42) 0.000567 862. 905.
823(40) 0.000625 860. 901.
846(41) 0.000595 858. 900.
867(41) 0.000595 857. 897.
886(42) 0.000567 855. 894.
852(41) 0.000595 853. 891.
832(40) 0.000625 851. 888.
870(41) 0.000595 850. 885.
882(42) 0.000567 848. 882.
878(41) 0.000595 847. 880.
930(43) 0.000541 845. 877.
858(41) 0.000595 843. 875.
875(41) 0.000595 842. 872.
897(42) 0.000567 840. 870.
897(42) 0.000567 839. 868.
834(40) 0.000625 837. 865.
844(41) 0.000595 836. 863.
826(40) 0.000625 834. 861.
840(40) 0.000625 833. 859.
808(40) 0.000625 831. 857.
766(38) 0.000693 830. 855.
892(42) 0.000567 829. 853.
878(41) 0.000595 827. 851.
899(42) 0.000567 826. 850.
895(42) 0.000567 824. 848.
845(41) 0.000595 823. 846.
895(42) 0.000567 822. 844.
891(42) 0.000567 821. 843.
881(42) 0.000567 819. 841.
883(42) 0.000567 818. 839.
808(40) 0.000625 817. 838.
882(42) 0.000567 815. 836.
819(40) 0.000625 814. 835.
869(41) 0.000595 813. 834.
877(41) 0.000595 812. 832.
884(42) 0.000567 811. 831.
855(41) 0.000595 809. 830.
773(38) 0.000693 808. 828.
819(40) 0.000625 807. 827.
844(41) 0.000595 806. 826.
823(40) 0.000625 805. 825.
818(40) 0.000625 804. 824.
796(39) 0.000657 803. 823.
827(40) 0.000625 802. 822.
852(41) 0.000595 801. 821.
825(40) 0.000625 800. 820.
798(39) 0.000657 799. 819.
875(41) 0.000595 797. 818.
831(40) 0.000625 796. 817.
863(41) 0.000595 795. 816.
823(40) 0.000625 795. 816.
777(39) 0.000657 794. 815.
840(40) 0.000625 793. 815.
809(40) 0.000625 792. 815.
871(41) 0.000595 791. 814.
819(40) 0.000625 790. 814.
819(40) 0.000625 789. 814.
817(40) 0.000625 788. 814.
814(40) 0.000625 787. 814.
819(40) 0.000625 786. 814.
851(41) 0.000595 785. 814.
834(40) 0.000625 784. 815.
867(41) 0.000595 784. 816.
854(41) 0.000595 783. 817.
882(42) 0.000567 782. 818.
893(42) 0.000567 781. 819.
846(41) 0.000595 780. 821.
849(41) 0.000595 779. 824.
836(40) 0.000625 779. 827.
883(42) 0.000567 778. 831.
805(39) 0.000657 777. 836.
913(42) 0.000567 776. 843.
960(44) 0.000517 776. 852.
956(44) 0.000517 775. 864.
937(43) 0.000541 774. 880.
885(42) 0.000567 773. 901.
978(44) 0.000517 773. 930.
1045(46) 0.000473 772. 967.
1038(46) 0.000473 771. 1013.
1056(46) 0.000473 771. 1070.
1236(50) 0.000400 770. 1139.
1225(50) 0.000400 769. 1223.
1351(53) 0.000356 769. 1326.
1470(55) 0.0003306 768. 1445.
1545(57) 0.0003078 767. 1573.
1704(60) 0.0002778 767. 1702.
1823(62) 0.0002601 766. 1825.
1926(64) 0.0002441 765. 1921.
1938(64) 0.0002441 765. 1964.
1868(63) 0.0002520 764. 1934.
1764(61) 0.0002687 764. 1828.
1597(58) 0.0002973 763. 1669.
1434(54) 0.0003429 762. 1492.
1344(53) 0.000356 762. 1326.
1133(48) 0.000434 761. 1187.
1033(45) 0.000494 761. 1079.
915(62) 0.0002601 760. 1000.
950(43) 0.000541 760. 943.
914(42) 0.000567 759. 904.
896(42) 0.000567 759. 876.
910(42) 0.000567 758. 857.
855(40) 0.000625 758. 843.
754(38) 0.000693 757. 832.
788(39) 0.000657 756. 823.
806(39) 0.000657 756. 816.
785(39) 0.000657 755. 810.
856(40) 0.000625 755. 805.
862(41) 0.000595 755. 801.
839(40) 0.000625 754. 797.
818(39) 0.000657 754. 794.
784(39) 0.000657 753. 791.
817(39) 0.000657 753. 789.
805(39) 0.000657 752. 787.
852(40) 0.000625 752. 785.
855(40) 0.000625 751. 783.
803(39) 0.000657 751. 782.
832(40) 0.000625 750. 781.
821(40) 0.000625 750. 780.
789(39) 0.000657 750. 779.
804(39) 0.000657 749. 779.
852(40) 0.000625 749. 779.
786(39) 0.000657 748. 780.
772(38) 0.000693 748. 781.
784(39) 0.000657 748. 782.
808(39) 0.000657 747. 785.
827(40) 0.000625 747. 788.
794(39) 0.000657 746. 794.
816(39) 0.000657 746. 801.
783(39) 0.000657 746. 811.
785(39) 0.000657 745. 823.
849(40) 0.000625 745. 838.
785(39) 0.000657 745. 856.
867(41) 0.000595 744. 877.
896(42) 0.000567 744. 900.
911(42) 0.000567 743. 925.
974(43) 0.000541 743. 949.
995(44) 0.000517 743. 967.
1021(45) 0.000494 742. 975.
997(44) 0.000517 742. 971.
979(44) 0.000517 742. 954.
944(43) 0.000541 741. 927.
868(41) 0.000595 741. 896.
807(39) 0.000657 741. 866.
809(39) 0.000657 741. 840.
815(39) 0.000657 740. 819.
790(39) 0.000657 740. 803.
810(39) 0.000657 740. 792.
775(38) 0.000693 739. 783.
712(36) 0.000772 739. 777.
802(39) 0.000657 739. 773.
794(39) 0.000657 738. 770.
825(40) 0.000625 738. 768.
724(37) 0.000730 738. 767.
715(37) 0.000730 738. 766.
785(39) 0.000657 737. 765.
776(38) 0.000693 737. 765.
767(38) 0.000693 737. 764.
813(39) 0.000657 737. 765.
754(38) 0.000693 736. 765.
787(39) 0.000657 736. 766.
794(39) 0.000657 736. 766.
750(38) 0.000693 735. 768.
769(38) 0.000693 735. 769.
766(38) 0.000693 735. 772.
802(39) 0.000657 735. 774.
764(38) 0.000693 735. 778.
818(39) 0.000657 734. 783.
805(39) 0.000657 734. 789.
756(38) 0.000693 734. 797.
741(37) 0.000730 734. 809.
763(38) 0.000693 733. 824.
765(38) 0.000693 733. 845.
818(39) 0.000657 733. 873.
956(43) 0.000541 733. 909.
962(43) 0.000541 732. 954.
982(44) 0.000517 732. 1007.
1042(45) 0.000494 732. 1065.
1065(46) 0.000473 732. 1126.
1178(48) 0.000434 732. 1186.
1330(52) 0.000370 731. 1246.
1372(52) 0.000370 731. 1298.
1471(54) 0.0003429 731. 1329.
1389(53) 0.000356 731. 1324.
1353(52) 0.000370 731. 1277.
1291(51) 0.000384 730. 1202.
1152(48) 0.000434 730. 1118.
1063(46) 0.000473 730. 1038.
1001(44) 0.000517 730. 970.
927(42) 0.000567 730. 914.
827(40) 0.000625 729. 872.
843(40) 0.000625 729. 841.
818(39) 0.000657 729. 818.
776(38) 0.000693 729. 802.
830(40) 0.000625 729. 790.
807(39) 0.000657 728. 781.
785(39) 0.000657 728. 774.
770(37) 0.000730 728. 769.
742(36) 0.000772 728. 765.
748(36) 0.000772 728. 761.
754(36) 0.000772 728. 759.
695(35) 0.000816 727.4 756.1
745(36) 0.000772 727. 754.
766(36) 0.000772 727. 752.
827(38) 0.000693 727. 750.
771(37) 0.000730 727. 749.
717(35) 0.000816 726.6 748.0
734(36) 0.000772 726. 747.
715(35) 0.000816 726.3 746.4
691(34) 0.000865 726.1 745.9
752(36) 0.000772 726. 746.
750(36) 0.000772 726. 746.
728(35) 0.000816 725.7 746.5
710(35) 0.000816 725.5 747.6
767(37) 0.000730 725. 749.
722(35) 0.000816 725.2 751.8
773(37) 0.000730 725. 755.
769(37) 0.000730 725. 759.
764(36) 0.000772 725. 763.
730(36) 0.000772 725. 768.
775(37) 0.000730 724. 772.
852(39) 0.000657 724. 776.
819(38) 0.000693 724. 778.
792(37) 0.000730 724. 778.
777(37) 0.000730 724. 776.
754(36) 0.000772 724. 770.
743(36) 0.000772 724. 764.
812(38) 0.000693 723. 758.
717(35) 0.000816 723.3 752.3
756(36) 0.000772 723. 748.
723(35) 0.000816 723.1 743.9
762(36) 0.000772 723. 741.
768(37) 0.000730 723. 740.
680(34) 0.000865 722.7 738.4
703(35) 0.000816 722.5 737.3
743(36) 0.000772 722. 736.
659(33) 0.000918 722.3 735.9
752(36) 0.000772 722. 735.
756(36) 0.000772 722. 735.
727(35) 0.000816 721.9 734.9
737(36) 0.000772 722. 735.
765(36) 0.000772 722. 735.
721(35) 0.000816 721.5 734.9
716(35) 0.000816 721.4 735.1
718(35) 0.000816 721.3 735.4
713(35) 0.000816 721.1 735.9
769(37) 0.000730 721. 737.
715(35) 0.000816 720.9 737.6
745(36) 0.000772 721. 739.
780(37) 0.000730 721. 741.
721(35) 0.000816 720.5 743.3
750(36) 0.000772 720. 747.
712(35) 0.000816 720.3 751.3
701(35) 0.000816 720.2 757.1
721(35) 0.000816 720.0 764.4
769(37) 0.000730 720. 773.
746(36) 0.000772 720. 783.
771(37) 0.000730 720. 793.
828(38) 0.000693 720. 803.
777(37) 0.000730 719. 811.
813(38) 0.000693 719. 817.
814(38) 0.000693 719. 819.
804(38) 0.000693 719. 815.
831(38) 0.000693 719. 807.
824(38) 0.000693 719. 796.
775(37) 0.000730 719. 784.
799(37) 0.000730 719. 773.
780(37) 0.000730 719. 764.
811(38) 0.000693 718. 757.
767(36) 0.000772 718. 751.
770(37) 0.000730 718. 747.
745(36) 0.000772 718. 744.
763(36) 0.000772 718. 742.
718(35) 0.000816 717.9 741.2
747(36) 0.000772 718. 741.
734(36) 0.000772 718. 740.
700(35) 0.000816 717.6 740.4
716(35) 0.000816 717.5 740.8
778(37) 0.000730 717. 742.
730(35) 0.000816 717.2 742.7
705(35) 0.000816 717.1 744.3
752(36) 0.000772 717. 747.
722(35) 0.000816 716.9 749.5
754(36) 0.000772 717. 754.
762(36) 0.000772 717. 759.
825(38) 0.000693 717. 766.
775(37) 0.000730 717. 776.
834(38) 0.000693 716. 788.
766(36) 0.000772 716. 803.
772(37) 0.000730 716. 821.
803(37) 0.000730 716. 840.
883(39) 0.000657 716. 861.
912(40) 0.000625 716. 880.
883(39) 0.000657 716. 896.
907(40) 0.000625 716. 907.
930(41) 0.000595 716. 909.
845(39) 0.000657 715. 900.
891(40) 0.000625 715. 883.
842(38) 0.000693 715. 861.
823(38) 0.000693 715. 839.
845(38) 0.000693 715. 819.
787(37) 0.000730 715. 803.
785(37) 0.000730 715. 790.
738(36) 0.000772 715. 780.
752(36) 0.000772 715. 773.
798(37) 0.000730 715. 768.
759(36) 0.000772 714. 765.
722(35) 0.000816 714.3 764.3
757(36) 0.000772 714. 764.
692(34) 0.000865 714.1 765.4
777(37) 0.000730 714. 768.
777(37) 0.000730 714. 771.
810(38) 0.000693 714. 776.
805(37) 0.000730 714. 782.
781(37) 0.000730 714. 791.
782(37) 0.000730 714. 803.
785(37) 0.000730 713. 819.
811(38) 0.000693 713. 840.
784(37) 0.000730 713. 869.
813(38) 0.000693 713. 907.
857(39) 0.000657 713. 954.
912(40) 0.000625 713. 1012.
975(41) 0.000595 713. 1079.
1057(43) 0.000541 713. 1150.
1178(46) 0.000473 713. 1218.
1254(47) 0.000453 713. 1270.
1333(49) 0.000416 712. 1290.
1272(48) 0.000434 712. 1272.
1267(48) 0.000434 712. 1222.
1291(48) 0.000434 712. 1155.
1194(46) 0.000473 712. 1083.
1183(46) 0.000473 712. 1016.
1073(44) 0.000517 712. 957.
942(41) 0.000595 712. 909.
929(40) 0.000625 712. 870.
912(40) 0.000625 712. 840.
829(38) 0.000693 711. 818.
770(36) 0.000772 711. 801.
785(37) 0.000730 711. 788.
835(38) 0.000693 711. 779.
818(38) 0.000693 711. 772.
761(36) 0.000772 711. 767.
775(37) 0.000730 711. 763.
796(37) 0.000730 711. 760.
710(35) 0.000816 710.7 757.9
747(36) 0.000772 711. 757.
791(37) 0.000730 711. 757.
789(37) 0.000730 710. 759.
732(35) 0.000816 710.3 761.6
740(36) 0.000772 710. 767.
725(35) 0.000816 710.1 773.7
783(37) 0.000730 710. 783.
788(37) 0.000730 710. 793.
818(38) 0.000693 710. 806.
799(37) 0.000730 710. 820.
772(37) 0.000730 710. 834.
795(37) 0.000730 710. 843.
794(37) 0.000730 709. 847.
850(39) 0.000657 709. 843.
834(38) 0.000693 709. 832.
819(38) 0.000693 709. 817.
831(38) 0.000693 709. 802.
815(38) 0.000693 709. 787.
783(37) 0.000730 709. 774.
756(36) 0.000772 709. 764.
731(35) 0.000816 708.7 755.8
703(35) 0.000816 708.6 749.0
727(35) 0.000816 708.5 743.7
718(35) 0.000816 708.4 739.7
737(36) 0.000772 708. 737.
708(35) 0.000816 708.2 734.1
725(35) 0.000816 708.1 732.3
712(35) 0.000816 708.0 730.8
688(34) 0.000865 707.9 729.6
711(35) 0.000816 707.8 728.6
723(35) 0.000816 707.7 727.8
669(34) 0.000865 707.6 727.1
695(34) 0.000865 707.5 726.6
739(36) 0.000772 707. 726.
743(36) 0.000772 707. 726.
696(34) 0.000865 707.2 725.5
713(35) 0.000816 707.1 725.3
713(35) 0.000816 707.0 725.2
699(35) 0.000816 706.9 725.1
732(35) 0.000816 706.8 725.2
756(36) 0.000772 707. 725.
743(36) 0.000772 707. 725.
724(35) 0.000816 706.5 725.7
741(36) 0.000772 706. 726.
762(36) 0.000772 706. 727.
717(35) 0.000816 706.2 727.2
744(36) 0.000772 706. 728.
719(35) 0.000816 706.0 728.5
741(36) 0.000772 706. 729.
760(36) 0.000772 706. 730.
773(37) 0.000730 706. 732.
728(35) 0.000816 705.7 732.9
721(34) 0.000865 705.6 734.5
754(35) 0.000816 705.5 736.4
743(34) 0.000865 705.4 738.7
755(35) 0.000816 705.3 741.4
772(35) 0.000816 705.2 744.7
741(34) 0.000865 705.1 748.8
729(34) 0.000865 705.0 753.9
738(34) 0.000865 704.9 760.5
809(36) 0.000772 705. 769.
791(36) 0.000772 705. 780.
797(36) 0.000772 705. 794.
820(36) 0.000772 704. 812.
820(36) 0.000772 704. 834.
849(37) 0.000730 704. 860.
867(38) 0.000693 704. 892.
918(39) 0.000657 704. 926.
945(39) 0.000657 704. 962.
916(39) 0.000657 704. 994.
1017(41) 0.000595 704. 1016.
998(41) 0.000595 704. 1023.
1012(41) 0.000595 704. 1012.
1023(41) 0.000595 704. 987.
998(41) 0.000595 703. 955.
918(39) 0.000657 703. 921.
911(39) 0.000657 703. 889.
859(37) 0.000730 703. 862.
864(38) 0.000693 703. 839.
810(36) 0.000772 703. 821.
833(37) 0.000730 703. 807.
875(38) 0.000693 703. 798.
878(38) 0.000693 703. 791.
818(36) 0.000772 703. 788.
785(36) 0.000772 702. 787.
805(36) 0.000772 702. 789.
816(36) 0.000772 702. 794.
837(37) 0.000730 702. 801.
794(36) 0.000772 702. 812.
822(36) 0.000772 702. 827.
875(38) 0.000693 702. 847.
870(38) 0.000693 702. 872.
858(37) 0.000730 702. 903.
897(38) 0.000693 702. 939.
931(39) 0.000657 701. 979.
1022(41) 0.000595 701. 1021.
1046(42) 0.000567 701. 1058.
1071(42) 0.000567 701. 1083.
1079(42) 0.000567 701. 1091.
1091(43) 0.000541 701. 1079.
1066(42) 0.000567 701. 1050.
1044(42) 0.000567 701. 1012.
1035(41) 0.000595 701. 971.
991(40) 0.000625 701. 933.
929(39) 0.000657 700. 900.
935(39) 0.000657 700. 872.
875(38) 0.000693 700. 850.
835(37) 0.000730 700. 833.
919(39) 0.000657 700. 821.
865(38) 0.000693 700. 813.
857(37) 0.000730 700. 809.
841(37) 0.000730 700. 808.
820(36) 0.000772 700. 811.
776(35) 0.000816 699.5 818.3
794(36) 0.000772 699. 829.
852(37) 0.000730 699. 845.
866(38) 0.000693 699. 866.
836(37) 0.000730 699. 892.
877(38) 0.000693 699. 926.
917(39) 0.000657 699. 965.
941(39) 0.000657 699. 1009.
999(41) 0.000595 699. 1056.
1048(42) 0.000567 699. 1100.
1100(43) 0.000541 699. 1133.
1179(44) 0.000517 698. 1148.
1200(45) 0.000494 698. 1139.
1153(44) 0.000517 698. 1109.
1162(44) 0.000517 698. 1066.
1083(42) 0.000567 698. 1018.
1013(41) 0.000595 698. 971.
943(39) 0.000657 698. 929.
856(37) 0.000730 698. 892.
868(38) 0.000693 698. 861.
835(37) 0.000730 698. 837.
862(37) 0.000730 697. 817.
821(36) 0.000772 697. 803.
789(36) 0.000772 697. 792.
784(36) 0.000772 697. 784.
798(36) 0.000772 697. 780.
749(35) 0.000816 696.9 777.5
785(36) 0.000772 697. 777.
785(36) 0.000772 697. 781.
761(35) 0.000816 696.6 785.0
767(35) 0.000816 696.5 790.5
786(36) 0.000772 696. 797.
829(37) 0.000730 696. 805.
831(37) 0.000730 696. 811.
865(38) 0.000693 696. 815.
798(36) 0.000772 696. 815.
810(36) 0.000772 696. 811.
814(36) 0.000772 696. 803.
793(36) 0.000772 696. 794.
794(28) 0.001276 695.6 784.2
821(34) 0.000865 695.5 775.0
822(34) 0.000865 695.4 766.9
816(34) 0.000865 695.3 760.1
751(32) 0.000977 695.2 754.7
764(33) 0.000918 695.1 750.6
751(32) 0.000977 695.0 747.8
732(32) 0.000977 694.9 746.0
737(32) 0.000977 694.8 745.4
721(32) 0.000977 694.7 745.8
750(32) 0.000977 694.5 747.9
761(33) 0.000918 694.4 751.0
780(33) 0.000918 694.3 755.0
801(34) 0.000865 694.2 760.6
793(33) 0.000918 694.1 767.8
784(33) 0.000918 694.0 777.0
816(34) 0.000865 693.9 788.3
864(35) 0.000816 693.8 801.7
872(35) 0.000816 693.7 817.0
851(35) 0.000816 693.6 833.4
847(35) 0.000816 693.5 849.6
895(36) 0.000772 693. 863.
878(35) 0.000816 693.3 872.0
859(35) 0.000816 693.2 874.4
864(35) 0.000816 693.1 868.5
856(35) 0.000816 693.0 857.0
852(35) 0.000816 692.9 842.5
842(34) 0.000865 692.8 827.6
837(34) 0.000865 692.7 813.9
805(34) 0.000865 692.5 802.3
789(33) 0.000918 692.4 793.2
806(34) 0.000865 692.3 786.8
771(33) 0.000918 692.2 783.2
782(33) 0.000918 692.1 782.3
772(33) 0.000918 692.0 784.3
774(33) 0.000918 691.9 789.3
757(33) 0.000918 691.8 797.3
773(33) 0.000918 691.7 808.6
767(33) 0.000918 691.6 823.3
797(34) 0.000865 691.5 841.4
803(34) 0.000865 691.4 862.5
887(35) 0.000816 691.3 885.9
925(36) 0.000772 691. 910.
940(37) 0.000730 691. 931.
954(37) 0.000730 691. 946.
1033(38) 0.000693 691. 950.
1042(39) 0.000657 691. 944.
942(37) 0.000730 691. 927.
943(37) 0.000730 690. 904.
900(36) 0.000772 690. 879.
892(36) 0.000772 690. 855.
849(35) 0.000816 690.2 832.7
842(34) 0.000865 690.1 813.3
784(33) 0.000918 689.9 796.9
765(33) 0.000918 689.8 783.4
778(33) 0.000918 689.7 772.6
767(33) 0.000918 689.6 764.0
760(33) 0.000918 689.5 757.3
736(32) 0.000977 689.4 752.1
736(32) 0.000977 689.3 748.3
727(32) 0.000977 689.2 745.4
740(32) 0.000977 689.1 743.4
737(32) 0.000977 688.9 742.0
767(33) 0.000918 688.8 741.3
794(33) 0.000918 688.7 741.0
772(33) 0.000918 688.6 741.5
766(33) 0.000918 688.5 742.1
770(33) 0.000918 688.4 743.1
769(33) 0.000918 688.3 744.4
742(32) 0.000977 688.2 746.0
739(32) 0.000977 688.1 747.7
743(32) 0.000977 687.9 749.7
767(33) 0.000918 687.8 751.8
776(33) 0.000918 687.7 754.3
728(32) 0.000977 687.6 757.3
759(33) 0.000918 687.5 761.0
816(34) 0.000865 687.4 765.5
768(33) 0.000918 687.3 771.1
815(34) 0.000865 687.1 778.0
805(34) 0.000865 687.0 786.6
813(34) 0.000865 686.9 797.2
838(34) 0.000865 686.8 810.5
838(34) 0.000865 686.7 827.0
827(34) 0.000865 686.6 847.5
936(36) 0.000772 686. 873.
930(36) 0.000772 686. 904.
957(37) 0.000730 686. 941.
983(37) 0.000730 686. 985.
1049(39) 0.000657 686. 1036.
1138(40) 0.000625 686. 1093.
1195(42) 0.000567 686. 1153.
1225(42) 0.000567 686. 1212.
1227(42) 0.000567 686. 1264.
1205(42) 0.000567 685. 1298.
1248(42) 0.000567 685. 1309.
1175(41) 0.000595 685. 1295.
1217(42) 0.000567 685. 1258.
1205(42) 0.000567 685. 1207.
1186(41) 0.000595 685. 1152.
1134(40) 0.000625 685. 1098.
1082(37) 0.000730 685. 1050.
1036(36) 0.000772 684. 1009.
1011(36) 0.000772 684. 977.
959(35) 0.000816 684.2 953.0
942(35) 0.000816 684.1 937.6
886(33) 0.000918 684.0 930.3
947(35) 0.000816 683.8 931.1
993(35) 0.000816 683.7 939.1
973(35) 0.000816 683.6 953.7
971(35) 0.000816 683.5 974.5
995(36) 0.000772 683. 1000.
1076(37) 0.000730 683. 1029.
1060(37) 0.000730 683. 1058.
1053(37) 0.000730 683. 1082.
1141(38) 0.000693 683. 1097.
1114(38) 0.000693 683. 1099.
1072(37) 0.000730 683. 1087.
1106(38) 0.000693 683. 1064.
1058(37) 0.000730 682. 1034.
988(35) 0.000816 682.3 1000.0
983(35) 0.000816 682.1 967.2
996(36) 0.000772 682. 937.
938(34) 0.000865 681.9 912.1
864(33) 0.000918 681.8 891.7
867(33) 0.000918 681.6 876.6
858(33) 0.000918 681.5 866.7
822(32) 0.000977 681.4 862.4
838(32) 0.000977 681.3 862.8
898(34) 0.000865 681.1 868.4
831(32) 0.000977 681.0 879.0
858(33) 0.000918 680.9 894.8
875(33) 0.000918 680.8 915.6
907(34) 0.000865 680.6 941.2
962(35) 0.000816 680.5 970.6
1004(36) 0.000772 680. 1002.
1029(36) 0.000772 680. 1033.
1079(37) 0.000730 680. 1059.
1105(38) 0.000693 680. 1075.
1071(37) 0.000730 680. 1078.
1075(37) 0.000730 680. 1065.
1054(37) 0.000730 680. 1041.
1073(37) 0.000730 679. 1008.
932(34) 0.000865 679.3 971.1
876(33) 0.000918 679.2 934.8
885(33) 0.000918 679.1 901.0
866(33) 0.000918 678.9 870.8
875(33) 0.000918 678.8 845.1
827(32) 0.000977 678.7 822.9
829(32) 0.000977 678.5 804.3
767(31) 0.001041 678.4 788.9
791(31) 0.001041 678.3 776.3
771(31) 0.001041 678.1 766.0
724(30) 0.001111 678.0 757.6
767(31) 0.001041 677.9 750.7
793(31) 0.001041 677.7 745.1
745(30) 0.001111 677.6 740.5
763(31) 0.001041 677.5 736.7
750(30) 0.001111 677.3 733.6
744(30) 0.001111 677.2 731.0
796(32) 0.000977 677.1 728.9
737(30) 0.001111 676.9 727.3
720(30) 0.001111 676.8 726.1
735(30) 0.001111 676.7 725.2
756(31) 0.001041 676.5 724.9
701(29) 0.001189 676.4 724.9
706(30) 0.001111 676.3 725.8
750(31) 0.001041 676.1 726.9
730(30) 0.001111 676.0 728.7
720(30) 0.001111 675.8 731.1
731(30) 0.001111 675.7 734.4
772(31) 0.001041 675.6 738.6
730(30) 0.001111 675.4 743.8
744(30) 0.001111 675.3 750.0
785(31) 0.001041 675.1 757.3
776(31) 0.001041 675.0 765.7
752(31) 0.001041 674.9 774.3
809(32) 0.000977 674.7 782.8
831(32) 0.000977 674.6 790.1
829(32) 0.000977 674.4 795.2
828(32) 0.000977 674.3 797.0
840(32) 0.000977 674.2 795.2
805(32) 0.000977 674.0 790.4
781(31) 0.001041 673.9 783.7
833(32) 0.000977 673.7 776.2
755(31) 0.001041 673.6 768.9
792(31) 0.001041 673.4 762.5
756(31) 0.001041 673.3 757.3
751(31) 0.001041 673.2 753.6
767(31) 0.001041 673.0 751.4
771(31) 0.001041 672.9 750.9
737(30) 0.001111 672.7 752.0
758(31) 0.001041 672.6 754.9
762(31) 0.001041 672.4 759.5
770(31) 0.001041 672.3 766.0
815(32) 0.000977 672.1 774.3
817(32) 0.000977 672.0 784.3
789(31) 0.001041 671.8 795.8
800(32) 0.000977 671.7 808.2
788(31) 0.001041 671.5 820.8
810(32) 0.000977 671.4 832.2
849(31) 0.001041 671.2 840.8
845(31) 0.001041 671.1 845.1
849(31) 0.001041 670.9 844.3
822(30) 0.001111 670.8 838.9
802(30) 0.001111 670.6 830.3
798(30) 0.001111 670.5 820.0
829(30) 0.001111 670.3 809.8
811(30) 0.001111 670.2 800.8
801(30) 0.001111 670.0 793.6
813(30) 0.001111 669.9 788.7
823(30) 0.001111 669.7 786.3
819(30) 0.001111 669.6 787.7
811(30) 0.001111 669.4 790.6
789(30) 0.001111 669.3 796.2
736(28) 0.001276 669.1 804.2
771(29) 0.001189 669.0 814.6
852(31) 0.001041 668.8 826.7
850(31) 0.001041 668.7 839.8
871(31) 0.001041 668.5 852.6
875(31) 0.001041 668.3 863.2
884(31) 0.001041 668.2 870.1
855(31) 0.001041 668.0 871.7
855(31) 0.001041 667.9 867.9
859(31) 0.001041 667.7 859.3
850(31) 0.001041 667.6 847.4
863(31) 0.001041 667.4 834.0
844(31) 0.001041 667.2 820.7
824(30) 0.001111 667.1 808.6
799(30) 0.001111 666.9 798.3
779(29) 0.001189 666.8 790.5
823(30) 0.001111 666.6 784.9
801(30) 0.001111 666.4 781.9
768(29) 0.001189 666.3 781.4
816(30) 0.001111 666.1 783.4
816(30) 0.001111 666.0 787.8
812(30) 0.001111 665.8 794.6
830(30) 0.001111 665.6 803.4
821(30) 0.001111 665.5 813.9
843(31) 0.001041 665.3 825.3
835(31) 0.001041 665.1 836.5
803(30) 0.001111 665.0 845.9
820(30) 0.001111 664.8 851.8
872(31) 0.001041 664.7 853.0
821(30) 0.001111 664.5 849.2
846(31) 0.001041 664.3 841.1
818(30) 0.001111 664.2 830.3
831(30) 0.001111 664.0 818.8
836(31) 0.001041 663.8 807.3
820(30) 0.001111 663.7 797.0
845(31) 0.001041 663.5 788.7
828(30) 0.001111 663.3 782.4
798(30) 0.001111 663.2 778.5
783(29) 0.001189 663.0 777.1
785(29) 0.001189 662.8 777.9
794(30) 0.001111 662.6 780.9
771(29) 0.001189 662.5 786.3
762(29) 0.001189 662.3 793.5
810(30) 0.001111 662.1 802.2
787(30) 0.001111 662.0 811.8
799(30) 0.001111 661.8 821.3
823(30) 0.001111 661.6 829.4
805(30) 0.001111 661.5 834.7
843(31) 0.001041 661.3 836.1
794(30) 0.001111 661.1 833.2
767(29) 0.001189 660.9 826.6
813(30) 0.001111 660.8 817.3
799(30) 0.001111 660.6 806.9
762(29) 0.001189 660.4 796.6
743(29) 0.001189 660.2 787.3
769(29) 0.001189 660.1 779.6
741(29) 0.001189 659.9 773.7
746(29) 0.001189 659.7 769.9
779(29) 0.001189 659.5 768.5
750(29) 0.001189 659.4 768.8
751(29) 0.001189 659.2 771.1
783(29) 0.001189 659.0 775.2
760(29) 0.001189 658.8 780.8
763(29) 0.001189 658.7 787.4
786(30) 0.001111 658.5 794.4
803(30) 0.001111 658.3 800.6
806(30) 0.001111 658.1 805.0
779(29) 0.001189 657.9 806.7
789(30) 0.001111 657.8 805.0
807(30) 0.001111 657.6 800.3
793(30) 0.001111 657.4 793.5
776(29) 0.001189 657.2 785.6
779(29) 0.001189 657.0 777.6
777(29) 0.001189 656.9 770.4
758(29) 0.001189 656.7 764.6
788(30) 0.001111 656.5 760.2
803(30) 0.001111 656.3 757.4
780(29) 0.001189 656.1 756.5
764(29) 0.001189 655.9 757.2
781(29) 0.001189 655.8 759.6
782(29) 0.001189 655.6 763.5
732(28) 0.001276 655.4 768.7
743(29) 0.001189 655.2 774.7
764(29) 0.001189 655.0 781.0
735(28) 0.001276 654.8 786.5
752(29) 0.001189 654.6 790.4
788(28) 0.001276 654.5 791.8
770(28) 0.001276 654.3 790.2
761(28) 0.001276 654.1 785.8
773(28) 0.001276 653.9 779.4
738(27) 0.001372 653.7 771.7
797(28) 0.001276 653.5 763.9
770(28) 0.001276 653.3 756.7
760(28) 0.001276 653.1 750.1
734(27) 0.001372 652.9 744.6
767(28) 0.001276 652.8 740.1
707(27) 0.001372 652.6 736.7
728(27) 0.001372 652.4 734.5
719(27) 0.001372 652.2 733.4
733(27) 0.001372 652.0 733.2
745(27) 0.001372 651.8 734.1
754(27) 0.001372 651.6 735.8
737(27) 0.001372 651.4 738.4
729(27) 0.001372 651.2 741.6
710(27) 0.001372 651.0 745.3
738(27) 0.001372 650.8 749.6
722(27) 0.001372 650.6 754.4
773(28) 0.001276 650.5 760.0
756(27) 0.001372 650.3 766.7
762(28) 0.001276 650.1 774.8
775(28) 0.001276 649.9 784.8
779(28) 0.001276 649.7 797.1
828(29) 0.001189 649.5 812.7
827(29) 0.001189 649.3 830.7
849(29) 0.001189 649.1 852.0
862(29) 0.001189 648.9 876.8
883(30) 0.001111 648.7 904.8
946(31) 0.001041 648.5 935.7
959(31) 0.001041 648.3 968.4
1031(32) 0.000977 648.1 1001.0
1053(33) 0.000918 647.9 1030.7
1080(33) 0.000918 647.7 1054.1
1090(33) 0.000918 647.5 1067.8
1066(33) 0.000918 647.3 1069.4
1108(34) 0.000865 647.1 1058.9
1059(33) 0.000918 646.9 1038.1
1037(32) 0.000977 646.7 1010.3
973(31) 0.001041 646.5 979.1
960(31) 0.001041 646.3 947.8
912(30) 0.001111 646.1 917.7
896(30) 0.001111 645.9 890.5
865(30) 0.001111 645.7 866.6
865(30) 0.001111 645.5 846.8
838(29) 0.001189 645.3 830.7
832(29) 0.001189 645.1 817.7
851(29) 0.001189 644.9 807.6
830(29) 0.001189 644.7 800.3
796(28) 0.001276 644.5 795.1
784(28) 0.001276 644.3 791.5
781(28) 0.001276 644.0 788.9
793(28) 0.001276 643.8 786.5
779(28) 0.001276 643.6 783.9
789(28) 0.001276 643.4 780.7
781(28) 0.001276 643.2 777.1
734(27) 0.001372 643.0 773.4
792(28) 0.001276 642.8 770.0
795(28) 0.001276 642.6 767.3
761(28) 0.001276 642.4 765.8
698(26) 0.001479 642.2 765.6
746(27) 0.001372 642.0 766.9
746(27) 0.001372 641.8 770.2
795(28) 0.001276 641.6 774.5
753(27) 0.001372 641.4 779.8
819(29) 0.001189 641.1 785.7
786(28) 0.001276 640.9 791.7
863(29) 0.001189 640.7 796.9
852(29) 0.001189 640.5 800.3
808(28) 0.001276 640.3 801.1
794(28) 0.001276 640.1 799.2
832(29) 0.001189 639.9 794.7
793(28) 0.001276 639.7 788.5
781(28) 0.001276 639.5 781.5
802(28) 0.001276 639.2 774.5
813(29) 0.001189 639.0 768.3
754(27) 0.001372 638.8 763.2
709(27) 0.001372 638.6 759.7
784(28) 0.001276 638.4 757.7
736(27) 0.001372 638.2 757.3
762(28) 0.001276 638.0 758.6
772(28) 0.001276 637.7 761.6
776(28) 0.001276 637.5 766.0
816(29) 0.001189 637.3 771.6
774(28) 0.001276 637.1 778.1
824(29) 0.001189 636.9 784.8
796(28) 0.001276 636.7 791.3
837(29) 0.001189 636.5 796.7
834(29) 0.001189 636.2 800.5
851(29) 0.001189 636.0 802.4
844(29) 0.001189 635.8 802.0
770(28) 0.001276 635.6 799.6
795(28) 0.001276 635.4 795.3
829(29) 0.001189 635.2 789.9
828(29) 0.001189 634.9 784.0
795(28) 0.001276 634.7 778.4
795(28) 0.001276 634.5 773.6
795(28) 0.001276 634.3 770.1
723(26) 0.001479 634.1 768.1
817(28) 0.001276 633.8 767.8
779(27) 0.001372 633.6 769.2
784(27) 0.001372 633.4 772.2
800(27) 0.001372 633.2 776.6
832(28) 0.001276 633.0 782.0
793(27) 0.001372 632.7 787.8
797(27) 0.001372 632.5 793.2
807(28) 0.001276 632.3 797.4
769(27) 0.001372 632.1 799.5
865(29) 0.001189 631.9 799.3
821(28) 0.001276 631.6 796.7
823(28) 0.001276 631.4 792.3
795(27) 0.001372 631.2 786.9
812(28) 0.001276 631.0 781.3
771(27) 0.001372 630.7 776.4
769(27) 0.001372 630.5 772.4
762(27) 0.001372 630.3 769.9
768(27) 0.001372 630.1 768.8
792(27) 0.001372 629.9 769.3
793(27) 0.001372 629.6 771.2
766(27) 0.001372 629.4 774.3
816(28) 0.001276 629.2 778.3
852(28) 0.001276 629.0 782.5
797(27) 0.001372 628.7 786.6
773(27) 0.001372 628.5 790.1
828(28) 0.001276 628.3 792.6
828(28) 0.001276 628.1 794.1
806(28) 0.001276 627.8 794.6
807(28) 0.001276 627.6 794.6
790(27) 0.001372 627.4 794.4
833(28) 0.001276 627.2 794.6
820(28) 0.001276 626.9 795.6
844(28) 0.001276 626.7 798.0
826(28) 0.001276 626.5 801.9
827(28) 0.001276 626.3 807.8
871(29) 0.001189 626.0 815.7
907(29) 0.001189 625.8 825.4
908(29) 0.001189 625.6 836.7
907(29) 0.001189 625.3 849.0
881(29) 0.001189 625.1 861.4
914(29) 0.001189 624.9 872.7
889(29) 0.001189 624.7 881.8
914(30) 0.001111 624.4 887.6
867(29) 0.001189 624.2 889.4
908(29) 0.001189 624.0 887.1
977(31) 0.001041 623.7 881.2
883(29) 0.001189 623.5 872.5
912(29) 0.001189 623.3 862.1
883(29) 0.001189 623.1 851.2
874(29) 0.001189 622.8 841.0
850(28) 0.001276 622.6 832.3
867(29) 0.001189 622.4 825.4
838(28) 0.001276 622.1 820.9
859(29) 0.001189 621.9 819.0
801(28) 0.001276 621.7 819.7
831(28) 0.001276 621.5 822.8
882(29) 0.001189 621.2 828.4
889(29) 0.001189 621.0 835.8
852(28) 0.001276 620.8 844.6
861(29) 0.001189 620.5 853.8
865(29) 0.001189 620.3 862.4
940(30) 0.001111 620.1 869.0
842(28) 0.001276 619.8 872.8
886(29) 0.001189 619.6 873.0
883(29) 0.001189 619.4 869.8
853(28) 0.001276 619.1 863.8
891(29) 0.001189 618.9 856.6
847(28) 0.001276 618.7 849.0
872(29) 0.001189 618.5 841.7
851(28) 0.001276 618.2 836.0
825(28) 0.001276 618.0 832.1
859(29) 0.001189 617.8 830.4
849(28) 0.001276 617.5 831.0
878(29) 0.001189 617.3 833.6
898(29) 0.001189 617.1 837.8
857(29) 0.001189 616.8 843.1
885(29) 0.001189 616.6 848.8
874(29) 0.001189 616.4 854.0
849(28) 0.001276 616.1 858.1
843(28) 0.001276 615.9 860.7
868(29) 0.001189 615.7 861.7
889(29) 0.001189 615.4 861.9
870(29) 0.001189 615.2 862.1
881(29) 0.001189 615.0 863.0
893(29) 0.001189 614.7 865.5
927(30) 0.001111 614.5 870.2
857(29) 0.001189 614.3 877.5
949(30) 0.001111 614.0 887.5
970(30) 0.001111 613.8 900.0
984(31) 0.001041 613.6 914.7
954(30) 0.001111 613.3 930.6
1018(31) 0.001041 613.1 946.5
988(31) 0.001041 612.9 961.1
1049(32) 0.000977 612.6 972.5
1022(31) 0.001041 612.4 979.4
1013(31) 0.001041 612.2 980.9
1059(32) 0.000977 611.9 976.6
1014(31) 0.001041 611.7 967.3
905(29) 0.001189 611.5 954.2
911(29) 0.001189 611.2 939.0
925(29) 0.001189 611.0 923.1
902(28) 0.001276 610.8 908.2
908(28) 0.001276 610.5 895.2
896(28) 0.001276 610.3 884.8
874(28) 0.001276 610.1 877.3
843(27) 0.001372 609.8 873.0
892(28) 0.001276 609.6 871.5
875(28) 0.001276 609.4 872.6
884(28) 0.001276 609.1 875.6
889(28) 0.001276 608.9 879.4
863(28) 0.001276 608.7 882.9
867(28) 0.001276 608.4 884.8
866(28) 0.001276 608.2 883.9
929(29) 0.001189 608.0 879.6
899(28) 0.001276 607.7 871.8
885(28) 0.001276 607.5 861.0
869(28) 0.001276 607.2 848.4
840(27) 0.001372 607.0 834.7
823(27) 0.001372 606.8 821.1
825(27) 0.001372 606.5 808.3
812(27) 0.001372 606.3 796.9
813(27) 0.001372 606.1 786.9
765(26) 0.001479 605.8 778.3
762(26) 0.001479 605.6 771.1
793(27) 0.001372 605.4 764.8
777(26) 0.001479 605.1 758.9
751(26) 0.001479 604.9 753.1
714(25) 0.001600 604.7 747.0
773(26) 0.001479 604.4 740.3
769(26) 0.001479 604.2 733.1
724(25) 0.001600 604.0 725.5
707(25) 0.001600 603.7 717.8
685(25) 0.001600 603.5 710.3
691(25) 0.001600 603.3 703.2
752(26) 0.001479 603.0 696.7
683(24) 0.001736 602.8 690.8
661(24) 0.001736 602.6 685.6
647(24) 0.001736 602.3 681.0
671(24) 0.001736 602.1 677.2
673(24) 0.001736 601.9 673.9
693(25) 0.001600 601.6 671.2
649(24) 0.001736 601.4 669.1
669(24) 0.001736 601.2 667.4
649(24) 0.001736 600.9 666.1
659(24) 0.001736 600.7 665.1
645(24) 0.001736 600.5 664.3
665(24) 0.001736 600.2 663.5
648(24) 0.001736 600.0 662.8
659(24) 0.001736 599.8 661.9
693(25) 0.001600 599.5 661.0
644(24) 0.001736 599.3 660.0
660(24) 0.001736 599.1 659.1
647(24) 0.001736 598.8 658.2
641(24) 0.001736 598.6 657.5
676(24) 0.001736 598.4 657.1
695(25) 0.001600 598.1 657.0
684(25) 0.001600 597.9 657.2
658(24) 0.001736 597.7 657.7
659(24) 0.001736 597.4 658.6
669(24) 0.001736 597.2 659.8
703(25) 0.001600 597.0 661.4
673(24) 0.001736 596.7 663.2
720(25) 0.001600 596.5 665.3
685(25) 0.001600 596.3 667.5
670(24) 0.001736 596.0 670.0
667(24) 0.001736 595.8 672.7
702(25) 0.001600 595.6 675.6
676(24) 0.001736 595.3 679.0
642(24) 0.001736 595.1 682.9
722(25) 0.001600 594.9 687.4
752(26) 0.001479 594.6 692.7
749(26) 0.001479 594.4 698.7
749(26) 0.001479 594.2 705.4
724(25) 0.001600 594.0 712.6
788(26) 0.001479 593.7 720.3
766(26) 0.001479 593.5 727.9
766(26) 0.001479 593.3 735.1
777(26) 0.001479 593.0 741.4
731(25) 0.001600 592.8 746.2
749(26) 0.001479 592.6 749.2
762(26) 0.001479 592.3 750.3
756(26) 0.001479 592.1 749.6
763(26) 0.001479 591.9 747.3
734(25) 0.001600 591.7 744.1
745(26) 0.001479 591.4 740.5
731(25) 0.001600 591.2 737.0
764(26) 0.001479 591.0 734.0
727(25) 0.001600 590.7 731.7
742(26) 0.001479 590.5 730.2
683(25) 0.001600 590.3 729.3
698(25) 0.001600 590.0 728.8
736(26) 0.001479 589.8 728.4
693(25) 0.001600 589.6 727.7
732(25) 0.001600 589.4 726.4
732(25) 0.001600 589.1 724.4
710(25) 0.001600 588.9 721.6
717(25) 0.001600 588.7 718.3
736(26) 0.001479 588.5 714.6
681(25) 0.001600 588.2 710.9
659(34) 0.000865 588.0 707.5
708(24) 0.001736 587.8 704.6
724(24) 0.001736 587.5 702.4
679(24) 0.001736 587.3 701.1
693(24) 0.001736 587.1 700.8
729(25) 0.001600 586.9 701.4
706(24) 0.001736 586.6 703.0
728(25) 0.001600 586.4 705.3
756(25) 0.001600 586.2 708.3
766(25) 0.001600 586.0 711.7
755(25) 0.001600 585.7 715.2
745(25) 0.001600 585.5 718.4
744(25) 0.001600 585.3 721.2
735(25) 0.001600 585.1 723.5
742(25) 0.001600 584.8 725.1
706(24) 0.001736 584.6 726.3
726(25) 0.001600 584.4 727.5
718(24) 0.001736 584.2 729.1
740(25) 0.001600 583.9 731.3
742(25) 0.001600 583.7 734.6
785(26) 0.001479 583.5 739.0
818(26) 0.001479 583.3 744.7
746(25) 0.001600 583.0 751.6
765(25) 0.001600 582.8 759.4
766(25) 0.001600 582.6 767.9
793(26) 0.001479 582.4 776.5
792(26) 0.001479 582.2 784.6
816(26) 0.001479 581.9 791.2
792(26) 0.001479 581.7 795.4
792(26) 0.001479 581.5 796.8
762(25) 0.001600 581.3 795.1
739(25) 0.001600 581.1 790.2
769(25) 0.001600 580.8 782.8
765(25) 0.001600 580.6 773.5
763(25) 0.001600 580.4 763.2
718(24) 0.001736 580.2 752.7
715(24) 0.001736 580.0 742.4
729(25) 0.001600 579.7 732.9
734(25) 0.001600 579.5 724.3
785(26) 0.001479 579.3 716.8
745(25) 0.001600 579.1 710.2
721(24) 0.001736 578.9 704.6
729(25) 0.001600 578.6 699.5
708(24) 0.001736 578.4 695.1
681(24) 0.001736 578.2 690.7
692(24) 0.001736 578.0 686.6
673(24) 0.001736 577.8 682.1
677(24) 0.001736 577.5 677.5
674(24) 0.001736 577.3 672.8
669(24) 0.001736 577.1 668.2
679(24) 0.001736 576.9 663.8
662(23) 0.001890 576.7 659.7
639(23) 0.001890 576.5 656.0
653(23) 0.001890 576.2 652.7
659(23) 0.001890 576.0 650.0
645(23) 0.001890 575.8 647.7
641(23) 0.001890 575.6 645.9
639(23) 0.001890 575.4 644.5
633(23) 0.001890 575.2 643.4
638(23) 0.001890 575.0 642.5
664(23) 0.001890 574.7 641.8
645(23) 0.001890 574.5 641.1
610(22) 0.002066 574.3 640.4
617(23) 0.001890 574.1 639.6
660(23) 0.001890 573.9 638.7
675(24) 0.001736 573.7 637.8
648(23) 0.001890 573.5 637.0
628(23) 0.001890 573.3 636.3
647(23) 0.001890 573.0 635.9
622(23) 0.001890 572.8 635.8
621(23) 0.001890 572.6 636.0
623(23) 0.001890 572.4 636.5
629(23) 0.001890 572.2 637.3
634(23) 0.001890 572.0 638.4
647(23) 0.001890 571.8 639.8
639(23) 0.001890 571.6 641.1
638(23) 0.001890 571.4 642.4
674(24) 0.001736 571.2 643.7
679(24) 0.001736 570.9 645.0
645(23) 0.001890 570.7 646.3
654(23) 0.001890 570.5 647.8
622(23) 0.001890 570.3 649.5
672(24) 0.001736 570.1 651.6
676(24) 0.001736 569.9 654.0
670(24) 0.001736 569.7 656.8
689(24) 0.001736 569.5 659.9
673(24) 0.001736 569.3 663.2
702(24) 0.001736 569.1 666.4
701(24) 0.001736 568.9 669.4
682(24) 0.001736 568.7 671.8
679(24) 0.001736 568.5 673.4
656(23) 0.001890 568.3 673.9
660(23) 0.001890 568.0 673.4
649(23) 0.001890 567.8 671.8
654(23) 0.001890 567.6 669.3
664(23) 0.001890 567.4 666.1
661(23) 0.001890 567.2 662.5
681(24) 0.001736 567.0 658.6
680(24) 0.001736 566.8 654.8
657(23) 0.001890 566.6 651.2
661(23) 0.001890 566.4 648.0
642(23) 0.001890 566.2 645.2
645(23) 0.001890 566.0 642.9
645(23) 0.001890 565.8 641.1
610(23) 0.001890 565.6 639.8
632(23) 0.001890 565.4 638.8
666(24) 0.001736 565.2 638.0
646(23) 0.001890 565.0 637.3
613(23) 0.001890 564.8 636.6
630(23) 0.001890 564.6 635.8
642(23) 0.001890 564.4 634.7
610(23) 0.001890 564.2 633.4
621(23) 0.001890 564.0 631.9
660(23) 0.001890 563.8 630.4
653(23) 0.001890 563.6 628.8
662(23) 0.001890 563.4 627.3
648(23) 0.001890 563.2 626.0
660(23) 0.001890 563.0 624.9
645(23) 0.001890 562.8 624.0
612(23) 0.001890 562.6 623.3
627(23) 0.001890 562.4 622.7
615(23) 0.001890 562.2 622.1
620(23) 0.001890 562.0 621.8
652(23) 0.001890 561.8 621.3
635(23) 0.001890 561.7 620.8
618(23) 0.001890 561.5 620.3
651(23) 0.001890 561.3 619.9
621(23) 0.001890 561.1 619.7
650(23) 0.001890 560.9 619.7
607(22) 0.002066 560.7 619.9
629(23) 0.001890 560.5 620.3
651(23) 0.001890 560.3 621.1
628(23) 0.001890 560.1 622.2
659(23) 0.001890 559.9 623.5
649(23) 0.001890 559.7 625.1
646(23) 0.001890 559.5 626.8
668(24) 0.001736 559.3 628.5
676(24) 0.001736 559.1 630.3
643(23) 0.001890 559.0 631.6
646(23) 0.001890 558.8 632.6
621(23) 0.001890 558.6 633.2
649(23) 0.001890 558.4 633.3
656(23) 0.001890 558.2 633.1
656(23) 0.001890 558.0 632.8
651(23) 0.001890 557.8 632.3
620(23) 0.001890 557.6 632.0
610(23) 0.001890 557.4 631.8
632(23) 0.001890 557.3 631.9
667(24) 0.001736 557.1 632.4
648(23) 0.001890 556.9 633.0
642(23) 0.001890 556.7 634.0
630(23) 0.001890 556.5 635.0
666(24) 0.001736 556.3 636.1
634(23) 0.001890 556.1 637.0
644(23) 0.001890 556.0 637.5
671(24) 0.001736 555.8 637.5
671(24) 0.001736 555.6 637.1
652(23) 0.001890 555.4 636.3
653(23) 0.001890 555.2 635.0
644(23) 0.001890 555.0 633.6
649(23) 0.001890 554.8 632.1
640(23) 0.001890 554.7 630.6
632(23) 0.001890 554.5 629.4
633(23) 0.001890 554.3 628.4
641(23) 0.001890 554.1 627.9
622(23) 0.001890 553.9 627.6
602(22) 0.002066 553.8 627.7
610(23) 0.001890 553.6 628.1
678(24) 0.001736 553.4 628.7
660(23) 0.001890 553.2 629.5
649(23) 0.001890 553.0 630.4
596(22) 0.002066 552.9 631.4
607(22) 0.002066 552.7 632.5
656(23) 0.001890 552.5 633.7
631(23) 0.001890 552.3 635.0
624(23) 0.001890 552.1 636.6
647(23) 0.001890 552.0 638.4
660(23) 0.001890 551.8 640.5
673(24) 0.001736 551.6 643.0
671(24) 0.001736 551.4 645.7
687(24) 0.001736 551.3 648.8
678(24) 0.001736 551.1 651.9
681(24) 0.001736 550.9 655.2
656(23) 0.001890 550.7 658.2
679(24) 0.001736 550.5 660.8
675(24) 0.001736 550.4 663.1
659(23) 0.001890 550.2 664.7
668(24) 0.001736 550.0 665.9
684(24) 0.001736 549.8 666.5
697(24) 0.001736 549.7 666.8
728(25) 0.001600 549.5 666.8
710(24) 0.001736 549.3 666.8
715(24) 0.001736 549.2 666.9
717(24) 0.001736 549.0 667.4
694(24) 0.001736 548.8 668.2
689(24) 0.001736 548.6 669.4
700(24) 0.001736 548.5 671.0
703(24) 0.001736 548.3 673.0
692(24) 0.001736 548.1 675.1
678(24) 0.001736 548.0 677.3
703(20) 0.002500 547.8 679.4
731(25) 0.001600 547.6 681.3
705(24) 0.001736 547.4 683.0
693(24) 0.001736 547.3 684.6
681(24) 0.001736 547.1 686.2
684(24) 0.001736 546.9 687.8
734(25) 0.001600 546.8 689.7
708(24) 0.001736 546.6 692.0
678(24) 0.001736 546.4 694.8
730(25) 0.001600 546.3 698.2
735(25) 0.001600 546.1 702.0
758(25) 0.001600 545.9 706.2
758(25) 0.001600 545.8 710.6
726(25) 0.001600 545.6 715.2
748(25) 0.001600 545.4 719.6
738(25) 0.001600 545.3 723.7
732(25) 0.001600 545.1 727.6
759(25) 0.001600 544.9 731.0
742(25) 0.001600 544.8 734.1
777(25) 0.001600 544.6 736.9
789(26) 0.001479 544.4 739.6
759(25) 0.001600 544.3 742.4
770(25) 0.001600 544.1 745.5
758(25) 0.001600 543.9 748.9
765(25) 0.001600 543.8 752.6
751(25) 0.001600 543.6 756.6
745(25) 0.001600 543.5 760.7
774(25) 0.001600 543.3 764.5
785(26) 0.001479 543.1 767.7
787(26) 0.001479 543.0 769.7
810(26) 0.001479 542.8 770.4
761(25) 0.001600 542.7 769.4
768(25) 0.001600 542.5 766.5
769(25) 0.001600 542.3 761.6
771(25) 0.001600 542.2 755.0
740(25) 0.001600 542.0 746.8
753(25) 0.001600 541.9 737.4
696(24) 0.001736 541.7 727.3
709(24) 0.001736 541.5 716.8
706(24) 0.001736 541.4 706.4
705(24) 0.001736 541.2 696.4
701(24) 0.001736 541.1 686.9
686(24) 0.001736 540.9 678.2
678(24) 0.001736 540.7 670.3
675(24) 0.001736 540.6 663.2
670(24) 0.001736 540.4 657.0
671(24) 0.001736 540.3 651.6
689(24) 0.001736 540.1 647.0
655(23) 0.001890 540.0 643.2
672(24) 0.001736 539.8 640.1
641(23) 0.001890 539.7 637.7
659(23) 0.001890 539.5 635.9
653(23) 0.001890 539.3 634.8
654(23) 0.001890 539.2 634.3
615(23) 0.001890 539.0 634.3
662(23) 0.001890 538.9 634.8
669(24) 0.001736 538.7 635.8
644(23) 0.001890 538.6 637.3
650(23) 0.001890 538.4 639.1
657(23) 0.001890 538.3 641.1
654(23) 0.001890 538.1 643.5
658(23) 0.001890 538.0 646.1
675(24) 0.001736 537.8 648.8
669(24) 0.001736 537.7 651.7
665(24) 0.001736 537.5 654.7
668(24) 0.001736 537.4 657.9
667(24) 0.001736 537.2 661.1
645(23) 0.001890 537.1 664.5
689(24) 0.001736 536.9 668.1
659(23) 0.001890 536.8 671.7
699(24) 0.001736 536.6 675.4
718(24) 0.001736 536.5 679.0
683(24) 0.001736 536.3 682.4
727(25) 0.001600 536.2 685.0
690(24) 0.001736 536.0 686.9
719(24) 0.001736 535.9 687.8
691(24) 0.001736 535.7 687.6
721(25) 0.001600 535.6 686.3
708(24) 0.001736 535.4 683.8
727(25) 0.001600 535.3 680.3
680(24) 0.001736 535.1 676.0
646(23) 0.001890 535.0 671.1
649(23) 0.001890 534.8 665.9
663(24) 0.001736 534.7 660.5
677(24) 0.001736 534.5 655.1
651(23) 0.001890 534.4 649.9
703(24) 0.001736 534.2 644.8
643(23) 0.001890 534.1 639.8
624(23) 0.001890 533.9 635.0
595(22) 0.002066 533.8 630.4
603(22) 0.002066 533.7 625.9
629(23) 0.001890 533.5 621.7
628(23) 0.001890 533.4 617.7
637(23) 0.001890 533.2 613.9
623(23) 0.001890 533.1 610.4
608(23) 0.001890 532.9 607.2
619(23) 0.001890 532.8 604.2
621(23) 0.001890 532.7 601.8
606(22) 0.002066 532.5 599.5
603(22) 0.002066 532.4 597.6
574(30) 0.001111 532.2 596.1
566(21) 0.002268 532.1 594.9
582(21) 0.002268 531.9 594.0
625(22) 0.002066 531.8 593.5
639(22) 0.002066 531.7 593.3
591(22) 0.002066 531.5 593.4
589(22) 0.002066 531.4 593.8
618(22) 0.002066 531.2 594.5
581(21) 0.002268 531.1 595.6
588(21) 0.002268 530.9 596.9
586(21) 0.002268 530.8 598.5
601(22) 0.002066 530.7 600.4
609(22) 0.002066 530.5 602.5
628(22) 0.002066 530.4 604.8
625(22) 0.002066 530.2 607.1
599(22) 0.002066 530.1 609.4
598(22) 0.002066 530.0 611.8
628(22) 0.002066 529.8 613.9
651(23) 0.001890 529.7 615.8
635(22) 0.002066 529.6 617.4
674(23) 0.001890 529.4 618.7
628(22) 0.002066 529.3 619.7
627(22) 0.002066 529.1 620.4
623(22) 0.002066 529.0 620.9
649(23) 0.001890 528.9 621.1
652(23) 0.001890 528.7 621.1
612(22) 0.002066 528.6 621.1
629(22) 0.002066 528.5 621.2
650(23) 0.001890 528.3 621.2
631(22) 0.002066 528.2 621.4
645(23) 0.001890 528.0 621.8
637(22) 0.002066 527.9 622.4
595(22) 0.002066 527.8 623.2
634(22) 0.002066 527.6 624.3
646(23) 0.001890 527.5 625.7
630(22) 0.002066 527.4 627.3
633(22) 0.002066 527.2 629.0
611(22) 0.002066 527.1 631.0
643(22) 0.002066 527.0 633.1
619(22) 0.002066 526.8 635.3
635(22) 0.002066 526.7 637.6
662(23) 0.001890 526.6 640.0
631(22) 0.002066 526.4 642.6
682(23) 0.001890 526.3 645.4
654(23) 0.001890 526.2 648.3
693(23) 0.001890 526.0 651.3
657(23) 0.001890 525.9 654.6
679(23) 0.001890 525.8 657.8
673(23) 0.001890 525.6 660.8
677(23) 0.001890 525.5 663.6
643(22) 0.002066 525.4 666.1
647(23) 0.001890 525.2 668.1
645(23) 0.001890 525.1 669.5
651(23) 0.001890 525.0 670.2
686(23) 0.001890 524.8 670.3
665(23) 0.001890 524.7 669.9
696(23) 0.001890 524.6 668.9
650(23) 0.001890 524.4 667.7
680(23) 0.001890 524.3 666.3
685(23) 0.001890 524.2 664.9
691(23) 0.001890 524.0 663.7
702(24) 0.001736 523.9 662.6
690(23) 0.001890 523.8 661.7
699(23) 0.001890 523.6 661.1
696(23) 0.001890 523.5 660.6
689(23) 0.001890 523.4 660.1
647(23) 0.001890 523.2 659.7
701(23) 0.001890 523.1 659.1
669(23) 0.001890 523.0 658.5
666(23) 0.001890 522.9 657.6
664(23) 0.001890 522.7 656.7
662(23) 0.001890 522.6 655.6
660(23) 0.001890 522.5 654.5
690(23) 0.001890 522.3 653.2
692(23) 0.001890 522.2 652.0
635(22) 0.002066 522.1 650.6
648(23) 0.001890 521.9 649.2
679(23) 0.001890 521.8 647.7
654(23) 0.001890 521.7 646.0
666(23) 0.001890 521.6 644.1
632(22) 0.002066 521.4 642.0
632(22) 0.002066 521.3 639.7
679(23) 0.001890 521.2 637.2
615(22) 0.002066 521.0 634.5
639(22) 0.002066 520.9 631.8
645(23) 0.001890 520.8 629.0
629(22) 0.002066 520.7 626.3
639(22) 0.002066 520.5 623.7
612(22) 0.002066 520.4 621.3
659(23) 0.001890 520.3 619.1
612(22) 0.002066 520.2 617.3
634(22) 0.002066 520.0 615.6
634(22) 0.002066 519.9 614.2
626(22) 0.002066 519.8 613.0
658(23) 0.001890 519.6 612.1
624(22) 0.002066 519.5 611.2
649(23) 0.001890 519.4 610.6
624(22) 0.002066 519.3 610.1
630(22) 0.002066 519.1 609.7
622(22) 0.002066 519.0 609.7
637(22) 0.002066 518.9 609.6
636(22) 0.002066 518.8 609.8
654(23) 0.001890 518.6 610.3
664(23) 0.001890 518.5 611.0
601(22) 0.002066 518.4 612.0
629(22) 0.002066 518.3 613.2
648(23) 0.001890 518.1 614.6
624(22) 0.002066 518.0 616.2
623(22) 0.002066 517.9 617.8
640(22) 0.002066 517.7 619.4
623(22) 0.002066 517.6 620.9
623(22) 0.002066 517.5 622.3
621(22) 0.002066 517.4 623.3
651(23) 0.001890 517.2 624.0
643(22) 0.002066 517.1 624.6
648(23) 0.001890 517.0 624.7
639(22) 0.002066 516.9 624.5
604(22) 0.002066 516.7 624.1
589(22) 0.002066 516.6 623.7
645(23) 0.001890 516.5 623.3
640(22) 0.002066 516.4 622.9
663(23) 0.001890 516.2 622.7
664(23) 0.001890 516.1 622.8
631(22) 0.002066 516.0 623.0
649(23) 0.001890 515.9 623.4
597(22) 0.002066 515.7 623.9
635(22) 0.002066 515.6 624.6
663(23) 0.001890 515.5 625.3
628(22) 0.002066 515.4 625.9
625(22) 0.002066 515.2 626.5
686(23) 0.001890 515.1 627.0
624(22) 0.002066 515.0 627.3
648(23) 0.001890 514.9 627.6
676(23) 0.001890 514.7 627.7
632(22) 0.002066 514.6 627.8
660(23) 0.001890 514.5 627.7
674(23) 0.001890 514.4 627.4
609(22) 0.002066 514.3 627.1
649(23) 0.001890 514.1 626.6
666(23) 0.001890 514.0 625.9
664(23) 0.001890 513.9 625.2
680(23) 0.001890 513.8 624.4
611(22) 0.002066 513.6 623.6
654(23) 0.001890 513.5 622.9
642(22) 0.002066 513.4 622.2
637(22) 0.002066 513.3 621.7
652(23) 0.001890 513.1 621.4
606(22) 0.002066 513.0 621.4
627(22) 0.002066 512.9 621.6
630(22) 0.002066 512.8 622.1
671(23) 0.001890 512.6 622.7
607(22) 0.002066 512.5 623.5
657(23) 0.001890 512.4 624.5
645(23) 0.001890 512.3 625.4
635(22) 0.002066 512.2 626.1
636(22) 0.002066 512.0 626.7
660(23) 0.001890 511.9 626.9
611(22) 0.002066 511.8 626.6
641(22) 0.002066 511.7 625.7
676(23) 0.001890 511.5 624.4
607(22) 0.002066 511.4 622.5
645(23) 0.001890 511.3 620.2
674(23) 0.001890 511.2 617.5
608(22) 0.002066 511.0 614.5
633(22) 0.002066 510.9 611.4
644(23) 0.001890 510.8 608.2
622(22) 0.002066 510.7 605.2
615(22) 0.002066 510.6 602.3
616(22) 0.002066 510.4 599.6
578(21) 0.002268 510.3 597.2
652(23) 0.001890 510.2 595.1
609(22) 0.002066 510.1 593.3
623(22) 0.002066 509.9 591.9
610(22) 0.002066 509.8 590.9
613(22) 0.002066 509.7 590.2
628(22) 0.002066 509.6 589.9
599(22) 0.002066 509.5 589.9
580(21) 0.002268 509.3 590.3
587(21) 0.002268 509.2 591.1
630(22) 0.002066 509.1 592.2
590(22) 0.002066 509.0 593.5
618(22) 0.002066 508.8 595.3
576(21) 0.002268 508.7 597.2
611(22) 0.002066 508.6 599.4
617(22) 0.002066 508.5 601.8
645(23) 0.001890 508.3 604.4
584(21) 0.002268 508.2 607.1
629(22) 0.002066 508.1 609.8
617(22) 0.002066 508.0 612.7
600(22) 0.002066 507.9 615.5
638(22) 0.002066 507.7 618.4
639(22) 0.002066 507.6 621.4
661(23) 0.001890 507.5 624.3
638(22) 0.002066 507.4 627.2
692(23) 0.001890 507.2 630.2
684(23) 0.001890 507.1 633.2
611(22) 0.002066 507.0 636.2
611(22) 0.002066 506.9 639.1
664(23) 0.001890 506.8 642.0
669(23) 0.001890 506.6 644.7
646(23) 0.001890 506.5 647.3
651(24) 0.001736 506.4 649.6
682(24) 0.001736 506.3 651.6
630(23) 0.001890 506.1 653.4
641(23) 0.001890 506.0 655.0
623(23) 0.001890 505.9 656.3
673(24) 0.001736 505.8 657.5
675(24) 0.001736 505.7 658.7
716(25) 0.001600 505.5 659.7
679(24) 0.001736 505.4 660.9
677(24) 0.001736 505.3 662.1
668(24) 0.001736 505.2 663.4
713(25) 0.001600 505.0 664.7
694(24) 0.001736 504.9 666.0
696(24) 0.001736 504.8 667.2
707(25) 0.001600 504.7 668.1
646(24) 0.001736 504.6 668.8
714(25) 0.001600 504.4 669.1
687(24) 0.001736 504.3 668.9
705(25) 0.001600 504.2 668.2
700(25) 0.001600 504.1 667.1
671(24) 0.001736 503.9 665.6
702(25) 0.001600 503.8 663.8
657(24) 0.001736 503.7 661.8
594(23) 0.001890 503.6 659.7
701(25) 0.001600 503.4 657.6
648(24) 0.001736 503.3 655.4
699(24) 0.001736 503.2 653.4
676(24) 0.001736 503.1 651.4
638(23) 0.001890 503.0 649.5
641(23) 0.001890 502.8 647.5
692(24) 0.001736 502.7 645.6
697(24) 0.001736 502.6 643.8
683(24) 0.001736 502.5 641.9
629(23) 0.001890 502.3 640.2
678(24) 0.001736 502.2 638.5
642(23) 0.001890 502.1 637.0
689(24) 0.001736 502.0 635.5
716(25) 0.001600 501.9 634.2
633(23) 0.001890 501.7 633.0
668(24) 0.001736 501.6 632.0
698(24) 0.001736 501.5 631.2
653(24) 0.001736 501.4 630.4
669(24) 0.001736 501.2 629.7
671(24) 0.001736 501.1 629.0
644(23) 0.001890 501.0 628.3
667(24) 0.001736 500.9 627.6
677(24) 0.001736 500.8 626.9
656(24) 0.001736 500.6 626.2
640(23) 0.001890 500.5 625.4
640(23) 0.001890 500.4 624.7
612(23) 0.001890 500.3 624.1
648(24) 0.001736 500.1 623.5
643(23) 0.001890 500.0 623.0
633(23) 0.001890 499.9 622.5
610(23) 0.001890 499.8 622.0
633(23) 0.001890 499.6 621.6
610(23) 0.001890 499.5 621.3
638(23) 0.001890 499.4 620.9
626(23) 0.001890 499.3 620.6
635(23) 0.001890 499.2 620.4
655(24) 0.001736 499.0 620.3
615(23) 0.001890 498.9 620.4
621(23) 0.001890 498.8 620.7
637(23) 0.001890 498.7 621.2
652(24) 0.001736 498.5 622.1
650(24) 0.001736 498.4 623.3
634(23) 0.001890 498.3 624.9
621(23) 0.001890 498.2 626.8
675(24) 0.001736 498.1 629.1
673(24) 0.001736 497.9 631.6
655(24) 0.001736 497.8 634.5
667(24) 0.001736 497.7 637.6
650(24) 0.001736 497.6 640.9
687(24) 0.001736 497.4 644.3
654(24) 0.001736 497.3 647.9
654(24) 0.001736 497.2 651.4
700(24) 0.001736 497.1 654.8
680(24) 0.001736 496.9 658.1
709(25) 0.001600 496.8 661.2
708(25) 0.001600 496.7 664.1
686(24) 0.001736 496.6 666.7
666(24) 0.001736 496.5 669.0
708(25) 0.001600 496.3 670.9
688(24) 0.001736 496.2 672.4
695(24) 0.001736 496.1 673.3
693(24) 0.001736 496.0 673.6
725(25) 0.001600 495.8 673.4
690(24) 0.001736 495.7 672.4
699(24) 0.001736 495.6 670.8
694(24) 0.001736 495.5 668.6
680(24) 0.001736 495.4 665.8
729(25) 0.001600 495.2 662.6
646(24) 0.001736 495.1 659.0
689(24) 0.001736 495.0 655.3
626(23) 0.001890 494.9 651.3
649(24) 0.001736 494.7 647.4
633(23) 0.001890 494.6 643.6
582(22) 0.002066 494.5 640.0
647(24) 0.001736 494.4 636.6
588(23) 0.001890 494.3 633.4
623(23) 0.001890 494.1 630.5
637(24) 0.001736 494.0 627.7
621(23) 0.001890 493.9 625.2
658(24) 0.001736 493.8 622.8
633(24) 0.001736 493.6 620.4
552(22) 0.002066 493.5 618.0
558(22) 0.002066 493.4 615.5
601(23) 0.001890 493.3 612.9
596(23) 0.001890 493.2 610.2
610(23) 0.001890 493.0 607.4
602(23) 0.001890 492.9 604.4
618(23) 0.001890 492.8 601.5
564(22) 0.002066 492.7 598.4
605(23) 0.001890 492.5 595.3
562(22) 0.002066 492.4 592.2
596(23) 0.001890 492.3 589.3
577(23) 0.001890 492.2 586.5
610(23) 0.001890 492.1 583.9
613(23) 0.001890 491.9 581.4
561(22) 0.002066 491.8 579.2
579(23) 0.001890 491.7 577.2
580(23) 0.001890 491.6 575.4
551(22) 0.002066 491.4 573.8
582(23) 0.001890 491.3 572.4
539(22) 0.002066 491.2 571.3
527(22) 0.002066 491.1 570.5
559(22) 0.002066 491.0 569.8
583(23) 0.001890 490.8 569.4
583(23) 0.001890 490.7 569.2
565(22) 0.002066 490.6 569.2
580(23) 0.001890 490.5 569.5
576(23) 0.001890 490.3 570.0
598(23) 0.001890 490.2 570.8
586(23) 0.001890 490.1 571.7
594(23) 0.001890 490.0 573.0
541(22) 0.002066 489.9 574.4
616(23) 0.001890 489.7 576.1
602(23) 0.001890 489.6 577.9
636(24) 0.001736 489.5 579.9
610(23) 0.001890 489.4 582.0
601(23) 0.001890 489.3 584.2
629(23) 0.001890 489.1 586.5
630(24) 0.001736 489.0 588.8
641(24) 0.001736 488.9 590.9
610(23) 0.001890 488.8 593.0
610(23) 0.001890 488.7 594.8
607(23) 0.001890 488.5 596.4
643(24) 0.001736 488.4 597.8
596(23) 0.001890 488.3 598.9
579(23) 0.001890 488.2 599.8
609(23) 0.001890 488.1 600.3
600(23) 0.001890 487.9 600.7
620(23) 0.001890 487.8 600.9
598(23) 0.001890 487.7 600.9
605(23) 0.001890 487.6 600.8
562(22) 0.002066 487.5 600.7
592(23) 0.001890 487.3 600.6
589(23) 0.001890 487.2 600.6
627(23) 0.001890 487.1 600.7
643(24) 0.001736 487.0 600.9
625(23) 0.001890 486.9 601.2
615(23) 0.001890 486.7 601.7
637(24) 0.001736 486.6 602.4
593(23) 0.001890 486.5 603.2
607(23) 0.001890 486.4 604.1
586(23) 0.001890 486.3 605.2
578(23) 0.001890 486.1 606.4
620(23) 0.001890 486.0 607.7
628(23) 0.001890 485.9 609.1
614(23) 0.001890 485.8 610.6
630(24) 0.001736 485.7 612.2
600(23) 0.001890 485.5 614.0
612(23) 0.001890 485.4 615.9
674(24) 0.001736 485.3 618.1
692(25) 0.001600 485.2 620.4
659(24) 0.001736 485.1 622.9
626(23) 0.001890 485.0 625.7
638(24) 0.001736 484.8 628.6
649(24) 0.001736 484.7 631.7
692(25) 0.001600 484.6 634.9
685(25) 0.001600 484.5 638.3
674(24) 0.001736 484.4 641.9
659(24) 0.001736 484.3 645.5
681(24) 0.001736 484.1 649.2
695(25) 0.001600 484.0 652.8
655(24) 0.001736 483.9 656.4
703(25) 0.001600 483.8 659.8
709(25) 0.001600 483.7 663.2
721(25) 0.001600 483.6 666.3
724(25) 0.001600 483.4 669.3
705(25) 0.001600 483.3 671.9
729(25) 0.001600 483.2 674.3
745(26) 0.001479 483.1 676.4
752(26) 0.001479 483.0 678.2
741(25) 0.001600 482.9 679.8
746(26) 0.001479 482.7 681.1
802(27) 0.001372 482.6 682.3
796(26) 0.001479 482.5 683.3
769(26) 0.001479 482.4 684.2
775(26) 0.001479 482.3 685.1
735(24) 0.001736 482.2 685.9
755(25) 0.001600 482.1 686.5
769(25) 0.001600 481.9 687.1
796(25) 0.001600 481.8 687.3
753(24) 0.001736 481.7 687.4
767(25) 0.001600 481.6 687.0
818(26) 0.001479 481.5 686.2
784(25) 0.001600 481.4 685.0
702(24) 0.001736 481.3 683.2
778(25) 0.001600 481.1 680.9
732(24) 0.001736 481.0 678.2
788(25) 0.001600 480.9 675.1
744(24) 0.001736 480.8 671.7
736(24) 0.001736 480.7 668.2
702(24) 0.001736 480.6 664.4
669(23) 0.001890 480.5 660.7
715(24) 0.001736 480.4 657.0
711(24) 0.001736 480.2 653.4
644(23) 0.001890 480.1 650.0
624(22) 0.002066 480.0 646.7
642(23) 0.001890 479.9 643.7
637(22) 0.002066 479.8 641.0
677(23) 0.001890 479.7 638.5
655(23) 0.001890 479.6 636.2
644(23) 0.001890 479.5 634.1
630(22) 0.002066 479.4 632.2
619(22) 0.002066 479.3 630.5
665(23) 0.001890 479.1 628.9
654(23) 0.001890 479.0 627.5
637(22) 0.002066 478.9 626.1
661(23) 0.001890 478.8 624.9
653(23) 0.001890 478.7 623.9
647(23) 0.001890 478.6 623.0
655(23) 0.001890 478.5 622.2
637(22) 0.002066 478.4 621.5
667(23) 0.001890 478.3 621.0
642(23) 0.001890 478.2 620.7
620(22) 0.002066 478.1 620.5
630(22) 0.002066 478.0 620.4
633(22) 0.002066 477.8 620.4
654(23) 0.001890 477.7 620.5
624(22) 0.002066 477.6 620.8
664(23) 0.001890 477.5 621.1
663(23) 0.001890 477.4 621.4
659(23) 0.001890 477.3 621.8
636(22) 0.002066 477.2 622.2
620(22) 0.002066 477.1 622.6
678(23) 0.001890 477.0 623.0
656(23) 0.001890 476.9 623.2
635(22) 0.002066 476.8 623.4
665(23) 0.001890 476.7 623.5
652(23) 0.001890 476.6 623.5
642(23) 0.001890 476.5 623.3
644(23) 0.001890 476.4 622.9
629(22) 0.002066 476.3 622.3
613(22) 0.002066 476.2 621.5
673(23) 0.001890 476.1 620.5
648(23) 0.001890 476.0 619.4
636(22) 0.002066 475.9 618.0
625(22) 0.002066 475.8 616.5
640(23) 0.001890 475.7 615.0
661(23) 0.001890 475.6 613.3
665(23) 0.001890 475.5 611.5
632(22) 0.002066 475.4 609.7
609(22) 0.002066 475.3 607.9
589(22) 0.002066 475.2 606.1
598(22) 0.002066 475.1 604.3
606(22) 0.002066 475.0 602.4
613(22) 0.002066 474.9 600.6
633(22) 0.002066 474.8 598.8
576(21) 0.002268 474.7 596.9
605(22) 0.002066 474.6 595.0
609(22) 0.002066 474.5 593.1
587(22) 0.002066 474.4 591.2
640(23) 0.001890 474.3 589.2
623(22) 0.002066 474.2 587.3
590(22) 0.002066 474.1 585.3
600(22) 0.002066 474.0 583.3
617(22) 0.002066 473.9 581.4
570(21) 0.002268 473.8 579.5
562(21) 0.002268 473.7 577.6
602(22) 0.002066 473.6 575.9
610(22) 0.002066 473.5 574.3
635(22) 0.002066 473.4 572.8
562(21) 0.002268 473.3 571.4
601(22) 0.002066 473.2 570.1
577(21) 0.002268 473.1 569.0
607(22) 0.002066 473.0 568.0
606(22) 0.002066 472.9 567.2
602(22) 0.002066 472.9 566.5
604(22) 0.002066 472.8 566.1
608(22) 0.002066 472.7 565.8
605(22) 0.002066 472.6 565.6
582(21) 0.002268 472.5 565.7
590(22) 0.002066 472.4 565.9
583(21) 0.002268 472.3 566.4
594(22) 0.002066 472.2 566.9
620(22) 0.002066 472.1 567.6
599(22) 0.002066 472.0 568.5
545(28) 0.001276 472.0 569.5
583(21) 0.002268 471.9 570.8
585(21) 0.002268 471.8 572.2
590(21) 0.002268 471.7 573.8
649(23) 0.001890 471.6 575.5
633(22) 0.002066 471.5 577.4
621(22) 0.002066 471.4 579.4
611(22) 0.002066 471.3 581.5
624(22) 0.002066 471.3 583.7
609(22) 0.002066 471.2 586.0
611(22) 0.002066 471.1 588.4
635(22) 0.002066 471.0 590.8
623(22) 0.002066 470.9 593.1
614(22) 0.002066 470.8 595.5
632(22) 0.002066 470.7 597.8
612(22) 0.002066 470.7 600.0
621(22) 0.002066 470.6 602.1
632(22) 0.002066 470.5 604.1
637(22) 0.002066 470.4 605.9
611(22) 0.002066 470.3 607.6
612(22) 0.002066 470.3 609.0
656(23) 0.001890 470.2 610.3
632(22) 0.002066 470.1 611.3
629(22) 0.002066 470.0 612.2
618(22) 0.002066 469.9 612.9
626(22) 0.002066 469.9 613.4
641(22) 0.002066 469.8 613.7
618(22) 0.002066 469.7 613.8
618(22) 0.002066 469.6 613.8
647(23) 0.001890 469.6 613.6
651(23) 0.001890 469.5 613.4
640(22) 0.002066 469.4 613.0
638(22) 0.002066 469.3 612.4
652(23) 0.001890 469.2 611.8
667(23) 0.001890 469.2 611.0
641(22) 0.002066 469.1 610.2
626(22) 0.002066 469.0 609.2
636(22) 0.002066 469.0 608.2
649(23) 0.001890 468.9 607.1
624(22) 0.002066 468.8 605.9
619(22) 0.002066 468.7 604.7
608(22) 0.002066 468.7 603.4
598(22) 0.002066 468.6 602.2
576(21) 0.002268 468.5 601.0
600(22) 0.002066 468.4 599.9
631(22) 0.002066 468.4 598.9
600(22) 0.002066 468.3 598.0
614(22) 0.002066 468.2 597.2
598(22) 0.002066 468.2 596.6
607(22) 0.002066 468.1 596.2
643(22) 0.002066 468.0 596.0
605(22) 0.002066 468.0 596.0
625(22) 0.002066 467.9 596.3
626(22) 0.002066 467.8 596.7
610(22) 0.002066 467.8 597.4
605(22) 0.002066 467.7 598.3
632(22) 0.002066 467.6 599.4
626(22) 0.002066 467.6 600.6
637(22) 0.002066 467.5 602.0
607(22) 0.002066 467.4 603.5
595(22) 0.002066 467.4 605.0
626(22) 0.002066 467.3 606.7
630(22) 0.002066 467.3 608.3
621(22) 0.002066 467.2 609.9
686(23) 0.001890 467.1 611.4
694(23) 0.001890 467.1 612.9
659(23) 0.001890 467.0 614.3
655(23) 0.001890 467.0 615.6
638(22) 0.002066 466.9 616.7
644(22) 0.002066 466.8 617.7
624(22) 0.002066 466.8 618.5
658(23) 0.001890 466.7 619.2
652(23) 0.001890 466.7 619.8
609(22) 0.002066 466.6 620.2
614(22) 0.002066 466.6 620.4
670(23) 0.001890 466.5 620.5
680(23) 0.001890 466.5 620.5
625(22) 0.002066 466.4 620.4
637(22) 0.002066 466.3 620.1
629(22) 0.002066 466.3 619.8
643(22) 0.002066 466.2 619.4
625(22) 0.002066 466.2 618.8
617(22) 0.002066 466.1 618.2
657(23) 0.001890 466.1 617.5
671(23) 0.001890 466.0 616.8
641(22) 0.002066 466.0 616.0
626(22) 0.002066 465.9 615.1
627(22) 0.002066 465.9 614.2
621(22) 0.002066 465.8 613.2
629(22) 0.002066 465.8 612.3
647(23) 0.001890 465.7 611.3
639(22) 0.002066 465.7 610.3
600(22) 0.002066 465.6 609.4
613(22) 0.002066 465.6 608.4
619(22) 0.002066 465.6 607.5
650(23) 0.001890 465.5 606.7
654(23) 0.001890 465.5 605.8
649(23) 0.001890 465.4 605.1
609(22) 0.002066 465.4 604.3
591(22) 0.002066 465.3 603.6
613(22) 0.002066 465.3 602.9
623(22) 0.002066 465.3 602.3
625(22) 0.002066 465.2 601.7
661(23) 0.001890 465.2 601.1
652(23) 0.001890 465.1 600.6
605(22) 0.002066 465.1 600.1
621(22) 0.002066 465.1 599.6
634(22) 0.002066 465.0 599.2
647(22) 0.002066 465.0 598.7
624(22) 0.002066 464.9 598.3
620(22) 0.002066 464.9 597.8
640(22) 0.002066 464.9 597.4
642(22) 0.002066 464.8 596.9
620(22) 0.002066 464.8 596.4
619(22) 0.002066 464.8 595.8
626(22) 0.002066 464.7 595.3
590(21) 0.002268 464.7 594.7
600(22) 0.002066 464.7 594.1
596(22) 0.002066 464.6 593.6
602(22) 0.002066 464.6 593.1
616(22) 0.002066 464.6 592.6
614(22) 0.002066 464.5 592.3
626(22) 0.002066 464.5 592.0
637(22) 0.002066 464.5 591.9
636(22) 0.002066 464.5 591.9
611(22) 0.002066 464.4 592.1
626(22) 0.002066 464.4 592.4
633(22) 0.002066 464.4 592.9
652(23) 0.001890 464.4 593.6
640(22) 0.002066 464.3 594.4
626(22) 0.002066 464.3 595.3
644(22) 0.002066 464.3 596.4
617(22) 0.002066 464.3 597.5
583(21) 0.002268 464.2 598.8
615(22) 0.002066 464.2 600.0
634(22) 0.002066 464.2 601.4
658(23) 0.001890 464.2 602.7
650(23) 0.001890 464.1 604.0
659(23) 0.001890 464.1 605.2
657(23) 0.001890 464.1 606.4
676(23) 0.001890 464.1 607.5
629(22) 0.002066 464.1 608.6
641(22) 0.002066 464.0 609.5
650(23) 0.001890 464.0 610.4
634(22) 0.002066 464.0 611.1
645(22) 0.002066 464.0 611.8
629(22) 0.002066 464.0 612.5
648(22) 0.002066 464.0 613.0
645(22) 0.002066 463.9 613.5
614(22) 0.002066 463.9 614.0
627(22) 0.002066 463.9 614.3
622(22) 0.002066 463.9 614.7
612(22) 0.002066 463.9 614.9
635(22) 0.002066 463.9 615.0
658(23) 0.001890 463.9 615.1
659(23) 0.001890 463.9 615.0
645(22) 0.002066 463.9 614.8
627(22) 0.002066 463.8 614.4
619(22) 0.002066 463.8 613.9
666(23) 0.001890 463.8 613.1
656(23) 0.001890 463.8 612.2
640(22) 0.002066 463.8 611.1
639(22) 0.002066 463.8 609.8
665(23) 0.001890 463.8 608.4
654(23) 0.001890 463.8 606.7
632(22) 0.002066 463.8 605.0
609(22) 0.002066 463.8 603.1
622(22) 0.002066 463.8 601.2
616(22) 0.002066 463.8 599.2
616(22) 0.002066 463.8 597.3
626(22) 0.002066 463.8 595.3
634(22) 0.002066 463.8 593.4
596(22) 0.002066 463.8 591.6
623(22) 0.002066 463.8 589.9
618(22) 0.002066 463.8 588.3
595(22) 0.002066 463.8 587.0
623(22) 0.002066 463.8 585.7
623(22) 0.002066 463.8 584.7
614(22) 0.002066 463.8 583.9
638(22) 0.002066 463.8 583.3
607(22) 0.002066 463.8 582.9
611(22) 0.002066 463.8 582.7
611(22) 0.002066 463.8 582.8
606(22) 0.002066 463.8 583.0
618(22) 0.002066 463.8 583.5
600(22) 0.002066 463.8 584.2
592(21) 0.002268 463.8 585.1
629(22) 0.002066 463.8 586.1
621(22) 0.002066 463.8 587.4
589(21) 0.002268 463.8 588.7
579(21) 0.002268 463.9 590.2
611(22) 0.002066 463.9 591.8
612(22) 0.002066 463.9 593.4
616(22) 0.002066 463.9 595.1
613(22) 0.002066 463.9 596.8
601(22) 0.002066 463.9 598.4
639(22) 0.002066 463.9 600.0
607(22) 0.002066 463.9 601.5
610(22) 0.002066 464.0 602.9
601(22) 0.002066 464.0 604.1
603(22) 0.002066 464.0 605.2
572(22) 0.002066 464.0 606.2
592(22) 0.002066 464.0 607.0
588(22) 0.002066 464.0 607.6
603(22) 0.002066 464.1 608.1
621(23) 0.001890 464.1 608.4
606(22) 0.002066 464.1 608.6
629(23) 0.001890 464.1 608.6
608(22) 0.002066 464.1 608.4
628(23) 0.001890 464.2 608.2
619(23) 0.001890 464.2 607.7
614(22) 0.002066 464.2 607.1
607(22) 0.002066 464.2 606.4
593(22) 0.002066 464.2 605.6
644(23) 0.001890 464.3 604.6
631(23) 0.001890 464.3 603.5
624(23) 0.001890 464.3 602.3
600(22) 0.002066 464.3 601.1
610(22) 0.002066 464.4 599.7
618(23) 0.001890 464.4 598.4
629(23) 0.001890 464.4 597.0
613(22) 0.002066 464.4 595.5
595(22) 0.002066 464.5 594.2
622(23) 0.001890 464.5 592.8
619(23) 0.001890 464.5 591.5
588(22) 0.002066 464.5 590.2
626(23) 0.001890 464.6 589.1
627(23) 0.001890 464.6 588.0
611(22) 0.002066 464.6 587.1
618(23) 0.001890 464.7 586.2
598(22) 0.002066 464.7 585.4
623(23) 0.001890 464.7 584.8
618(23) 0.001890 464.8 584.3
621(23) 0.001890 464.8 583.8
597(22) 0.002066 464.8 583.5
604(22) 0.002066 464.9 583.2
615(22) 0.002066 464.9 583.0
626(23) 0.001890 464.9 582.9
648(23) 0.001890 465.0 582.9
664(23) 0.001890 465.0 582.9
626(23) 0.001890 465.0 582.9
579(22) 0.002066 465.1 583.0
607(22) 0.002066 465.1 583.1
616(23) 0.001890 465.2 583.2
608(22) 0.002066 465.2 583.4
605(22) 0.002066 465.2 583.5
616(23) 0.001890 465.3 583.7
616(23) 0.001890 465.3 583.9
586(22) 0.002066 465.4 584.1
607(22) 0.002066 465.4 584.3
622(23) 0.001890 465.4 584.5
591(22) 0.002066 465.5 584.7
587(22) 0.002066 465.5 584.9
574(22) 0.002066 465.6 585.1
606(22) 0.002066 465.6 585.3
639(23) 0.001890 465.6 585.5
599(22) 0.002066 465.7 585.8
632(23) 0.001890 465.7 586.1
630(23) 0.001890 465.8 586.3
611(22) 0.002066 465.8 586.6
600(22) 0.002066 465.9 586.9
637(23) 0.001890 465.9 587.3
616(23) 0.001890 466.0 587.6
610(22) 0.002066 466.0 588.0
638(23) 0.001890 466.1 588.3
657(23) 0.001890 466.1 588.7
647(23) 0.001890 466.2 589.1
637(23) 0.001890 466.2 589.6
642(23) 0.001890 466.3 590.0
619(23) 0.001890 466.3 590.4
626(23) 0.001890 466.4 590.9
614(22) 0.002066 466.4 591.3
640(23) 0.001890 466.5 591.7
640(23) 0.001890 466.5 592.1
606(22) 0.002066 466.6 592.5
599(22) 0.002066 466.6 592.8
628(23) 0.001890 466.7 593.1
627(23) 0.001890 466.7 593.4
627(23) 0.001890 466.8 593.6
640(23) 0.001890 466.8 593.8
623(23) 0.001890 466.9 594.0
600(22) 0.002066 466.9 594.2
610(22) 0.002066 467.0 594.3
632(23) 0.001890 467.0 594.4
638(23) 0.001890 467.1 594.5
628(23) 0.001890 467.2 594.6
647(23) 0.001890 467.2 594.7
659(23) 0.001890 467.3 594.8
621(23) 0.001890 467.3 594.8
641(23) 0.001890 467.4 594.9
674(24) 0.001736 467.4 595.0
623(23) 0.001890 467.5 595.0
616(23) 0.001890 467.6 595.1
636(23) 0.001890 467.6 595.1
652(23) 0.001890 467.7 595.1
639(23) 0.001890 467.7 595.0
655(23) 0.001890 467.8 594.9
658(23) 0.001890 467.9 594.7
641(23) 0.001890 467.9 594.4
624(23) 0.001890 468.0 594.1
653(19) 0.002770 468.0 593.7
672(24) 0.001736 468.1 593.1
636(23) 0.001890 468.2 592.5
648(24) 0.001736 468.2 591.8
656(24) 0.001736 468.3 591.0
606(23) 0.001890 468.3 590.1
629(23) 0.001890 468.4 589.1
616(23) 0.001890 468.5 588.0
634(23) 0.001890 468.5 586.9
601(23) 0.001890 468.6 585.7
614(23) 0.001890 468.7 584.5
624(23) 0.001890 468.7 583.2
586(22) 0.002066 468.8 581.9
583(22) 0.002066 468.9 580.6
609(23) 0.001890 468.9 579.4
631(23) 0.001890 469.0 578.1
630(23) 0.001890 469.0 576.9
580(22) 0.002066 469.1 575.7
584(22) 0.002066 469.2 574.5
582(22) 0.002066 469.2 573.4
603(23) 0.001890 469.3 572.4
602(23) 0.001890 469.4 571.4
622(23) 0.001890 469.4 570.5
597(23) 0.001890 469.5 569.6
576(22) 0.002066 469.6 568.8
602(23) 0.001890 469.6 568.0
596(23) 0.001890 469.7 567.3
572(22) 0.002066 469.8 566.6
611(23) 0.001890 469.8 566.0
607(23) 0.001890 469.9 565.5
621(23) 0.001890 470.0 565.0
638(23) 0.001890 470.1 564.6
613(23) 0.001890 470.1 564.2
668(24) 0.001736 470.2 563.8
619(23) 0.001890 470.3 563.5
631(23) 0.001890 470.3 563.3
615(23) 0.001890 470.4 563.1
590(22) 0.002066 470.5 563.0
613(23) 0.001890 470.5 562.9
562(22) 0.002066 470.6 562.9
587(22) 0.002066 470.7 563.0
630(23) 0.001890 470.7 563.0
639(23) 0.001890 470.8 563.2
576(22) 0.002066 470.9 563.3
550(22) 0.002066 471.0 563.5
591(22) 0.002066 471.0 563.7
574(22) 0.002066 471.1 563.9
588(22) 0.002066 471.2 564.1
629(23) 0.001890 471.2 564.3
585(22) 0.002066 471.3 564.5
601(23) 0.001890 471.4 564.6
580(22) 0.002066 471.4 564.7
594(23) 0.001890 471.5 564.8
568(22) 0.002066 471.6 564.8
603(23) 0.001890 471.7 564.7
570(22) 0.002066 471.7 564.6
637(23) 0.001890 471.8 564.4
605(23) 0.001890 471.9 564.2
606(23) 0.001890 471.9 564.0
589(22) 0.002066 472.0 563.7
599(23) 0.001890 472.1 563.4
596(23) 0.001890 472.2 563.0
524(21) 0.002268 472.2 562.7
610(23) 0.001890 472.3 562.4
526(21) 0.002268 472.4 562.0
574(22) 0.002066 472.4 561.7
588(22) 0.002066 472.5 561.3
567(22) 0.002066 472.6 561.0
594(23) 0.001890 472.7 560.7
613(23) 0.001890 472.7 560.5
594(23) 0.001890 472.8 560.2
553(22) 0.002066 472.9 560.0
590(22) 0.002066 472.9 559.8
602(23) 0.001890 473.0 559.6
591(23) 0.001890 473.1 559.4
580(22) 0.002066 473.2 559.2
588(22) 0.002066 473.2 559.0
604(23) 0.001890 473.3 558.9
591(22) 0.002066 473.4 558.7
620(23) 0.001890 473.4 558.6
578(22) 0.002066 473.5 558.4
597(23) 0.001890 473.6 558.3
593(23) 0.001890 473.7 558.2
567(22) 0.002066 473.7 558.2
592(23) 0.001890 473.8 558.1
595(23) 0.001890 473.9 558.1
594(23) 0.001890 473.9 558.2
559(22) 0.002066 474.0 558.3
569(22) 0.002066 474.1 558.4
588(22) 0.002066 474.2 558.6
566(22) 0.002066 474.2 558.9
588(22) 0.002066 474.3 559.3
575(22) 0.002066 474.4 559.7
589(22) 0.002066 474.4 560.2
589(22) 0.002066 474.5 560.8
609(23) 0.001890 474.6 561.4
588(22) 0.002066 474.6 562.2
614(23) 0.001890 474.7 563.1
582(22) 0.002066 474.8 564.0
568(22) 0.002066 474.8 565.0
576(22) 0.002066 474.9 566.2
626(22) 0.002066 475.0 567.4
622(22) 0.002066 475.1 568.7
638(23) 0.001890 475.1 570.1
594(22) 0.002066 475.2 571.5
601(22) 0.002066 475.3 573.0
597(22) 0.002066 475.3 574.6
599(22) 0.002066 475.4 576.2
584(22) 0.002066 475.5 577.9
596(22) 0.002066 475.5 579.6
620(22) 0.002066 475.6 581.3
623(22) 0.002066 475.7 583.1
599(22) 0.002066 475.7 584.8
635(23) 0.001890 475.8 586.5
592(22) 0.002066 475.9 588.2
649(23) 0.001890 475.9 589.8
611(22) 0.002066 476.0 591.3
592(22) 0.002066 476.0 592.8
617(22) 0.002066 476.1 594.2
656(23) 0.001890 476.2 595.4
631(22) 0.002066 476.2 596.5
615(22) 0.002066 476.3 597.6
610(22) 0.002066 476.4 598.4
637(23) 0.001890 476.4 599.2
664(23) 0.001890 476.5 599.7
630(22) 0.002066 476.5 600.2
641(23) 0.001890 476.6 600.5
602(22) 0.002066 476.7 600.6
637(23) 0.001890 476.7 600.7
632(23) 0.001890 476.8 600.6
672(23) 0.001890 476.9 600.4
630(22) 0.002066 476.9 600.0
627(22) 0.002066 477.0 599.6
624(22) 0.002066 477.0 599.1
601(22) 0.002066 477.1 598.6
616(22) 0.002066 477.2 598.0
629(22) 0.002066 477.2 597.3
598(22) 0.002066 477.3 596.6
563(21) 0.002268 477.3 595.9
629(22) 0.002066 477.4 595.1
605(22) 0.002066 477.4 594.3
604(22) 0.002066 477.5 593.5
624(22) 0.002066 477.6 592.7
630(22) 0.002066 477.6 591.9
634(23) 0.001890 477.7 591.1
627(22) 0.002066 477.7 590.2
632(22) 0.002066 477.8 589.3
614(22) 0.002066 477.8 588.5
671(23) 0.001890 477.9 587.6
603(22) 0.002066 477.9 586.7
619(22) 0.002066 478.0 585.7
648(23) 0.001890 478.0 584.8
594(22) 0.002066 478.1 583.8
613(22) 0.002066 478.1 582.8
550(21) 0.002268 478.2 581.8
577(21) 0.002268 478.2 580.7
610(22) 0.002066 478.3 579.7
639(23) 0.001890 478.3 578.6
616(22) 0.002066 478.4 577.5
597(22) 0.002066 478.4 576.4
600(22) 0.002066 478.5 575.4
614(22) 0.002066 478.5 574.3
616(22) 0.002066 478.6 573.2
573(21) 0.002268 478.6 572.2
597(22) 0.002066 478.7 571.2
618(22) 0.002066 478.7 570.2
569(21) 0.002268 478.7 569.3
593(22) 0.002066 478.8 568.4
562(21) 0.002268 478.8 567.6
626(22) 0.002066 478.9 566.8
551(21) 0.002268 478.9 566.1
573(21) 0.002268 479.0 565.4
587(22) 0.002066 479.0 564.9
569(21) 0.002268 479.0 564.4
617(22) 0.002066 479.1 563.9
587(22) 0.002066 479.1 563.6
608(22) 0.002066 479.2 563.3
568(21) 0.002268 479.2 563.1
601(22) 0.002066 479.2 563.0
573(21) 0.002268 479.3 562.9
573(21) 0.002268 479.3 562.9
597(22) 0.002066 479.3 563.0
599(22) 0.002066 479.4 563.2
607(22) 0.002066 479.4 563.4
593(22) 0.002066 479.4 563.7
582(22) 0.002066 479.5 564.1
590(22) 0.002066 479.5 564.5
556(21) 0.002268 479.5 565.1
607(22) 0.002066 479.6 565.6
613(22) 0.002066 479.6 566.3
547(21) 0.002268 479.6 567.0
621(22) 0.002066 479.7 567.7
620(22) 0.002066 479.7 568.5
567(21) 0.002268 479.7 569.4
582(22) 0.002066 479.7 570.3
546(21) 0.002268 479.8 571.2
577(21) 0.002268 479.8 572.2
617(22) 0.002066 479.8 573.2
606(22) 0.002066 479.8 574.3
582(22) 0.002066 479.9 575.4
608(31) 0.001041 479.9 576.5
610(22) 0.002066 479.9 577.7
615(22) 0.002066 479.9 578.9
619(22) 0.002066 480.0 580.1
614(22) 0.002066 480.0 581.3
622(22) 0.002066 480.0 582.5
600(21) 0.002268 480.0 583.7
615(22) 0.002066 480.0 584.8
626(22) 0.002066 480.1 586.0
621(22) 0.002066 480.1 587.2
621(22) 0.002066 480.1 588.3
603(22) 0.002066 480.1 589.4
602(22) 0.002066 480.1 590.5
595(21) 0.002268 480.1 591.5
625(22) 0.002066 480.1 592.5
615(22) 0.002066 480.2 593.5
608(22) 0.002066 480.2 594.4
594(21) 0.002268 480.2 595.2
624(22) 0.002066 480.2 596.0
579(21) 0.002268 480.2 596.8
633(22) 0.002066 480.2 597.5
628(22) 0.002066 480.2 598.2
613(22) 0.002066 480.2 598.8
603(22) 0.002066 480.2 599.4
633(22) 0.002066 480.2 600.0
631(22) 0.002066 480.2 600.5
606(22) 0.002066 480.2 601.0
641(22) 0.002066 480.2 601.4
623(22) 0.002066 480.2 601.8
649(22) 0.002066 480.2 602.2
644(22) 0.002066 480.2 602.6
645(22) 0.002066 480.2 603.0
609(22) 0.002066 480.2 603.3
633(22) 0.002066 480.2 603.7
633(22) 0.002066 480.2 604.0
597(21) 0.002268 480.2 604.3
618(22) 0.002066 480.2 604.5
622(22) 0.002066 480.2 604.8
620(22) 0.002066 480.2 605.0
636(22) 0.002066 480.2 605.2
608(22) 0.002066 480.2 605.4
617(22) 0.002066 480.2 605.6
645(22) 0.002066 480.2 605.7
601(22) 0.002066 480.2 605.8
638(22) 0.002066 480.2 605.9
621(22) 0.002066 480.2 606.0
572(21) 0.002268 480.1 606.1
636(22) 0.002066 480.1 606.1
660(23) 0.001890 480.1 606.1
619(22) 0.002066 480.1 606.1
661(23) 0.001890 480.1 606.0
659(23) 0.001890 480.1 605.9
618(22) 0.002066 480.0 605.9
646(22) 0.002066 480.0 605.8
637(22) 0.002066 480.0 605.7
642(22) 0.002066 480.0 605.5
652(22) 0.002066 480.0 605.4
670(23) 0.001890 479.9 605.3
667(23) 0.001890 479.9 605.1
642(22) 0.002066 479.9 605.0
640(22) 0.002066 479.9 604.8
632(22) 0.002066 479.9 604.6
623(22) 0.002066 479.8 604.4
653(22) 0.002066 479.8 604.2
668(23) 0.001890 479.8 604.0
634(22) 0.002066 479.7 603.8
663(23) 0.001890 479.7 603.6
643(22) 0.002066 479.7 603.4
652(22) 0.002066 479.7 603.2
662(23) 0.001890 479.6 603.0
662(23) 0.001890 479.6 602.7
650(22) 0.002066 479.6 602.5
650(22) 0.002066 479.5 602.3
621(22) 0.002066 479.5 602.1
645(22) 0.002066 479.4 601.8
649(22) 0.002066 479.4 601.6
636(22) 0.002066 479.4 601.4
624(22) 0.002066 479.3 601.2
640(22) 0.002066 479.3 601.0
651(22) 0.002066 479.3 600.8
619(22) 0.002066 479.2 600.7
645(22) 0.002066 479.2 600.6
688(23) 0.001890 479.1 600.4
662(23) 0.001890 479.1 600.4
633(22) 0.002066 479.0 600.3
643(22) 0.002066 479.0 600.2
609(22) 0.002066 479.0 600.2
645(22) 0.002066 478.9 600.2
648(22) 0.002066 478.9 600.3
647(22) 0.002066 478.8 600.4
628(22) 0.002066 478.8 600.4
619(22) 0.002066 478.7 600.6
633(22) 0.002066 478.7 600.7
636(22) 0.002066 478.6 600.8
652(22) 0.002066 478.6 601.0
624(22) 0.002066 478.5 601.2
647(22) 0.002066 478.4 601.4
646(22) 0.002066 478.4 601.5
641(22) 0.002066 478.3 601.7
627(22) 0.002066 478.3 601.9
630(18) 0.003086 478.2 602.1
643(22) 0.002066 478.2 602.2
653(22) 0.002066 478.1 602.4
660(23) 0.001890 478.0 602.5
631(22) 0.002066 478.0 602.6
654(22) 0.002066 477.9 602.7
635(22) 0.002066 477.9 602.8
621(22) 0.002066 477.8 602.8
626(22) 0.002066 477.7 602.8
646(22) 0.002066 477.7 602.7
641(22) 0.002066 477.6 602.6
636(22) 0.002066 477.5 602.5
618(22) 0.002066 477.5 602.4
606(22) 0.002066 477.4 602.2
643(22) 0.002066 477.3 601.9
633(22) 0.002066 477.3 601.7
633(22) 0.002066 477.2 601.4
630(22) 0.002066 477.1 601.0
630(22) 0.002066 477.1 600.7
646(22) 0.002066 477.0 600.3
645(22) 0.002066 476.9 599.9
620(22) 0.002066 476.8 599.5
609(22) 0.002066 476.8 599.1
650(22) 0.002066 476.7 598.6
639(22) 0.002066 476.6 598.2
616(22) 0.002066 476.5 597.7
587(21) 0.002268 476.5 597.3
592(21) 0.002268 476.4 596.8
653(22) 0.002066 476.3 596.4
641(22) 0.002066 476.2 596.0
608(22) 0.002066 476.2 595.5
675(23) 0.001890 476.1 595.1
636(22) 0.002066 476.0 594.7
642(22) 0.002066 475.9 594.4
619(22) 0.002066 475.8 594.0
634(22) 0.002066 475.7 593.6
603(22) 0.002066 475.7 593.3
603(22) 0.002066 475.6 593.0
612(22) 0.002066 475.5 592.7
614(22) 0.002066 475.4 592.4
592(21) 0.002268 475.3 592.1
592(21) 0.002268 475.2 591.8
610(22) 0.002066 475.2 591.6
599(21) 0.002268 475.1 591.3
619(22) 0.002066 475.0 591.1
620(22) 0.002066 474.9 590.9
638(22) 0.002066 474.8 590.7
649(22) 0.002066 474.7 590.4
618(22) 0.002066 474.6 590.2
597(21) 0.002268 474.5 590.0
590(21) 0.002268 474.4 589.8
606(22) 0.002066 474.4 589.6
646(22) 0.002066 474.3 589.4
621(22) 0.002066 474.2 589.2
635(22) 0.002066 474.1 589.0
611(22) 0.002066 474.0 588.7
625(22) 0.002066 473.9 588.5
613(22) 0.002066 473.8 588.2
606(22) 0.002066 473.7 588.0
620(22) 0.002066 473.6 587.7
615(22) 0.002066 473.5 587.4
599(21) 0.002268 473.4 587.1
586(21) 0.002268 473.3 586.8
585(21) 0.002268 473.2 586.4
616(22) 0.002066 473.1 586.0
619(22) 0.002066 473.0 585.7
602(22) 0.002066 472.9 585.2
631(22) 0.002066 472.8 584.8
618(22) 0.002066 472.7 584.3
613(22) 0.002066 472.7 583.8
612(22) 0.002066 472.6 583.2
638(22) 0.002066 472.5 582.7
606(22) 0.002066 472.4 582.1
606(22) 0.002066 472.3 581.4
604(22) 0.002066 472.2 580.8
606(22) 0.002066 472.1 580.1
576(21) 0.002268 472.0 579.3
594(21) 0.002268 471.9 578.6
587(21) 0.002268 471.8 577.8
598(21) 0.002268 471.7 577.0
595(21) 0.002268 471.6 576.2
606(22) 0.002066 471.5 575.4
613(22) 0.002066 471.4 574.5
625(22) 0.002066 471.3 573.7
601(22) 0.002066 471.2 572.8
615(22) 0.002066 471.1 572.0
611(22) 0.002066 471.0 571.1
605(22) 0.002066 470.9 570.3
580(21) 0.002268 470.8 569.4
572(21) 0.002268 470.7 568.6
580(21) 0.002268 470.6 567.8
618(22) 0.002066 470.5 567.0
635(22) 0.002066 470.4 566.2
620(22) 0.002066 470.3 565.4
612(22) 0.002066 470.2 564.7
588(21) 0.002268 470.0 564.0
577(21) 0.002268 469.9 563.3
588(21) 0.002268 469.8 562.6
596(21) 0.002268 469.7 562.0
601(22) 0.002066 469.6 561.4
584(21) 0.002268 469.5 560.8
591(22) 0.002066 469.4 560.3
598(22) 0.002066 469.3 559.8
583(22) 0.002066 469.2 559.3
558(21) 0.002268 469.1 558.8
567(21) 0.002268 469.1 558.4
595(22) 0.002066 469.0 558.0
585(22) 0.002066 468.9 557.6
594(22) 0.002066 468.8 557.2
626(22) 0.002066 468.7 556.9
582(22) 0.002066 468.6 556.5
567(21) 0.002268 468.5 556.2
603(22) 0.002066 468.4 556.0
601(22) 0.002066 468.3 555.7
549(21) 0.002268 468.2 555.5
563(21) 0.002268 468.1 555.2
581(22) 0.002066 468.0 555.0
563(21) 0.002268 467.9 554.8
547(21) 0.002268 467.8 554.6
574(21) 0.002268 467.7 554.4
559(21) 0.002268 467.6 554.2
545(21) 0.002268 467.5 554.1
550(21) 0.002268 467.4 553.9
569(21) 0.002268 467.3 553.7
584(22) 0.002066 467.2 553.6
579(22) 0.002066 467.1 553.4
590(22) 0.002066 467.1 553.3
578(22) 0.002066 467.0 553.2
578(22) 0.002066 466.9 553.0
568(21) 0.002268 466.8 552.9
596(22) 0.002066 466.7 552.8
550(21) 0.002268 466.6 552.7
555(21) 0.002268 466.5 552.5
564(21) 0.002268 466.4 552.4
549(21) 0.002268 466.4 552.3
574(21) 0.002268 466.3 552.2
590(22) 0.002066 466.2 552.1
584(22) 0.002066 466.1 552.1
568(21) 0.002268 466.0 552.0
587(22) 0.002066 466.0 551.9
574(21) 0.002268 465.9 551.9
583(22) 0.002066 465.8 551.9
575(22) 0.002066 465.7 551.9
584(22) 0.002066 465.7 551.9
545(21) 0.002268 465.6 551.9
583(22) 0.002066 465.5 551.9
579(22) 0.002066 465.4 551.9
558(21) 0.002268 465.4 552.0
564(21) 0.002268 465.3 552.1
596(22) 0.002066 465.2 552.2
596(22) 0.002066 465.2 552.3
573(21) 0.002268 465.1 552.4
564(21) 0.002268 465.0 552.6
568(21) 0.002268 465.0 552.8
574(21) 0.002268 464.9 553.0
560(21) 0.002268 464.8 553.2
593(22) 0.002066 464.8 553.4
563(21) 0.002268 464.7 553.6
573(21) 0.002268 464.7 553.9
581(22) 0.002066 464.6 554.2
606(22) 0.002066 464.6 554.5
617(22) 0.002066 464.5 554.8
568(21) 0.002268 464.5 555.2
558(21) 0.002268 464.4 555.5
573(21) 0.002268 464.4 555.9
553(21) 0.002268 464.3 556.3
568(21) 0.002268 464.3 556.7
568(21) 0.002268 464.2 557.1
594(22) 0.002066 464.2 557.5
571(21) 0.002268 464.1 558.0
575(22) 0.002066 464.1 558.4
575(22) 0.002066 464.1 558.9
586(22) 0.002066 464.0 559.3
543(21) 0.002268 464.0 559.8
560(21) 0.002268 464.0 560.2
605(22) 0.002066 463.9 560.7
631(23) 0.001890 463.9 561.1
584(22) 0.002066 463.9 561.5
590(22) 0.002066 463.9 562.0
588(22) 0.002066 463.8 562.4
574(21) 0.002268 463.8 562.8
583(22) 0.002066 463.8 563.2
592(22) 0.002066 463.8 563.5
615(22) 0.002066 463.8 563.9
640(23) 0.001890 463.8 564.2
605(22) 0.002066 463.8 564.5
596(22) 0.002066 463.8 564.8
594(22) 0.002066 463.8 565.0
594(22) 0.002066 463.8 565.2
607(22) 0.002066 463.8 565.4
629(23) 0.001890 463.8 565.5
612(22) 0.002066 463.8 565.6
601(22) 0.002066 463.8 565.7
621(22) 0.002066 463.8 565.7
613(22) 0.002066 463.8 565.8
586(22) 0.002066 463.8 565.7
602(22) 0.002066 463.8 565.7
623(22) 0.002066 463.9 565.6
650(23) 0.001890 463.9 565.4
610(22) 0.002066 463.9 565.3
586(22) 0.002066 463.9 565.1
578(22) 0.002066 464.0 564.9
587(22) 0.002066 464.0 564.6
572(22) 0.002066 464.0 564.4
586(22) 0.002066 464.1 564.1
603(22) 0.002066 464.1 563.8
558(21) 0.002268 464.2 563.4
571(22) 0.002066 464.2 563.1
586(22) 0.002066 464.3 562.8
580(22) 0.002066 464.3 562.4
567(22) 0.002066 464.4 562.0
547(21) 0.002268 464.4 561.6
588(22) 0.002066 464.5 561.3
632(23) 0.001890 464.6 560.9
600(22) 0.002066 464.7 560.5
585(22) 0.002066 464.7 560.1
553(21) 0.002268 464.8 559.7
593(22) 0.002066 464.9 559.4
582(22) 0.002066 465.0 559.0
580(22) 0.002066 465.1 558.7
582(22) 0.002066 465.1 558.4
590(22) 0.002066 465.2 558.1
593(22) 0.002066 465.3 557.8
573(22) 0.002066 465.4 557.5
565(22) 0.002066 465.5 557.2
556(21) 0.002268 465.7 557.0
554(21) 0.002268 465.8 556.8
603(22) 0.002066 465.9 556.6
609(22) 0.002066 466.0 556.4
604(22) 0.002066 466.1 556.3
575(22) 0.002066 466.3 556.2
572(22) 0.002066 466.4 556.1
614(22) 0.002066 466.5 556.1
614(22) 0.002066 466.7 556.0
598(22) 0.002066 466.8 556.0
582(22) 0.002066 466.9 556.1
601(22) 0.002066 467.1 556.1
615(23) 0.001890 467.3 556.2
607(22) 0.002066 467.4 556.4
561(22) 0.002066 467.6 556.5
573(22) 0.002066 467.7 556.7
592(22) 0.002066 467.9 556.9
575(22) 0.002066 468.1 557.2
622(23) 0.001890 468.3 557.4
612(22) 0.002066 468.5 557.7
625(23) 0.001890 468.7 558.1
612(22) 0.002066 468.8 558.4
595(22) 0.002066 469.0 558.8
604(22) 0.002066 469.2 559.2
605(22) 0.002066 469.5 559.7
590(22) 0.002066 469.7 560.2
577(22) 0.002066 469.9 560.6
614(22) 0.002066 470.1 561.2
618(23) 0.001890 470.3 561.7
605(22) 0.002066 470.6 562.2
602(22) 0.002066 470.8 562.8
621(23) 0.001890 471.0 563.4
631(23) 0.001890 471.3 564.0
629(23) 0.001890 471.5 564.6
627(23) 0.001890 471.8 565.3
589(22) 0.002066 472.1 565.9
593(22) 0.002066 472.3 566.6
622(23) 0.001890 472.6 567.3
618(23) 0.001890 472.9 568.0
581(22) 0.002066 473.2 568.6
606(22) 0.002066 473.4 569.3
601(22) 0.002066 473.7 570.0
600(22) 0.002066 474.0 570.7
607(22) 0.002066 474.3 571.4
634(23) 0.001890 474.7 572.1
637(23) 0.001890 475.0 572.8
628(23) 0.001890 475.3 573.5
606(22) 0.002066 475.6 574.2
624(23) 0.001890 475.9 574.9
623(23) 0.001890 476.3 575.6
631(23) 0.001890 476.6 576.2
630(23) 0.001890 477.0 576.9
644(23) 0.001890 477.3 577.5
608(22) 0.002066 477.7 578.2
625(23) 0.001890 478.1 578.8
646(23) 0.001890 478.4 579.4
624(23) 0.001890 478.8 580.0
616(23) 0.001890 479.2 580.6
611(22) 0.002066 479.6 581.2
616(23) 0.001890 480.0 581.7
637(23) 0.001890 480.4 582.3
639(23) 0.001890 480.8 582.8
624(23) 0.001890 481.2 583.3
610(22) 0.002066 481.6 583.8
622(23) 0.001890 482.1 584.3
602(22) 0.002066 482.5 584.8
588(22) 0.002066 482.9 585.3
597(22) 0.002066 483.4 585.7
615(23) 0.001890 483.9 586.2
594(22) 0.002066 484.3 586.6
609(22) 0.002066 484.8 587.0
613(22) 0.002066 485.3 587.4
587(22) 0.002066 485.7 587.9
615(23) 0.001890 486.2 588.2
624(23) 0.001890 486.7 588.6
615(18) 0.003086 487.2 589.0
627(23) 0.001890 487.7 589.4
593(22) 0.002066 488.3 589.8
627(23) 0.001890 488.8 590.1
633(23) 0.001890 489.3 590.5
625(23) 0.001890 489.9 590.9
648(23) 0.001890 490.4 591.3
652(23) 0.001890 491.0 591.6
617(23) 0.001890 491.5 592.0
637(23) 0.001890 492.1 592.4
629(23) 0.001890 492.7 592.7
601(22) 0.002066 493.2 593.1
618(23) 0.001890 493.8 593.5
626(23) 0.001890 494.4 593.9
642(23) 0.001890 495.0 594.3
656(23) 0.001890 495.6 594.7
638(23) 0.001890 496.3 595.1
629(23) 0.001890 496.9 595.6
632(23) 0.001890 497.5 596.0
624(23) 0.001890 498.2 596.4
626(23) 0.001890 498.8 596.9
613(23) 0.001890 499.5 597.4
607(23) 0.001890 500.2 597.9
626(23) 0.001890 500.8 598.4
626(23) 0.001890 501.5 598.9
625(23) 0.001890 502.2 599.4
640(23) 0.001890 502.9 600.0
645(23) 0.001890 503.6 600.6
627(23) 0.001890 504.3 601.1
622(23) 0.001890 505.1 601.8
649(23) 0.001890 505.8 602.4
654(23) 0.001890 506.5 603.0
639(23) 0.001890 507.3 603.7
638(23) 0.001890 508.1 604.4
666(24) 0.001736 508.8 605.1
655(23) 0.001890 509.6 605.8
651(23) 0.001890 510.4 606.6
628(23) 0.001890 511.2 607.4
636(23) 0.001890 512.0 608.2
649(23) 0.001890 512.8 609.0
669(24) 0.001736 513.6 609.9
661(23) 0.001890 514.5 610.7
651(23) 0.001890 515.3 611.6
670(24) 0.001736 516.1 612.5
679(24) 0.001736 517.0 613.5
676(24) 0.001736 517.9 614.5
633(23) 0.001890 518.8 615.4
642(23) 0.001890 519.6 616.5
683(24) 0.001736 520.5 617.5
666(24) 0.001736 521.4 618.6
642(23) 0.001890 522.4 619.6
657(23) 0.001890 523.3 620.7
652(23) 0.001890 524.2 621.9
653(23) 0.001890 525.1 623.0
655(23) 0.001890 526.1 624.2
655(23) 0.001890 527.1 625.4
672(24) 0.001736 528.0 626.6
689(24) 0.001736 529.0 627.9
661(23) 0.001890 530.0 629.2
628(23) 0.001890 531.0 630.5
660(23) 0.001890 532.0 631.8
630(23) 0.001890 533.0 633.1
647(23) 0.001890 534.1 634.5
670(24) 0.001736 535.1 635.9
651(23) 0.001890 536.2 637.3
659(23) 0.001890 537.2 638.7
677(24) 0.001736 538.3 640.2
675(24) 0.001736 539.4 641.7
676(24) 0.001736 540.5 643.2
671(24) 0.001736 541.6 644.7
674(24) 0.001736 542.7 646.2
704(24) 0.001736 543.8 647.8
696(24) 0.001736 544.9 649.4
695(24) 0.001736 546.1 651.0
718(24) 0.001736 547.2 652.6
711(24) 0.001736 548.4 654.2
710(24) 0.001736 549.6 655.9
694(24) 0.001736 550.8 657.5
682(24) 0.001736 552.0 659.2
684(24) 0.001736 553.2 661.0
681(24) 0.001736 554.4 662.7
680(24) 0.001736 555.6 664.4
680(24) 0.001736 556.9 666.2
697(24) 0.001736 558.1 668.0
687(24) 0.001736 559.4 669.7
687(24) 0.001736 560.6 671.5
697(24) 0.001736 561.9 673.3
710(24) 0.001736 563.2 675.2
715(24) 0.001736 564.5 677.0
706(24) 0.001736 565.8 678.9
712(24) 0.001736 567.2 680.7
735(25) 0.001600 568.5 682.6
715(24) 0.001736 569.9 684.5
711(24) 0.001736 571.2 686.3
717(24) 0.001736 572.6 688.2
738(25) 0.001600 574.0 690.1
745(25) 0.001600 575.4 692.0
705(24) 0.001736 576.8 693.9
697(24) 0.001736 578.2 695.8
715(24) 0.001736 579.7 697.7
725(25) 0.001600 581.1 699.6
744(25) 0.001600 582.6 701.6
755(25) 0.001600 584.0 703.5
781(26) 0.001479 585.5 705.4
756(25) 0.001600 587.0 707.3
768(26) 0.001479 588.5 709.2
771(26) 0.001479 590.0 711.1
719(25) 0.001600 591.5 713.1
700(25) 0.001600 593.1 715.0
748(25) 0.001600 594.6 716.9
735(25) 0.001600 596.2 718.8
767(26) 0.001479 597.8 720.7
749(25) 0.001600 599.4 722.6
745(25) 0.001600 601.0 724.4
760(26) 0.001479 602.6 726.3
761(26) 0.001479 604.2 728.2
754(25) 0.001600 605.8 730.1
758(25) 0.001600 607.5 731.9
795(26) 0.001479 609.1 733.8
766(26) 0.001479 610.8 735.6
785(26) 0.001479 612.5 737.5
789(26) 0.001479 614.2 739.3
805(26) 0.001479 615.9 741.1
782(26) 0.001479 617.6 742.9
794(26) 0.001479 619.4 744.7
778(26) 0.001479 621.1 746.5
774(26) 0.001479 622.9 748.3
812(26) 0.001479 624.6 750.1
823(27) 0.001372 626.4 751.9
803(26) 0.001479 628.2 753.6
835(27) 0.001372 630.0 755.4
815(26) 0.001479 631.9 757.1
788(26) 0.001479 633.7 758.9
774(26) 0.001479 635.6 760.6
766(26) . . .
788(26) . . .
813(26) . . .
806(26) . . .
821(26) . . .
813(26) . . .
833(27) . . .
822(27) . . .
809(26) . . .
816(26) . . .
832(27) . . .
839(27) . . .
844(27) . . .
823(27) . . .
837(27) . . .
822(26) . . .
818(26) . . .
862(27) . . .
829(27) . . .
813(26) . . .
823(27) . . .
846(27) . . .
874(27) . . .
813(26) . . .
862(27) . . .
852(27) . . .
852(27) . . .
835(27) . . .
895(28) . . .
906(28) . . .
885(27) . . .
838(27) . . .
854(27) . . .
868(27) . . .
890(27) . . .
840(27) . . .
863(27) . . .
870(27) . . .
899(28) . . .
889(28) . . .
852(27) . . .
888(27) . . .
927(28) . . .
917(28) . . .
925(28) . . .
865(27) . . .
863(27) . . .
940(28) . . .
942(28) . . .
898(28) . . .
903(28) . . .
954(28) . . .
939(28) . . .
946(28) . . .
927(28) . . .
912(28) . . .
922(28) . . .
937(28) . . .
967(29) . . .
974(29) . . .
980(29) . . .
942(28) . . .
917(28) . . .
959(28) . . .
959(29) . . .
997(29) . . .
952(41) . . .
905(40) . . .
899(40) . . .
959(41) . . .
943(41) . . .
988(42) . . .
914(40) . . .
984(42) . . .
998(42) . . .
917(40) . . .
969(41) . . .
1071(43) . . .
983(41) . . .
993(42) . . .
1000(42) . . .
1006(42) . . .
966(41) . . .
964(41) . . .
1036(43) . . .
1006(42) . . .
1011(42) . . .
992(42) . . .
1020(42) . . .
1006(42) . . .
1029(42) . . .
1070(43) . . .
1086(43) . . .
1039(43) . . .
1079(43) . . .
1090(44) . . .
1034(42) . . .
1046(43) . . .
1034(42) . . .
1016(42) . . .
1049(43) . . .
1088(43) . . .
1075(43) . . .
1075(43) . . .
1061(43) . . .
1066(43) . . .
1075(43) . . .
1080(43) . . .
1044(43) . . .
1076(43) . . .
1024(42) . . .
1078(43) . . .
1157(45) . . .
1133(44) . . .
1075(43) . . .
1157(45) . . .
1208(46) . . .
1229(46) . . .
1115(44) . . .
1095(44) . . .
1079(43) . . .
1124(44) . . .
1087(43) . . .
1181(45) . . .
1104(44) . . .
1114(44) . . .
1197(45) . . .
1124(44) . . .
1117(44) . . .
1088(43) . . .
1154(45) . . .
1139(44) . . .
1144(45) . . .
1178(45) . . .
1129(44) . . .
1130(44) . . .
1210(46) . . .
1176(45) . . .
1149(45) . . .
1161(45) . . .
1139(44) . . .
1179(45) . . .
1197(45) . . .
1138(44) . . .
1177(45) . . .
1127(44) . . .
1186(45) . . .
1160(45) . . .
1201(46) . . .
1221(46) . . .
1198(45) . . .
1204(46) . . .
1191(45) . . .
1204(46) . . .
1164(45) . . .
1183(45) . . .
1207(46) . . .
1195(45) . . .
1212(46) . . .
1178(45) . . .
1200(46) . . .
1166(45) . . .
1192(45) . . .
1220(46) . . .
1251(46) . . .
1196(45) . . .
loop_
_refln_index_h
_refln_index_k
_refln_index_l
_refln_observed_status
_refln_F_squared_meas
_refln_F_squared_calc
_refln_phase_calc
_refln_d_spacing
_gsas_i100_meas
1 1 0 o 1667.941 1653.024 180.00 12.88799 100.00
3 0 0 o 526.174 500.180 0.19 7.44088 10.58
1 0 1 o 97.014 94.685 52.20 6.46493 1.48
2 2 0 o 30.249 29.831 -180.00 6.44399 0.46
2 0 -1 o 438.769 424.643 147.85 5.77865 5.36
2 1 1 o 19.932 19.616 14.67 5.27288 0.41
4 1 0 o 44.161 47.458 63.56 4.87120 0.77
3 1 -1 o 102.307 108.688 -29.13 4.56398 1.57
4 0 1 o 587.739 590.346 -97.32 4.30218 4.03
3 3 0 o 161.878 158.008 180.00 4.29600 1.11
3 2 1 o 77.725 90.742 166.27 4.08082 0.96
5 0 -1 o 143.361 139.487 18.36 3.72446 0.75
6 0 0 o 444.656 429.519 -50.52 3.72044 2.31
4 2 -1 o 301.983 285.993 -168.79 3.57805 2.91
5 2 0 o 99.099 93.089 -57.64 3.57449 0.95
5 1 1 o 501.211 490.237 54.97 3.44765 4.50
1 0 -2 o 233.862 212.063 14.91 3.33920 0.99
2 0 2 o 7.156 6.411 -148.86 3.23247 0.03
4 3 1 o 223.498 205.028 -33.06 3.22461 1.77
4 4 0 o 0.172 0.158 0.00 3.22200 0.00
2 1 -2 o 360.931 344.423 -160.57 3.13535 2.71
6 1 -1 o 8.471 7.408 47.82 3.03991 0.06
3 1 2 o 49.338 47.903 35.47 2.96479 0.33
7 1 0 o 978.431 959.471 129.04 2.95671 6.57
4 0 -2 o 786.363 762.089 39.94 2.88933 2.53
7 0 1 o 491.982 477.746 -136.04 2.88371 1.58
5 3 -1 o 27.614 26.815 100.04 2.88371 0.18
3 2 -2 o 63.594 63.385 149.13 2.81934 0.39
6 2 1 o 467.384 462.285 -169.27 2.81412 2.87
6 3 0 o 184.155 181.752 -94.47 2.81239 1.13
5 0 2 o 453.262 400.452 -8.61 2.69340 1.28
4 2 2 o 21.908 21.327 -164.26 2.63644 0.12
5 4 1 o 308.105 300.854 55.78 2.63217 1.67
5 1 -2 o 241.695 233.856 -77.44 2.58295 1.27
8 0 -1 o 279.874 269.573 -16.81 2.57893 0.73
5 5 0 o 83.578 80.362 0.00 2.57760 0.22
7 2 -1 o 395.002 380.551 -175.79 2.52880 1.99
4 3 -2 o 29.151 30.834 0.74 2.48506 0.14
9 0 0 o 621.418 668.250 -30.81 2.48029 1.51
8 1 1 o 236.865 245.648 -1.46 2.43673 1.12
8 2 0 o 54.820 56.661 -72.17 2.43560 0.26
6 1 2 o 19.014 20.028 -146.43 2.39752 0.09
6 4 -1 o 255.866 269.803 17.79 2.39431 1.17
7 3 1 o 50.535 52.810 -3.93 2.35403 0.22
7 0 -2 o 1648.391 1615.477 86.39 2.31862 3.57
5 3 2 o 427.111 418.583 -166.39 2.31862 1.85
7 4 0 o 66.113 64.520 54.21 2.31475 0.29
6 2 -2 o 186.259 182.858 -143.70 2.28199 0.78
0 0 3 o 2379.087 2241.134 109.25 2.25147 1.63
1 1 3 o 220.708 199.635 -53.17 2.21788 0.88
9 1 -1 o 116.495 104.937 0.88 2.21111 0.46
6 5 1 o 151.710 136.658 -131.20 2.21111 0.60
5 4 -2 o 446.919 405.500 -45.00 2.18170 1.74
3 0 -3 o 313.091 279.652 129.71 2.15498 0.60
3 0 3 o 147.951 132.150 -149.65 2.15498 0.28
8 0 2 o 23.525 20.917 148.80 2.15109 0.04
8 3 -1 o 84.683 75.074 -165.65 2.14877 0.32
6 6 0 o 152.606 135.146 180.00 2.14800 0.29
2 2 3 o 477.266 421.052 110.46 2.12547 1.78
7 2 2 o 261.063 231.414 64.31 2.12174 0.97
10 0 1 o 395.917 351.762 48.54 2.11951 0.73
10 1 0 o 23.540 20.930 74.98 2.11877 0.09
9 2 1 o 779.726 717.346 -166.12 2.09142 2.83
8 1 -2 o 525.637 483.911 -100.65 2.06647 1.87
9 3 0 o 62.313 57.344 -167.74 2.06373 0.22
4 1 -3 o 367.194 338.623 1.63 2.04373 1.28
4 1 3 o 173.655 160.144 -15.92 2.04373 0.61
6 4 2 o 698.235 649.591 -45.00 2.04041 2.43
7 5 -1 o 210.049 196.581 -160.71 2.03843 0.73
7 3 -2 o 819.661 787.159 91.78 2.01531 2.80
8 4 1 o 106.010 101.695 95.91 2.01340 0.36
3 3 3 o 296.373 287.844 -135.58 1.99420 0.99
8 5 0 o 74.439 72.152 141.40 1.96540 0.24
11 0 -1 o 162.974 141.802 35.62 1.94351 0.26
6 0 3 o 119.472 106.933 101.69 1.92622 0.19
6 0 -3 o 88.459 79.176 -110.83 1.92622 0.14
9 1 2 o 84.213 76.609 -38.03 1.92344 0.27
6 5 -2 o 198.060 180.175 -128.66 1.92344 0.63
10 2 -1 o 277.811 255.259 -172.87 1.92178 0.88
5 2 3 o 70.591 69.043 80.45 1.90506 0.22
5 2 -3 o 279.783 273.647 -168.04 1.90506 0.87
7 6 1 o 47.775 46.541 -22.31 1.90076 0.15
8 3 2 o 393.363 363.690 -163.49 1.88198 1.20
10 0 -2 o 1327.975 1283.023 56.70 1.86223 2.00
9 4 -1 o 141.007 136.618 -8.30 1.86072 0.42
11 1 1 o 84.053 81.437 3.06 1.86072 0.25
12 0 0 o 341.398 330.998 -162.99 1.86022 0.51
4 4 3 o 28.501 27.293 0.22 1.84553 0.08
9 2 -2 o 152.994 146.922 -87.30 1.84309 0.45
11 2 0 o 11.129 10.721 20.49 1.84114 0.03
7 7 0 o 128.931 124.204 0.00 1.84114 0.19
10 3 1 o 122.586 119.440 -38.95 1.82311 0.36
7 5 2 o 143.539 135.289 98.86 1.80651 0.41
7 1 3 o 314.935 293.943 -119.18 1.79126 0.89
7 1 -3 o 59.375 55.418 46.29 1.79126 0.17
8 4 -2 o 13.572 12.719 36.89 1.78902 0.04
10 4 0 o 149.394 140.275 -8.87 1.78724 0.42
8 6 -1 o 211.363 192.920 15.38 1.77073 0.59
6 3 -3 o 75.032 64.534 41.35 1.75763 0.21
6 3 3 o 22.897 19.694 -25.39 1.75763 0.06
9 5 1 o 38.571 32.854 -25.04 1.75425 0.11
11 0 2 o 605.089 511.948 132.44 1.73945 0.82
10 2 2 o 297.969 260.218 -27.76 1.72382 0.80
12 1 -1 o 46.418 40.613 -146.64 1.72263 0.12
7 6 -2 o 100.838 90.364 156.81 1.70861 0.27
9 6 0 o 64.896 58.037 -35.47 1.70706 0.17
5 5 3 o 197.002 170.431 66.71 1.69568 0.52
11 3 -1 o 337.308 289.761 29.86 1.69265 0.88
1 0 4 o 44.601 38.279 -86.83 1.68379 0.06
11 1 -2 o 352.195 305.826 -133.07 1.67935 0.91
9 4 2 o 89.393 77.624 53.69 1.67935 0.23
2 0 -4 o 158.936 140.809 0.37 1.66960 0.20
9 0 -3 o 184.857 164.700 42.42 1.66707 0.24
9 0 3 o 364.534 324.784 58.42 1.66707 0.47
8 7 1 o 280.453 251.768 155.53 1.66419 0.72
13 0 1 o 316.999 284.575 -110.51 1.66419 0.40
2 1 4 o 187.783 172.508 136.89 1.65577 0.48
8 2 -3 o 389.533 359.325 -109.34 1.65330 0.98
8 2 3 o 90.404 83.393 81.53 1.65330 0.23
10 3 -2 o 37.957 35.072 96.96 1.65154 0.10
12 2 1 o 701.717 648.642 138.86 1.65049 1.77
13 1 0 o 161.743 149.514 30.23 1.65014 0.41
10 5 -1 o 18.359 16.485 144.55 1.63712 0.05
3 1 -4 o 67.194 60.207 162.41 1.62909 0.17
12 3 0 o 238.177 214.980 -160.67 1.62373 0.59
4 0 4 o 186.570 169.753 -53.33 1.61623 0.23
7 4 -3 o 486.916 444.339 118.12 1.61394 1.19
7 4 3 o 138.042 125.972 -117.06 1.61394 0.34
8 6 2 o 103.864 95.051 -71.57 1.61230 0.25
11 4 1 o 67.636 62.018 -39.56 1.61132 0.17
8 8 0 o 257.628 236.385 -180.00 1.61100 0.31
3 2 4 o 165.797 154.072 -16.76 1.60367 0.40
9 5 -2 o 32.838 30.543 -33.61 1.59983 0.08
5 0 -4 o 549.585 496.458 -3.59 1.57940 0.65
4 2 -4 o 45.588 41.796 -174.26 1.56768 0.11
12 1 2 o 33.613 30.279 169.25 1.57574 0.08
11 5 0 o 204.368 184.295 131.31 1.57452 0.49
9 7 -1 o 248.233 229.448 -131.19 1.56320 0.58
5 1 4 o 154.818 143.432 95.96 1.55621 0.36
6 6 3 o 46.235 42.781 61.97 1.55416 0.11
11 3 2 o 391.904 361.773 -154.40 1.55270 0.91
10 6 1 o 14.848 13.678 30.62 1.55182 0.03
14 0 -1 o 593.568 546.796 21.78 1.55182 0.69
10 1 3 o 223.904 201.372 -81.79 1.54298 0.52
10 1 -3 o 28.312 25.463 127.59 1.54298 0.07
13 2 -1 o 322.879 289.927 -150.08 1.54069 0.75
4 3 4 o 356.523 319.168 -162.52 1.53400 0.82
13 0 -2 o 393.706 350.329 50.78 1.53064 0.45
8 7 -2 o 52.138 46.393 -29.99 1.53064 0.12
6 1 -4 o 47.155 40.888 172.90 1.51272 0.11
9 3 -3 o 29.830 25.694 -58.13 1.52133 0.07
9 3 3 o 173.657 149.578 127.39 1.52133 0.40
10 5 2 o 291.163 254.289 29.98 1.50950 0.66
12 2 -2 o 27.147 23.326 87.59 1.51996 0.06
12 4 -1 o 166.276 145.380 -136.73 1.50869 0.38
10 7 0 o 121.876 106.592 -40.16 1.50843 0.28
14 1 1 o 415.649 359.832 -2.78 1.49846 0.93
5 3 -4 o 145.734 125.140 -30.97 1.49230 0.33
7 0 4 o 506.122 434.602 -92.82 1.49230 0.56
11 4 -2 o 76.739 65.986 -23.27 1.48920 0.17
15 0 0 o 91.319 78.608 -94.54 1.48818 0.10
6 2 4 o 17.014 14.703 -50.32 1.48240 0.04
8 5 3 o 68.800 59.409 38.52 1.48062 0.15
8 5 -3 o 96.347 83.197 -20.02 1.48062 0.21
9 8 1 o 317.036 273.303 -63.92 1.47861 0.70
13 3 1 o 335.154 288.923 -97.99 1.47861 0.74
14 2 0 o 36.913 31.813 -124.97 1.47835 0.08
11 6 -1 o 320.476 284.001 69.07 1.45952 0.70
5 4 4 o 241.056 215.790 0.43 1.45383 0.52
9 7 2 o 153.845 138.099 171.60 1.45096 0.33
13 4 0 o 509.680 457.457 20.53 1.45001 1.11
8 0 -4 o 25.542 22.753 -140.22 1.44466 0.03
10 6 -2 o 27.087 24.033 -153.29 1.44185 0.06
14 0 2 o 654.185 580.437 -35.10 1.44185 0.71
12 5 1 o 727.271 644.703 110.75 1.44115 1.57
7 2 -4 o 27.023 23.671 93.13 1.43567 0.06
12 0 3 o 332.545 289.631 100.62 1.43406 0.36
12 0 -3 o 55.465 48.307 -56.48 1.43406 0.06
13 2 2 o 351.872 305.179 41.31 1.43291 0.75
9 9 0 o 1.444 1.248 0.00 1.43200 0.00
8 1 4 o 451.112 397.619 58.78 1.41818 0.96
11 2 -3 o 37.160 32.007 142.10 1.42527 0.08
11 2 3 o 17.658 15.210 163.68 1.42527 0.04
7 7 3 o 463.881 399.559 -152.93 1.42527 0.99
6 4 -4 o 127.940 113.422 178.42 1.40967 0.27
12 4 2 o 26.853 23.922 -140.72 1.40706 0.06
15 1 -1 o 21.919 19.561 -144.19 1.40641 0.05
12 6 0 o 556.490 496.951 -132.03 1.40619 1.18
7 3 4 o 837.307 764.930 -179.26 1.40131 1.76
10 4 3 o 448.352 413.763 -61.33 1.39982 0.94
10 4 -3 o 14.125 13.035 0.59 1.39982 0.03
14 1 -2 o 63.624 59.182 -121.27 1.39875 0.13
10 8 -1 o 45.364 42.403 -114.37 1.39811 0.10
9 8 -2 o 33.291 31.720 99.04 1.38256 0.07
13 3 -2 o 15.410 14.683 -154.82 1.38256 0.03
11 7 1 o 285.908 278.300 -91.79 1.38996 0.60
14 3 -1 o 333.264 324.395 40.60 1.38996 0.70
9 1 -4 o 66.750 59.208 -51.81 1.36931 0.14
6 5 4 o 492.047 436.449 5.18 1.36931 1.02
11 6 2 o 178.107 158.686 -131.44 1.36692 0.37
16 0 1 o 275.075 245.288 -172.11 1.36632 0.28
9 6 3 o 10.555 9.333 87.34 1.36027 0.02
9 6 -3 o 21.101 18.658 -28.71 1.36027 0.04
13 5 -1 o 26.863 23.578 -134.97 1.35871 0.06
15 2 1 o 355.585 312.093 120.75 1.35871 0.73
1 0 -5 o 5.956 4.866 -146.31 1.34841 0.01
10 0 4 o 2658.882 2148.920 -151.45 1.34670 2.73
8 3 -4 o 70.636 60.119 60.26 1.35411 0.15
12 5 -2 o 74.140 62.051 127.01 1.35180 0.15
16 1 0 o 85.515 71.172 112.15 1.35103 0.18
11 8 0 o 306.911 255.433 106.26 1.35103 0.63
2 0 5 o 94.877 75.705 32.73 1.34109 0.10
9 2 4 o 1755.764 1408.341 -15.54 1.33941 3.59
14 4 1 o 171.966 140.245 -26.97 1.33661 0.35
15 3 0 o 58.322 47.626 -115.59 1.33642 0.12
2 1 -5 o 62.344 51.837 80.92 1.33389 0.13
13 1 3 o 72.058 60.829 -79.05 1.33094 0.15
13 1 -3 o 21.758 18.368 79.88 1.33094 0.04
10 9 1 o 493.458 418.326 73.86 1.32948 1.01
3 1 5 o 167.688 143.177 177.00 1.31983 0.34
8 4 4 o 500.684 427.924 160.23 1.31822 1.02
12 3 -3 o 26.202 22.411 -97.01 1.31697 0.05
12 3 3 o 32.199 27.541 72.30 1.31697 0.07
7 5 -4 o 86.944 74.072 -148.94 1.32517 0.18
10 8 2 o 240.945 206.177 2.00 1.31608 0.49
12 7 -1 o 212.955 182.263 -77.67 1.31555 0.43
15 1 2 o 401.723 342.520 161.86 1.32300 0.82
4 0 -5 o 161.045 137.762 -139.36 1.31296 0.16
8 8 3 o 288.879 245.685 58.92 1.31015 0.59
11 7 -2 o 6.784 5.752 174.15 1.30928 0.01
14 3 2 o 210.819 178.732 -108.75 1.30928 0.43
14 5 0 o 49.226 41.614 95.31 1.30858 0.10
3 2 -5 o 113.401 94.782 -35.93 1.30620 0.23
13 6 1 o 87.475 71.865 -41.37 1.30206 0.18
5 0 5 o 651.793 540.571 31.38 1.29299 0.66
10 2 -4 o 30.307 25.293 -154.32 1.29147 0.06
11 5 3 o 278.727 233.716 102.92 1.29030 0.56
11 5 -3 o 3.170 2.658 -14.70 1.29030 0.01
11 0 -4 o 183.975 150.638 102.42 1.29801 0.19
16 0 -2 o 332.180 279.402 17.75 1.28947 0.34
17 0 -1 o 382.540 322.317 93.69 1.28897 0.39
10 10 0 o 419.628 353.760 0.00 1.28880 0.42
4 2 5 o 250.767 212.743 -88.97 1.28653 0.51
7 6 4 o 181.074 154.137 -110.62 1.28504 0.37
15 2 -2 o 69.247 59.196 -176.69 1.28306 0.14
13 5 2 o 355.945 304.282 59.50 1.28306 0.72
16 2 -1 o 156.157 133.626 -115.02 1.28257 0.32
5 1 -5 o 235.851 202.539 24.68 1.28017 0.48
13 7 0 o 502.459 428.709 23.32 1.26989 1.01
4 3 -5 o 517.876 442.368 -159.38 1.26772 1.05
9 4 -4 o 33.961 28.985 -6.32 1.27245 0.07
11 1 4 o 524.431 447.598 85.57 1.27245 1.06
14 4 -2 o 121.809 104.083 -8.47 1.26440 0.25
15 4 -1 o 133.001 113.615 -80.53 1.26393 0.27
11 9 -1 o 464.091 396.445 105.60 1.26393 0.94
10 3 4 o 285.784 242.803 -136.05 1.26023 0.58
10 9 -2 o 31.138 26.337 -96.04 1.25836 0.06
12 8 1 o 311.267 262.960 171.59 1.25789 0.63
20 0 2 o 1260.164 954.811 -32.07 1.05976 2.59
13 11 -1 o 220.358 166.966 64.01 1.05948 0.91
20 2 0 o 371.248 281.298 75.80 1.05939 1.54
6 1 5 o 100.787 84.682 163.19 1.25563 0.20
12 7 2 o 71.325 59.025 117.93 1.24653 0.14
10 7 -3 o 344.563 288.088 127.01 1.25317 0.70
10 7 3 o 306.907 256.605 -83.60 1.25317 0.62
17 1 1 o 113.357 94.554 -22.26 1.25195 0.23
5 3 5 o 321.202 266.223 4.80 1.24388 0.65
7 0 -5 o 1204.764 998.549 -154.86 1.24388 1.22
8 6 -4 o 10.708 8.894 -114.16 1.24253 0.02
13 0 -5 o 560.551 424.304 179.99 1.06171 1.11
8 7 -5 o 67.469 51.070 117.71 1.06171 0.27
15 0 3 o 139.632 116.198 67.80 1.24149 0.14
15 0 -3 o 56.402 46.936 22.85 1.24149 0.06
16 3 1 o 137.248 114.440 -107.07 1.24030 0.28
18 0 0 o 233.641 194.857 -19.96 1.24015 0.24
14 4 4 o 301.908 228.660 -165.54 1.06087 1.21
6 2 -5 o 142.834 119.381 46.47 1.23812 0.29
9 5 4 o 905.518 757.489 25.27 1.23680 1.84
14 2 3 o 7.050 5.902 6.18 1.23577 0.01
14 2 -3 o 122.166 102.261 -84.57 1.23577 0.25
13 6 -2 o 10.102 8.461 -110.32 1.23503 0.02
14 6 -1 o 294.712 246.925 94.94 1.23459 0.60
17 2 0 o 75.748 63.475 169.55 1.23445 0.15
4 4 6 o 84.926 64.191 48.74 1.06274 0.33
12 1 -4 o 16.565 14.280 -62.33 1.22556 0.03
17 0 2 o 313.040 271.456 -49.71 1.22384 0.32
12 9 0 o 959.381 832.905 -141.63 1.22327 1.96
11 3 -4 o 64.764 54.209 -158.61 1.21463 0.13
5 4 -5 o 72.083 62.574 96.35 1.22133 0.15
12 11 -2 o 141.187 106.580 -20.47 1.06336 0.54
15 9 0 o 131.350 99.226 -41.98 1.06298 0.51
21 0 0 o 217.677 164.440 -80.96 1.06298 0.42
13 4 -3 o 230.235 198.297 125.12 1.21907 0.47
13 4 3 o 357.017 307.491 -152.78 1.21907 0.73
16 2 2 o 209.150 179.451 18.62 1.21836 0.43
15 5 1 o 125.855 107.716 112.34 1.21794 0.26
16 4 0 o 129.904 111.086 12.05 1.21780 0.27
7 2 5 o 449.606 367.584 -153.92 1.21051 0.92
8 0 5 o 214.446 181.055 12.14 1.21588 0.22
9 9 3 o 31.702 25.710 139.42 1.20831 0.07
11 10 1 o 451.234 364.542 -13.70 1.20721 0.93
8 1 -5 o 142.672 112.069 30.07 1.19997 0.30
12 2 4 o 777.998 608.650 -138.83 1.19876 1.61
8 7 4 o 66.185 52.770 -174.74 1.20398 0.14
13 0 4 o 667.568 532.261 -23.96 1.20398 0.69
12 8 -2 o 6.219 4.838 33.60 1.19715 0.01
13 8 -1 o 45.638 35.452 -53.39 1.19675 0.09
15 4 2 o 114.415 90.616 124.85 1.20235 0.24
11 9 2 o 25.380 20.101 -120.74 1.20235 0.05
6 4 5 o 334.743 258.293 62.86 1.19480 0.70
10 5 -4 o 43.881 33.749 -6.43 1.19361 0.09
12 6 3 o 102.583 78.748 13.20 1.19268 0.21
12 6 -3 o 71.883 55.181 -68.21 1.19268 0.15
17 1 -2 o 12.928 9.914 169.93 1.19202 0.03
15 6 0 o 752.716 576.884 -144.27 1.19150 1.57
11 4 4 o 386.070 291.413 43.36 1.18350 0.81
7 3 -5 o 462.028 353.539 -82.84 1.18970 0.97
16 3 -2 o 17.601 13.272 158.93 1.18195 0.04
17 6 -1 o 171.872 128.532 -8.10 1.06671 0.62
19 3 1 o 202.875 151.718 -130.72 1.06671 0.73
18 1 -1 o 89.424 68.054 -25.67 1.18657 0.19
14 7 1 o 50.239 38.233 8.44 1.18657 0.11
11 11 0 o 363.901 280.340 0.00 1.17164 0.39
14 6 2 o 742.597 567.287 -86.60 1.17701 1.58
17 3 -1 o 205.067 156.837 130.20 1.17663 0.44
11 3 5 o 92.937 69.157 -69.53 1.06899 0.32
13 5 -4 o 59.524 44.144 -43.66 1.07182 0.20
15 2 4 o 341.881 253.546 -95.50 1.07182 1.15
9 1 5 o 170.425 131.396 30.24 1.16993 0.37
6 5 -5 o 249.361 192.254 133.78 1.16993 0.53
16 4 3 o 302.765 224.724 174.36 1.07115 1.03
16 4 -3 o 6.379 4.734 59.58 1.07115 0.02
15 5 -2 o 43.657 34.141 -73.38 1.16256 0.09
8 3 5 o 191.823 150.991 -121.90 1.16041 0.42
10 6 4 o 727.620 574.503 -143.44 1.15931 1.59
14 0 -4 o 139.163 109.879 98.30 1.15931 0.15
11 10 -2 o 1.572 1.251 -160.55 1.15321 0.00
5 2 -6 o 70.265 51.922 27.63 1.07374 0.23
5 2 6 o 39.407 29.119 -66.52 1.07374 0.13
12 10 -1 o 231.885 184.561 -146.14 1.15286 0.51
18 2 1 o 47.269 37.622 98.18 1.15286 0.10
11 8 -3 o 182.819 144.662 -18.85 1.15846 0.40
16 1 3 o 26.219 20.746 -124.40 1.15846 0.06
11 8 3 o 59.883 47.384 139.35 1.15846 0.13
16 1 -3 o 119.954 94.918 139.78 1.15846 0.26
9 7 -4 o 30.826 24.002 39.37 1.16403 0.07
19 0 1 o 164.038 130.083 172.51 1.15750 0.18
16 5 -1 o 161.709 128.235 9.56 1.15750 0.35
14 8 0 o 347.893 275.947 35.57 1.15738 0.76
12 1 5 o 57.939 42.578 9.28 1.07642 0.18
16 0 4 o 9.078 6.681 126.20 1.07555 0.01
9 2 -5 o 708.820 564.071 174.39 1.15111 1.57
12 9 3 o 593.681 437.515 -4.24 1.07487 1.93
12 9 -3 o 372.457 274.483 114.20 1.07487 1.21
10 0 -5 o 239.684 190.585 10.05 1.15573 0.26
13 8 2 o 42.907 34.245 109.19 1.14409 0.10
16 6 -2 o 21.198 15.640 -168.47 1.07439 0.07
19 1 0 o 7.649 6.108 76.57 1.14362 0.02
15 3 3 o 0.788 0.628 87.18 1.14922 0.00
15 3 -3 o 25.244 20.092 -2.14 1.14922 0.06
13 2 -4 o 82.248 65.449 -38.46 1.15465 0.18
20 1 1 o 130.618 96.435 -2.04 1.07410 0.43
12 12 0 o 47.943 35.404 0.00 1.07400 0.08
13 9 1 o 15.023 11.960 179.07 1.14827 0.03
14 1 4 o 126.317 102.155 98.55 1.13655 0.29
7 5 5 o 106.842 85.547 29.60 1.14204 0.24
6 0 6 o 30.953 22.738 -153.15 1.07749 0.05
6 0 -6 o 624.342 458.627 -137.13 1.07749 0.98
12 4 -4 o 79.091 63.452 77.29 1.14099 0.18
18 1 2 o 304.757 246.577 147.23 1.13518 0.70
14 7 -2 o 74.655 60.403 55.41 1.13518 0.17
18 3 0 o 190.572 154.154 -116.85 1.13472 0.44
17 4 1 o 58.463 47.067 3.18 1.13926 0.13
9 5 -5 o 151.850 114.836 -25.86 1.08401 0.45
17 2 3 o 11.211 8.403 23.70 1.08242 0.03
17 2 -3 o 150.966 113.151 -112.96 1.08242 0.45
9 8 4 o 128.397 101.225 33.93 1.12781 0.30
13 3 4 o 289.441 228.188 43.39 1.12781 0.68
18 0 3 o 1.977 1.510 -124.43 1.08626 0.00
18 0 -3 o 262.307 200.331 -1.83 1.08626 0.38
8 4 -5 o 730.895 590.277 21.24 1.13758 1.67
15 7 2 o 40.052 30.528 -133.38 1.08576 0.12
17 3 2 o 295.535 231.758 -87.35 1.12647 0.70
18 4 -1 o 373.232 284.132 -174.41 1.08546 1.09
14 5 -3 o 80.718 64.754 -56.74 1.13137 0.19
14 5 3 o 613.265 491.970 14.28 1.13137 1.43
15 8 1 o 20.892 16.164 147.65 1.08933 0.06
15 7 -1 o 339.386 271.143 -147.89 1.13046 0.79
1 1 6 o 60.931 47.640 -69.35 1.12146 0.15
7 6 -5 o 442.799 350.746 -171.67 1.11605 1.09
13 7 -3 o 43.660 34.622 162.97 1.10608 0.11
13 7 3 o 668.818 530.368 -161.98 1.10608 1.72
12 5 4 o 225.375 179.792 -116.05 1.11093 0.57
20 0 -1 o 186.824 147.243 -175.32 1.10120 0.25
0 0 6 o 295.249 231.047 74.08 1.12573 0.12
18 2 -2 o 56.949 45.109 -7.75 1.10556 0.15
12 10 2 o 31.412 24.882 -177.27 1.10556 0.08
10 2 5 o 419.993 329.149 72.52 1.12026 1.01
12 11 1 o 375.536 297.262 141.99 1.10524 0.97
3 3 6 o 266.059 205.507 -177.61 1.08897 0.76
16 5 2 o 397.816 317.217 81.14 1.10965 1.00
19 0 -2 o 21.490 17.136 -73.93 1.10965 0.03
11 0 5 o 1195.996 933.944 -128.79 1.12451 1.42
11 6 -4 o 73.982 58.115 -137.17 1.11927 0.18
4 1 6 o 58.729 46.385 24.40 1.09683 0.16
4 1 -6 o 154.947 122.379 35.27 1.09683 0.42
10 10 3 o 21.125 16.628 30.82 1.11851 0.05
8 6 5 o 163.344 125.560 -2.53 1.08786 0.47
16 6 1 o 160.181 126.369 -143.68 1.11764 0.39
17 5 0 o 454.185 358.413 64.02 1.11753 1.11
13 10 0 o 289.332 228.322 128.10 1.11753 0.71
11 7 4 o 512.644 392.599 71.18 1.08696 1.48
14 3 -4 o 339.262 259.817 161.24 1.08696 0.98
10 3 -5 o 152.147 120.044 -148.37 1.09968 0.40
10 8 -4 o 89.786 69.917 173.80 1.09085 0.25
2 2 6 o 107.412 85.595 -1.54 1.10894 0.27
15 1 -4 o 25.391 20.002 -45.44 1.09478 0.07
3 0 -6 o 515.797 410.892 -137.53 1.11307 0.64
3 0 6 o 272.440 217.030 179.60 1.11307 0.34
11 1 -5 o 59.447 47.296 -31.31 1.10777 0.15
9 4 5 o 84.671 67.364 -150.46 1.10777 0.22
17 4 -2 o 138.687 108.953 118.34 1.09355 0.38
16 7 0 o 136.187 106.874 -145.88 1.09315 0.38
19 2 -1 o 90.135 71.200 -17.18 1.09720 0.24
14 9 -1 o 277.200 218.969 23.24 1.09720 0.75
13 9 -2 o 35.187 27.730 -176.50 1.10151 0.09
