#------------------------------------------------------------------------------
#$Date: 2016-03-22 21:51:41 +0200 (Tue, 22 Mar 2016) $
#$Revision: 179026 $
#$URL: svn://www.crystallography.net/cod/cif/4/12/24/4122451.cif $
#------------------------------------------------------------------------------
#
# This file is available in the Crystallography Open Database (COD),
# http://www.crystallography.net/
#
# All data on this site have been placed in the public domain by the
# contributors.
#
data_4122451
loop_
_publ_author_name
'Kapelewski, Matthew T.'
'Geier, Stephen J.'
'Hudson, Matthew R.'
'St\"uck, David'
'Mason, Jarad A.'
'Nelson, Jocienne N.'
'Xiao, Dianne J.'
'Hulvey, Zeric'
'Gilmour, Elizabeth'
'FitzGerald, Stephen A.'
'Head-Gordon, Martin'
'Brown, Craig M.'
'Long, Jeffrey R.'
_publ_section_title
;
 M2(m-dobdc) (M = Mg, Mn, Fe, Co, Ni) Metal-Organic Frameworks Exhibiting
 Increased Charge Density and Enhanced H2 Binding at the Open Metal Sites.
;
_journal_issue                   34
_journal_name_full               'Journal of the American Chemical Society'
_journal_page_first              12119
_journal_paper_doi               10.1021/ja506230r
_journal_volume                  136
_journal_year                    2014
_chemical_formula_sum            'C4 H D5.77 Ni O3'
_chemical_formula_weight         167.37
_chemical_name_systematic        ' ?'
_space_group_IT_number           160
_symmetry_cell_setting           trigonal
_symmetry_space_group_name_Hall  'R 3 -2"'
_symmetry_space_group_name_H-M   'R 3 m :H'
_audit_creation_date             2013-06-06T17:55
_audit_creation_method           'from EXP file using GSAS2CIF'
_audit_update_record
' 2013-06-06T17:55  Initial CIF as created by GSAS2CIF'
_cell_angle_alpha                90.0
_cell_angle_beta                 90.0
_cell_angle_gamma                120.0
_cell_formula_units_Z            18
_cell_length_a                   25.802(5)
_cell_length_b                   25.802
_cell_length_c                   6.7613(17)
_cell_volume                     3898.2(12)
_computing_structure_refinement  GSAS
_diffrn_radiation_probe          neutron
_diffrn_radiation_wavelength     2.078
_exptl_absorpt_correction_T_max  1.00000
_exptl_absorpt_correction_T_min  1.00000
_exptl_absorpt_process_details
;   GSAS Absorption/surface roughness correction: function number 0
 No correction is applied.
;
_pd_block_id                     2013-06-06T17:55|NI_PRIME_3P0_D2_R||BT1
_pd_calc_method                  'Rietveld Refinement'
_pd_instr_location               ' ?'
_pd_meas_2theta_range_inc        0.05
_pd_meas_2theta_range_max        166.25
_pd_meas_2theta_range_min        1.5
_pd_meas_number_of_points        3296
_pd_phase_name                   Ni_dobdc_prime_3.0_D2
_pd_proc_2theta_range_inc        0.05
_pd_proc_2theta_range_max        166.3019
_pd_proc_2theta_range_min        1.5519
_pd_proc_info_datetime           2013-06-06T17:55:36
_pd_proc_info_excluded_regions   ' ?'
_pd_proc_ls_background_function
;   GSAS Background function number 1 with 12 terms.
 Shifted Chebyshev function of 1st kind
      1:    583.992     2:   -134.041     3:    92.2810     4:   -11.3396    
      5:    57.8953     6:   -12.7695     7:    43.9836     8:   -15.8905    
      9:    19.1615    10:   0.544936    11:    2.86660    12:  -0.473943    
;
_pd_proc_ls_peak_cutoff          0.00050
_pd_proc_ls_profile_function
;
 CW Profile function number 3 with  19 terms
 Pseudovoigt profile coefficients as parameterized in
 P. Thompson, D.E. Cox & J.B. Hastings (1987). J. Appl. Cryst.,20,79-83.
 Asymmetry correction of L.W. Finger, D.E. Cox & A. P. Jephcoat (1994).
 J. Appl. Cryst.,27,892-900.
 Peak tails are ignored  where the intensity is below 0.0005 times the peak
   Aniso. broadening axis   0.0   0.0   1.0
;
_pd_proc_ls_prof_R_factor        0.0384
_pd_proc_ls_prof_wR_expected     0.0378
_pd_proc_ls_prof_wR_factor       0.0464
_pd_proc_number_of_points        3296
_pd_spec_mounting                ' ?'
_refine_ls_goodness_of_fit_all   1.24
_refine_ls_matrix_type           full
_refine_ls_number_parameters     70
_refine_ls_number_restraints     16
_refine_ls_R_Fsqd_factor         0.13436
_refine_ls_shift/su_max          4.39
_refine_ls_shift/su_mean         0.68
_reflns_d_resolution_high        1.059
_reflns_d_resolution_low         12.901
_reflns_limit_h_max              21
_reflns_limit_h_min              0
_reflns_limit_k_max              12
_reflns_limit_k_min              0
_reflns_limit_l_max              6
_reflns_limit_l_min              -6
_reflns_number_total             427
_cod_data_source_file            NI_PRIME_3P0_D2_R.cif
_cod_data_source_block           NI_PRIME_3P0_D2_R_publ
_cod_depositor_comments
;
The following automatic conversions were performed:

'_geom_bond_publ_flag' value 'N' changed to 'n' according to
/usr/data/users/saulius/crontab/automatic-downloads/rss-feeds/ACS/lib/dictionaries/cif_core.dic
dictionary named 'cif_core.dic' version 2.4.2 from 2011-04-26 (38
times).

'_geom_angle_publ_flag' value 'N' changed to 'n' according
to
/usr/data/users/saulius/crontab/automatic-downloads/rss-feeds/ACS/lib/dictionaries/cif_core.dic
dictionary named 'cif_core.dic' version 2.4.2 from 2011-04-26 (26
times).

Automatic conversion script
Id: cif_fix_values 2281 2013-09-26 08:29:07Z andrius 

 Adding full bibliography for 4122440--4122455.cif.
;
_cod_original_cell_volume        3898.1(13)
_cod_original_sg_symbol_H-M      'R 3 m'
_cod_database_code               4122451
#BEGIN Tags that were not found in dictionaries:
_gsas_exptl_extinct_corr_t_min   1.00000
_gsas_exptl_extinct_corr_t_max   1.00000
#END Tags that were not found in dictionaries
loop_
_symmetry_equiv_pos_site_id
_symmetry_equiv_pos_as_xyz
1 +x,+y,+z
2 -y,x-y,+z
3 y-x,-x,+z
4 y-x,+y,+z
5 -y,-x,+z
6 +x,x-y,+z
101 +x+1/3,+y+2/3,+z+2/3
102 -y+1/3,x-y+2/3,+z+2/3
103 y-x+1/3,-x+2/3,+z+2/3
104 y-x+1/3,+y+2/3,+z+2/3
105 -y+1/3,-x+2/3,+z+2/3
106 +x+1/3,x-y+2/3,+z+2/3
201 +x+2/3,+y+1/3,+z+1/3
202 -y+2/3,x-y+1/3,+z+1/3
203 y-x+2/3,-x+1/3,+z+1/3
204 y-x+2/3,+y+1/3,+z+1/3
205 -y+2/3,-x+1/3,+z+1/3
206 +x+2/3,x-y+1/3,+z+1/3
loop_
_atom_site_type_symbol
_atom_site_label
_atom_site_fract_x
_atom_site_fract_y
_atom_site_fract_z
_atom_site_occupancy
_atom_site_thermal_displace_type
_atom_site_U_iso_or_equiv
_atom_site_symmetry_multiplicity
C C1 0.6615(18) 0.8775(19) 0.827(7) 1.0 Uiso 0.007(11) 18
C C2 0.6718(25) 0.8359(13) 0.748(10) 1.0 Uiso 0.001(15) 9
C C6 0.6469(16) 0.8685(17) 0.057(6) 1.0 Uiso 0.020(11) 18
C C11 0.6341(21) 0.9105(18) 0.171(6) 1.0 Uiso 0.032(14) 18
Ni Ni2 0.3268(12) 0.3726(10) 0.557(4) 1.0 Uiso 0.008(7) 18
H H7 0.670(6) 0.8348(28) 0.606(24) 1.0 Uiso 0.07(5) 9
O O9 0.6709(20) 0.9227(21) 0.763(7) 1.0 Uiso 0.011(12) 18
O O12 0.6550(18) 0.9626(18) 0.083(8) 1.0 Uiso 0.015(15) 18
O O15 0.6120(28) 0.8921(26) 0.347(10) 1.0 Uiso 0.066(23) 18
C C2m 0.6314(23) 0.8157(12) 0.129(7) 1.0 Uiso 0.006(15) 9
H H7m 0.620(4) 0.8102(22) 0.282(15) 1.0 Uiso 0.020(27) 9
D D1 0.2100(11) 0.2170(13) 0.013(4) 2.0 Uiso 0.080(13) 18
D D2 0.7783(17) 0.9530(17) 0.419(6) 2.0 Uiso 0.166(17) 18
D D3 0.5778(9) 0.1556(19) 0.530(6) 2.0 Uiso 0.097(13) 9
D D4 0.5865(19) 0.173(4) -0.022(14) 1.54(14) Uiso 0.26(7) 9
loop_
_atom_type_symbol
_atom_type_number_in_cell
_atom_type_scat_length_neutron
_atom_type_scat_source
C 72.0 0.6646 International_Tables_Vol_C
Ni 18.0 1.0300 International_Tables_Vol_C
H 18.0 -0.3739 International_Tables_Vol_C
O 54.0 0.5803 International_Tables_Vol_C
D 103.84 0.6671 International_Tables_Vol_C
loop_
_geom_angle_atom_site_label_1
_geom_angle_atom_site_label_2
_geom_angle_atom_site_label_3
_geom_angle
_geom_angle_site_symmetry_1
_geom_angle_site_symmetry_3
_geom_angle_publ_flag
C2 C1 C6 114(5) 1_555 1_556 n
C2 C1 O9 129(6) 1_555 1_555 n
C6 C1 O9 116(4) 1_556 1_555 n
C1 C2 C1 128(7) 1_555 6_565 n
C1 C2 H7 113(4) 1_555 1_555 n
C1 C2 H7 113(4) 6_565 1_555 n
C1 C6 C11 121(4) 1_554 1_555 n
C1 C6 C2m 116(4) 1_554 1_555 n
C11 C6 C2m 120(4) 1_555 1_555 n
C6 C11 O12 112(5) 1_555 1_555 n
C6 C11 O15 115(4) 1_555 1_555 n
O12 C11 O15 132(4) 1_555 1_555 n
O9 Ni2 O12 79.4(24) 102_654 102_655 n
O9 Ni2 O12 82.3(20) 102_654 201_445 n
O9 Ni2 O15 100.0(24) 102_654 3_565 n
O12 Ni2 O12 84.3(9) 102_655 201_445 n
O12 Ni2 O15 180.000(29) 102_655 3_565 n
O12 Ni2 O15 95.8(24) 201_445 3_565 n
C1 O9 Ni2 130(4) 1_555 203_565 n
C11 O12 Ni2 123(4) 1_555 101_554 n
C11 O12 Ni2 137(4) 1_555 203_564 n
Ni2 O12 Ni2 94.9(18) 101_554 203_564 n
C11 O15 Ni2 118(4) 1_555 2_665 n
C6 C2m C6 126(6) 1_555 6_565 n
C6 C2m H7m 115.1(32) 1_555 1_555 n
C6 C2m H7m 115.1(32) 6_565 1_555 n
loop_
_geom_bond_atom_site_label_1
_geom_bond_atom_site_label_2
_geom_bond_distance
_geom_bond_site_symmetry_2
_geom_bond_publ_flag
C1 C2 1.34(4) 1_555 n
C1 C6 1.59(5) 1_556 n
C1 H7 1.93(14) 1_555 n
C1 O9 1.15(5) 1_555 n
C2 C1 1.34(4) 1_555 n
C2 C1 1.34(4) 6_565 n
C2 H7 0.96(20) 1_555 n
C6 C1 1.59(5) 1_554 n
C6 C11 1.50(5) 1_555 n
C6 C2m 1.31(4) 1_555 n
C6 H7m 2.01(10) 1_555 n
C11 C6 1.50(5) 1_555 n
C11 O12 1.31(6) 1_555 n
C11 O15 1.30(6) 1_555 n
Ni2 O9 2.18(5) 3_565 n
Ni2 O9 2.06(4) 102_654 n
Ni2 O12 1.87(5) 102_655 n
Ni2 O12 2.14(5) 201_445 n
Ni2 O15 2.02(6) 3_565 n
Ni2 D1 2.180(31) 103_555 n
H7 C1 1.93(14) 1_555 n
H7 C1 1.93(14) 6_565 n
H7 C2 0.96(20) 1_555 n
O9 C1 1.15(5) 1_555 n
O9 Ni2 2.18(5) 2_665 n
O9 Ni2 2.06(4) 203_565 n
O12 C11 1.31(6) 1_555 n
O12 Ni2 2.14(5) 101_554 n
O12 Ni2 1.87(5) 203_564 n
O15 C11 1.30(6) 1_555 n
O15 Ni2 2.02(6) 2_665 n
C2m C6 1.31(4) 1_555 n
C2m C6 1.31(4) 6_565 n
C2m H7m 1.07(13) 1_555 n
H7m C6 2.01(10) 1_555 n
H7m C6 2.01(10) 6_565 n
H7m C2m 1.07(13) 1_555 n
D1 Ni2 2.180(31) 202_554 n
loop_
_pd_meas_intensity_total
_pd_proc_ls_weight
_pd_proc_intensity_bkg_calc
_pd_calc_intensity_total
6970(180) 0.0 1586. .
7140(180) 0.0 1578. .
6500(170) 0.0 1569. .
6160(170) 0.0 1561. .
5980(160) 0.0 1552. .
5640(160) 0.0 1544. .
5630(160) 0.0 1536. .
5320(160) 0.0 1527. .
5290(150) 0.0 1519. .
4950(150) 0.0 1511. .
4790(150) 0.0 1503. .
4650(150) 0.0 1495. .
4620(140) 0.0 1487. .
4460(140) 0.0 1479. .
4490(140) 0.0 1472. .
4180(140) 0.0 1464. .
4000(130) 0.0 1456. .
3790(130) 0.0 1449. .
3830(130) 0.0 1441. .
3710(130) 0.0 1434. .
3850(130) 0.0 1426. .
3670(130) 0.0 1419. .
3430(130) 0.0 1411. .
3310(120) 0.0 1404. .
3330(120) 0.0 1397. .
3400(120) 0.0 1390. .
3280(120) 0.0 1383. .
3040(120) 0.0 1375. .
2960(120) 0.0 1368. .
2960(120) 0.0 1362. .
2690(110) 0.0 1355. .
2790(110) 0.0 1348. .
2690(110) 0.0 1341. .
2570(110) 0.0 1334. .
2490(110) 0.0 1328. .
2470(110) 0.0 1321. .
2460(110) 0.0 1314. .
2240(100) 0.0 1308. .
2150(99) 0.0 1301. .
2280(100) 0.0 1295. .
2061(97) 0.0 1288. .
2097(98) 0.0 1282. .
2021(96) 0.0 1276. .
1892(93) 0.0 1270. .
1869(92) 0.0 1263. .
1851(92) 0.0 1257. .
1892(93) 0.0 1251. .
1842(92) 0.0 1245. .
1766(90) 0.0 1239. .
1847(92) 0.0 1233. .
1762(90) 0.0 1227. .
1766(90) 0.0 1221. .
1771(90) 0.0 1216. .
1717(89) 0.0 1210. .
1579(85) 0.0 1204. .
1516(84) 0.0 1198. .
1566(85) 0.0 1193. .
1583(85) 0.0 1187. .
1539(84) 0.0 1182. .
1633(87) 0.0 1176. .
1463(82) 0.0 1171. .
1503(83) 0.0 1165. .
1458(82) 0.0 1160. .
1441(81) 0.0 1155. .
1583(85) 0.0 1149. .
1485(83) 0.0 1144. .
1351(79) 0.0 1139. .
1351(79) 0.0 1134. .
1351(79) 0.0 1129. .
1155(73) 0.0 1124. .
1347(79) 0.0 1119. .
1155(73) 0.0 1114. .
1356(79) 0.0 1109. .
1217(75) 0.0 1104. .
1141(73) 0.0 1099. .
1360(79) 0.0 1094. .
1298(77) 0.0 1089. .
1124(72) 0.0 1085. .
1289(77) 0.0 1080. .
1213(75) 0.0 1075. .
1128(72) 0.0 1071. .
1141(73) 0.0 1066. .
1253(76) 0.0 1061. .
1066(70) 0.0 1057. .
1150(73) 0.0 1052. .
1119(72) 0.0 1048. .
1110(72) 0.0 1044. .
1195(74) 0.0 1039. .
1088(71) 0.0 1035. .
1173(74) 0.0 1031. .
1164(73) 0.0 1026. .
1034(69) 0.0 1022. .
958(67) 0.0 1018. .
1141(73) 0.0 1014. .
1137(73) 0.0 1010. .
972(67) 0.0 1006. .
1066(70) 0.0 1002. .
1074(71) 0.0 998. .
999(68) 0.0 994. .
1101(72) 0.0 990. .
1053(48) 0.0 986. .
1079(48) 0.0 982. .
988(46) 0.0 978. .
1058(48) 0.000434 974. 1016.
1109(49) 0.000416 970. 1014.
1004(47) 0.000453 967. 1012.
1051(48) 0.000434 963. 1010.
1030(47) 0.000453 959. 1009.
1053(48) 0.000434 956. 1008.
1028(47) 0.000453 952. 1007.
1001(47) 0.000453 948. 1006.
948(45) 0.000494 945. 1005.
1008(47) 0.000453 941. 1005.
1000(47) 0.000453 938. 1005.
1061(48) 0.000434 934. 1006.
1002(47) 0.000453 931. 1006.
994(46) 0.000473 928. 1008.
982(46) 0.000473 924. 1010.
968(46) 0.000473 921. 1012.
1104(49) 0.000416 918. 1016.
978(46) 0.000473 914. 1020.
1099(49) 0.000416 911. 1025.
1097(49) 0.000416 908. 1031.
1069(48) 0.000434 905. 1039.
1120(49) 0.000416 901. 1049.
1134(50) 0.000400 898. 1063.
1101(49) 0.000416 895. 1080.
1234(52) 0.000370 892. 1103.
1205(51) 0.000384 889. 1134.
1226(51) 0.000384 886. 1174.
1355(54) 0.0003429 883. 1227.
1361(54) 0.0003429 880. 1294.
1501(57) 0.0003078 877. 1377.
1568(58) 0.0002973 874. 1476.
1603(59) 0.0002873 871. 1592.
1788(62) 0.0002601 868. 1728.
1833(63) 0.0002520 866. 1886.
2090(67) 0.0002228 863. 2065.
2123(68) 0.0002163 860. 2263.
2330(71) 0.0001984 857. 2483.
2576(74) 0.0001826 854. 2734.
2826(78) 0.0001644 852. 3021.
3009(80) 0.0001562 849. 3344.
3325(84) 0.0001417 846. 3710.
3816(90) 0.0001235 844. 4138.
4409(97) 0.0001063 841. 4630.
5120(110) 0.0000907 839. 5184.
5800(110) 0.0000797 836. 5793.
6330(120) 0.0000743 833. 6433.
7260(130) 0.0000640 831. 7049.
7930(130) 0.0000592 828. 7564.
8630(140) 0.0000541 826. 7882.
8210(130) 0.0000565 824. 7898.
7780(130) 0.0000601 821. 7540.
7030(120) 0.0000661 819. 6820.
5830(110) 0.0000797 816. 5863.
4700(100) 0.0001000 814. 4843.
3654(88) 0.0001291 812. 3898.
2892(79) 0.0001602 809. 3106.
2316(70) 0.0002041 807. 2488.
1767(62) 0.0002601 805. 2033.
1656(60) 0.0002778 803. 1714.
1505(57) 0.0003078 800. 1497.
1322(53) 0.000356 798. 1351.
1178(50) 0.000400 796. 1250.
1121(49) 0.000416 794. 1178.
1102(49) 0.000416 792. 1124.
1002(47) 0.000453 790. 1082.
1030(47) 0.000453 787. 1047.
995(46) 0.000473 785. 1017.
908(44) 0.000517 783. 992.
958(46) 0.000473 781. 971.
864(43) 0.000541 779. 952.
905(44) 0.000517 777. 935.
818(42) 0.000567 775. 920.
834(43) 0.000541 773. 906.
884(44) 0.000517 771. 894.
891(44) 0.000517 770. 883.
788(41) 0.000595 768. 873.
857(43) 0.000541 766. 864.
855(43) 0.000541 764. 856.
792(42) 0.000567 762. 848.
825(42) 0.000567 760. 841.
739(40) 0.000625 758. 835.
779(41) 0.000595 757. 828.
756(41) 0.000595 755. 823.
784(41) 0.000595 753. 817.
840(43) 0.000541 751. 812.
797(42) 0.000567 750. 807.
803(42) 0.000567 748. 803.
798(42) 0.000567 746. 798.
758(41) 0.000595 745. 794.
745(40) 0.000625 743. 790.
779(41) 0.000595 741. 786.
754(41) 0.000595 740. 783.
708(39) 0.000657 738. 779.
775(56) 0.0003189 737. 776.
763(55) 0.0003306 735. 773.
768(56) 0.0003189 734. 770.
692(53) 0.000356 732. 767.
762(40) 0.000625 731. 764.
771(41) 0.000595 729. 761.
741(40) 0.000625 728. 759.
708(39) 0.000657 726. 756.
723(39) 0.000657 725. 754.
775(41) 0.000595 723. 751.
725(39) 0.000657 722. 749.
737(40) 0.000625 720. 747.
709(39) 0.000657 719. 745.
732(40) 0.000625 718. 742.
743(40) 0.000625 716. 740.
755(40) 0.000625 715. 738.
676(38) 0.000693 714. 736.
728(39) 0.000657 712. 734.
755(40) 0.000625 711. 733.
707(39) 0.000657 710. 731.
732(40) 0.000625 709. 729.
754(40) 0.000625 707. 727.
740(40) 0.000625 706. 725.
715(39) 0.000657 705. 724.
708(39) 0.000657 704. 722.
731(40) 0.000625 702. 721.
771(41) 0.000595 701. 719.
705(39) 0.000657 700. 718.
715(39) 0.000657 699. 716.
705(39) 0.000657 698. 715.
744(40) 0.000625 697. 713.
750(40) 0.000625 696. 712.
724(39) 0.000657 694. 710.
709(39) 0.000657 693. 709.
716(39) 0.000657 692. 708.
710(39) 0.000657 691. 707.
695(39) 0.000657 690. 705.
716(39) 0.000657 689. 704.
774(41) 0.000595 688. 703.
749(40) 0.000625 687. 702.
659(38) 0.000693 686. 701.
691(38) 0.000693 685. 700.
753(40) 0.000625 684. 699.
705(39) 0.000657 683. 698.
741(40) 0.000625 682. 697.
753(40) 0.000625 681. 696.
751(40) 0.000625 680. 695.
769(41) 0.000595 679. 694.
749(40) 0.000625 679. 693.
682(38) 0.000693 678. 692.
710(39) 0.000657 677. 691.
679(38) 0.000693 676. 691.
754(40) 0.000625 675. 690.
737(40) 0.000625 674. 689.
728(39) 0.000657 673. 688.
668(38) 0.000693 672. 688.
712(39) 0.000657 672. 687.
704(39) 0.000657 671. 687.
659(38) 0.000693 670. 686.
689(38) 0.000693 669. 686.
691(38) 0.000693 668. 686.
701(39) 0.000657 668. 685.
747(40) 0.000625 667. 685.
770(41) 0.000595 666. 685.
725(39) 0.000657 665. 685.
742(40) 0.000625 665. 685.
743(40) 0.000625 664. 685.
720(39) 0.000657 663. 686.
734(40) 0.000625 663. 686.
696(39) 0.000657 662. 687.
695(39) 0.000657 661. 688.
719(39) 0.000657 661. 689.
707(39) 0.000657 660. 691.
713(39) 0.000657 659. 693.
741(40) 0.000625 659. 696.
765(41) 0.000595 658. 699.
718(39) 0.000657 657. 705.
695(39) 0.000657 657. 711.
751(40) 0.000625 656. 721.
772(41) 0.000595 655. 733.
766(41) 0.000595 655. 750.
814(42) 0.000567 654. 771.
807(42) 0.000567 654. 798.
837(42) 0.000567 653. 831.
882(43) 0.000541 653. 871.
992(46) 0.000473 652. 917.
961(45) 0.000494 651. 970.
962(45) 0.000494 651. 1031.
1150(50) 0.000400 650. 1097.
1076(48) 0.000434 650. 1162.
1089(48) 0.000434 649. 1214.
1152(50) 0.000400 649. 1248.
1172(50) 0.000400 648. 1255.
1148(50) 0.000400 648. 1232.
1117(49) 0.000416 647. 1177.
1045(47) 0.000453 647. 1102.
954(45) 0.000494 646. 1021.
867(43) 0.000541 646. 944.
838(42) 0.000567 646. 877.
811(42) 0.000567 645. 824.
820(61) 0.0002687 645. 783.
724(39) 0.000657 644. 752.
763(40) 0.000625 644. 730.
725(39) 0.000657 643. 714.
738(39) 0.000657 643. 703.
722(39) 0.000657 643. 695.
675(38) 0.000693 642. 689.
722(39) 0.000657 642. 684.
717(39) 0.000657 641. 680.
776(40) 0.000625 641. 677.
691(38) 0.000693 641. 675.
766(40) 0.000625 640. 673.
645(37) 0.000730 640. 671.
740(39) 0.000657 640. 669.
719(39) 0.000657 639. 668.
696(38) 0.000693 639. 667.
708(39) 0.000657 638. 666.
667(37) 0.000730 638. 666.
713(39) 0.000657 638. 665.
687(38) 0.000693 638. 665.
704(38) 0.000693 637. 666.
700(38) 0.000693 637. 666.
695(38) 0.000693 637. 667.
645(37) 0.000730 636. 668.
665(37) 0.000730 636. 669.
706(38) 0.000693 636. 672.
677(38) 0.000693 635. 675.
711(39) 0.000657 635. 679.
695(38) 0.000693 635. 685.
724(39) 0.000657 635. 692.
732(39) 0.000657 634. 703.
674(38) 0.000693 634. 716.
721(39) 0.000657 634. 734.
817(41) 0.000595 634. 757.
774(40) 0.000625 633. 784.
782(40) 0.000625 633. 817.
925(44) 0.000517 633. 853.
895(43) 0.000541 633. 893.
918(44) 0.000517 632. 934.
973(45) 0.000494 632. 972.
1015(46) 0.000473 632. 1001.
1032(46) 0.000473 632. 1015.
967(45) 0.000494 632. 1011.
1032(46) 0.000473 631. 988.
884(43) 0.000541 631. 949.
924(44) 0.000517 631. 902.
829(42) 0.000567 631. 854.
777(40) 0.000625 631. 810.
757(40) 0.000625 630. 773.
739(39) 0.000657 630. 743.
666(37) 0.000730 630. 721.
673(38) 0.000693 630. 704.
729(39) 0.000657 630. 692.
692(38) 0.000693 630. 683.
637(37) 0.000730 630. 677.
610(36) 0.000772 629. 672.
726(39) 0.000657 629. 669.
747(40) 0.000625 629. 667.
639(37) 0.000730 629. 665.
674(38) 0.000693 629. 664.
664(37) 0.000730 629. 663.
628(36) 0.000772 629. 663.
631(36) 0.000772 628. 663.
661(37) 0.000730 628. 663.
686(38) 0.000693 628. 664.
755(40) 0.000625 628. 665.
681(38) 0.000693 628. 666.
653(37) 0.000730 628. 669.
648(37) 0.000730 628. 671.
715(39) 0.000657 628. 675.
692(38) 0.000693 628. 680.
677(38) 0.000693 627. 687.
621(36) 0.000772 627. 695.
720(39) 0.000657 627. 707.
692(38) 0.000693 627. 723.
794(41) 0.000595 627. 745.
734(39) 0.000657 627. 773.
769(40) 0.000625 627. 808.
855(42) 0.000567 627. 852.
853(42) 0.000567 627. 903.
951(44) 0.000517 627. 959.
1045(47) 0.000453 627. 1017.
1150(49) 0.000416 627. 1073.
1231(51) 0.000384 627. 1124.
1278(51) 0.000384 627. 1164.
1204(50) 0.000400 626. 1183.
1256(51) 0.000384 626. 1172.
1263(51) 0.000384 626. 1129.
1191(50) 0.000400 626. 1065.
1050(47) 0.000453 626. 993.
941(44) 0.000517 626. 924.
859(42) 0.000567 626. 863.
817(41) 0.000595 626. 812.
811(41) 0.000595 626. 772.
685(38) 0.000693 626. 742.
691(38) 0.000693 626. 719.
702(38) 0.000693 626. 702.
617(36) 0.000772 626. 690.
626(36) 0.000772 626. 681.
680(38) 0.000693 626. 674.
715(37) 0.000730 626. 669.
673(36) 0.000772 626. 665.
663(35) 0.000816 626.0 661.4
711(37) 0.000730 626. 659.
637(35) 0.000816 625.9 656.4
625(34) 0.000865 625.9 654.4
640(35) 0.000816 625.9 652.8
632(34) 0.000865 625.9 651.6
707(36) 0.000772 626. 651.
674(36) 0.000772 626. 650.
666(35) 0.000816 625.9 649.2
672(36) 0.000772 626. 649.
614(34) 0.000865 625.9 649.1
660(35) 0.000816 625.9 649.6
630(34) 0.000865 626.0 650.6
658(35) 0.000816 626.0 652.2
703(36) 0.000772 626. 655.
677(36) 0.000772 626. 658.
667(35) 0.000816 626.0 662.2
681(36) 0.000772 626. 667.
657(35) 0.000816 626.0 673.6
651(35) 0.000816 626.1 680.2
688(36) 0.000772 626. 687.
805(39) 0.000657 626. 693.
711(37) 0.000730 626. 698.
696(36) 0.000772 626. 701.
677(36) 0.000772 626. 700.
656(35) 0.000816 626.2 696.5
682(36) 0.000772 626. 690.
672(36) 0.000772 626. 682.
700(36) 0.000772 626. 673.
652(35) 0.000816 626.3 666.0
633(35) 0.000816 626.4 659.6
645(35) 0.000816 626.4 654.5
661(35) 0.000816 626.5 650.4
622(34) 0.000865 626.5 647.4
665(35) 0.000816 626.5 645.1
671(36) 0.000772 627. 643.
663(35) 0.000816 626.6 642.3
715(37) 0.000730 627. 641.
706(36) 0.000772 627. 641.
589(33) 0.000918 626.7 640.4
698(36) 0.000772 627. 640.
647(35) 0.000816 626.8 640.0
612(34) 0.000865 626.9 639.9
615(34) 0.000865 626.9 639.9
640(35) 0.000816 627.0 640.0
669(36) 0.000772 627. 640.
709(36) 0.000772 627. 641.
633(35) 0.000816 627.1 641.2
635(35) 0.000816 627.2 642.0
606(34) 0.000865 627.2 643.0
663(35) 0.000816 627.3 644.4
615(34) 0.000865 627.3 646.3
573(33) 0.000918 627.4 648.8
670(36) 0.000772 627. 652.
630(34) 0.000865 627.5 656.1
622(34) 0.000865 627.6 661.1
647(35) 0.000816 627.6 666.8
664(35) 0.000816 627.7 673.1
638(35) 0.000816 627.7 679.7
679(36) 0.000772 628. 686.
722(37) 0.000730 628. 691.
628(34) 0.000865 627.9 693.6
631(34) 0.000865 628.0 693.9
655(35) 0.000816 628.0 691.2
671(36) 0.000772 628. 686.
705(36) 0.000772 628. 679.
682(36) 0.000772 628. 673.
590(33) 0.000918 628.3 666.5
634(35) 0.000816 628.4 661.3
688(36) 0.000772 628. 657.
683(36) 0.000772 628. 654.
677(36) 0.000772 629. 651.
615(34) 0.000865 628.6 649.7
614(34) 0.000865 628.7 648.7
671(36) 0.000772 629. 648.
632(35) 0.000816 628.8 647.9
639(35) 0.000816 628.9 648.1
647(35) 0.000816 629.0 648.5
606(34) 0.000865 629.0 649.3
614(34) 0.000865 629.1 650.3
597(34) 0.000865 629.2 651.8
628(34) 0.000865 629.2 653.7
653(35) 0.000816 629.3 656.2
638(35) 0.000816 629.4 659.6
686(36) 0.000772 629. 664.
650(35) 0.000816 629.5 670.1
647(35) 0.000816 629.6 677.8
658(35) 0.000816 629.6 687.7
643(35) 0.000816 629.7 699.8
669(35) 0.000816 629.8 714.1
659(35) 0.000816 629.8 730.1
705(36) 0.000772 630. 747.
686(36) 0.000772 630. 762.
760(38) 0.000693 630. 773.
725(37) 0.000730 630. 776.
785(38) 0.000693 630. 771.
786(38) 0.000693 630. 760.
777(38) 0.000693 630. 745.
745(37) 0.000730 630. 729.
715(36) 0.000772 630. 714.
746(37) 0.000730 631. 702.
735(37) 0.000730 631. 691.
691(36) 0.000772 631. 683.
690(36) 0.000772 631. 677.
694(36) 0.000772 631. 673.
686(35) 0.000816 630.9 670.6
704(36) 0.000772 631. 669.
680(35) 0.000816 631.0 668.7
661(35) 0.000816 631.1 669.0
624(34) 0.000865 631.1 670.0
638(34) 0.000865 631.2 671.7
633(34) 0.000865 631.3 674.1
642(34) 0.000865 631.3 677.5
710(36) 0.000772 631. 682.
741(37) 0.000730 631. 688.
713(36) 0.000772 632. 696.
668(35) 0.000816 631.6 706.6
698(36) 0.000772 632. 721.
723(36) 0.000772 632. 739.
661(35) 0.000816 631.8 763.4
683(35) 0.000816 631.9 793.6
764(37) 0.000730 632. 830.
758(37) 0.000730 632. 873.
776(38) 0.000693 632. 921.
878(40) 0.000625 632. 970.
989(43) 0.000541 632. 1013.
975(42) 0.000567 632. 1043.
1024(43) 0.000541 632. 1050.
1032(43) 0.000541 632. 1033.
1065(44) 0.000517 632. 997.
1054(44) 0.000517 632. 951.
972(42) 0.000567 633. 902.
898(41) 0.000595 633. 856.
874(40) 0.000625 633. 816.
857(40) 0.000625 633. 782.
746(37) 0.000730 633. 755.
685(35) 0.000816 632.8 733.1
748(37) 0.000730 633. 717.
772(38) 0.000693 633. 704.
724(36) 0.000772 633. 695.
695(36) 0.000772 633. 688.
650(35) 0.000816 633.1 683.4
693(36) 0.000772 633. 680.
690(36) 0.000772 633. 677.
686(35) 0.000816 633.3 675.8
615(34) 0.000865 633.3 675.2
658(35) 0.000816 633.4 675.6
669(35) 0.000816 633.4 676.9
653(35) 0.000816 633.5 679.4
663(35) 0.000816 633.6 683.4
669(35) 0.000816 633.6 688.9
681(35) 0.000816 633.7 696.2
696(36) 0.000772 634. 705.
693(36) 0.000772 634. 716.
714(36) 0.000772 634. 728.
699(36) 0.000772 634. 741.
730(37) 0.000730 634. 752.
722(36) 0.000772 634. 759.
771(38) 0.000693 634. 761.
721(36) 0.000772 634. 756.
786(38) 0.000693 634. 746.
761(37) 0.000730 634. 733.
700(36) 0.000772 634. 720.
718(36) 0.000772 634. 707.
700(36) 0.000772 634. 696.
700(36) 0.000772 634. 687.
754(37) 0.000730 634. 679.
677(35) 0.000816 634.4 672.7
648(34) 0.000865 634.4 668.0
685(35) 0.000816 634.5 664.3
684(35) 0.000816 634.5 661.5
660(35) 0.000816 634.5 659.3
629(34) 0.000865 634.6 657.7
652(35) 0.000816 634.6 656.4
730(37) 0.000730 635. 655.
705(36) 0.000772 635. 655.
616(34) 0.000865 634.7 654.0
599(33) 0.000918 634.7 653.5
654(35) 0.000816 634.8 653.2
657(35) 0.000816 634.8 652.9
623(34) 0.000865 634.8 652.7
681(35) 0.000816 634.9 652.6
688(36) 0.000772 635. 653.
665(35) 0.000816 634.9 652.5
637(34) 0.000865 635.0 652.6
714(36) 0.000772 635. 653.
658(35) 0.000816 635.0 653.0
666(35) 0.000816 635.0 653.2
658(35) 0.000816 635.1 653.6
664(35) 0.000816 635.1 654.0
696(36) 0.000772 635. 654.
634(34) 0.000865 635.1 655.0
629(34) 0.000865 635.2 655.6
661(35) 0.000816 635.2 656.3
670(35) 0.000816 635.2 657.1
692(36) 0.000772 635. 658.
701(36) 0.000772 635. 659.
712(36) 0.000772 635. 660.
637(33) 0.000918 635.3 661.7
625(33) 0.000918 635.3 663.3
644(33) 0.000918 635.3 665.3
638(33) 0.000918 635.3 667.6
665(34) 0.000865 635.3 670.4
677(34) 0.000865 635.4 673.9
683(34) 0.000865 635.4 678.3
705(35) 0.000816 635.4 683.9
724(35) 0.000816 635.4 690.9
713(35) 0.000816 635.4 699.9
739(36) 0.000772 635. 711.
727(35) 0.000816 635.4 724.8
736(36) 0.000772 635. 741.
747(36) 0.000772 635. 761.
784(37) 0.000730 635. 783.
781(37) 0.000730 635. 806.
742(36) 0.000772 635. 828.
774(36) 0.000772 635. 846.
815(37) 0.000730 635. 857.
807(37) 0.000730 635. 857.
762(36) 0.000772 635. 848.
805(37) 0.000730 635. 831.
821(38) 0.000693 635. 811.
805(37) 0.000730 635. 791.
836(38) 0.000693 635. 772.
755(36) 0.000772 635. 756.
763(36) 0.000772 635. 743.
717(35) 0.000816 635.5 732.8
745(36) 0.000772 635. 726.
760(36) 0.000772 635. 722.
759(36) 0.000772 635. 720.
741(36) 0.000772 635. 721.
754(36) 0.000772 635. 725.
732(35) 0.000816 635.4 730.8
805(37) 0.000730 635. 740.
773(36) 0.000772 635. 753.
770(36) 0.000772 635. 770.
807(37) 0.000730 635. 792.
864(39) 0.000657 635. 820.
864(39) 0.000657 635. 854.
868(39) 0.000657 635. 893.
904(39) 0.000657 635. 938.
1007(42) 0.000567 635. 986.
1006(42) 0.000567 635. 1033.
1051(42) 0.000567 635. 1071.
1076(43) 0.000541 635. 1095.
1089(43) 0.000541 635. 1097.
1109(44) 0.000517 635. 1078.
1091(43) 0.000541 635. 1043.
1086(43) 0.000541 635. 998.
1036(42) 0.000567 635. 952.
990(41) 0.000595 635. 909.
894(39) 0.000657 635. 870.
876(39) 0.000657 635. 838.
857(38) 0.000693 635. 812.
824(38) 0.000693 635. 792.
796(37) 0.000730 635. 778.
745(36) 0.000772 635. 769.
778(37) 0.000730 635. 764.
766(36) 0.000772 635. 764.
845(38) 0.000693 635. 768.
782(37) 0.000730 635. 776.
747(36) 0.000772 635. 790.
775(37) 0.000730 635. 809.
797(37) 0.000730 635. 833.
833(38) 0.000693 635. 864.
887(39) 0.000657 635. 901.
947(40) 0.000625 635. 944.
954(40) 0.000625 635. 989.
1006(42) 0.000567 635. 1035.
1074(43) 0.000541 634. 1074.
1122(44) 0.000517 634. 1100.
1180(45) 0.000494 634. 1105.
1165(45) 0.000494 634. 1088.
1087(43) 0.000541 634. 1053.
1005(42) 0.000567 634. 1008.
980(41) 0.000595 634. 959.
943(40) 0.000625 634. 912.
910(40) 0.000625 634. 870.
835(38) 0.000693 634. 833.
783(37) 0.000730 634. 802.
779(37) 0.000730 634. 776.
773(36) 0.000772 634. 756.
730(35) 0.000816 633.9 739.9
757(36) 0.000772 634. 727.
728(35) 0.000816 633.8 717.7
700(35) 0.000816 633.7 710.4
672(34) 0.000865 633.7 705.0
693(35) 0.000816 633.6 701.0
746(36) 0.000772 634. 698.
719(35) 0.000816 633.5 696.4
716(35) 0.000816 633.4 695.4
717(35) 0.000816 633.4 694.9
762(36) 0.000772 633. 695.
764(36) 0.000772 633. 694.
727(35) 0.000816 633.2 693.8
686(34) 0.000865 633.1 692.7
721(35) 0.000816 633.1 691.1
719(35) 0.000816 633.0 689.1
731(35) 0.000816 632.9 687.0
749(28) 0.001276 632.9 685.1
740(33) 0.000918 632.8 683.5
693(32) 0.000977 632.7 682.4
721(33) 0.000918 632.7 681.7
746(34) 0.000865 632.6 681.6
690(32) 0.000977 632.5 682.0
701(32) 0.000977 632.4 683.0
703(33) 0.000918 632.4 684.7
732(33) 0.000918 632.3 687.2
747(34) 0.000865 632.2 690.6
716(33) 0.000918 632.1 695.2
709(33) 0.000918 632.1 701.1
737(33) 0.000918 632.0 708.7
745(33) 0.000918 631.9 718.2
707(33) 0.000918 631.8 730.0
720(33) 0.000918 631.8 744.2
797(35) 0.000816 631.7 760.9
841(36) 0.000772 632. 780.
785(34) 0.000865 631.5 801.2
870(36) 0.000772 631. 823.
925(37) 0.000730 631. 843.
892(37) 0.000730 631. 860.
918(37) 0.000730 631. 868.
933(37) 0.000730 631. 868.
948(38) 0.000693 631. 859.
871(36) 0.000772 631. 844.
825(35) 0.000816 630.9 825.4
819(35) 0.000816 630.8 806.3
821(35) 0.000816 630.7 788.7
802(35) 0.000816 630.6 773.5
785(34) 0.000865 630.5 761.5
739(33) 0.000918 630.4 753.0
730(33) 0.000918 630.3 747.8
740(33) 0.000918 630.2 746.2
758(34) 0.000865 630.1 748.1
773(34) 0.000865 630.0 753.6
766(34) 0.000865 629.9 762.8
787(34) 0.000865 629.8 775.6
818(35) 0.000816 629.7 791.9
795(35) 0.000816 629.6 811.5
789(34) 0.000865 629.6 833.6
844(36) 0.000772 629. 857.
897(37) 0.000730 629. 879.
977(38) 0.000693 629. 897.
968(38) 0.000693 629. 906.
964(38) 0.000693 629. 905.
985(38) 0.000693 629. 894.
941(37) 0.000730 629. 875.
869(36) 0.000772 629. 852.
878(36) 0.000772 629. 828.
788(34) 0.000865 628.5 804.6
830(35) 0.000816 628.4 783.8
830(35) 0.000816 628.3 765.9
753(34) 0.000865 628.2 750.9
741(33) 0.000918 628.1 738.7
708(33) 0.000918 628.0 729.1
682(32) 0.000977 627.9 721.8
684(32) 0.000977 627.8 716.4
624(31) 0.001041 627.7 712.8
716(33) 0.000918 627.6 710.5
724(33) 0.000918 627.4 709.5
695(32) 0.000977 627.3 709.6
677(32) 0.000977 627.2 710.7
683(32) 0.000977 627.1 712.5
690(32) 0.000977 627.0 715.3
716(33) 0.000918 626.9 718.8
700(33) 0.000918 626.8 722.9
760(34) 0.000865 626.6 727.4
715(33) 0.000918 626.5 732.3
656(31) 0.001041 626.4 737.0
740(33) 0.000918 626.3 741.5
746(34) 0.000865 626.2 745.8
731(33) 0.000918 626.1 750.1
742(33) 0.000918 625.9 754.8
734(33) 0.000918 625.8 760.6
812(35) 0.000816 625.7 767.8
838(35) 0.000816 625.6 777.1
812(35) 0.000816 625.4 789.0
864(36) 0.000772 625. 804.
853(36) 0.000772 625. 823.
812(35) 0.000816 625.1 847.2
880(36) 0.000772 625. 877.
972(38) 0.000693 625. 915.
1014(39) 0.000657 625. 961.
1018(39) 0.000657 625. 1017.
1095(40) 0.000625 624. 1084.
1233(43) 0.000541 624. 1163.
1244(43) 0.000541 624. 1252.
1331(44) 0.000517 624. 1352.
1486(47) 0.000453 624. 1456.
1596(49) 0.000416 624. 1559.
1589(48) 0.000434 624. 1650.
1640(49) 0.000416 624. 1716.
1711(50) 0.000400 623. 1745.
1690(50) 0.000400 623. 1732.
1602(49) 0.000416 623. 1679.
1590(48) 0.000434 623. 1598.
1590(48) 0.000434 623. 1502.
1436(46) 0.000473 623. 1404.
1268(43) 0.000541 623. 1312.
1206(40) 0.000625 622. 1230.
1162(39) 0.000657 622. 1163.
1074(38) 0.000693 622. 1109.
1042(37) 0.000730 622. 1070.
1012(37) 0.000730 622. 1044.
1004(36) 0.000772 622. 1032.
1028(37) 0.000730 622. 1031.
1023(37) 0.000730 621. 1043.
1070(38) 0.000693 621. 1064.
1098(38) 0.000693 621. 1093.
1205(40) 0.000625 621. 1128.
1197(40) 0.000625 621. 1165.
1267(41) 0.000595 621. 1199.
1285(41) 0.000595 621. 1222.
1294(41) 0.000595 620. 1230.
1301(41) 0.000595 620. 1220.
1248(41) 0.000595 620. 1194.
1190(40) 0.000625 620. 1154.
1113(38) 0.000693 620. 1107.
1071(38) 0.000693 620. 1059.
1094(38) 0.000693 620. 1013.
995(36) 0.000772 619. 972.
933(35) 0.000816 619.3 937.5
924(35) 0.000816 619.1 909.8
882(34) 0.000865 619.0 889.0
863(34) 0.000865 618.8 875.2
864(34) 0.000865 618.7 868.3
854(34) 0.000865 618.5 868.0
883(34) 0.000865 618.4 874.1
923(35) 0.000816 618.2 886.6
914(35) 0.000816 618.1 905.0
903(35) 0.000816 617.9 928.8
933(35) 0.000816 617.7 956.9
1003(36) 0.000772 618. 988.
1016(37) 0.000730 617. 1018.
983(36) 0.000772 617. 1045.
1018(37) 0.000730 617. 1063.
1035(37) 0.000730 617. 1068.
1067(38) 0.000693 617. 1059.
1063(37) 0.000730 617. 1037.
1011(37) 0.000730 616. 1004.
934(35) 0.000816 616.3 966.4
946(35) 0.000816 616.2 927.4
900(35) 0.000816 616.0 889.9
879(34) 0.000865 615.9 855.6
840(33) 0.000918 615.7 825.2
771(32) 0.000977 615.5 799.0
778(32) 0.000977 615.4 776.7
775(32) 0.000977 615.2 758.1
759(32) 0.000977 615.1 742.7
728(31) 0.001041 614.9 730.1
714(31) 0.001041 614.7 719.8
697(31) 0.001041 614.6 711.4
754(32) 0.000977 614.4 704.5
709(31) 0.001041 614.2 699.0
657(30) 0.001111 614.1 694.6
731(31) 0.001041 613.9 691.0
706(31) 0.001041 613.7 688.1
758(32) 0.000977 613.6 685.9
720(31) 0.001041 613.4 684.4
721(31) 0.001041 613.3 683.4
676(30) 0.001111 613.1 683.0
697(31) 0.001041 612.9 683.2
702(31) 0.001041 612.8 684.2
695(30) 0.001111 612.6 685.9
691(30) 0.001111 612.4 688.5
665(30) 0.001111 612.2 692.2
697(31) 0.001041 612.1 697.1
722(31) 0.001041 611.9 703.4
720(31) 0.001041 611.7 711.2
768(32) 0.000977 611.6 720.7
739(31) 0.001041 611.4 731.9
733(31) 0.001041 611.2 744.9
783(32) 0.000977 611.1 759.3
809(33) 0.000918 610.9 774.6
832(33) 0.000918 610.7 789.7
881(34) 0.000865 610.5 803.3
890(34) 0.000865 610.4 813.3
932(35) 0.000816 610.2 818.0
920(35) 0.000816 610.0 816.5
875(34) 0.000865 609.8 809.2
834(33) 0.000918 609.7 797.7
806(33) 0.000918 609.5 784.0
793(32) 0.000977 609.3 769.7
834(33) 0.000918 609.2 756.2
737(31) 0.001041 609.0 744.3
704(31) 0.001041 608.8 734.5
674(30) 0.001111 608.6 727.0
706(31) 0.001041 608.5 721.8
725(31) 0.001041 608.3 719.1
698(31) 0.001041 608.1 718.7
750(32) 0.000977 607.9 720.7
702(31) 0.001041 607.7 724.9
708(31) 0.001041 607.6 731.4
736(31) 0.001041 607.4 739.9
750(32) 0.000977 607.2 750.0
764(32) 0.000977 607.0 761.3
759(32) 0.000977 606.9 772.9
797(33) 0.000918 606.7 783.5
790(32) 0.000977 606.5 791.7
772(30) 0.001111 606.3 796.1
815(31) 0.001041 606.1 795.8
802(31) 0.001041 606.0 791.1
773(30) 0.001111 605.8 782.8
779(30) 0.001111 605.6 772.7
745(30) 0.001111 605.4 762.1
740(29) 0.001189 605.2 752.3
727(29) 0.001189 605.1 744.1
747(30) 0.001111 604.9 738.1
760(30) 0.001111 604.7 734.4
737(29) 0.001189 604.5 733.4
728(29) 0.001189 604.3 735.0
739(29) 0.001189 604.2 739.2
725(29) 0.001189 604.0 746.0
778(30) 0.001111 603.8 755.2
805(31) 0.001041 603.6 766.4
768(30) 0.001111 603.4 779.0
810(31) 0.001041 603.2 791.8
849(32) 0.000977 603.1 803.6
841(31) 0.001041 602.9 812.7
808(31) 0.001041 602.7 817.5
816(31) 0.001041 602.5 817.1
823(31) 0.001041 602.3 811.5
785(30) 0.001111 602.1 801.8
837(31) 0.001041 602.0 789.4
871(32) 0.000977 601.8 776.1
796(31) 0.001041 601.6 763.2
784(30) 0.001111 601.4 751.8
784(30) 0.001111 601.2 742.4
766(30) 0.001111 601.0 735.4
764(30) 0.001111 600.8 730.9
716(29) 0.001189 600.7 729.1
731(29) 0.001189 600.5 729.9
750(30) 0.001111 600.3 733.3
760(30) 0.001111 600.1 739.1
785(30) 0.001111 599.9 747.1
819(31) 0.001041 599.7 756.9
788(30) 0.001111 599.5 767.7
767(30) 0.001111 599.4 778.5
835(31) 0.001041 599.2 787.8
838(31) 0.001041 599.0 794.0
802(31) 0.001041 598.8 795.8
805(31) 0.001041 598.6 792.6
768(30) 0.001111 598.4 784.9
754(30) 0.001111 598.2 773.9
779(30) 0.001111 598.0 761.2
785(30) 0.001111 597.9 748.2
761(30) 0.001111 597.7 736.0
766(30) 0.001111 597.5 725.1
724(29) 0.001189 597.3 716.0
709(29) 0.001189 597.1 708.8
714(29) 0.001189 596.9 703.6
677(28) 0.001276 596.7 700.3
728(29) 0.001189 596.5 698.9
715(29) 0.001189 596.4 699.2
705(29) 0.001189 596.2 701.0
711(29) 0.001189 596.0 704.0
720(29) 0.001189 595.8 707.9
692(29) 0.001189 595.6 711.9
677(28) 0.001276 595.4 715.6
677(28) 0.001276 595.2 718.0
649(28) 0.001276 595.0 718.5
677(28) 0.001276 594.8 717.0
712(29) 0.001189 594.7 713.5
696(29) 0.001189 594.5 708.6
689(29) 0.001189 594.3 703.1
693(29) 0.001189 594.1 697.6
667(28) 0.001276 593.9 692.8
637(27) 0.001372 593.7 688.9
694(29) 0.001189 593.5 686.3
638(27) 0.001372 593.3 685.0
685(28) 0.001276 593.1 685.2
729(29) 0.001189 592.9 686.8
699(29) 0.001189 592.8 689.8
684(28) 0.001276 592.6 694.1
677(28) 0.001276 592.4 699.5
692(29) 0.001189 592.2 705.6
700(29) 0.001189 592.0 712.0
711(29) 0.001189 591.8 717.9
707(29) 0.001189 591.6 722.3
734(29) 0.001189 591.4 724.6
677(28) 0.001276 591.2 724.2
666(28) 0.001276 591.0 721.2
684(28) 0.001276 590.9 716.2
691(29) 0.001189 590.7 710.1
699(29) 0.001189 590.5 703.6
699(29) 0.001189 590.3 697.5
687(28) 0.001276 590.1 692.4
717(29) 0.001189 589.9 688.3
668(28) 0.001276 589.7 685.6
648(28) 0.001276 589.5 684.3
649(28) 0.001276 589.3 684.4
678(28) 0.001276 589.1 685.9
673(28) 0.001276 589.0 688.6
684(28) 0.001276 588.8 692.3
677(28) 0.001276 588.6 696.7
677(28) 0.001276 588.4 701.2
694(29) 0.001189 588.2 705.3
705(29) 0.001189 588.0 708.2
696(29) 0.001189 587.8 709.4
664(27) 0.001372 587.6 708.4
677(27) 0.001372 587.4 705.4
678(27) 0.001372 587.2 700.9
688(27) 0.001372 587.1 695.5
694(27) 0.001372 586.9 689.8
687(27) 0.001372 586.7 684.4
679(27) 0.001372 586.5 679.5
668(27) 0.001372 586.3 675.5
654(26) 0.001479 586.1 672.4
644(26) 0.001479 585.9 670.2
621(26) 0.001479 585.7 669.0
660(27) 0.001372 585.5 668.8
648(26) 0.001479 585.3 669.5
686(27) 0.001372 585.2 671.1
663(27) 0.001372 585.0 673.6
636(26) 0.001479 584.8 676.8
646(26) 0.001479 584.6 680.7
658(26) 0.001479 584.4 685.3
665(27) 0.001372 584.2 690.5
671(27) 0.001372 584.0 696.5
688(27) 0.001372 583.8 703.3
696(27) 0.001372 583.6 711.4
757(28) 0.001276 583.5 721.2
743(28) 0.001276 583.3 733.0
744(28) 0.001276 583.1 747.3
807(29) 0.001189 582.9 764.5
736(28) 0.001276 582.7 785.0
781(29) 0.001189 582.5 808.8
865(30) 0.001111 582.3 836.2
809(29) 0.001189 582.1 866.9
897(31) 0.001041 581.9 900.4
996(32) 0.000977 581.8 935.4
960(32) 0.000977 581.6 970.2
980(32) 0.000977 581.4 1001.7
1052(33) 0.000918 581.2 1026.6
1092(34) 0.000865 581.0 1041.3
1118(34) 0.000865 580.8 1043.7
1087(34) 0.000865 580.6 1033.4
1091(34) 0.000865 580.4 1012.3
994(32) 0.000977 580.3 983.5
990(32) 0.000977 580.1 950.7
911(31) 0.001041 579.9 917.0
898(31) 0.001041 579.7 884.6
880(30) 0.001111 579.5 854.9
846(30) 0.001111 579.3 828.8
793(29) 0.001189 579.1 806.4
802(29) 0.001189 579.0 787.9
771(29) 0.001189 578.8 773.0
763(28) 0.001276 578.6 761.4
747(28) 0.001276 578.4 752.8
780(29) 0.001189 578.2 746.6
752(28) 0.001276 578.0 742.1
756(28) 0.001276 577.8 738.6
789(29) 0.001189 577.7 735.5
732(28) 0.001276 577.5 732.1
722(28) 0.001276 577.3 728.0
766(28) 0.001276 577.1 723.3
687(27) 0.001372 576.9 718.2
691(27) 0.001372 576.7 713.2
697(27) 0.001372 576.6 708.7
716(28) 0.001276 576.4 705.1
723(28) 0.001276 576.2 702.7
734(28) 0.001276 576.0 701.6
727(28) 0.001276 575.8 701.8
742(28) 0.001276 575.6 703.2
766(28) 0.001276 575.4 705.6
709(27) 0.001372 575.3 708.6
755(28) 0.001276 575.1 711.9
795(29) 0.001189 574.9 714.8
825(29) 0.001189 574.7 716.5
728(28) 0.001276 574.5 716.7
720(28) 0.001276 574.4 715.0
748(28) 0.001276 574.2 711.7
710(27) 0.001372 574.0 707.3
718(28) 0.001276 573.8 702.3
729(28) 0.001276 573.6 697.5
712(27) 0.001372 573.4 693.2
688(27) 0.001372 573.3 689.9
666(27) 0.001372 573.1 687.8
710(27) 0.001372 572.9 687.0
712(27) 0.001372 572.7 687.7
677(27) 0.001372 572.5 689.7
734(28) 0.001276 572.4 693.1
737(28) 0.001276 572.2 697.6
719(28) 0.001276 572.0 703.2
726(28) 0.001276 571.8 709.3
689(27) 0.001372 571.6 715.4
735(28) 0.001276 571.5 721.1
771(29) 0.001189 571.3 725.8
754(28) 0.001276 571.1 728.9
785(29) 0.001189 570.9 730.2
773(29) 0.001189 570.8 729.5
749(28) 0.001276 570.6 727.2
725(28) 0.001276 570.4 723.4
716(28) 0.001276 570.2 718.7
704(27) 0.001372 570.0 713.8
755(28) 0.001276 569.9 709.1
666(27) 0.001372 569.7 705.1
689(27) 0.001372 569.5 702.3
677(27) 0.001372 569.3 700.9
667(26) 0.001479 569.2 700.9
711(26) 0.001479 569.0 702.4
683(26) 0.001479 568.8 705.3
723(27) 0.001372 568.6 709.3
724(27) 0.001372 568.5 714.3
721(27) 0.001372 568.3 719.5
723(27) 0.001372 568.1 724.5
728(27) 0.001372 567.9 728.6
724(27) 0.001372 567.8 731.0
725(27) 0.001372 567.6 731.5
746(27) 0.001372 567.4 730.1
737(27) 0.001372 567.2 727.3
722(27) 0.001372 567.1 723.8
730(27) 0.001372 566.9 720.2
700(26) 0.001479 566.7 717.2
678(26) 0.001479 566.6 715.3
704(26) 0.001479 566.4 714.7
720(27) 0.001372 566.2 715.7
738(27) 0.001372 566.0 718.3
699(26) 0.001479 565.9 722.4
766(27) 0.001372 565.7 727.8
777(28) 0.001276 565.5 734.3
759(27) 0.001372 565.4 741.4
802(28) 0.001276 565.2 748.6
773(28) 0.001276 565.0 755.3
802(28) 0.001276 564.9 761.2
750(27) 0.001372 564.7 765.7
769(27) 0.001372 564.5 768.8
776(28) 0.001276 564.3 770.5
750(27) 0.001372 564.2 771.0
735(27) 0.001372 564.0 771.0
767(27) 0.001372 563.8 771.2
806(28) 0.001276 563.7 772.2
874(29) 0.001189 563.5 774.7
779(28) 0.001276 563.3 778.9
842(29) 0.001189 563.2 785.1
810(28) 0.001276 563.0 793.2
879(29) 0.001189 562.8 802.7
856(29) 0.001189 562.7 813.1
886(29) 0.001189 562.5 823.2
881(29) 0.001189 562.4 832.1
895(30) 0.001111 562.2 838.4
823(28) 0.001276 562.0 841.5
873(29) 0.001189 561.9 840.7
868(29) 0.001189 561.7 836.2
849(29) 0.001189 561.5 828.4
813(28) 0.001276 561.4 818.2
898(30) 0.001111 561.2 806.7
822(28) 0.001276 561.0 794.8
778(28) 0.001276 560.9 783.4
780(28) 0.001276 560.7 773.4
785(28) 0.001276 560.6 765.1
795(28) 0.001276 560.4 759.0
777(28) 0.001276 560.2 755.2
749(27) 0.001372 560.1 753.7
792(28) 0.001276 559.9 754.5
787(28) 0.001276 559.8 757.3
759(27) 0.001372 559.6 761.9
791(28) 0.001276 559.4 767.7
827(28) 0.001276 559.3 774.1
837(29) 0.001189 559.1 780.2
798(28) 0.001276 559.0 785.2
829(29) 0.001189 558.8 788.4
845(29) 0.001189 558.6 789.2
817(28) 0.001276 558.5 788.0
808(28) 0.001276 558.3 785.1
800(28) 0.001276 558.2 781.3
829(28) 0.001276 558.0 777.7
824(28) 0.001276 557.9 775.0
793(28) 0.001276 557.7 773.6
859(29) 0.001189 557.5 774.2
797(28) 0.001276 557.4 776.7
795(28) 0.001276 557.2 781.2
844(29) 0.001189 557.1 787.6
868(29) 0.001189 556.9 795.3
848(29) 0.001189 556.8 803.9
857(29) 0.001189 556.6 812.5
861(29) 0.001189 556.5 820.3
847(29) 0.001189 556.3 826.5
821(28) 0.001276 556.2 830.7
871(29) 0.001189 556.0 832.7
866(29) 0.001189 555.9 833.3
886(29) 0.001189 555.7 833.0
833(29) 0.001189 555.6 832.9
824(28) 0.001276 555.4 833.9
896(30) 0.001111 555.3 836.7
848(29) 0.001189 555.1 841.8
895(30) 0.001111 555.0 849.2
894(30) 0.001111 554.8 858.9
897(30) 0.001111 554.7 870.3
956(31) 0.001041 554.5 882.7
976(31) 0.001041 554.4 894.9
936(30) 0.001111 554.2 905.6
989(31) 0.001041 554.1 913.4
944(30) 0.001111 553.9 917.3
938(30) 0.001111 553.8 916.7
986(31) 0.001041 553.6 911.7
976(31) 0.001041 553.5 902.9
926(30) 0.001111 553.3 891.6
969(31) 0.001041 553.2 878.9
929(29) 0.001189 553.0 866.4
895(28) 0.001276 552.9 855.1
858(28) 0.001276 552.8 845.8
866(28) 0.001276 552.6 839.2
839(27) 0.001372 552.5 835.5
849(28) 0.001276 552.3 834.6
843(28) 0.001276 552.2 836.4
887(28) 0.001276 552.0 840.5
843(28) 0.001276 551.9 845.9
867(28) 0.001276 551.8 851.6
887(28) 0.001276 551.6 856.4
895(28) 0.001276 551.5 858.8
853(28) 0.001276 551.3 857.9
834(27) 0.001372 551.2 853.0
861(28) 0.001276 551.1 844.2
842(28) 0.001276 550.9 832.2
834(27) 0.001372 550.8 818.1
821(27) 0.001372 550.6 803.0
805(27) 0.001372 550.5 788.0
751(26) 0.001479 550.4 773.9
819(27) 0.001372 550.2 761.0
771(26) 0.001479 550.1 749.7
790(27) 0.001372 549.9 739.8
773(26) 0.001479 549.8 731.2
766(26) 0.001479 549.7 723.5
733(26) 0.001479 549.5 716.4
741(26) 0.001479 549.4 709.5
695(25) 0.001600 549.3 702.4
761(26) 0.001479 549.1 694.9
730(26) 0.001479 549.0 687.1
674(25) 0.001600 548.9 679.1
677(25) 0.001600 548.7 671.2
631(24) 0.001736 548.6 663.5
660(24) 0.001736 548.5 656.4
678(25) 0.001600 548.3 649.8
656(24) 0.001736 548.2 644.0
651(24) 0.001736 548.1 638.8
643(24) 0.001736 547.9 634.4
627(24) 0.001736 547.8 630.6
630(24) 0.001736 547.7 627.5
643(24) 0.001736 547.5 625.0
610(24) 0.001736 547.4 623.0
616(24) 0.001736 547.3 621.5
633(24) 0.001736 547.2 620.4
614(24) 0.001736 547.0 619.6
616(24) 0.001736 546.9 618.8
588(23) 0.001890 546.8 618.1
650(24) 0.001736 546.6 617.4
675(25) 0.001600 546.5 616.5
605(23) 0.001890 546.4 615.4
586(23) 0.001890 546.3 614.3
633(24) 0.001736 546.1 613.1
615(24) 0.001736 546.0 612.1
639(24) 0.001736 545.9 611.1
630(24) 0.001736 545.8 610.5
645(24) 0.001736 545.6 610.1
662(24) 0.001736 545.5 610.1
609(23) 0.001890 545.4 610.4
586(23) 0.001890 545.3 611.1
605(23) 0.001890 545.1 612.1
616(24) 0.001736 545.0 613.5
616(24) 0.001736 544.9 615.2
613(24) 0.001736 544.8 617.1
626(24) 0.001736 544.7 619.3
636(24) 0.001736 544.5 621.8
643(24) 0.001736 544.4 624.6
630(24) 0.001736 544.3 627.7
635(24) 0.001736 544.2 631.3
629(24) 0.001736 544.1 635.5
705(25) 0.001600 543.9 640.2
696(25) 0.001600 543.8 645.6
665(25) 0.001600 543.7 651.6
652(24) 0.001736 543.6 658.1
687(25) 0.001600 543.5 664.9
730(26) 0.001479 543.3 671.8
712(25) 0.001600 543.2 678.5
675(25) 0.001600 543.1 684.5
714(25) 0.001600 543.0 689.4
694(25) 0.001600 542.9 692.9
729(26) 0.001479 542.8 694.9
767(26) 0.001479 542.6 695.3
693(25) 0.001600 542.5 694.3
699(25) 0.001600 542.4 692.3
688(25) 0.001600 542.3 689.7
698(25) 0.001600 542.2 687.0
708(25) 0.001600 542.1 684.5
725(26) 0.001479 542.0 682.5
674(25) 0.001600 541.9 681.0
674(25) 0.001600 541.7 680.1
672(25) 0.001600 541.6 679.6
644(24) 0.001736 541.5 679.2
664(25) 0.001600 541.4 678.5
676(25) 0.001600 541.3 677.2
707(25) 0.001600 541.2 675.1
676(25) 0.001600 541.1 672.1
681(25) 0.001600 541.0 668.2
673(25) 0.001600 540.9 663.6
669(25) 0.001600 540.8 658.6
689(25) 0.001600 540.6 653.6
660(24) 0.001736 540.5 648.9
673(34) 0.000865 540.4 644.6
644(23) 0.001890 540.3 640.8
637(23) 0.001890 540.2 637.8
615(23) 0.001890 540.1 635.5
603(23) 0.001890 540.0 634.0
617(23) 0.001890 539.9 633.1
645(23) 0.001890 539.8 633.0
624(23) 0.001890 539.7 633.4
626(23) 0.001890 539.6 634.2
647(23) 0.001890 539.5 635.4
655(23) 0.001890 539.4 636.7
663(24) 0.001736 539.3 638.2
664(24) 0.001736 539.2 639.7
687(24) 0.001736 539.1 641.4
665(24) 0.001736 539.0 643.3
671(24) 0.001736 538.9 645.5
690(24) 0.001736 538.8 648.3
673(24) 0.001736 538.7 651.7
651(23) 0.001890 538.6 656.0
664(24) 0.001736 538.5 661.0
697(24) 0.001736 538.4 666.9
680(24) 0.001736 538.3 673.4
681(24) 0.001736 538.2 680.4
706(24) 0.001736 538.1 687.7
707(24) 0.001736 538.0 694.6
735(25) 0.001600 537.9 700.8
739(25) 0.001600 537.8 705.7
717(24) 0.001736 537.7 708.7
724(25) 0.001600 537.6 709.5
732(25) 0.001600 537.5 708.0
701(24) 0.001736 537.4 704.6
724(25) 0.001600 537.3 699.5
722(25) 0.001600 537.2 693.3
718(25) 0.001600 537.1 686.7
679(24) 0.001736 537.0 680.0
652(23) 0.001890 536.9 673.7
665(24) 0.001736 536.8 668.0
685(24) 0.001736 536.7 663.1
707(24) 0.001736 536.6 658.9
674(24) 0.001736 536.5 655.4
661(24) 0.001736 536.5 652.6
654(23) 0.001890 536.4 650.1
675(24) 0.001736 536.3 647.9
656(23) 0.001890 536.2 645.7
637(23) 0.001890 536.1 643.4
622(23) 0.001890 536.0 640.7
617(23) 0.001890 535.9 637.7
612(23) 0.001890 535.8 634.5
656(23) 0.001890 535.7 631.1
649(23) 0.001890 535.6 627.7
619(23) 0.001890 535.6 624.4
621(23) 0.001890 535.5 621.4
611(23) 0.001890 535.4 618.8
597(22) 0.002066 535.3 616.6
608(23) 0.001890 535.2 614.9
613(23) 0.001890 535.1 613.5
608(23) 0.001890 535.0 612.5
626(23) 0.001890 534.9 611.8
605(23) 0.001890 534.9 611.2
624(23) 0.001890 534.8 610.7
594(22) 0.002066 534.7 610.0
587(22) 0.002066 534.6 609.3
608(23) 0.001890 534.5 608.4
620(23) 0.001890 534.4 607.3
590(22) 0.002066 534.4 606.3
628(23) 0.001890 534.3 605.3
623(23) 0.001890 534.2 604.4
630(23) 0.001890 534.1 603.8
612(23) 0.001890 534.0 603.5
603(23) 0.001890 533.9 603.5
625(23) 0.001890 533.9 603.8
615(23) 0.001890 533.8 604.4
620(23) 0.001890 533.7 605.2
628(23) 0.001890 533.6 606.3
621(23) 0.001890 533.5 607.4
608(23) 0.001890 533.5 608.7
605(23) 0.001890 533.4 610.0
601(22) 0.002066 533.3 611.4
626(23) 0.001890 533.2 613.0
635(23) 0.001890 533.2 614.8
663(24) 0.001736 533.1 616.8
651(23) 0.001890 533.0 619.2
641(23) 0.001890 532.9 622.0
602(22) 0.002066 532.8 625.1
637(23) 0.001890 532.8 628.4
667(24) 0.001736 532.7 631.8
668(24) 0.001736 532.6 635.1
669(24) 0.001736 532.5 638.0
641(23) 0.001890 532.5 640.3
645(23) 0.001890 532.4 641.8
653(23) 0.001890 532.3 642.2
626(23) 0.001890 532.2 641.5
634(23) 0.001890 532.2 639.8
654(23) 0.001890 532.1 637.2
646(23) 0.001890 532.0 634.0
645(23) 0.001890 532.0 630.2
642(23) 0.001890 531.9 626.2
622(23) 0.001890 531.8 622.3
589(22) 0.002066 531.7 618.5
604(23) 0.001890 531.7 615.0
635(23) 0.001890 531.6 611.9
611(23) 0.001890 531.5 609.2
652(23) 0.001890 531.5 607.0
627(23) 0.001890 531.4 605.1
626(23) 0.001890 531.3 603.6
608(23) 0.001890 531.2 602.4
575(22) 0.002066 531.2 601.3
601(22) 0.002066 531.1 600.3
604(23) 0.001890 531.0 599.3
607(23) 0.001890 531.0 598.3
583(22) 0.002066 530.9 597.2
594(22) 0.002066 530.8 596.2
613(23) 0.001890 530.8 595.2
593(22) 0.002066 530.7 594.4
614(23) 0.001890 530.6 593.6
601(22) 0.002066 530.6 593.1
607(23) 0.001890 530.5 592.7
590(22) 0.002066 530.4 592.4
639(23) 0.001890 530.4 592.3
607(23) 0.001890 530.3 592.3
617(23) 0.001890 530.2 592.3
604(23) 0.001890 530.2 592.2
600(22) 0.002066 530.1 592.3
620(23) 0.001890 530.1 592.3
652(23) 0.001890 530.0 592.4
625(23) 0.001890 529.9 592.7
623(23) 0.001890 529.9 593.1
584(22) 0.002066 529.8 593.8
599(22) 0.002066 529.7 594.7
577(22) 0.002066 529.7 595.9
623(23) 0.001890 529.6 597.4
662(24) 0.001736 529.6 599.1
609(23) 0.001890 529.5 601.1
648(23) 0.001890 529.4 603.2
654(23) 0.001890 529.4 605.2
642(23) 0.001890 529.3 607.2
639(23) 0.001890 529.3 608.8
645(23) 0.001890 529.2 610.1
628(23) 0.001890 529.1 610.9
665(24) 0.001736 529.1 611.1
654(23) 0.001890 529.0 610.8
618(23) 0.001890 529.0 610.2
618(23) 0.001890 528.9 609.3
620(23) 0.001890 528.8 608.3
614(23) 0.001890 528.8 607.4
604(23) 0.001890 528.7 606.6
641(23) 0.001890 528.7 606.1
612(23) 0.001890 528.6 605.7
660(24) 0.001736 528.6 605.7
631(23) 0.001890 528.5 605.8
598(22) 0.002066 528.4 606.1
597(22) 0.002066 528.4 606.4
610(23) 0.001890 528.3 606.7
617(23) 0.001890 528.3 606.9
590(22) 0.002066 528.2 607.0
604(23) 0.001890 528.2 606.8
638(23) 0.001890 528.1 606.5
614(23) 0.001890 528.1 606.1
626(23) 0.001890 528.0 605.7
602(22) 0.002066 528.0 605.5
618(23) 0.001890 527.9 605.4
605(23) 0.001890 527.9 605.5
580(22) 0.002066 527.8 606.0
587(22) 0.002066 527.7 606.7
585(22) 0.002066 527.7 607.7
585(22) 0.002066 527.6 609.0
627(23) 0.001890 527.6 610.4
623(23) 0.001890 527.5 612.0
621(23) 0.001890 527.5 613.7
593(22) 0.002066 527.4 615.4
632(23) 0.001890 527.4 617.1
632(23) 0.001890 527.3 618.9
631(23) 0.001890 527.3 620.7
625(23) 0.001890 527.2 622.6
629(23) 0.001890 527.2 624.8
614(23) 0.001890 527.1 627.3
640(23) 0.001890 527.1 630.1
623(23) 0.001890 527.0 633.2
632(23) 0.001890 527.0 636.6
661(24) 0.001736 526.9 640.3
647(23) 0.001890 526.9 644.1
665(24) 0.001736 526.9 648.0
655(23) 0.001890 526.8 651.7
633(23) 0.001890 526.8 655.2
700(24) 0.001736 526.7 658.3
671(24) 0.001736 526.7 661.1
660(24) 0.001736 526.6 663.4
656(23) 0.001890 526.6 665.5
696(24) 0.001736 526.5 667.4
716(24) 0.001736 526.5 669.2
735(25) 0.001600 526.4 671.2
736(25) 0.001600 526.4 673.5
711(24) 0.001736 526.3 676.1
693(24) 0.001736 526.3 679.1
704(24) 0.001736 526.3 682.4
711(24) 0.001736 526.2 686.0
730(25) 0.001600 526.2 689.5
745(25) 0.001600 526.1 692.9
733(25) 0.001600 526.1 696.0
719(25) 0.001600 526.0 698.4
739(20) 0.002500 526.0 700.3
717(24) 0.001736 525.9 701.4
679(24) 0.001736 525.9 702.0
708(24) 0.001736 525.9 702.3
729(24) 0.001736 525.8 702.4
740(25) 0.001600 525.8 702.6
750(25) 0.001600 525.7 703.0
734(25) 0.001600 525.7 703.8
711(24) 0.001736 525.6 704.9
745(25) 0.001600 525.6 706.5
715(24) 0.001736 525.6 708.3
771(25) 0.001600 525.5 710.3
706(24) 0.001736 525.5 712.5
737(25) 0.001600 525.4 714.6
741(25) 0.001600 525.4 716.6
776(25) 0.001600 525.4 718.6
747(25) 0.001600 525.3 720.5
718(24) 0.001736 525.3 722.4
737(25) 0.001600 525.2 724.5
696(24) 0.001736 525.2 726.9
731(25) 0.001600 525.2 729.6
747(25) 0.001600 525.1 732.8
774(25) 0.001600 525.1 736.3
782(25) 0.001600 525.0 740.2
795(26) 0.001479 525.0 744.2
758(25) 0.001600 525.0 748.1
751(25) 0.001600 524.9 751.5
744(25) 0.001600 524.9 754.1
768(25) 0.001600 524.9 755.5
787(25) 0.001600 524.8 755.4
791(25) 0.001600 524.8 753.6
758(25) 0.001600 524.7 750.0
758(25) 0.001600 524.7 744.6
759(25) 0.001600 524.7 737.6
738(25) 0.001600 524.6 729.3
691(24) 0.001736 524.6 720.1
705(24) 0.001736 524.6 710.3
730(24) 0.001736 524.5 700.3
685(24) 0.001736 524.5 690.5
683(24) 0.001736 524.4 681.0
690(24) 0.001736 524.4 672.1
656(23) 0.001890 524.4 663.9
683(24) 0.001736 524.3 656.5
617(23) 0.001890 524.3 649.8
651(23) 0.001890 524.3 643.9
652(23) 0.001890 524.2 638.7
638(23) 0.001890 524.2 634.3
633(23) 0.001890 524.2 630.5
652(23) 0.001890 524.1 627.4
648(23) 0.001890 524.1 625.0
657(23) 0.001890 524.1 623.1
618(23) 0.001890 524.0 621.7
627(23) 0.001890 524.0 620.9
645(23) 0.001890 524.0 620.6
628(23) 0.001890 523.9 620.6
641(23) 0.001890 523.9 621.1
645(23) 0.001890 523.9 621.9
682(24) 0.001736 523.8 623.0
656(23) 0.001890 523.8 624.3
660(23) 0.001890 523.8 625.8
636(23) 0.001890 523.7 627.3
621(23) 0.001890 523.7 629.0
638(23) 0.001890 523.7 630.6
640(23) 0.001890 523.6 632.2
676(24) 0.001736 523.6 633.7
666(23) 0.001890 523.6 635.3
669(23) 0.001890 523.5 636.9
705(24) 0.001736 523.5 638.4
680(24) 0.001736 523.5 640.0
676(24) 0.001736 523.4 641.4
663(23) 0.001890 523.4 642.7
652(23) 0.001890 523.4 643.6
694(24) 0.001736 523.3 644.1
679(24) 0.001736 523.3 644.1
652(23) 0.001890 523.3 643.4
627(23) 0.001890 523.2 642.0
675(24) 0.001736 523.2 640.0
694(24) 0.001736 523.2 637.5
670(23) 0.001890 523.1 634.6
618(23) 0.001890 523.1 631.3
633(23) 0.001890 523.1 627.9
610(22) 0.002066 523.1 624.4
649(23) 0.001890 523.0 620.9
633(23) 0.001890 523.0 617.6
638(23) 0.001890 523.0 614.4
637(23) 0.001890 522.9 611.3
627(23) 0.001890 522.9 608.4
602(22) 0.002066 522.9 605.6
592(22) 0.002066 522.8 603.0
578(22) 0.002066 522.8 600.5
581(22) 0.002066 522.8 598.1
632(23) 0.001890 522.8 595.8
631(23) 0.001890 522.7 593.7
604(22) 0.002066 522.7 591.8
582(22) 0.002066 522.7 590.0
603(22) 0.002066 522.6 588.5
547(21) 0.002268 522.6 587.2
608(22) 0.002066 522.6 586.1
612(22) 0.002066 522.5 585.3
590(22) 0.002066 522.5 584.8
577(30) 0.001111 522.5 584.6
604(22) 0.002066 522.5 584.6
597(21) 0.002268 522.4 584.9
544(20) 0.002500 522.4 585.5
614(22) 0.002066 522.4 586.4
590(21) 0.002268 522.3 587.7
603(21) 0.002268 522.3 589.1
585(21) 0.002268 522.3 590.9
604(22) 0.002066 522.3 592.9
565(21) 0.002268 522.2 595.2
606(22) 0.002066 522.2 597.7
626(22) 0.002066 522.2 600.3
646(22) 0.002066 522.1 603.1
602(21) 0.002268 522.1 605.9
610(22) 0.002066 522.1 608.6
642(22) 0.002066 522.1 611.3
640(22) 0.002066 522.0 613.7
636(22) 0.002066 522.0 615.9
666(23) 0.001890 522.0 617.9
631(22) 0.002066 521.9 619.5
603(21) 0.002268 521.9 620.7
604(22) 0.002066 521.9 621.7
651(22) 0.002066 521.9 622.3
668(23) 0.001890 521.8 622.7
690(23) 0.001890 521.8 622.9
637(22) 0.002066 521.8 623.0
626(22) 0.002066 521.7 623.2
621(22) 0.002066 521.7 623.3
644(22) 0.002066 521.7 623.7
645(22) 0.002066 521.7 624.3
655(22) 0.002066 521.6 625.1
643(22) 0.002066 521.6 626.3
674(23) 0.001890 521.6 627.7
622(22) 0.002066 521.6 629.4
637(22) 0.002066 521.5 631.3
608(22) 0.002066 521.5 633.4
646(22) 0.002066 521.5 635.6
645(22) 0.002066 521.4 637.9
637(22) 0.002066 521.4 640.3
652(22) 0.002066 521.4 642.7
648(22) 0.002066 521.4 645.2
642(22) 0.002066 521.3 647.8
664(23) 0.001890 521.3 650.4
621(22) 0.002066 521.3 653.1
650(22) 0.002066 521.3 655.8
665(23) 0.001890 521.2 658.5
663(23) 0.001890 521.2 661.0
658(22) 0.002066 521.2 663.3
665(23) 0.001890 521.1 665.3
703(23) 0.001890 521.1 666.8
670(23) 0.001890 521.1 667.9
667(23) 0.001890 521.1 668.5
645(22) 0.002066 521.0 668.5
694(23) 0.001890 521.0 668.2
710(23) 0.001890 521.0 667.5
671(23) 0.001890 520.9 666.6
630(22) 0.002066 520.9 665.5
661(22) 0.002066 520.9 664.5
648(22) 0.002066 520.9 663.5
692(23) 0.001890 520.8 662.7
657(22) 0.002066 520.8 661.9
654(22) 0.002066 520.8 661.3
692(23) 0.001890 520.8 660.6
682(23) 0.001890 520.7 660.0
685(23) 0.001890 520.7 659.3
682(23) 0.001890 520.7 658.4
691(23) 0.001890 520.6 657.4
649(22) 0.002066 520.6 656.2
683(23) 0.001890 520.6 654.8
659(22) 0.002066 520.6 653.4
661(22) 0.002066 520.5 651.9
647(22) 0.002066 520.5 650.3
687(23) 0.001890 520.5 648.7
661(23) 0.001890 520.4 647.0
623(22) 0.002066 520.4 645.3
631(22) 0.002066 520.4 643.5
627(22) 0.002066 520.4 641.6
658(22) 0.002066 520.3 639.6
658(22) 0.002066 520.3 637.4
685(23) 0.001890 520.3 635.2
639(22) 0.002066 520.2 632.8
660(22) 0.002066 520.2 630.4
660(22) 0.002066 520.2 628.1
641(22) 0.002066 520.2 625.8
619(22) 0.002066 520.1 623.6
629(22) 0.002066 520.1 621.7
585(21) 0.002268 520.1 619.9
664(23) 0.001890 520.0 618.4
642(22) 0.002066 520.0 617.1
628(22) 0.002066 520.0 616.1
648(22) 0.002066 520.0 615.3
629(22) 0.002066 519.9 614.6
606(22) 0.002066 519.9 614.2
642(22) 0.002066 519.9 613.8
632(22) 0.002066 519.8 613.6
601(21) 0.002268 519.8 613.4
626(22) 0.002066 519.8 613.3
628(22) 0.002066 519.8 613.3
635(22) 0.002066 519.7 613.5
610(22) 0.002066 519.7 613.8
644(22) 0.002066 519.7 614.3
615(22) 0.002066 519.6 614.9
631(22) 0.002066 519.6 615.7
658(22) 0.002066 519.6 616.8
624(22) 0.002066 519.5 617.9
676(23) 0.001890 519.5 619.2
666(22) 0.002066 519.5 620.6
601(21) 0.002268 519.5 622.0
612(22) 0.002066 519.4 623.3
641(22) 0.002066 519.4 624.6
591(21) 0.002268 519.4 625.8
638(22) 0.002066 519.3 626.9
688(23) 0.001890 519.3 627.8
662(22) 0.002066 519.3 628.7
629(22) 0.002066 519.2 629.5
629(22) 0.002066 519.2 630.3
627(22) 0.002066 519.2 631.1
688(23) 0.001890 519.2 632.0
612(22) 0.002066 519.1 633.1
660(22) 0.002066 519.1 634.3
666(22) 0.002066 519.1 635.7
703(23) 0.001890 519.0 637.2
667(23) 0.001890 519.0 638.8
658(22) 0.002066 519.0 640.4
708(23) 0.001890 518.9 642.0
666(22) 0.002066 518.9 643.5
668(23) 0.001890 518.9 644.7
665(22) 0.002066 518.8 645.7
656(22) 0.002066 518.8 646.5
670(23) 0.001890 518.8 647.0
652(22) 0.002066 518.7 647.3
637(22) 0.002066 518.7 647.4
668(23) 0.001890 518.7 647.4
667(23) 0.001890 518.6 647.3
672(23) 0.001890 518.6 647.1
659(22) 0.002066 518.6 646.9
660(22) 0.002066 518.5 646.7
679(23) 0.001890 518.5 646.4
642(22) 0.002066 518.5 646.1
680(23) 0.001890 518.4 645.8
635(22) 0.002066 518.4 645.4
591(21) 0.002268 518.4 644.9
691(23) 0.001890 518.3 644.4
672(23) 0.001890 518.3 644.0
691(23) 0.001890 518.3 643.5
675(23) 0.001890 518.2 643.2
642(22) 0.002066 518.2 642.9
638(22) 0.002066 518.2 642.7
631(22) 0.002066 518.1 642.6
635(22) 0.002066 518.1 642.6
645(22) 0.002066 518.1 642.5
718(23) 0.001890 518.0 642.4
622(22) 0.002066 518.0 642.1
599(21) 0.002268 518.0 641.6
647(22) 0.002066 517.9 640.8
643(22) 0.002066 517.9 639.5
642(22) 0.002066 517.9 637.9
664(22) 0.002066 517.8 635.8
673(23) 0.001890 517.8 633.4
641(22) 0.002066 517.8 630.6
684(23) 0.001890 517.7 627.5
648(22) 0.002066 517.7 624.3
650(22) 0.002066 517.6 621.1
591(21) 0.002268 517.6 617.8
636(22) 0.002066 517.6 614.7
635(22) 0.002066 517.5 611.7
606(21) 0.002268 517.5 609.0
633(22) 0.002066 517.5 606.5
593(21) 0.002268 517.4 604.3
617(22) 0.002066 517.4 602.5
640(22) 0.002066 517.3 600.9
633(22) 0.002066 517.3 599.7
579(21) 0.002268 517.3 598.9
611(22) 0.002066 517.2 598.4
636(22) 0.002066 517.2 598.2
615(22) 0.002066 517.2 598.3
648(22) 0.002066 517.1 598.8
614(22) 0.002066 517.1 599.6
615(22) 0.002066 517.0 600.7
591(21) 0.002268 517.0 602.1
610(22) 0.002066 517.0 603.8
598(21) 0.002268 516.9 605.6
623(22) 0.002066 516.9 607.7
633(22) 0.002066 516.8 610.0
624(22) 0.002066 516.8 612.4
605(21) 0.002268 516.8 615.0
608(21) 0.002268 516.7 617.6
658(22) 0.002066 516.7 620.4
652(22) 0.002066 516.6 623.1
681(23) 0.001890 516.6 625.9
635(22) 0.002066 516.6 628.8
622(22) 0.002066 516.5 631.6
622(22) 0.002066 516.5 634.4
654(22) 0.002066 516.4 637.1
637(22) 0.002066 516.4 639.7
655(22) 0.002066 516.4 642.2
682(23) 0.001890 516.3 644.6
630(22) 0.002066 516.3 646.7
663(22) 0.002066 516.2 648.7
678(23) 0.001890 516.2 650.4
667(23) 0.001890 516.2 651.9
711(24) 0.001736 516.1 653.2
629(23) 0.001890 516.1 654.3
689(24) 0.001736 516.0 655.3
636(23) 0.001890 516.0 656.3
657(23) 0.001890 515.9 657.3
610(22) 0.002066 515.9 658.2
653(23) 0.001890 515.8 659.3
686(24) 0.001736 515.8 660.4
689(24) 0.001736 515.8 661.5
693(24) 0.001736 515.7 662.6
683(24) 0.001736 515.7 663.7
681(24) 0.001736 515.6 664.6
653(23) 0.001890 515.6 665.4
691(24) 0.001736 515.5 665.8
668(23) 0.001890 515.5 665.9
679(24) 0.001736 515.4 665.6
694(24) 0.001736 515.4 665.0
677(24) 0.001736 515.4 664.0
677(24) 0.001736 515.3 662.7
677(24) 0.001736 515.3 661.1
678(24) 0.001736 515.2 659.4
685(24) 0.001736 515.2 657.7
668(23) 0.001890 515.1 655.9
665(23) 0.001890 515.1 654.2
694(24) 0.001736 515.0 652.6
655(23) 0.001890 515.0 651.0
658(23) 0.001890 514.9 649.6
702(24) 0.001736 514.9 648.3
703(24) 0.001736 514.8 647.1
679(24) 0.001736 514.8 646.1
640(23) 0.001890 514.7 645.1
683(24) 0.001736 514.7 644.3
662(23) 0.001890 514.7 643.6
618(22) 0.002066 514.6 643.0
681(24) 0.001736 514.6 642.6
696(24) 0.001736 514.5 642.4
649(23) 0.001890 514.5 642.3
639(23) 0.001890 514.4 642.3
682(24) 0.001736 514.4 642.3
703(24) 0.001736 514.3 642.4
655(23) 0.001890 514.3 642.4
656(23) 0.001890 514.2 642.4
675(24) 0.001736 514.2 642.3
687(24) 0.001736 514.1 642.1
694(24) 0.001736 514.1 641.8
639(23) 0.001890 514.0 641.5
652(23) 0.001890 514.0 641.1
681(24) 0.001736 513.9 640.6
695(24) 0.001736 513.9 640.1
651(23) 0.001890 513.8 639.7
695(24) 0.001736 513.7 639.2
644(23) 0.001890 513.7 638.8
674(23) 0.001890 513.6 638.3
657(23) 0.001890 513.6 637.9
680(24) 0.001736 513.5 637.5
674(23) 0.001890 513.5 637.1
616(22) 0.002066 513.4 636.7
649(23) 0.001890 513.4 636.5
684(24) 0.001736 513.3 636.3
645(23) 0.001890 513.3 636.4
705(24) 0.001736 513.2 636.6
642(23) 0.001890 513.2 637.1
678(24) 0.001736 513.1 638.0
646(23) 0.001890 513.1 639.1
679(24) 0.001736 513.0 640.6
653(23) 0.001890 512.9 642.5
652(23) 0.001890 512.9 644.7
656(23) 0.001890 512.8 647.2
621(23) 0.001890 512.8 650.0
662(23) 0.001890 512.7 653.1
669(23) 0.001890 512.7 656.4
670(23) 0.001890 512.6 659.8
683(24) 0.001736 512.6 663.4
679(24) 0.001736 512.5 666.9
695(24) 0.001736 512.4 670.5
676(24) 0.001736 512.4 674.0
698(24) 0.001736 512.3 677.3
767(25) 0.001600 512.3 680.3
728(24) 0.001736 512.2 683.1
716(24) 0.001736 512.2 685.6
718(24) 0.001736 512.1 687.6
738(25) 0.001600 512.0 689.1
711(24) 0.001736 512.0 690.0
700(24) 0.001736 511.9 690.3
750(25) 0.001600 511.9 689.9
716(24) 0.001736 511.8 688.8
767(25) 0.001600 511.7 687.1
741(25) 0.001600 511.7 684.8
673(23) 0.001890 511.6 682.0
736(25) 0.001600 511.6 678.7
645(23) 0.001890 511.5 675.1
700(24) 0.001736 511.4 671.4
711(24) 0.001736 511.4 667.6
695(24) 0.001736 511.3 663.8
654(23) 0.001890 511.3 660.0
630(23) 0.001890 511.2 656.5
624(23) 0.001890 511.1 653.1
652(23) 0.001890 511.1 649.9
653(23) 0.001890 511.0 646.9
628(23) 0.001890 511.0 644.1
655(23) 0.001890 510.9 641.4
635(23) 0.001890 510.8 638.7
626(23) 0.001890 510.8 636.1
592(22) 0.002066 510.7 633.5
625(23) 0.001890 510.6 630.7
629(23) 0.001890 510.6 627.9
599(22) 0.002066 510.5 624.9
619(23) 0.001890 510.4 621.8
597(22) 0.002066 510.4 618.6
629(23) 0.001890 510.3 615.3
633(23) 0.001890 510.3 612.1
568(22) 0.002066 510.2 608.8
606(23) 0.001890 510.1 605.6
644(23) 0.001890 510.1 602.4
626(23) 0.001890 510.0 599.4
593(22) 0.002066 509.9 596.6
575(22) 0.002066 509.9 593.9
629(23) 0.001890 509.8 591.4
616(23) 0.001890 509.7 589.1
587(22) 0.002066 509.7 587.0
590(22) 0.002066 509.6 585.1
580(22) 0.002066 509.5 583.4
589(22) 0.002066 509.5 581.9
556(22) 0.002066 509.4 580.6
591(22) 0.002066 509.3 579.5
623(23) 0.001890 509.3 578.6
610(23) 0.001890 509.2 577.9
578(22) 0.002066 509.1 577.3
553(22) 0.002066 509.1 577.0
604(23) 0.001890 509.0 576.9
543(21) 0.002268 508.9 576.9
548(21) 0.002268 508.9 577.2
562(22) 0.002066 508.8 577.6
601(22) 0.002066 508.7 578.1
597(22) 0.002066 508.6 578.8
608(23) 0.001890 508.6 579.6
619(23) 0.001890 508.5 580.5
564(22) 0.002066 508.4 581.6
602(22) 0.002066 508.4 582.6
579(22) 0.002066 508.3 583.7
606(23) 0.001890 508.2 584.8
614(23) 0.001890 508.2 585.9
620(23) 0.001890 508.1 586.9
616(23) 0.001890 508.0 587.8
586(22) 0.002066 507.9 588.7
592(22) 0.002066 507.9 589.4
586(22) 0.002066 507.8 589.9
597(22) 0.002066 507.7 590.4
631(23) 0.001890 507.7 590.7
595(22) 0.002066 507.6 590.9
621(23) 0.001890 507.5 591.1
613(23) 0.001890 507.4 591.2
561(22) 0.002066 507.4 591.3
597(22) 0.002066 507.3 591.5
633(23) 0.001890 507.2 591.6
612(23) 0.001890 507.1 591.8
610(23) 0.001890 507.1 592.1
641(23) 0.001890 507.0 592.4
645(23) 0.001890 506.9 592.9
620(23) 0.001890 506.9 593.4
596(22) 0.002066 506.8 594.1
639(23) 0.001890 506.7 594.8
624(23) 0.001890 506.6 595.6
606(23) 0.001890 506.6 596.5
611(23) 0.001890 506.5 597.4
555(22) 0.002066 506.4 598.4
659(23) 0.001890 506.3 599.5
623(23) 0.001890 506.3 600.6
617(23) 0.001890 506.2 601.8
627(23) 0.001890 506.1 603.1
628(23) 0.001890 506.0 604.5
630(23) 0.001890 505.9 606.0
627(23) 0.001890 505.9 607.7
592(22) 0.002066 505.8 609.4
583(22) 0.002066 505.7 611.3
608(23) 0.001890 505.6 613.3
625(23) 0.001890 505.6 615.4
622(23) 0.001890 505.5 617.7
658(23) 0.001890 505.4 620.0
624(23) 0.001890 505.3 622.4
681(24) 0.001736 505.2 624.8
667(24) 0.001736 505.2 627.2
686(24) 0.001736 505.1 629.7
673(24) 0.001736 505.0 632.1
695(24) 0.001736 504.9 634.5
674(24) 0.001736 504.9 636.8
711(24) 0.001736 504.8 639.0
702(24) 0.001736 504.7 641.1
683(24) 0.001736 504.6 643.0
706(24) 0.001736 504.5 644.8
704(24) 0.001736 504.5 646.5
706(24) 0.001736 504.4 648.0
714(24) 0.001736 504.3 649.4
705(24) 0.001736 504.2 650.7
714(24) 0.001736 504.1 651.9
750(25) 0.001600 504.1 653.1
749(25) 0.001600 504.0 654.1
778(26) 0.001479 503.9 655.1
747(25) 0.001600 503.8 656.0
738(25) 0.001600 503.7 656.8
725(24) 0.001736 503.6 657.5
700(23) 0.001890 503.6 657.9
723(24) 0.001736 503.5 658.1
731(24) 0.001736 503.4 657.9
693(23) 0.001890 503.3 657.5
707(23) 0.001890 503.2 656.7
694(23) 0.001890 503.2 655.6
713(24) 0.001736 503.1 654.2
709(23) 0.001890 503.0 652.4
716(24) 0.001736 502.9 650.4
705(23) 0.001890 502.8 648.2
670(23) 0.001890 502.7 645.9
643(22) 0.002066 502.7 643.4
679(23) 0.001890 502.6 641.0
682(23) 0.001890 502.5 638.5
647(22) 0.002066 502.4 636.1
637(22) 0.002066 502.3 633.8
653(22) 0.002066 502.2 631.6
635(22) 0.002066 502.1 629.5
639(22) 0.002066 502.1 627.6
646(22) 0.002066 502.0 625.9
594(21) 0.002268 501.9 624.2
602(22) 0.002066 501.8 622.8
622(22) 0.002066 501.7 621.4
636(22) 0.002066 501.6 620.2
640(22) 0.002066 501.6 619.1
611(22) 0.002066 501.5 618.1
620(22) 0.002066 501.4 617.2
646(22) 0.002066 501.3 616.5
662(23) 0.001890 501.2 615.8
645(22) 0.002066 501.1 615.3
645(22) 0.002066 501.0 614.9
650(22) 0.002066 500.9 614.6
631(22) 0.002066 500.9 614.4
624(22) 0.002066 500.8 614.4
627(22) 0.002066 500.7 614.4
639(22) 0.002066 500.6 614.6
638(22) 0.002066 500.5 614.9
668(23) 0.001890 500.4 615.2
707(23) 0.001890 500.3 615.6
650(22) 0.002066 500.3 616.0
661(23) 0.001890 500.2 616.5
626(22) 0.002066 500.1 616.9
615(22) 0.002066 500.0 617.4
630(22) 0.002066 499.9 617.9
642(22) 0.002066 499.8 618.3
587(21) 0.002268 499.7 618.7
630(22) 0.002066 499.6 619.0
666(23) 0.001890 499.5 619.1
665(23) 0.001890 499.5 619.2
656(23) 0.001890 499.4 619.1
650(22) 0.002066 499.3 618.9
665(23) 0.001890 499.2 618.5
574(21) 0.002268 499.1 617.9
613(22) 0.002066 499.0 617.1
636(22) 0.002066 498.9 616.2
651(22) 0.002066 498.8 615.2
633(22) 0.002066 498.7 614.0
635(22) 0.002066 498.7 612.7
663(23) 0.001890 498.6 611.3
603(22) 0.002066 498.5 609.9
616(22) 0.002066 498.4 608.4
595(21) 0.002268 498.3 606.8
632(22) 0.002066 498.2 605.3
630(22) 0.002066 498.1 603.7
617(22) 0.002066 498.0 602.0
610(22) 0.002066 497.9 600.4
617(22) 0.002066 497.8 598.7
600(22) 0.002066 497.7 597.0
619(22) 0.002066 497.7 595.3
621(22) 0.002066 497.6 593.6
625(22) 0.002066 497.5 591.9
592(21) 0.002268 497.4 590.1
595(21) 0.002268 497.3 588.4
599(22) 0.002066 497.2 586.7
569(21) 0.002268 497.1 585.0
567(21) 0.002268 497.0 583.4
583(21) 0.002268 496.9 581.9
600(22) 0.002066 496.8 580.4
568(21) 0.002268 496.7 579.1
594(21) 0.002268 496.6 577.8
600(22) 0.002066 496.6 576.7
581(21) 0.002268 496.5 575.6
599(22) 0.002066 496.4 574.8
566(21) 0.002268 496.3 574.0
598(22) 0.002066 496.2 573.4
591(21) 0.002268 496.1 572.9
590(21) 0.002268 496.0 572.6
583(21) 0.002268 495.9 572.3
615(22) 0.002066 495.8 572.2
576(21) 0.002268 495.7 572.3
593(21) 0.002268 495.6 572.4
587(21) 0.002268 495.5 572.7
581(21) 0.002268 495.4 573.0
563(21) 0.002268 495.3 573.5
563(21) 0.002268 495.3 574.0
595(21) 0.002268 495.2 574.7
597(21) 0.002268 495.1 575.4
618(22) 0.002066 495.0 576.3
604(30) 0.001111 494.9 577.2
582(21) 0.002268 494.8 578.2
585(21) 0.002268 494.7 579.3
574(21) 0.002268 494.6 580.4
568(21) 0.002268 494.5 581.6
570(21) 0.002268 494.4 582.9
578(21) 0.002268 494.3 584.3
565(21) 0.002268 494.2 585.7
572(21) 0.002268 494.1 587.1
602(22) 0.002066 494.0 588.6
617(22) 0.002066 493.9 590.0
645(22) 0.002066 493.9 591.4
631(22) 0.002066 493.8 592.8
612(22) 0.002066 493.7 594.1
605(22) 0.002066 493.6 595.3
597(22) 0.002066 493.5 596.4
607(22) 0.002066 493.4 597.4
594(22) 0.002066 493.3 598.3
563(21) 0.002268 493.2 599.1
616(22) 0.002066 493.1 599.7
592(21) 0.002268 493.0 600.2
587(21) 0.002268 492.9 600.6
624(22) 0.002066 492.8 600.8
588(21) 0.002268 492.7 601.0
564(21) 0.002268 492.6 601.1
618(22) 0.002066 492.5 601.0
633(22) 0.002066 492.4 600.9
589(21) 0.002268 492.3 600.7
606(22) 0.002066 492.2 600.4
581(21) 0.002268 492.1 600.1
567(21) 0.002268 492.1 599.6
578(21) 0.002268 492.0 599.1
608(22) 0.002066 491.9 598.5
577(21) 0.002268 491.8 597.9
587(21) 0.002268 491.7 597.1
613(22) 0.002066 491.6 596.3
561(21) 0.002268 491.5 595.5
561(21) 0.002268 491.4 594.6
588(21) 0.002268 491.3 593.7
591(21) 0.002268 491.2 592.7
597(22) 0.002066 491.1 591.8
585(21) 0.002268 491.0 590.9
549(21) 0.002268 490.9 590.0
579(21) 0.002268 490.8 589.2
600(22) 0.002066 490.7 588.5
602(22) 0.002066 490.6 587.9
585(21) 0.002268 490.5 587.4
581(21) 0.002268 490.4 587.0
611(22) 0.002066 490.3 586.8
602(22) 0.002066 490.2 586.7
583(21) 0.002268 490.2 586.8
586(21) 0.002268 490.1 587.0
574(21) 0.002268 490.0 587.3
552(21) 0.002268 489.9 587.8
599(22) 0.002066 489.8 588.4
611(22) 0.002066 489.7 589.2
607(22) 0.002066 489.6 590.0
583(21) 0.002268 489.5 590.9
597(22) 0.002066 489.4 591.8
620(22) 0.002066 489.3 592.9
608(22) 0.002066 489.2 593.9
639(22) 0.002066 489.1 595.0
612(22) 0.002066 489.0 596.0
616(22) 0.002066 488.9 597.0
621(22) 0.002066 488.8 598.1
617(22) 0.002066 488.7 599.0
622(22) 0.002066 488.6 600.0
609(22) 0.002066 488.5 600.8
630(22) 0.002066 488.4 601.6
603(22) 0.002066 488.3 602.4
628(22) 0.002066 488.3 603.1
645(22) 0.002066 488.2 603.7
614(22) 0.002066 488.1 604.2
615(22) 0.002066 488.0 604.7
595(22) 0.002066 487.9 605.0
581(21) 0.002268 487.8 605.3
608(22) 0.002066 487.7 605.5
622(22) 0.002066 487.6 605.6
608(22) 0.002066 487.5 605.6
611(22) 0.002066 487.4 605.5
627(22) 0.002066 487.3 605.3
644(22) 0.002066 487.2 605.0
634(22) 0.002066 487.1 604.6
609(22) 0.002066 487.0 604.1
578(21) 0.002268 486.9 603.5
601(22) 0.002066 486.8 602.8
595(22) 0.002066 486.7 602.1
595(22) 0.002066 486.6 601.3
585(21) 0.002268 486.6 600.5
589(21) 0.002268 486.5 599.7
613(22) 0.002066 486.4 598.9
629(22) 0.002066 486.3 598.1
616(22) 0.002066 486.2 597.2
590(21) 0.002268 486.1 596.5
599(22) 0.002066 486.0 595.7
614(22) 0.002066 485.9 595.0
620(22) 0.002066 485.8 594.3
622(22) 0.002066 485.7 593.6
612(22) 0.002066 485.6 593.0
599(22) 0.002066 485.5 592.4
591(21) 0.002268 485.4 591.9
600(21) 0.002268 485.3 591.4
604(22) 0.002066 485.2 590.9
595(21) 0.002268 485.2 590.4
589(21) 0.002268 485.1 590.0
589(21) 0.002268 485.0 589.5
596(21) 0.002268 484.9 589.1
587(21) 0.002268 484.8 588.7
592(21) 0.002268 484.7 588.2
595(21) 0.002268 484.6 587.8
587(21) 0.002268 484.5 587.3
608(22) 0.002066 484.4 586.8
597(21) 0.002268 484.3 586.3
569(21) 0.002268 484.2 585.7
586(21) 0.002268 484.1 585.2
596(21) 0.002268 484.0 584.7
583(21) 0.002268 483.9 584.1
600(21) 0.002268 483.9 583.7
585(21) 0.002268 483.8 583.2
585(21) 0.002268 483.7 582.8
597(21) 0.002268 483.6 582.5
583(21) 0.002268 483.5 582.3
598(21) 0.002268 483.4 582.2
614(22) 0.002066 483.3 582.2
616(22) 0.002066 483.2 582.2
589(21) 0.002268 483.1 582.4
606(22) 0.002066 483.0 582.7
568(21) 0.002268 482.9 583.0
578(21) 0.002268 482.9 583.5
586(21) 0.002268 482.8 584.0
597(21) 0.002268 482.7 584.6
594(21) 0.002268 482.6 585.2
575(21) 0.002268 482.5 585.9
607(22) 0.002066 482.4 586.6
609(22) 0.002066 482.3 587.3
627(22) 0.002066 482.2 587.9
638(22) 0.002066 482.1 588.6
630(22) 0.002066 482.0 589.2
620(22) 0.002066 482.0 589.9
603(22) 0.002066 481.9 590.4
610(22) 0.002066 481.8 591.0
605(22) 0.002066 481.7 591.5
607(22) 0.002066 481.6 591.9
604(22) 0.002066 481.5 592.4
605(22) 0.002066 481.4 592.7
597(21) 0.002268 481.3 593.1
600(21) 0.002268 481.2 593.4
587(21) 0.002268 481.1 593.6
593(21) 0.002268 481.1 593.8
621(22) 0.002066 481.0 593.9
617(22) 0.002066 480.9 593.9
611(22) 0.002066 480.8 593.9
618(22) 0.002066 480.7 593.7
609(22) 0.002066 480.6 593.4
611(22) 0.002066 480.5 593.0
613(22) 0.002066 480.4 592.5
636(22) 0.002066 480.4 591.8
628(22) 0.002066 480.3 591.1
596(21) 0.002268 480.2 590.1
592(21) 0.002268 480.1 589.1
606(22) 0.002066 480.0 587.9
611(22) 0.002066 479.9 586.7
605(22) 0.002066 479.8 585.4
581(21) 0.002268 479.7 584.0
592(21) 0.002268 479.7 582.6
570(21) 0.002268 479.6 581.1
591(21) 0.002268 479.5 579.7
589(21) 0.002268 479.4 578.3
617(22) 0.002066 479.3 577.0
568(21) 0.002268 479.2 575.7
594(21) 0.002268 479.1 574.5
576(21) 0.002268 479.1 573.4
598(21) 0.002268 479.0 572.4
604(22) 0.002066 478.9 571.6
576(21) 0.002268 478.8 570.9
587(21) 0.002268 478.7 570.3
570(21) 0.002268 478.6 569.9
562(21) 0.002268 478.6 569.6
570(21) 0.002268 478.5 569.5
601(22) 0.002066 478.4 569.5
569(21) 0.002268 478.3 569.7
576(21) 0.002268 478.2 570.0
599(21) 0.002268 478.1 570.4
572(21) 0.002268 478.1 571.0
564(21) 0.002268 478.0 571.7
585(21) 0.002268 477.9 572.4
548(21) 0.002268 477.8 573.3
547(21) 0.002268 477.7 574.3
568(21) 0.002268 477.6 575.3
582(21) 0.002268 477.6 576.3
587(21) 0.002268 477.5 577.4
592(21) 0.002268 477.4 578.5
591(21) 0.002268 477.3 579.6
601(21) 0.002268 477.2 580.6
577(21) 0.002268 477.1 581.6
585(21) 0.002268 477.1 582.6
603(22) 0.002066 477.0 583.5
599(21) 0.002268 476.9 584.2
589(21) 0.002268 476.8 585.0
598(21) 0.002268 476.7 585.6
627(22) 0.002066 476.7 586.1
623(22) 0.002066 476.6 586.5
595(22) 0.002066 476.5 586.8
577(22) 0.002066 476.4 587.1
600(22) 0.002066 476.3 587.2
588(22) 0.002066 476.3 587.2
611(22) 0.002066 476.2 587.1
612(22) 0.002066 476.1 586.9
606(22) 0.002066 476.0 586.6
606(22) 0.002066 475.9 586.2
609(22) 0.002066 475.9 585.7
597(22) 0.002066 475.8 585.1
635(23) 0.001890 475.7 584.5
590(22) 0.002066 475.6 583.7
615(22) 0.002066 475.6 582.9
584(22) 0.002066 475.5 582.1
581(22) 0.002066 475.4 581.2
594(22) 0.002066 475.3 580.3
592(22) 0.002066 475.2 579.3
603(22) 0.002066 475.2 578.4
616(22) 0.002066 475.1 577.5
603(22) 0.002066 475.0 576.7
601(22) 0.002066 474.9 575.9
583(22) 0.002066 474.9 575.1
575(22) 0.002066 474.8 574.4
575(22) 0.002066 474.7 573.8
609(22) 0.002066 474.6 573.3
596(22) 0.002066 474.6 572.8
572(22) 0.002066 474.5 572.4
573(22) 0.002066 474.4 572.1
594(22) 0.002066 474.3 571.8
579(22) 0.002066 474.3 571.6
573(22) 0.002066 474.2 571.5
593(22) 0.002066 474.1 571.5
597(22) 0.002066 474.0 571.5
591(22) 0.002066 474.0 571.5
581(22) 0.002066 473.9 571.6
567(21) 0.002268 473.8 571.8
550(21) 0.002268 473.7 571.9
569(21) 0.002268 473.7 572.2
594(22) 0.002066 473.6 572.4
602(22) 0.002066 473.5 572.6
581(22) 0.002066 473.5 572.9
574(22) 0.002066 473.4 573.2
578(22) 0.002066 473.3 573.5
581(22) 0.002066 473.2 573.7
627(23) 0.001890 473.2 574.0
617(22) 0.002066 473.1 574.3
594(22) 0.002066 473.0 574.6
611(22) 0.002066 473.0 574.9
608(22) 0.002066 472.9 575.2
591(22) 0.002066 472.8 575.5
591(22) 0.002066 472.7 575.8
590(22) 0.002066 472.7 576.0
614(22) 0.002066 472.6 576.3
614(22) 0.002066 472.5 576.6
581(22) 0.002066 472.5 576.8
603(22) 0.002066 472.4 577.1
614(22) 0.002066 472.3 577.4
592(22) 0.002066 472.3 577.6
590(22) 0.002066 472.2 577.8
594(22) 0.002066 472.1 578.1
629(23) 0.001890 472.0 578.3
599(22) 0.002066 472.0 578.5
593(22) 0.002066 471.9 578.8
585(22) 0.002066 471.8 579.0
586(22) 0.002066 471.8 579.2
586(22) 0.002066 471.7 579.3
597(22) 0.002066 471.6 579.5
591(22) 0.002066 471.6 579.6
587(22) 0.002066 471.5 579.7
604(22) 0.002066 471.4 579.8
577(22) 0.002066 471.4 579.8
603(22) 0.002066 471.3 579.8
612(22) 0.002066 471.2 579.8
602(22) 0.002066 471.2 579.7
613(22) 0.002066 471.1 579.6
591(22) 0.002066 471.0 579.5
574(22) 0.002066 471.0 579.3
594(22) 0.002066 470.9 579.1
615(22) 0.002066 470.9 578.9
600(22) 0.002066 470.8 578.7
604(22) 0.002066 470.7 578.4
633(23) 0.001890 470.7 578.2
629(23) 0.001890 470.6 577.9
604(22) 0.002066 470.5 577.6
599(22) 0.002066 470.5 577.3
602(22) 0.002066 470.4 577.0
643(23) 0.001890 470.3 576.7
602(22) 0.002066 470.3 576.4
597(22) 0.002066 470.2 576.0
609(22) 0.002066 470.2 575.7
604(22) 0.002066 470.1 575.3
598(22) 0.002066 470.0 574.9
608(22) 0.002066 470.0 574.4
620(22) 0.002066 469.9 573.9
550(21) 0.002268 469.8 573.4
589(22) 0.002066 469.8 572.8
573(22) 0.002066 469.7 572.2
621(22) 0.002066 469.7 571.6
610(18) 0.003086 469.6 570.9
584(22) 0.002066 469.5 570.2
580(22) 0.002066 469.5 569.4
645(23) 0.001890 469.4 568.7
616(23) 0.001890 469.4 567.8
614(23) 0.001890 469.3 567.0
603(23) 0.001890 469.2 566.2
632(23) 0.001890 469.2 565.3
598(22) 0.002066 469.1 564.5
617(23) 0.001890 469.1 563.6
579(22) 0.002066 469.0 562.8
579(22) 0.002066 469.0 562.0
590(22) 0.002066 468.9 561.1
563(22) 0.002066 468.8 560.3
587(22) 0.002066 468.8 559.6
571(22) 0.002066 468.7 558.8
568(22) 0.002066 468.7 558.1
552(22) 0.002066 468.6 557.3
569(22) 0.002066 468.6 556.6
603(23) 0.001890 468.5 556.0
621(23) 0.001890 468.4 555.3
538(21) 0.002268 468.4 554.7
579(22) 0.002066 468.3 554.1
613(23) 0.001890 468.3 553.5
612(23) 0.001890 468.2 552.9
577(22) 0.002066 468.2 552.3
599(22) 0.002066 468.1 551.8
577(22) 0.002066 468.1 551.3
560(22) 0.002066 468.0 550.8
572(22) 0.002066 467.9 550.3
568(22) 0.002066 467.9 549.9
590(22) 0.002066 467.8 549.4
559(22) 0.002066 467.8 549.0
619(23) 0.001890 467.7 548.7
575(22) 0.002066 467.7 548.3
573(22) 0.002066 467.6 548.0
567(22) 0.002066 467.6 547.8
588(22) 0.002066 467.5 547.5
586(22) 0.002066 467.5 547.3
571(22) 0.002066 467.4 547.2
540(21) 0.002268 467.4 547.0
548(22) 0.002066 467.3 546.9
579(22) 0.002066 467.3 546.8
576(22) 0.002066 467.2 546.8
576(22) 0.002066 467.1 546.7
567(22) 0.002066 467.1 546.7
544(21) 0.002268 467.0 546.7
564(22) 0.002066 467.0 546.7
590(22) 0.002066 466.9 546.7
546(21) 0.002268 466.9 546.7
557(22) 0.002066 466.8 546.7
537(21) 0.002268 466.8 546.7
598(22) 0.002066 466.7 546.7
584(22) 0.002066 466.7 546.8
587(22) 0.002066 466.6 546.8
563(22) 0.002066 466.6 546.8
588(22) 0.002066 466.5 546.9
585(22) 0.002066 466.5 546.9
543(21) 0.002268 466.4 547.0
567(22) 0.002066 466.4 547.1
583(22) 0.002066 466.3 547.2
582(22) 0.002066 466.3 547.3
575(22) 0.002066 466.2 547.4
573(22) 0.002066 466.2 547.5
548(22) 0.002066 466.1 547.6
591(22) 0.002066 466.1 547.8
567(22) 0.002066 466.1 547.9
585(22) 0.002066 466.0 548.1
583(22) 0.002066 466.0 548.2
584(22) 0.002066 465.9 548.3
562(22) 0.002066 465.9 548.5
561(22) 0.002066 465.8 548.6
548(22) 0.002066 465.8 548.7
562(22) 0.002066 465.7 548.8
558(22) 0.002066 465.7 548.8
563(22) 0.002066 465.6 548.9
564(22) 0.002066 465.6 548.9
557(22) 0.002066 465.5 549.0
567(22) 0.002066 465.5 549.0
557(22) 0.002066 465.4 549.1
594(22) 0.002066 465.4 549.1
574(22) 0.002066 465.4 549.2
581(22) 0.002066 465.3 549.3
587(22) 0.002066 465.3 549.4
601(23) 0.001890 465.2 549.6
544(21) 0.002268 465.2 549.8
567(22) 0.002066 465.1 550.0
565(22) 0.002066 465.1 550.3
557(22) 0.002066 465.0 550.7
593(22) 0.002066 465.0 551.1
559(22) 0.002066 464.9 551.6
518(21) 0.002268 464.9 552.1
560(22) 0.002066 464.9 552.7
564(22) 0.002066 464.8 553.4
561(22) 0.002066 464.8 554.2
545(21) 0.002268 464.7 555.0
563(22) 0.002066 464.7 555.9
599(23) 0.001890 464.6 556.8
541(21) 0.002268 464.6 557.9
574(22) 0.002066 464.6 558.9
567(22) 0.002066 464.5 560.1
578(21) 0.002268 464.5 561.2
597(22) 0.002066 464.4 562.4
583(22) 0.002066 464.4 563.7
579(21) 0.002268 464.3 565.0
578(21) 0.002268 464.3 566.2
599(22) 0.002066 464.3 567.5
628(22) 0.002066 464.2 568.8
598(22) 0.002066 464.2 570.1
605(22) 0.002066 464.1 571.3
586(22) 0.002066 464.1 572.5
589(22) 0.002066 464.0 573.6
581(22) 0.002066 464.0 574.7
601(22) 0.002066 464.0 575.7
584(22) 0.002066 463.9 576.6
569(21) 0.002268 463.9 577.5
608(22) 0.002066 463.8 578.2
592(22) 0.002066 463.8 578.8
614(22) 0.002066 463.8 579.3
657(23) 0.001890 463.7 579.8
606(22) 0.002066 463.7 580.1
571(21) 0.002268 463.6 580.2
583(22) 0.002066 463.6 580.3
573(21) 0.002268 463.6 580.3
583(22) 0.002066 463.5 580.1
608(22) 0.002066 463.5 579.9
579(21) 0.002268 463.4 579.6
602(22) 0.002066 463.4 579.1
611(22) 0.002066 463.4 578.6
596(22) 0.002066 463.3 578.1
619(22) 0.002066 463.3 577.4
568(21) 0.002268 463.2 576.7
591(22) 0.002066 463.2 576.0
591(22) 0.002066 463.2 575.2
621(22) 0.002066 463.1 574.3
579(21) 0.002268 463.1 573.5
610(22) 0.002066 463.0 572.5
565(21) 0.002268 463.0 571.6
583(22) 0.002066 463.0 570.7
556(21) 0.002268 462.9 569.7
606(22) 0.002066 462.9 568.7
567(21) 0.002268 462.8 567.7
630(22) 0.002066 462.8 566.7
583(22) 0.002066 462.8 565.6
603(22) 0.002066 462.7 564.6
579(21) 0.002268 462.7 563.5
569(21) 0.002268 462.6 562.5
582(22) 0.002066 462.6 561.4
581(22) 0.002066 462.6 560.3
584(22) 0.002066 462.5 559.2
561(21) 0.002268 462.5 558.1
535(21) 0.002268 462.5 557.0
573(21) 0.002268 462.4 555.9
553(21) 0.002268 462.4 554.8
593(22) 0.002066 462.3 553.7
582(22) 0.002066 462.3 552.6
567(21) 0.002268 462.3 551.5
523(20) 0.002500 462.2 550.5
538(21) 0.002268 462.2 549.4
559(21) 0.002268 462.1 548.4
566(21) 0.002268 462.1 547.5
540(21) 0.002268 462.1 546.6
597(22) 0.002066 462.0 545.7
553(21) 0.002268 462.0 544.8
526(20) 0.002500 462.0 544.0
550(21) 0.002268 461.9 543.3
546(21) 0.002268 461.9 542.6
541(21) 0.002268 461.8 541.9
555(21) 0.002268 461.8 541.4
566(21) 0.002268 461.8 540.8
571(21) 0.002268 461.7 540.4
577(21) 0.002268 461.7 539.9
575(21) 0.002268 461.7 539.6
574(21) 0.002268 461.6 539.3
561(21) 0.002268 461.6 539.1
557(21) 0.002268 461.5 538.9
569(21) 0.002268 461.5 538.8
549(21) 0.002268 461.5 538.7
567(21) 0.002268 461.4 538.7
557(21) 0.002268 461.4 538.8
544(21) 0.002268 461.4 538.9
556(21) 0.002268 461.3 539.0
525(20) 0.002500 461.3 539.3
566(21) 0.002268 461.2 539.5
565(21) 0.002268 461.2 539.9
545(21) 0.002268 461.2 540.2
533(21) 0.002268 461.1 540.6
569(21) 0.002268 461.1 541.1
573(21) 0.002268 461.1 541.6
590(22) 0.002066 461.0 542.2
540(21) 0.002268 461.0 542.8
577(21) 0.002268 460.9 543.4
531(21) 0.002268 460.9 544.0
536(21) 0.002268 460.9 544.7
577(21) 0.002268 460.8 545.5
547(21) 0.002268 460.8 546.2
574(21) 0.002268 460.8 547.0
560(21) 0.002268 460.7 547.8
585(22) 0.002066 460.7 548.6
590(22) 0.002066 460.6 549.5
607(31) 0.001041 460.6 550.3
600(21) 0.002268 460.6 551.2
572(21) 0.002268 460.5 552.1
559(21) 0.002268 460.5 552.9
559(21) 0.002268 460.5 553.8
599(21) 0.002268 460.4 554.7
596(21) 0.002268 460.4 555.5
601(21) 0.002268 460.3 556.3
590(21) 0.002268 460.3 557.2
579(21) 0.002268 460.3 558.0
560(21) 0.002268 460.2 558.8
599(21) 0.002268 460.2 559.5
581(21) 0.002268 460.1 560.3
591(21) 0.002268 460.1 561.0
582(21) 0.002268 460.1 561.7
584(21) 0.002268 460.0 562.4
564(21) 0.002268 460.0 563.0
575(21) 0.002268 460.0 563.6
601(21) 0.002268 459.9 564.2
577(21) 0.002268 459.9 564.8
565(21) 0.002268 459.8 565.4
587(21) 0.002268 459.8 565.9
613(22) 0.002066 459.8 566.4
614(22) 0.002066 459.7 566.8
616(22) 0.002066 459.7 567.3
579(21) 0.002268 459.6 567.7
582(21) 0.002268 459.6 568.1
599(21) 0.002268 459.6 568.5
572(21) 0.002268 459.5 568.9
576(21) 0.002268 459.5 569.2
599(21) 0.002268 459.5 569.6
622(22) 0.002066 459.4 569.9
597(21) 0.002268 459.4 570.2
578(21) 0.002268 459.3 570.4
597(21) 0.002268 459.3 570.6
607(22) 0.002066 459.3 570.8
566(21) 0.002268 459.2 571.0
597(21) 0.002268 459.2 571.2
608(22) 0.002066 459.1 571.3
586(21) 0.002268 459.1 571.4
640(22) 0.002066 459.1 571.5
622(22) 0.002066 459.0 571.6
617(22) 0.002066 459.0 571.6
590(21) 0.002268 458.9 571.6
602(21) 0.002268 458.9 571.6
607(22) 0.002066 458.9 571.6
603(21) 0.002268 458.8 571.6
614(22) 0.002066 458.8 571.5
617(22) 0.002066 458.7 571.5
648(22) 0.002066 458.7 571.4
609(22) 0.002066 458.7 571.3
606(21) 0.002268 458.6 571.2
604(21) 0.002268 458.6 571.1
606(22) 0.002066 458.5 571.0
631(22) 0.002066 458.5 570.9
604(21) 0.002268 458.5 570.8
617(22) 0.002066 458.4 570.7
635(22) 0.002066 458.4 570.6
634(22) 0.002066 458.3 570.5
628(22) 0.002066 458.3 570.3
603(21) 0.002268 458.3 570.2
616(22) 0.002066 458.2 570.1
623(22) 0.002066 458.2 570.0
668(23) 0.001890 458.1 569.9
620(22) 0.002066 458.1 569.7
618(22) 0.002066 458.1 569.6
632(22) 0.002066 458.0 569.5
637(22) 0.002066 458.0 569.4
641(22) 0.002066 457.9 569.3
605(21) 0.002268 457.9 569.2
615(22) 0.002066 457.8 569.1
601(21) 0.002268 457.8 569.0
609(22) 0.002066 457.8 568.9
596(21) 0.002268 457.7 568.9
647(22) 0.002066 457.7 568.8
624(22) 0.002066 457.6 568.8
623(22) 0.002066 457.6 568.8
628(22) 0.002066 457.6 568.7
632(22) 0.002066 457.5 568.7
627(22) 0.002066 457.5 568.8
618(22) 0.002066 457.4 568.8
614(22) 0.002066 457.4 568.8
623(22) 0.002066 457.3 568.9
626(22) 0.002066 457.3 568.9
618(22) 0.002066 457.3 569.0
618(22) 0.002066 457.2 569.1
629(22) 0.002066 457.2 569.2
605(21) 0.002268 457.1 569.2
626(22) 0.002066 457.1 569.3
597(21) 0.002268 457.0 569.4
615(22) 0.002066 457.0 569.5
625(22) 0.002066 457.0 569.6
587(21) 0.002268 456.9 569.7
605(21) 0.002268 456.9 569.7
597(21) 0.002268 456.8 569.8
577(21) 0.002268 456.8 569.8
579(21) 0.002268 456.7 569.8
604(21) 0.002268 456.7 569.8
611(22) 0.002066 456.7 569.8
596(21) 0.002268 456.6 569.7
604(18) 0.003086 456.6 569.7
626(22) 0.002066 456.5 569.6
610(21) 0.002268 456.5 569.5
591(21) 0.002268 456.4 569.3
558(21) 0.002268 456.4 569.2
608(21) 0.002268 456.4 569.0
621(22) 0.002066 456.3 568.8
605(21) 0.002268 456.3 568.6
622(22) 0.002066 456.2 568.3
616(22) 0.002066 456.2 568.1
588(21) 0.002268 456.1 567.8
594(21) 0.002268 456.1 567.5
628(22) 0.002066 456.0 567.2
615(22) 0.002066 456.0 566.9
621(22) 0.002066 456.0 566.6
613(22) 0.002066 455.9 566.2
594(21) 0.002268 455.9 565.9
579(21) 0.002268 455.8 565.6
565(21) 0.002268 455.8 565.2
578(21) 0.002268 455.7 564.9
587(21) 0.002268 455.7 564.6
580(21) 0.002268 455.6 564.3
614(22) 0.002066 455.6 564.0
607(21) 0.002268 455.6 563.7
586(21) 0.002268 455.5 563.5
558(21) 0.002268 455.5 563.2
614(22) 0.002066 455.4 562.9
618(22) 0.002066 455.4 562.7
585(21) 0.002268 455.3 562.5
585(21) 0.002268 455.3 562.3
611(21) 0.002268 455.3 562.1
603(21) 0.002268 455.2 562.0
585(21) 0.002268 455.2 561.8
582(21) 0.002268 455.1 561.7
596(21) 0.002268 455.1 561.6
612(21) 0.002268 455.0 561.5
582(21) 0.002268 455.0 561.4
599(21) 0.002268 454.9 561.3
570(21) 0.002268 454.9 561.2
594(21) 0.002268 454.9 561.2
562(21) 0.002268 454.8 561.1
566(21) 0.002268 454.8 561.1
568(21) 0.002268 454.7 561.1
599(21) 0.002268 454.7 561.0
588(21) 0.002268 454.6 561.0
579(21) 0.002268 454.6 561.0
577(21) 0.002268 454.5 561.0
576(21) 0.002268 454.5 561.0
596(21) 0.002268 454.5 560.9
585(21) 0.002268 454.4 560.9
619(22) 0.002066 454.4 560.9
601(21) 0.002268 454.3 560.9
565(21) 0.002268 454.3 560.8
579(21) 0.002268 454.2 560.7
562(21) 0.002268 454.2 560.7
571(21) 0.002268 454.2 560.6
597(21) 0.002268 454.1 560.5
582(21) 0.002268 454.1 560.3
552(20) 0.002500 454.0 560.2
588(21) 0.002268 454.0 560.0
570(21) 0.002268 454.0 559.8
548(20) 0.002500 453.9 559.6
589(21) 0.002268 453.9 559.3
564(21) 0.002268 453.8 559.1
573(21) 0.002268 453.8 558.7
635(22) 0.002066 453.7 558.4
619(22) 0.002066 453.7 558.0
565(21) 0.002268 453.7 557.6
581(21) 0.002268 453.6 557.2
565(21) 0.002268 453.6 556.7
572(21) 0.002268 453.5 556.2
592(21) 0.002268 453.5 555.7
571(21) 0.002268 453.5 555.1
537(20) 0.002500 453.4 554.5
573(21) 0.002268 453.4 553.9
584(21) 0.002268 453.3 553.3
562(21) 0.002268 453.3 552.7
567(21) 0.002268 453.3 552.0
571(21) 0.002268 453.2 551.4
543(20) 0.002500 453.2 550.7
581(21) 0.002268 453.1 550.0
579(21) 0.002268 453.1 549.4
572(21) 0.002268 453.1 548.7
555(20) 0.002500 453.0 548.0
553(20) 0.002500 453.0 547.4
544(20) 0.002500 453.0 546.7
562(21) 0.002268 452.9 546.1
555(20) 0.002500 452.9 545.5
565(21) 0.002268 452.9 544.8
548(20) 0.002500 452.8 544.3
581(21) 0.002268 452.8 543.7
567(21) 0.002268 452.8 543.1
565(21) 0.002268 452.7 542.6
579(21) 0.002268 452.7 542.1
552(20) 0.002500 452.6 541.6
550(20) 0.002500 452.6 541.1
572(21) 0.002268 452.6 540.7
535(20) 0.002500 452.6 540.3
556(20) 0.002500 452.5 539.9
567(21) 0.002268 452.5 539.5
565(21) 0.002268 452.5 539.2
550(21) 0.002268 452.4 538.9
557(21) 0.002268 452.4 538.6
564(21) 0.002268 452.4 538.3
539(21) 0.002268 452.3 538.1
510(20) 0.002500 452.3 537.9
526(20) 0.002500 452.3 537.7
552(21) 0.002268 452.3 537.5
540(21) 0.002268 452.2 537.4
556(21) 0.002268 452.2 537.2
560(21) 0.002268 452.2 537.1
535(21) 0.002268 452.1 537.0
533(21) 0.002268 452.1 536.9
529(20) 0.002500 452.1 536.8
550(21) 0.002268 452.1 536.8
519(20) 0.002500 452.0 536.7
578(21) 0.002268 452.0 536.7
557(21) 0.002268 452.0 536.7
552(21) 0.002268 452.0 536.7
545(21) 0.002268 452.0 536.7
570(21) 0.002268 451.9 536.7
590(22) 0.002066 451.9 536.7
569(21) 0.002268 451.9 536.7
544(21) 0.002268 451.9 536.8
568(21) 0.002268 451.9 536.8
542(21) 0.002268 451.8 536.9
569(21) 0.002268 451.8 536.9
594(22) 0.002066 451.8 537.0
594(22) 0.002066 451.8 537.0
590(22) 0.002066 451.8 537.1
546(21) 0.002268 451.8 537.2
543(21) 0.002268 451.8 537.3
553(21) 0.002268 451.7 537.4
552(21) 0.002268 451.7 537.5
565(21) 0.002268 451.7 537.6
543(21) 0.002268 451.7 537.7
588(22) 0.002066 451.7 537.8
579(21) 0.002268 451.7 537.9
578(21) 0.002268 451.7 538.1
554(21) 0.002268 451.7 538.2
580(21) 0.002268 451.7 538.3
574(21) 0.002268 451.7 538.5
562(21) 0.002268 451.7 538.6
545(21) 0.002268 451.7 538.8
533(20) 0.002500 451.7 539.0
566(21) 0.002268 451.7 539.1
511(20) 0.002500 451.7 539.3
583(21) 0.002268 451.7 539.5
567(21) 0.002268 451.7 539.7
587(21) 0.002268 451.7 539.9
552(21) 0.002268 451.7 540.1
548(21) 0.002268 451.7 540.3
586(21) 0.002268 451.7 540.5
575(21) 0.002268 451.7 540.8
577(21) 0.002268 451.7 541.0
574(21) 0.002268 451.7 541.2
550(21) 0.002268 451.7 541.5
535(21) 0.002268 451.8 541.7
560(21) 0.002268 451.8 542.0
576(21) 0.002268 451.8 542.3
581(21) 0.002268 451.8 542.5
588(22) 0.002066 451.8 542.8
570(21) 0.002268 451.8 543.1
590(22) 0.002066 451.9 543.4
590(22) 0.002066 451.9 543.7
557(21) 0.002268 451.9 543.9
563(21) 0.002268 451.9 544.2
564(21) 0.002268 452.0 544.5
582(21) 0.002268 452.0 544.8
574(21) 0.002268 452.0 545.1
551(21) 0.002268 452.0 545.3
562(21) 0.002268 452.1 545.6
560(21) 0.002268 452.1 545.8
551(21) 0.002268 452.1 546.1
562(21) 0.002268 452.2 546.3
563(21) 0.002268 452.2 546.6
574(21) 0.002268 452.2 546.8
578(21) 0.002268 452.3 547.0
563(21) 0.002268 452.3 547.1
576(21) 0.002268 452.4 547.3
566(21) 0.002268 452.4 547.4
574(21) 0.002268 452.5 547.6
568(21) 0.002268 452.5 547.7
535(21) 0.002268 452.6 547.8
571(21) 0.002268 452.6 547.8
551(21) 0.002268 452.7 547.9
583(21) 0.002268 452.7 547.9
547(21) 0.002268 452.8 547.9
548(21) 0.002268 452.8 547.9
583(21) 0.002268 452.9 547.8
598(22) 0.002066 453.0 547.8
560(21) 0.002268 453.0 547.7
566(21) 0.002268 453.1 547.6
569(21) 0.002268 453.2 547.5
573(21) 0.002268 453.2 547.3
574(21) 0.002268 453.3 547.2
570(21) 0.002268 453.4 547.0
576(21) 0.002268 453.5 546.8
536(21) 0.002268 453.5 546.7
560(21) 0.002268 453.6 546.4
584(22) 0.002066 453.7 546.2
592(22) 0.002066 453.8 546.0
599(22) 0.002066 453.9 545.8
560(21) 0.002268 454.0 545.5
538(21) 0.002268 454.1 545.3
536(21) 0.002268 454.2 545.0
571(21) 0.002268 454.3 544.8
562(21) 0.002268 454.4 544.5
562(21) 0.002268 454.5 544.3
570(21) 0.002268 454.6 544.1
580(22) 0.002066 454.7 543.8
567(21) 0.002268 454.8 543.6
576(22) 0.002066 454.9 543.4
573(21) 0.002268 455.0 543.2
558(21) 0.002268 455.1 543.0
529(21) 0.002268 455.2 542.8
526(21) 0.002268 455.4 542.6
548(21) 0.002268 455.5 542.4
568(21) 0.002268 455.6 542.3
576(22) 0.002066 455.7 542.1
562(21) 0.002268 455.9 542.0
599(22) 0.002066 456.0 541.9
578(22) 0.002066 456.1 541.8
537(21) 0.002268 456.3 541.7
568(21) 0.002268 456.4 541.7
608(22) 0.002066 456.6 541.7
553(21) 0.002268 456.7 541.7
545(21) 0.002268 456.9 541.7
565(21) 0.002268 457.0 541.7
565(21) 0.002268 457.2 541.8
583(22) 0.002066 457.3 541.9
571(21) 0.002268 457.5 542.0
544(21) 0.002268 457.7 542.1
563(21) 0.002268 457.8 542.2
566(21) 0.002268 458.0 542.4
571(21) 0.002268 458.2 542.6
575(22) 0.002066 458.4 542.8
579(22) 0.002066 458.5 543.0
567(21) 0.002268 458.7 543.3
585(22) 0.002066 458.9 543.5
571(21) 0.002268 459.1 543.8
572(21) 0.002268 459.3 544.2
584(22) 0.002066 459.5 544.5
575(21) 0.002268 459.7 544.8
578(22) 0.002066 459.9 545.2
610(22) 0.002066 460.1 545.6
588(22) 0.002066 460.3 546.0
570(21) 0.002268 460.6 546.4
560(21) 0.002268 460.8 546.9
559(21) 0.002268 461.0 547.3
565(21) 0.002268 461.2 547.8
557(21) 0.002268 461.5 548.3
579(22) 0.002066 461.7 548.8
586(22) 0.002066 461.9 549.3
561(21) 0.002268 462.2 549.8
559(21) 0.002268 462.4 550.3
583(22) 0.002066 462.7 550.8
588(22) 0.002066 462.9 551.4
575(22) 0.002066 463.2 551.9
562(21) 0.002268 463.5 552.5
563(21) 0.002268 463.7 553.0
564(21) 0.002268 464.0 553.6
597(22) 0.002066 464.3 554.1
610(22) 0.002066 464.6 554.7
585(22) 0.002066 464.9 555.3
570(21) 0.002268 465.1 555.8
582(22) 0.002066 465.4 556.4
588(22) 0.002066 465.7 556.9
598(22) 0.002066 466.0 557.5
608(22) 0.002066 466.3 558.1
625(22) 0.002066 466.7 558.6
602(22) 0.002066 467.0 559.2
575(21) 0.002268 467.3 559.7
578(22) 0.002066 467.6 560.2
570(21) 0.002268 468.0 560.8
582(22) 0.002066 468.3 561.3
601(22) 0.002066 468.6 561.8
585(22) 0.002066 469.0 562.3
587(22) 0.002066 469.3 562.8
569(21) 0.002268 469.7 563.3
554(21) 0.002268 470.1 563.8
571(21) 0.002268 470.4 564.3
603(22) 0.002066 470.8 564.8
585(22) 0.002066 471.2 565.3
607(22) 0.002066 471.6 565.7
606(22) 0.002066 471.9 566.2
591(22) 0.002066 472.3 566.6
619(22) 0.002066 472.7 567.1
609(22) 0.002066 473.1 567.5
619(22) 0.002066 473.5 567.9
591(22) 0.002066 474.0 568.4
610(22) 0.002066 474.4 568.8
620(22) 0.002066 474.8 569.2
604(22) 0.002066 475.2 569.6
592(22) 0.002066 475.7 570.0
584(22) 0.002066 476.1 570.5
602(22) 0.002066 476.6 570.9
589(22) 0.002066 477.0 571.3
579(22) 0.002066 477.5 571.7
602(22) 0.002066 478.0 572.1
591(18) 0.003086 478.4 572.5
603(22) 0.002066 478.9 572.9
596(22) 0.002066 479.4 573.3
601(22) 0.002066 479.9 573.7
597(22) 0.002066 480.4 574.1
580(22) 0.002066 480.9 574.5
590(22) 0.002066 481.4 574.9
580(22) 0.002066 481.9 575.3
571(22) 0.002066 482.5 575.7
606(22) 0.002066 483.0 576.1
587(22) 0.002066 483.6 576.6
577(22) 0.002066 484.1 577.0
586(22) 0.002066 484.7 577.4
610(22) 0.002066 485.2 577.9
627(23) 0.001890 485.8 578.4
600(22) 0.002066 486.4 578.8
573(22) 0.002066 486.9 579.3
585(22) 0.002066 487.5 579.8
609(22) 0.002066 488.1 580.3
614(22) 0.002066 488.7 580.8
621(22) 0.002066 489.3 581.3
621(22) 0.002066 490.0 581.9
621(22) 0.002066 490.6 582.4
636(23) 0.001890 491.2 583.0
629(23) 0.001890 491.9 583.6
609(22) 0.002066 492.5 584.2
597(22) 0.002066 493.2 584.8
591(22) 0.002066 493.8 585.4
595(22) 0.002066 494.5 586.1
626(23) 0.001890 495.2 586.8
633(23) 0.001890 495.9 587.4
628(23) 0.001890 496.6 588.1
606(22) 0.002066 497.3 588.9
601(22) 0.002066 498.0 589.6
618(22) 0.002066 498.7 590.3
648(23) 0.001890 499.5 591.1
622(22) 0.002066 500.2 591.9
627(23) 0.001890 500.9 592.7
649(23) 0.001890 501.7 593.5
640(23) 0.001890 502.5 594.4
625(22) 0.002066 503.2 595.2
615(22) 0.002066 504.0 596.1
634(23) 0.001890 504.8 597.0
621(22) 0.002066 505.6 597.9
614(22) 0.002066 506.4 598.9
594(22) 0.002066 507.3 599.8
635(23) 0.001890 508.1 600.8
651(23) 0.001890 508.9 601.8
645(23) 0.001890 509.8 602.8
635(23) 0.001890 510.6 603.8
642(23) 0.001890 511.5 604.9
639(23) 0.001890 512.4 605.9
643(23) 0.001890 513.3 607.0
644(23) 0.001890 514.2 608.1
601(22) 0.002066 515.1 609.3
603(22) 0.002066 516.0 610.4
647(23) 0.001890 516.9 611.6
643(23) 0.001890 517.8 612.7
635(23) 0.001890 518.8 613.9
639(23) 0.001890 519.8 615.1
630(23) 0.001890 520.7 616.4
634(23) 0.001890 521.7 617.6
636(23) 0.001890 522.7 618.9
651(23) 0.001890 523.7 620.2
671(23) 0.001890 524.7 621.5
640(23) 0.001890 525.7 622.8
642(23) 0.001890 526.8 624.1
661(23) 0.001890 527.8 625.5
655(23) 0.001890 528.9 626.9
641(23) 0.001890 529.9 628.2
639(23) 0.001890 531.0 629.6
638(23) 0.001890 532.1 631.1
669(23) 0.001890 533.2 632.5
674(23) 0.001890 534.3 633.9
677(23) 0.001890 535.4 635.4
677(23) 0.001890 536.6 636.8
651(23) 0.001890 537.7 638.3
650(23) 0.001890 538.9 639.8
655(23) 0.001890 540.0 641.3
670(23) 0.001890 541.2 642.8
670(23) 0.001890 542.4 644.4
661(23) 0.001890 543.6 645.9
673(23) 0.001890 544.9 647.5
673(23) 0.001890 546.1 649.0
658(23) 0.001890 547.3 650.6
642(23) 0.001890 548.6 652.2
679(23) 0.001890 549.9 653.8
670(23) 0.001890 551.2 655.3
646(23) 0.001890 552.5 656.9
659(23) 0.001890 553.8 658.6
677(23) 0.001890 555.1 660.2
691(24) 0.001736 556.4 661.8
693(24) 0.001736 557.8 663.4
699(24) 0.001736 559.2 665.0
692(24) 0.001736 560.5 666.7
696(24) 0.001736 561.9 668.3
701(24) 0.001736 563.3 670.0
678(23) 0.001890 564.8 671.6
686(24) 0.001736 566.2 673.3
722(24) 0.001736 567.6 674.9
747(25) 0.001600 569.1 676.6
722(25) 0.001600 570.6 678.2
682(24) 0.001736 572.1 679.9
705(24) 0.001736 573.6 681.6
701(24) 0.001736 575.1 683.2
681(24) 0.001736 576.6 684.9
710(24) 0.001736 578.2 686.6
693(24) 0.001736 579.8 688.2
715(24) 0.001736 581.3 689.9
741(25) 0.001600 582.9 691.6
751(25) 0.001600 584.6 693.2
781(25) 0.001600 586.2 694.9
762(25) 0.001600 587.8 696.6
744(25) 0.001600 589.5 698.3
729(25) 0.001600 591.2 699.9
697(24) 0.001736 592.9 701.6
710(24) 0.001736 594.6 703.3
710(24) 0.001736 596.3 705.0
721(25) 0.001600 598.0 706.7
723(25) 0.001600 599.8 708.4
764(25) 0.001600 601.6 710.0
749(25) 0.001600 603.4 711.7
739(25) 0.001600 605.2 713.4
768(25) 0.001600 607.0 715.1
752(25) 0.001600 608.8 716.8
776(25) 0.001600 610.7 718.5
742(25) 0.001600 612.6 720.2
732(25) 0.001600 614.5 721.9
733(25) 0.001600 616.4 723.7
734(25) 0.001600 618.3 725.4
761(25) 0.001600 620.3 727.1
777(25) 0.001600 622.2 728.8
769(25) 0.001600 624.2 730.6
755(25) 0.001600 626.2 732.3
739(25) . . .
745(25) . . .
754(25) . . .
758(25) . . .
757(25) . . .
740(25) . . .
755(25) . . .
768(25) . . .
784(26) . . .
796(26) . . .
766(25) . . .
788(26) . . .
812(26) . . .
773(25) . . .
784(26) . . .
822(26) . . .
774(25) . . .
781(26) . . .
793(26) . . .
805(26) . . .
808(26) . . .
756(25) . . .
795(26) . . .
814(26) . . .
788(26) . . .
802(26) . . .
838(26) . . .
815(26) . . .
842(26) . . .
845(26) . . .
835(26) . . .
823(26) . . .
841(26) . . .
807(26) . . .
816(26) . . .
871(27) . . .
862(27) . . .
813(26) . . .
836(26) . . .
841(26) . . .
854(27) . . .
874(27) . . .
827(26) . . .
854(27) . . .
876(27) . . .
858(27) . . .
852(27) . . .
839(26) . . .
865(27) . . .
877(27) . . .
877(27) . . .
885(27) . . .
877(27) . . .
872(27) . . .
897(27) . . .
867(27) . . .
904(27) . . .
900(27) . . .
904(27) . . .
899(27) . . .
877(27) . . .
861(27) . . .
881(27) . . .
903(27) . . .
905(27) . . .
925(28) . . .
942(40) . . .
904(39) . . .
915(40) . . .
920(40) . . .
925(40) . . .
996(41) . . .
949(40) . . .
918(40) . . .
921(40) . . .
953(40) . . .
961(40) . . .
970(41) . . .
935(40) . . .
942(40) . . .
932(40) . . .
907(39) . . .
955(40) . . .
916(40) . . .
958(40) . . .
981(41) . . .
921(40) . . .
965(41) . . .
1036(42) . . .
984(41) . . .
1002(41) . . .
1003(41) . . .
1033(42) . . .
932(40) . . .
962(40) . . .
1006(41) . . .
969(41) . . .
999(41) . . .
1031(42) . . .
1014(41) . . .
1059(42) . . .
1021(42) . . .
1035(42) . . .
1010(41) . . .
1032(42) . . .
1043(42) . . .
1066(42) . . .
1117(43) . . .
1078(43) . . .
1070(42) . . .
1077(43) . . .
1089(43) . . .
1090(43) . . .
1100(43) . . .
973(41) . . .
1054(42) . . .
1033(42) . . .
1046(42) . . .
1023(42) . . .
1039(42) . . .
1024(42) . . .
1011(41) . . .
1070(42) . . .
1119(43) . . .
1062(42) . . .
1033(42) . . .
1050(42) . . .
1055(42) . . .
1149(44) . . .
1108(43) . . .
1098(43) . . .
1104(43) . . .
1055(42) . . .
1072(42) . . .
1050(42) . . .
1098(43) . . .
1077(43) . . .
1097(43) . . .
1110(43) . . .
1087(43) . . .
1107(43) . . .
1154(44) . . .
1083(43) . . .
1121(43) . . .
1167(44) . . .
1101(43) . . .
1119(43) . . .
1097(43) . . .
1101(43) . . .
1184(44) . . .
1114(43) . . .
1164(44) . . .
1177(44) . . .
1166(44) . . .
1136(44) . . .
1168(44) . . .
1147(44) . . .
1180(44) . . .
1130(44) . . .
1134(44) . . .
1183(44) . . .
1134(44) . . .
1107(43) . . .
1175(44) . . .
1195(45) . . .
1192(45) . . .
loop_
_refln_index_h
_refln_index_k
_refln_index_l
_refln_observed_status
_refln_F_squared_meas
_refln_F_squared_calc
_refln_phase_calc
_refln_d_spacing
_gsas_i100_meas
1 1 0 o 1226.074 1233.269 180.00 12.90069 100.00
3 0 0 o 304.623 291.341 -31.88 7.44822 8.34
1 0 1 o 135.621 129.556 74.54 6.47150 2.81
2 2 0 o 117.788 114.206 -180.00 6.45034 2.43
12 2 -5 o 500.824 393.821 20.98 1.05919 2.82
2 0 -1 o 486.777 448.580 144.99 5.78448 8.09
2 1 1 o 35.331 32.125 -17.14 5.27818 0.98
4 1 0 o 22.016 33.730 -91.00 4.87600 0.52
20 0 2 o 1147.426 902.104 -30.96 1.06080 3.13
13 11 -1 o 181.319 142.553 59.41 1.06052 0.99
20 2 0 o 293.200 230.513 72.25 1.06043 1.61
3 1 -1 o 72.774 86.177 -22.09 4.56854 1.52
4 0 1 o 488.355 522.665 -91.79 4.30648 4.56
3 3 0 o 86.720 90.142 180.00 4.30023 0.81
3 2 1 o 92.591 95.283 155.18 4.08489 1.56
14 4 4 o 247.287 194.423 -151.00 1.06193 1.32
5 0 -1 o 141.892 146.374 25.93 3.72817 1.00
6 0 0 o 272.354 279.694 -61.55 3.72411 1.92
4 2 -1 o 368.934 342.106 -170.59 3.58161 4.83
5 2 0 o 185.286 171.043 -42.65 3.57801 2.42
5 1 1 o 607.993 572.840 56.62 3.45107 7.42
8 7 -5 o 54.192 42.592 130.54 1.06278 0.28
13 0 -5 o 418.630 329.016 173.29 1.06278 1.10
1 0 -2 o 70.035 48.471 -11.97 3.34260 0.40
12 11 -2 o 74.796 58.679 -39.75 1.06441 0.38
4 4 6 o 43.339 34.028 71.29 1.06381 0.22
15 9 0 o 174.918 137.301 -8.54 1.06403 0.90
21 0 0 o 159.502 125.200 -85.18 1.06403 0.41
2 0 2 o 13.244 11.101 78.07 3.23575 0.07
4 3 1 o 235.330 199.205 -12.98 3.22781 2.53
4 4 0 o 256.501 217.990 0.00 3.22517 1.38
2 1 -2 o 430.097 392.094 -168.06 3.13853 4.39
6 1 -1 o 37.837 39.973 15.40 3.04293 0.36
3 1 2 o 274.387 271.463 20.48 2.96779 2.52
7 1 0 o 1794.641 1785.725 126.50 2.95962 16.40
4 0 -2 o 1260.241 1200.659 60.74 2.89224 5.52
5 3 -1 o 38.515 36.628 116.86 2.88657 0.34
7 0 1 o 826.319 785.851 -137.64 2.88657 3.60
3 2 -2 o 131.918 130.449 128.08 2.82219 1.10
6 2 1 o 523.158 515.470 -165.98 2.81691 4.36
6 3 0 o 208.296 204.885 -78.13 2.81516 1.74
19 3 1 o 218.150 170.027 -111.56 1.06776 1.05
17 6 -1 o 175.618 136.878 -2.64 1.06776 0.85
5 0 2 o 954.000 815.581 -5.42 2.69611 3.67
4 2 2 o 51.360 50.808 178.36 2.63909 0.38
5 1 -2 o 186.278 171.597 -82.50 2.58554 1.33
5 4 1 o 320.618 316.570 61.96 2.63478 2.37
8 0 -1 o 517.013 472.273 -1.39 2.58149 1.84
5 5 0 o 124.123 113.051 0.00 2.58014 0.44
7 2 -1 o 476.125 439.285 -173.21 2.53130 3.27
4 3 -2 o 27.223 29.427 -85.37 2.48755 0.18
8 1 1 o 193.430 215.959 -6.53 2.43914 1.24
8 2 0 o 65.364 73.072 -81.19 2.43800 0.42
9 0 0 o 367.574 405.532 -21.89 2.48274 1.22
11 3 5 o 69.448 53.971 -108.24 1.07006 0.32
6 1 2 o 36.663 41.707 -116.29 2.39992 0.23
6 4 -1 o 186.107 211.628 19.58 2.39668 1.16
7 3 1 o 51.957 57.398 -7.20 2.35636 0.31
6 2 -2 o 255.319 236.712 -125.47 2.28427 1.46
7 0 -2 o 1694.030 1639.602 79.21 2.32094 4.98
5 3 2 o 743.247 719.368 174.04 2.32094 4.37
7 4 0 o 8.226 7.907 1.31 2.31703 0.05
0 0 3 o 2172.452 1874.535 108.33 2.25376 2.02
13 5 -4 o 142.795 110.749 -34.07 1.07289 0.64
15 2 4 o 256.598 199.012 -86.02 1.07289 1.16
16 4 3 o 380.736 295.442 -179.74 1.07221 1.73
16 4 -3 o 11.034 8.562 52.48 1.07221 0.05
1 1 3 o 251.485 229.215 -60.03 2.22013 1.37
9 1 -1 o 77.506 72.040 -9.29 2.21330 0.42
6 5 1 o 154.208 143.331 -109.62 2.21330 0.84
8 3 -1 o 182.283 168.698 174.82 2.15089 0.94
6 6 0 o 334.332 309.083 -180.00 2.15011 0.86
5 4 -2 o 411.341 401.470 -53.47 2.18387 2.18
2 2 3 o 660.216 591.197 119.32 2.12763 3.35
7 2 2 o 132.168 118.521 51.01 2.12386 0.67
3 0 3 o 164.485 153.252 -167.80 2.15717 0.43
3 0 -3 o 222.479 207.287 95.80 2.15717 0.58
10 0 1 o 507.794 455.722 43.19 2.12161 1.28
10 1 0 o 31.075 27.894 44.08 2.12086 0.16
8 0 2 o 56.775 52.688 -144.16 2.15324 0.15
9 2 1 o 704.380 619.595 -170.21 2.09349 3.47
12 9 -3 o 228.253 176.635 114.98 1.07594 0.99
12 9 3 o 391.634 303.070 -2.30 1.07594 1.71
16 6 -2 o 28.272 21.884 -130.51 1.07545 0.12
20 1 1 o 154.343 119.489 -17.41 1.07515 0.68
8 1 -2 o 622.624 551.492 -86.60 2.06853 3.01
5 2 -6 o 86.631 67.082 29.31 1.07483 0.38
5 2 6 o 22.189 17.182 -41.74 1.07483 0.10
12 12 0 o 91.658 70.964 0.00 1.07506 0.20
9 3 0 o 221.739 197.083 -150.06 2.06576 1.07
7 3 -2 o 1185.494 1088.265 93.14 2.01732 5.50
8 4 1 o 41.997 38.516 64.78 2.01539 0.19
4 1 3 o 135.320 120.406 -0.01 2.04580 0.64
4 1 -3 o 578.642 514.868 -1.97 2.04580 2.75
6 4 2 o 574.524 511.815 -34.41 2.04245 2.72
7 5 -1 o 246.064 219.528 -170.49 2.04044 1.16
12 1 5 o 89.583 69.315 -7.28 1.07750 0.38
3 3 3 o 355.557 320.015 -124.70 1.99621 1.62
16 0 4 o 11.181 8.651 172.74 1.07662 0.02
8 5 0 o 111.415 100.474 173.91 1.96734 0.50
6 0 3 o 173.097 153.388 99.48 1.92816 0.37
6 0 -3 o 215.952 191.364 -102.78 1.92816 0.47
9 1 2 o 76.889 68.613 -55.34 1.92536 0.33
6 5 -2 o 167.310 149.300 -126.42 1.92536 0.72
10 2 -1 o 252.377 226.295 -154.82 1.92368 1.08
6 0 6 o 67.385 52.173 -161.03 1.07858 0.14
6 0 -6 o 435.564 337.232 -151.58 1.07858 0.92
11 0 -1 o 154.434 137.173 29.54 1.94543 0.34
5 2 -3 o 433.698 403.791 -175.43 1.90698 1.84
5 2 3 o 26.358 24.540 63.64 1.90698 0.11
7 6 1 o 16.736 15.581 -40.50 1.90264 0.07
8 3 2 o 201.273 181.978 -159.23 1.88385 0.84
4 4 3 o 36.877 34.540 -96.31 1.84739 0.15
9 2 -2 o 68.442 64.598 -73.60 1.84492 0.28
11 2 0 o 26.650 25.299 25.52 1.84296 0.11
7 7 0 o 402.794 382.369 0.00 1.84296 0.81
10 0 -2 o 1273.686 1155.771 54.13 1.86408 2.60
11 1 1 o 108.257 98.439 18.38 1.86256 0.44
9 4 -1 o 151.729 137.969 -11.59 1.86256 0.62
12 0 0 o 70.034 63.728 -149.40 1.86205 0.14
10 3 1 o 184.369 173.335 -40.66 1.82491 0.73
7 5 2 o 153.122 135.836 75.88 1.80831 0.60
8 6 -1 o 168.485 147.613 5.65 1.77248 0.64
7 1 -3 o 55.358 49.404 56.28 1.79306 0.21
7 1 3 o 311.150 277.688 -111.27 1.79306 1.20
8 4 -2 o 101.200 90.627 93.45 1.79080 0.39
10 4 0 o 163.217 146.433 -7.31 1.78900 0.63
9 5 -5 o 99.167 78.012 -20.72 1.08510 0.40
6 3 3 o 26.528 21.541 -19.10 1.75939 0.10
6 3 -3 o 97.633 79.277 9.41 1.75939 0.37
9 5 1 o 26.620 21.314 11.18 1.75599 0.10
17 2 -3 o 168.714 132.115 -116.01 1.08350 0.68
17 2 3 o 37.146 29.088 46.58 1.08350 0.15
11 0 2 o 824.288 660.416 136.27 1.74118 1.52
7 6 -2 o 156.578 147.219 150.04 1.71031 0.56
9 6 0 o 57.971 54.394 -37.07 1.70874 0.21
18 0 3 o 35.485 28.034 -91.66 1.08734 0.07
18 0 -3 o 40.564 32.047 -1.60 1.08734 0.08
15 7 2 o 88.374 69.771 -107.24 1.08684 0.35
10 2 2 o 201.114 179.279 -16.28 1.72554 0.73
18 4 -1 o 450.463 355.465 -177.36 1.08653 1.78
12 1 -1 o 55.925 50.258 -131.89 1.72433 0.20
5 5 3 o 185.858 168.776 57.23 1.69738 0.66
11 3 -1 o 389.488 349.050 40.83 1.69432 1.38
1 0 4 o 74.607 65.381 -99.91 1.68550 0.13
11 1 -2 o 592.053 520.434 -138.33 1.68101 2.08
9 4 2 o 210.199 184.772 39.97 1.68101 0.74
8 6 5 o 154.592 122.268 0.85 1.08896 0.60
10 3 -2 o 43.497 39.869 147.83 1.65318 0.15
12 2 1 o 849.237 778.882 146.49 1.65212 2.91
13 1 0 o 152.921 140.274 31.84 1.65176 0.52
2 0 -4 o 294.241 262.368 14.13 1.67130 0.51
14 3 -4 o 294.429 232.764 160.75 1.08805 1.15
11 7 4 o 344.405 272.273 77.92 1.08805 1.34
9 0 -3 o 51.669 46.298 30.01 1.66874 0.09
9 0 3 o 542.791 486.371 54.15 1.66874 0.94
8 7 1 o 235.173 211.977 130.26 1.66583 0.82
13 0 1 o 225.992 203.703 -123.01 1.66583 0.39
10 5 -1 o 49.945 44.503 61.11 1.63873 0.17
2 1 4 o 191.729 175.011 138.92 1.65745 0.66
10 8 -4 o 67.406 53.296 -155.03 1.09194 0.26
8 2 3 o 121.368 111.075 82.08 1.65495 0.42
8 2 -3 o 362.797 332.031 -107.67 1.65495 1.25
3 1 -4 o 68.468 58.828 -146.20 1.63075 0.23
15 8 1 o 31.267 24.727 165.77 1.09041 0.12
12 3 0 o 290.542 246.311 179.45 1.62533 0.98
3 3 6 o 247.449 195.703 162.94 1.09007 0.95
9 5 -2 o 72.652 64.977 -32.25 1.60142 0.24
4 0 4 o 126.218 107.228 -81.43 1.61787 0.21
7 4 3 o 113.895 97.381 -150.99 1.61555 0.38
7 4 -3 o 432.340 369.658 110.02 1.61555 1.44
8 6 2 o 70.693 60.779 -70.79 1.61390 0.24
11 4 1 o 36.300 31.320 -60.36 1.61291 0.12
8 8 0 o 92.464 79.874 180.00 1.61259 0.15
17 4 -2 o 149.910 118.775 110.38 1.09463 0.56
16 7 0 o 298.450 236.312 -153.57 1.09422 1.11
3 2 4 o 112.855 100.004 -23.53 1.60530 0.37
5 0 -4 o 556.738 489.619 -2.10 1.58101 0.90
12 1 2 o 93.616 82.190 150.75 1.57730 0.30
11 5 0 o 262.330 230.567 127.25 1.57607 0.85
6 6 3 o 27.789 25.976 39.33 1.55571 0.09
11 3 2 o 438.706 409.732 -138.03 1.55424 1.39
14 0 -1 o 457.070 426.525 29.50 1.55335 0.72
10 6 1 o 3.560 3.322 50.39 1.55335 0.01
4 2 -4 o 6.526 5.863 68.23 1.56927 0.02
15 1 -4 o 66.042 52.469 -42.73 1.09587 0.24
9 7 -1 o 327.142 300.481 -131.58 1.56474 1.05
10 1 3 o 326.902 299.522 -87.09 1.54452 1.03
10 1 -3 o 63.220 57.924 103.91 1.54452 0.20
13 2 -1 o 230.719 210.383 -145.92 1.54221 0.73
5 1 4 o 223.818 209.187 95.23 1.55778 0.71
4 3 4 o 394.597 355.145 -154.61 1.53555 1.23
13 0 -2 o 278.548 248.666 37.64 1.53216 0.43
8 7 -2 o 15.025 13.414 -62.08 1.53216 0.05
10 5 2 o 187.691 163.375 28.38 1.51099 0.58
12 4 -1 o 159.763 138.971 -141.54 1.51018 0.49
10 7 0 o 100.060 87.017 -29.07 1.50991 0.31
14 9 -1 o 242.413 194.258 18.57 1.09828 0.88
19 2 -1 o 40.091 32.127 -29.63 1.09828 0.15
4 1 -6 o 117.088 93.699 22.63 1.09794 0.43
4 1 6 o 93.192 74.576 2.38 1.09794 0.34
9 3 3 o 193.938 170.440 124.14 1.52285 0.60
9 3 -3 o 37.562 33.011 -38.12 1.52285 0.12
12 2 -2 o 40.784 35.782 63.84 1.52146 0.13
14 1 1 o 674.565 586.908 -8.26 1.49994 2.06
13 9 -2 o 19.935 16.165 -150.83 1.10260 0.07
20 0 -1 o 187.593 152.075 -169.33 1.10229 0.33
6 1 -4 o 110.500 96.345 -177.87 1.51425 0.34
7 0 4 o 325.755 287.894 -90.08 1.49381 0.49
5 3 -4 o 58.657 51.839 -14.50 1.49381 0.18
10 3 -5 o 67.496 54.567 -175.81 1.10079 0.24
11 4 -2 o 263.410 234.171 -12.92 1.49068 0.80
15 0 0 o 247.353 220.204 -97.37 1.48964 0.37
12 11 1 o 384.678 310.859 126.47 1.10633 1.34
6 2 4 o 40.966 36.511 -44.26 1.48389 0.12
8 5 3 o 90.489 80.417 57.36 1.48210 0.27
8 5 -3 o 164.214 145.935 -9.63 1.48210 0.49
9 8 1 o 203.715 180.166 -72.45 1.48006 0.61
13 3 1 o 348.436 308.157 -105.88 1.48006 1.05
14 2 0 o 50.998 45.073 -117.32 1.47981 0.15
11 6 -1 o 255.350 225.980 69.28 1.46096 0.76
10 6 -2 o 75.655 67.234 -136.97 1.44328 0.22
14 0 2 o 676.757 601.429 -32.58 1.44328 0.99
12 5 1 o 640.584 567.991 114.82 1.44258 1.88
5 4 4 o 357.953 320.418 -5.07 1.45529 1.06
9 4 5 o 145.832 116.850 -154.20 1.10889 0.50
11 1 -5 o 22.884 18.337 -20.69 1.10889 0.08
7 2 -4 o 21.337 18.554 117.63 1.43712 0.06
9 7 2 o 231.254 207.799 172.30 1.45240 0.68
13 4 0 o 299.130 268.992 36.65 1.45144 0.88
12 0 -3 o 34.889 30.174 -136.62 1.43549 0.05
12 0 3 o 221.886 191.898 115.04 1.43549 0.32
13 2 2 o 295.496 254.657 39.43 1.43433 0.86
9 9 0 o 3.890 3.344 0.00 1.43341 0.01
13 7 3 o 617.252 497.630 -172.90 1.10718 2.14
13 7 -3 o 72.932 58.798 154.10 1.10718 0.25
8 0 -4 o 30.670 27.465 -136.16 1.44612 0.05
12 10 2 o 73.297 59.182 171.93 1.10665 0.25
18 2 -2 o 117.211 94.639 -18.15 1.10665 0.41
11 2 -3 o 48.973 41.524 150.58 1.42669 0.14
7 7 3 o 571.104 484.235 -156.22 1.42669 1.66
11 2 3 o 37.371 31.686 149.90 1.42669 0.11
6 4 -4 o 81.631 71.070 179.07 1.41109 0.23
12 5 4 o 141.222 111.403 -123.42 1.11204 0.48
12 4 2 o 80.699 70.493 -119.97 1.40846 0.23
15 1 -1 o 44.129 38.572 178.33 1.40780 0.13
12 6 0 o 464.404 406.020 -135.52 1.40758 1.33
8 1 4 o 534.168 454.800 55.22 1.41961 1.54
16 5 2 o 312.819 248.494 96.45 1.11074 1.07
19 0 -2 o 91.522 72.702 -35.42 1.11074 0.16
2 2 6 o 61.882 49.323 -56.57 1.11007 0.21
7 3 4 o 1163.118 1028.083 -176.99 1.40273 3.33
7 6 -5 o 275.527 210.831 -166.81 1.11717 0.91
10 4 -3 o 3.972 3.536 -63.93 1.40121 0.01
10 4 3 o 443.264 394.573 -57.90 1.40121 1.27
14 1 -2 o 32.005 28.662 -137.51 1.40014 0.09
10 8 -1 o 21.697 19.507 -79.49 1.39949 0.06
9 8 -2 o 3.315 3.016 124.56 1.38393 0.01
13 3 -2 o 34.636 31.512 -140.34 1.38393 0.10
3 0 6 o 174.545 135.959 154.58 1.11420 0.29
3 0 -6 o 542.719 422.743 -140.99 1.11420 0.91
10 2 5 o 470.685 351.360 60.92 1.12139 1.54
11 7 1 o 408.786 380.325 -79.50 1.39133 1.16
14 3 -1 o 316.891 294.828 40.31 1.39133 0.90
11 6 -4 o 124.462 93.433 -167.26 1.12039 0.41
15 2 1 o 329.731 272.839 134.99 1.36005 0.92
13 5 -1 o 8.307 6.874 -148.22 1.36005 0.02
10 10 3 o 48.306 36.428 21.11 1.11962 0.16
6 5 4 o 310.748 265.946 14.50 1.37069 0.87
9 1 -4 o 78.094 66.835 -63.94 1.37069 0.22
16 6 1 o 174.749 132.470 -161.14 1.11874 0.58
17 5 0 o 335.338 254.372 49.78 1.11863 1.11
13 10 0 o 309.154 234.509 136.60 1.11863 1.02
8 3 -4 o 52.749 43.029 40.56 1.35547 0.15
11 0 5 o 1012.196 745.567 -140.60 1.12565 1.63
11 6 2 o 99.354 84.110 -135.15 1.36827 0.28
16 0 1 o 231.251 195.270 178.44 1.36767 0.32
12 5 -2 o 89.968 72.292 107.66 1.35314 0.25
11 8 0 o 160.205 127.990 128.23 1.35236 0.45
16 1 0 o 86.935 69.454 131.29 1.35236 0.24
14 4 1 o 236.182 190.017 -11.75 1.33793 0.66
15 3 0 o 30.869 24.876 -74.36 1.33774 0.09
1 0 -5 o 26.913 21.108 -24.57 1.34979 0.04
2 1 -5 o 54.470 44.805 108.88 1.33525 0.15
10 0 4 o 1940.109 1507.262 -147.83 1.34805 2.70
9 6 3 o 6.853 5.684 -34.18 1.36163 0.02
9 6 -3 o 5.744 4.764 -19.35 1.36163 0.02
1 1 6 o 105.801 78.494 -50.52 1.12261 0.34
13 1 3 o 51.359 42.937 -88.20 1.33227 0.14
13 1 -3 o 51.202 42.806 31.33 1.33227 0.14
13 3 4 o 370.514 275.655 48.01 1.12894 1.18
9 8 4 o 61.652 45.868 14.08 1.12894 0.20
10 9 1 o 352.173 295.484 68.35 1.33079 0.98
12 7 -1 o 151.893 130.830 -105.38 1.31685 0.42
2 0 5 o 55.515 43.177 51.03 1.34246 0.08
18 3 0 o 165.506 128.770 -113.71 1.13584 0.52
17 3 2 o 191.696 141.723 -111.14 1.12759 0.61
9 2 4 o 1422.458 1118.082 -14.74 1.34075 3.95
4 0 -5 o 243.743 211.565 -126.73 1.31430 0.34
0 0 6 o 660.713 487.426 105.24 1.12688 0.35
7 5 -4 o 104.600 87.964 -131.41 1.32650 0.29
15 1 2 o 308.598 260.174 151.82 1.32431 0.85
8 8 3 o 194.389 170.050 63.04 1.31146 0.54
14 3 2 o 211.905 185.782 -111.33 1.31057 0.58
11 7 -2 o 24.217 21.231 99.81 1.31057 0.07
14 5 0 o 33.230 29.181 23.33 1.30987 0.09
14 5 3 o 758.169 577.904 22.21 1.13249 2.39
14 5 -3 o 90.289 68.821 -53.16 1.13249 0.28
3 1 5 o 105.079 89.288 -161.58 1.32117 0.29
17 4 1 o 54.274 42.983 0.56 1.14039 0.17
3 2 -5 o 45.559 40.176 -38.11 1.30753 0.13
8 4 4 o 476.539 406.967 167.94 1.31954 1.31
5 0 5 o 273.353 252.961 31.69 1.29430 0.38
15 7 -1 o 166.065 125.749 -157.67 1.13158 0.52
12 3 3 o 50.509 43.308 14.34 1.31829 0.14
12 3 -3 o 58.331 50.015 -106.15 1.31829 0.16
8 4 -5 o 510.492 401.846 6.42 1.13873 1.58
10 2 -4 o 32.046 29.925 -157.23 1.29277 0.09
10 8 2 o 210.626 181.113 8.03 1.31739 0.58
11 5 3 o 279.399 262.834 99.03 1.29159 0.77
11 5 -3 o 25.929 24.391 -77.05 1.29159 0.07
13 6 1 o 52.274 46.383 -36.49 1.30334 0.14
14 1 4 o 146.361 114.772 114.78 1.13769 0.45
16 0 -2 o 294.845 278.837 16.15 1.29074 0.40
17 0 -1 o 165.239 156.759 88.71 1.29024 0.23
10 10 0 o 246.110 233.720 0.00 1.29007 0.34
13 8 2 o 35.405 28.607 118.85 1.14522 0.11
19 1 0 o 23.314 18.799 122.85 1.14475 0.07
18 1 2 o 222.517 173.497 155.36 1.13630 0.69
14 7 -2 o 117.056 91.269 57.66 1.13630 0.36
4 2 5 o 118.444 113.880 -68.39 1.28783 0.32
11 0 -4 o 373.349 336.159 76.01 1.29931 0.51
9 2 -5 o 510.110 423.729 176.07 1.15227 1.53
7 6 4 o 118.540 114.668 -92.49 1.28633 0.33
7 5 5 o 82.211 65.847 38.77 1.14319 0.25
9 4 -4 o 65.789 61.017 -10.93 1.27373 0.18
11 1 4 o 272.480 252.714 88.00 1.27373 0.75
10 3 4 o 166.438 152.997 -152.82 1.26149 0.46
11 8 3 o 61.795 51.449 105.71 1.15962 0.18
16 1 -3 o 57.766 48.095 108.38 1.15962 0.17
11 8 -3 o 247.591 206.138 -5.94 1.15962 0.73
16 1 3 o 15.394 12.816 -178.56 1.15962 0.05
15 2 -2 o 62.932 61.111 161.67 1.28433 0.17
13 5 2 o 175.326 170.251 65.81 1.28433 0.48
12 4 -4 o 51.218 40.844 81.98 1.14214 0.16
16 2 -1 o 235.993 229.180 -121.31 1.28383 0.65
15 3 3 o 39.867 32.948 -115.82 1.15036 0.12
15 3 -3 o 5.480 4.529 94.54 1.15036 0.02
19 0 1 o 315.722 263.078 173.79 1.15864 0.47
16 5 -1 o 99.715 83.089 16.84 1.15864 0.30
14 8 0 o 278.169 231.806 37.00 1.15852 0.82
10 9 -2 o 6.316 5.796 -84.78 1.25960 0.02
13 7 0 o 295.806 272.173 8.59 1.27114 0.81
14 2 3 o 13.547 11.961 51.84 1.23700 0.04
14 2 -3 o 152.937 135.031 -79.70 1.23700 0.42
12 8 1 o 236.530 216.989 168.52 1.25913 0.65
12 7 2 o 44.621 39.813 88.29 1.24777 0.12
13 9 1 o 32.445 26.718 -169.64 1.14940 0.10
5 1 -5 o 164.258 158.798 19.80 1.28146 0.45
13 6 -2 o 28.091 24.825 -117.37 1.23625 0.08
14 6 -1 o 111.533 98.626 105.92 1.23581 0.31
4 3 -5 o 347.851 319.546 -153.47 1.26900 0.95
17 2 0 o 57.214 50.604 175.11 1.23566 0.16
10 0 -5 o 394.405 328.853 -11.40 1.15690 0.59
12 9 0 o 678.310 600.269 -143.98 1.22448 1.88
6 1 5 o 74.613 68.295 165.31 1.25690 0.20
9 7 -4 o 36.767 30.333 36.00 1.16520 0.11
5 3 5 o 204.941 181.497 -9.12 1.24514 0.56
7 0 -5 o 808.570 716.075 -167.43 1.24514 1.11
16 3 -2 o 57.754 44.831 -145.76 1.18312 0.17
13 2 -4 o 82.641 68.895 -62.23 1.15581 0.25
15 6 0 o 493.032 389.401 -156.90 1.19267 1.40
5 4 -5 o 22.059 19.384 41.39 1.22257 0.06
8 6 -4 o 2.102 1.857 93.02 1.24378 0.01
7 2 5 o 308.870 264.067 -162.77 1.21173 0.86
10 7 3 o 251.892 229.595 -93.96 1.25442 0.69
10 7 -3 o 232.416 211.842 120.99 1.25442 0.64
14 4 -2 o 102.982 94.734 -5.59 1.26565 0.28
11 11 0 o 452.067 360.593 0.00 1.17279 0.65
15 5 -2 o 40.401 33.441 -89.82 1.16371 0.12
8 1 -5 o 92.064 75.852 47.03 1.20118 0.26
15 4 -1 o 205.694 189.254 -71.32 1.26518 0.56
11 9 -1 o 437.462 402.498 119.17 1.26518 1.20
15 0 3 o 133.285 117.611 58.57 1.24272 0.18
15 0 -3 o 34.858 30.758 71.81 1.24272 0.05
7 3 -5 o 324.417 254.536 -94.61 1.19090 0.92
11 10 -2 o 4.626 3.853 101.47 1.15435 0.01
17 1 1 o 160.749 146.064 -26.19 1.25318 0.44
18 2 1 o 92.128 76.714 111.38 1.15399 0.28
12 10 -1 o 187.415 156.059 -147.11 1.15399 0.56
12 2 4 o 701.791 575.031 -131.39 1.19996 1.97
13 4 3 o 269.546 234.969 -147.34 1.22028 0.75
13 4 -3 o 253.447 220.936 111.20 1.22028 0.70
16 3 1 o 31.753 27.996 -116.11 1.24152 0.09
18 0 0 o 283.723 250.142 -9.10 1.24137 0.39
9 1 5 o 183.861 147.863 20.29 1.17111 0.53
6 5 -5 o 375.507 301.987 137.85 1.17111 1.09
9 9 3 o 48.354 41.023 147.36 1.20951 0.13
16 2 2 o 182.950 159.137 12.94 1.21957 0.51
8 3 5 o 336.238 279.268 -119.55 1.16158 0.99
15 5 1 o 99.598 86.530 110.49 1.21914 0.28
16 4 0 o 134.854 117.115 23.43 1.21900 0.37
11 10 1 o 403.328 340.702 -14.68 1.20840 1.13
12 8 -2 o 10.136 8.236 121.20 1.19834 0.03
6 2 -5 o 133.532 117.703 44.50 1.23938 0.37
13 8 -1 o 64.206 52.055 -34.96 1.19793 0.18
10 6 4 o 499.336 415.331 -133.07 1.16047 1.47
14 0 -4 o 134.108 111.546 82.54 1.16047 0.20
14 7 1 o 97.597 75.986 -8.58 1.18774 0.28
18 1 -1 o 110.065 85.693 6.00 1.18774 0.31
8 0 5 o 101.017 87.343 45.83 1.21711 0.14
14 6 2 o 439.414 344.108 -78.07 1.17818 1.26
9 5 4 o 692.298 610.633 31.37 1.23804 1.91
17 3 -1 o 110.743 86.803 106.09 1.17779 0.32
12 1 -4 o 16.062 14.307 -102.63 1.22679 0.04
6 4 5 o 296.849 238.187 48.99 1.19601 0.84
11 3 -4 o 80.389 69.340 166.40 1.21584 0.22
8 7 4 o 84.116 70.249 -166.09 1.20519 0.24
13 0 4 o 610.279 509.672 -20.87 1.20519 0.85
10 5 -4 o 42.325 33.754 -41.19 1.19480 0.12
17 0 2 o 254.533 225.684 -40.75 1.22506 0.35
11 4 4 o 408.012 316.594 44.27 1.18469 1.16
12 6 -3 o 61.836 49.096 -75.31 1.19387 0.17
12 6 3 o 42.767 33.956 -0.50 1.19387 0.12
15 4 2 o 144.542 120.101 117.75 1.20354 0.41
11 9 2 o 13.875 11.528 -69.50 1.20354 0.04
17 1 -2 o 47.839 37.869 160.81 1.19320 0.14
