#------------------------------------------------------------------------------
#$Date: 2016-02-16 22:30:59 +0200 (Tue, 16 Feb 2016) $
#$Revision: 176467 $
#$URL: svn://www.crystallography.net/cod/cif/4/12/24/4122453.cif $
#------------------------------------------------------------------------------
#
# This file is available in the Crystallography Open Database (COD),
# http://www.crystallography.net/
#
# All data on this site have been placed in the public domain by the
# contributors.
#
data_4122453
loop_
_publ_author_name
'Kapelewski, Matthew T.'
'Geier, Stephen J.'
'Hudson, Matthew R.'
'St\"uck, David'
'Mason, Jarad A.'
'Nelson, Jocienne N.'
'Xiao, Dianne J.'
'Hulvey, Zeric'
'Gilmour, Elizabeth'
'FitzGerald, Stephen A.'
'Head-Gordon, Martin'
'Brown, Craig M.'
'Long, Jeffrey R.'
_publ_section_title
;
 M2(m-dobdc) (M = Mg, Mn, Fe, Co, Ni) Metal-Organic Frameworks Exhibiting
 Increased Charge Density and Enhanced H2 Binding at the Open Metal Sites.
;
_journal_issue                   34
_journal_name_full               'Journal of the American Chemical Society'
_journal_page_first              12119
_journal_paper_doi               10.1021/ja506230r
_journal_volume                  136
_journal_year                    2014
_chemical_formula_sum            'C4 H Co D2.71 O3'
_chemical_formula_weight         161.44
_chemical_name_systematic        ' ?'
_space_group_IT_number           160
_symmetry_cell_setting           trigonal
_symmetry_space_group_name_Hall  'R 3 -2"'
_symmetry_space_group_name_H-M   'R 3 m :H'
_audit_creation_date             2013-06-06T15:38
_audit_creation_method           'from EXP file using GSAS2CIF'
_audit_update_record
' 2013-06-06T15:38  Initial CIF as created by GSAS2CIF'
_cell_angle_alpha                90.0
_cell_angle_beta                 90.0
_cell_angle_gamma                120.0
_cell_formula_units_Z            18
_cell_length_a                   25.8521(18)
_cell_length_b                   25.8521
_cell_length_c                   6.7898(7)
_cell_volume                     3929.9(5)
_computing_structure_refinement  GSAS
_diffrn_radiation_probe          neutron
_diffrn_radiation_wavelength     2.078
_exptl_absorpt_correction_T_max  1.00000
_exptl_absorpt_correction_T_min  1.00000
_exptl_absorpt_process_details
;   GSAS Absorption/surface roughness correction: function number 0
 No correction is applied.
;
_pd_block_id                     2013-06-06T15:38|CO_PRIME_1P5_D2_R||BT1
_pd_calc_method                  'Rietveld Refinement'
_pd_instr_location               ' ?'
_pd_meas_2theta_range_inc        0.05
_pd_meas_2theta_range_max        166.25
_pd_meas_2theta_range_min        1.5
_pd_meas_number_of_points        3296
_pd_phase_name                   Co_dobdc_prime_1.5_D2
_pd_proc_2theta_range_inc        0.05
_pd_proc_2theta_range_max        166.3495
_pd_proc_2theta_range_min        1.5995
_pd_proc_info_datetime           2013-06-06T15:38:52
_pd_proc_info_excluded_regions   ' ?'
_pd_proc_ls_background_function
;   GSAS Background function number 1 with 12 terms.
 Shifted Chebyshev function of 1st kind
      1:    337.288     2:   -139.939     3:    142.179     4:    31.9763    
      5:    45.3393     6:   -12.7628     7:    33.6654     8:    4.66777    
      9:    8.61438    10:    3.46036    11:    2.49182    12:   -1.15706    
;
_pd_proc_ls_peak_cutoff          0.00050
_pd_proc_ls_profile_function
;
 CW Profile function number 3 with  19 terms
 Pseudovoigt profile coefficients as parameterized in
 P. Thompson, D.E. Cox & J.B. Hastings (1987). J. Appl. Cryst.,20,79-83.
 Asymmetry correction of L.W. Finger, D.E. Cox & A. P. Jephcoat (1994).
 J. Appl. Cryst.,27,892-900.
 Peak tails are ignored  where the intensity is below 0.0005 times the peak
   Aniso. broadening axis   0.0   0.0   1.0
;
_pd_proc_ls_prof_R_factor        0.0406
_pd_proc_ls_prof_wR_expected     0.0548
_pd_proc_ls_prof_wR_factor       0.0511
_pd_proc_number_of_points        3296
_pd_spec_mounting                ' ?'
_refine_ls_goodness_of_fit_all   0.94
_refine_ls_matrix_type           full
_refine_ls_number_parameters     65
_refine_ls_number_restraints     16
_refine_ls_R_Fsqd_factor         0.08110
_refine_ls_shift/su_max          4.11
_refine_ls_shift/su_mean         0.68
_reflns_d_resolution_high        1.059
_reflns_d_resolution_low         12.926
_reflns_limit_h_max              21
_reflns_limit_h_min              0
_reflns_limit_k_max              12
_reflns_limit_k_min              0
_reflns_limit_l_max              6
_reflns_limit_l_min              -6
_reflns_number_total             432
_cod_data_source_file            CO_PRIME_1P5_D2_R.cif
_cod_data_source_block           CO_PRIME_1P5_D2_R_publ
_cod_depositor_comments
;
The following automatic conversions were performed:

'_geom_bond_publ_flag' value 'N' changed to 'n' according to
/usr/data/users/saulius/crontab/automatic-downloads/rss-feeds/ACS/lib/dictionaries/cif_core.dic
dictionary named 'cif_core.dic' version 2.4.2 from 2011-04-26 (56
times).

'_geom_angle_publ_flag' value 'N' changed to 'n' according
to
/usr/data/users/saulius/crontab/automatic-downloads/rss-feeds/ACS/lib/dictionaries/cif_core.dic
dictionary named 'cif_core.dic' version 2.4.2 from 2011-04-26 (32
times).

Automatic conversion script
Id: cif_fix_values 2281 2013-09-26 08:29:07Z andrius 

 Adding full bibliography for 4122440--4122455.cif.
;
_cod_original_cell_volume        3929.9(6)
_cod_original_sg_symbol_H-M      'R 3 m'
_cod_original_formula_sum        'C4 H D2.71 Co O3'
_cod_database_code               4122453
#BEGIN Tags that were not found in dictionaries:
_gsas_exptl_extinct_corr_t_min   1.00000
_gsas_exptl_extinct_corr_t_max   1.00000
#END Tags that were not found in dictionaries
loop_
_symmetry_equiv_pos_site_id
_symmetry_equiv_pos_as_xyz
1 +x,+y,+z
2 -y,x-y,+z
3 y-x,-x,+z
4 y-x,+y,+z
5 -y,-x,+z
6 +x,x-y,+z
101 +x+1/3,+y+2/3,+z+2/3
102 -y+1/3,x-y+2/3,+z+2/3
103 y-x+1/3,-x+2/3,+z+2/3
104 y-x+1/3,+y+2/3,+z+2/3
105 -y+1/3,-x+2/3,+z+2/3
106 +x+1/3,x-y+2/3,+z+2/3
201 +x+2/3,+y+1/3,+z+1/3
202 -y+2/3,x-y+1/3,+z+1/3
203 y-x+2/3,-x+1/3,+z+1/3
204 y-x+2/3,+y+1/3,+z+1/3
205 -y+2/3,-x+1/3,+z+1/3
206 +x+2/3,x-y+1/3,+z+1/3
loop_
_atom_site_type_symbol
_atom_site_label
_atom_site_fract_x
_atom_site_fract_y
_atom_site_fract_z
_atom_site_occupancy
_atom_site_thermal_displace_type
_atom_site_U_iso_or_equiv
_atom_site_symmetry_multiplicity
C C1 0.6571(9) 0.8745(9) 0.8382(33) 1.0 Uiso 0.014(6) 18
C C2 0.6643(13) 0.8322(6) 0.754(5) 1.0 Uiso 0.012(9) 9
C C6 0.6413(9) 0.8676(8) 0.0440(34) 1.0 Uiso 0.018(6) 18
C C11 0.6324(7) 0.9091(8) 0.1650(27) 1.0 Uiso 0.011(5) 18
Co Co2 0.3273(24) 0.3720(19) 0.555(7) 1.0 Uiso 0.004(13) 18
H H7 0.6774(28) 0.8387(14) 0.594(11) 1.0 Uiso 0.058(22) 9
O O9 0.6706(8) 0.9261(8) 0.7497(35) 1.0 Uiso 0.008(6) 18
O O12 0.6524(10) 0.9635(10) 0.0909(32) 1.0 Uiso 0.022(8) 18
O O15 0.6086(10) 0.8924(9) 0.3356(32) 1.0 Uiso 0.013(5) 18
C C2m 0.6275(12) 0.8138(6) 0.133(4) 1.0 Uiso 0.018(9) 9
H H7m 0.6154(25) 0.8077(13) 0.273(9) 1.0 Uiso 0.032(15) 9
D D1 0.2062(6) 0.2169(7) 0.0179(22) 2.00(7) Uiso 0.096(8) 18
D D2 0.7784(22) 0.9460(20) 0.440(7) 0.71(5) Uiso 0.121(23) 18
loop_
_atom_type_symbol
_atom_type_number_in_cell
_atom_type_scat_length_neutron
_atom_type_scat_source
C 72.0 0.6646 International_Tables_Vol_C
Co 18.0 0.2490 International_Tables_Vol_C
H 18.0 -0.3739 International_Tables_Vol_C
O 54.0 0.5803 International_Tables_Vol_C
D 48.756 0.6671 International_Tables_Vol_C
loop_
_geom_angle_atom_site_label_1
_geom_angle_atom_site_label_2
_geom_angle_atom_site_label_3
_geom_angle
_geom_angle_site_symmetry_1
_geom_angle_site_symmetry_3
_geom_angle_publ_flag
C2 C1 C6 117.6(26) 1_555 1_556 n
C2 C1 O9 123.6(26) 1_555 1_555 n
C6 C1 O9 118.3(19) 1_556 1_555 n
C1 C2 C1 127(4) 1_555 6_565 n
C1 C2 H7 116.6(19) 1_555 1_555 n
C1 C2 H7 116.6(19) 6_565 1_555 n
C1 C6 C11 126.5(18) 1_554 1_555 n
C1 C6 C2m 117.2(20) 1_554 1_555 n
C11 C6 C2m 116.0(19) 1_555 1_555 n
C6 C11 O12 116.4(20) 1_555 1_555 n
C6 C11 O15 119.3(20) 1_555 1_555 n
O12 C11 O15 124.3(22) 1_555 1_555 n
O9 Co2 O9 167(4) 3_565 102_654 n
O9 Co2 O12 83.4(21) 3_565 102_655 n
O9 Co2 O12 97.5(18) 3_565 201_445 n
O9 Co2 O15 97.8(26) 3_565 3_565 n
O9 Co2 O12 83.7(26) 102_654 102_655 n
O9 Co2 O12 82.6(18) 102_654 201_445 n
O9 Co2 O15 95.0(23) 102_654 3_565 n
O12 Co2 O12 84.3(18) 102_655 201_445 n
O12 Co2 O15 178.6(31) 102_655 3_565 n
O12 Co2 O15 96.2(21) 201_445 3_565 n
C1 O9 Co2 136.2(18) 1_555 2_665 n
C1 O9 Co2 123.6(23) 1_555 203_565 n
Co2 O9 Co2 91.4(21) 2_665 203_565 n
C11 O12 Co2 129.9(22) 1_555 101_554 n
C11 O12 Co2 130.3(23) 1_555 203_564 n
Co2 O12 Co2 95.2(12) 101_554 203_564 n
C11 O15 Co2 119.9(20) 1_555 2_665 n
C6 C2m C6 121.8(26) 1_555 6_565 n
C6 C2m H7m 118.5(14) 1_555 1_555 n
C6 C2m H7m 118.5(14) 6_565 1_555 n
loop_
_geom_bond_atom_site_label_1
_geom_bond_atom_site_label_2
_geom_bond_distance
_geom_bond_site_symmetry_2
_geom_bond_publ_flag
C1 C2 1.327(23) 1_555 n
C1 C6 1.442(23) 1_556 n
C1 Co2 3.20(6) 2_665 n
C1 Co2 2.98(5) 203_565 n
C1 H7 2.09(7) 1_555 n
C1 O9 1.341(24) 1_555 n
C2 C1 1.327(23) 1_555 n
C2 C1 1.327(23) 6_565 n
C2 H7 1.12(9) 1_555 n
C6 C1 1.442(23) 1_554 n
C6 C11 1.457(28) 1_555 n
C6 Co2 3.28(6) 203_564 n
C6 C2m 1.389(20) 1_555 n
C6 H7m 2.05(6) 1_555 n
C11 C6 1.457(28) 1_555 n
C11 Co2 2.93(6) 2_665 n
C11 Co2 3.07(4) 101_554 n
C11 Co2 2.98(6) 203_564 n
C11 O12 1.332(27) 1_555 n
C11 O15 1.281(22) 1_555 n
Co2 C1 3.20(6) 3_565 n
Co2 C1 2.98(5) 102_654 n
Co2 C6 3.28(6) 102_655 n
Co2 C11 2.93(6) 3_565 n
Co2 C11 2.98(6) 102_655 n
Co2 C11 3.07(4) 201_445 n
Co2 Co2 2.94(5) 103_554 n
Co2 Co2 2.94(5) 202_555 n
Co2 O9 2.09(5) 3_565 n
Co2 O9 2.02(5) 102_654 n
Co2 O12 3.20(5) 3_565 n
Co2 O12 1.94(6) 102_655 n
Co2 O12 2.05(5) 201_445 n
Co2 O15 2.07(5) 3_565 n
Co2 O15 3.41(5) 201_445 n
Co2 D1 2.28(4) 103_555 n
H7 C1 2.09(7) 1_555 n
H7 C1 2.09(7) 6_565 n
H7 C2 1.12(9) 1_555 n
O9 C1 1.341(24) 1_555 n
O9 Co2 2.09(5) 2_665 n
O9 Co2 2.02(5) 203_565 n
O12 C11 1.332(27) 1_555 n
O12 Co2 3.20(5) 2_665 n
O12 Co2 2.05(5) 101_554 n
O12 Co2 1.94(6) 203_564 n
O15 C11 1.281(22) 1_555 n
O15 Co2 2.07(5) 2_665 n
O15 Co2 3.41(5) 101_554 n
C2m C6 1.389(20) 1_555 n
C2m C6 1.389(20) 6_565 n
C2m H7m 0.99(8) 1_555 n
H7m C6 2.05(6) 1_555 n
H7m C6 2.05(6) 6_565 n
H7m C2m 0.99(8) 1_555 n
D1 Co2 2.28(4) 202_554 n
loop_
_pd_meas_intensity_total
_pd_proc_ls_weight
_pd_proc_intensity_bkg_calc
_pd_calc_intensity_total
3950(140) 0.0 999. .
3640(130) 0.0 995. .
3160(120) 0.0 991. .
2690(110) 0.0 986. .
2710(110) 0.0 982. .
2330(100) 0.0 978. .
2150(100) 0.0 974. .
2140(100) 0.0 970. .
2009(97) 0.0 965. .
1835(92) 0.0 961. .
1734(89) 0.0 957. .
1845(92) 0.0 953. .
1826(92) 0.0 949. .
1700(89) 0.0 945. .
1806(91) 0.0 941. .
1526(84) 0.0 937. .
1652(87) 0.0 933. .
1632(87) 0.0 930. .
1729(89) 0.0 926. .
1454(82) 0.0 922. .
1352(78) 0.0 918. .
1468(82) 0.0 914. .
1391(80) 0.0 911. .
1401(80) 0.0 907. .
1512(83) 0.0 903. .
1318(77) 0.0 900. .
1405(80) 0.0 896. .
1516(83) 0.0 892. .
1299(77) 0.0 889. .
1169(73) 0.0 885. .
1338(78) 0.0 882. .
1227(75) 0.0 878. .
1106(70) 0.0 875. .
1198(74) 0.0 871. .
1207(74) 0.0 868. .
1005(67) 0.0 864. .
951(65) 0.0 861. .
1024(68) 0.0 858. .
947(65) 0.0 854. .
961(65) 0.0 851. .
1091(70) 0.0 848. .
995(67) 0.0 845. .
947(65) 0.0 841. .
913(64) 0.0 838. .
1009(67) 0.0 835. .
787(59) 0.0 832. .
976(66) 0.0 829. .
802(59) 0.0 826. .
918(64) 0.0 823. .
778(58) 0.0 819. .
860(61) 0.0 816. .
908(63) 0.0 813. .
1005(67) 0.0 810. .
874(62) 0.0 807. .
729(56) 0.0 804. .
908(63) 0.0 802. .
816(60) 0.0 799. .
831(60) 0.0 796. .
773(58) 0.0 793. .
821(60) 0.0 790. .
671(54) 0.0 787. .
913(64) 0.0 784. .
811(60) 0.0 782. .
792(59) 0.0 779. .
811(60) 0.0 776. .
710(55) 0.0 773. .
845(61) 0.0 771. .
802(59) 0.0 768. .
845(61) 0.0 765. .
773(58) 0.0 763. .
778(58) 0.0 760. .
836(61) 0.0 757. .
705(55) 0.0 755. .
700(55) 0.0 752. .
855(61) 0.0 750. .
676(54) 0.0 747. .
720(56) 0.0 745. .
831(60) 0.0 742. .
739(57) 0.0 740. .
700(55) 0.0 737. .
778(58) 0.0 735. .
599(50) 0.0 732. .
647(52) 0.0 730. .
613(51) 0.0 728. .
686(54) 0.0 725. .
778(58) 0.0 723. .
666(53) 0.0 721. .
637(52) 0.0 718. .
695(55) 0.0 716. .
807(59) 0.0 714. .
729(56) 0.0 711. .
613(51) 0.0 709. .
623(51) 0.0 707. .
710(55) 0.0 705. .
671(54) 0.0 702. .
724(56) 0.0 700. .
642(52) 0.0 698. .
686(54) 0.0 696. .
676(54) 0.0 694. .
618(51) 0.0 692. .
779(40) 0.0 690. .
775(40) 0.0 687. .
747(39) 0.0 685. .
732(38) 0.000693 683. 692.
685(37) 0.000730 681. 690.
655(36) 0.000772 679. 688.
718(38) 0.000693 677. 687.
761(39) 0.000657 675. 685.
702(37) 0.000730 673. 684.
645(36) 0.000772 671. 682.
653(36) 0.000772 669. 681.
683(37) 0.000730 667. 680.
651(36) 0.000772 665. 679.
751(39) 0.000657 664. 678.
637(35) 0.000816 661.6 676.7
623(35) 0.000816 659.7 676.0
728(38) 0.000693 658. 675.
665(36) 0.000772 656. 675.
693(37) 0.000730 654. 675.
700(37) 0.000730 652. 676.
696(37) 0.000730 650. 677.
715(38) 0.000693 649. 681.
703(38) 0.000693 647. 688.
732(38) 0.000693 645. 700.
773(40) 0.000625 643. 718.
789(40) 0.000625 642. 742.
839(41) 0.000595 640. 772.
829(41) 0.000595 638. 808.
858(42) 0.000567 636. 849.
1020(46) 0.000473 635. 894.
1005(46) 0.000473 633. 943.
1025(46) 0.000473 631. 996.
1047(47) 0.000453 630. 1054.
1108(48) 0.000434 628. 1116.
1154(50) 0.000400 626. 1184.
1181(50) 0.000400 625. 1258.
1321(53) 0.000356 623. 1340.
1319(53) 0.000356 621. 1430.
1477(57) 0.0003078 620. 1530.
1655(60) 0.0002778 618. 1642.
1757(62) 0.0002601 617. 1768.
1946(65) 0.0002367 615. 1913.
1936(65) 0.0002367 614. 2080.
2348(72) 0.0001929 612. 2278.
2456(74) 0.0001826 611. 2519.
2907(81) 0.0001524 609. 2819.
3211(85) 0.0001384 607. 3204.
3854(93) 0.0001156 606. 3696.
4410(100) 0.0001000 605. 4292.
5000(110) 0.0000873 603. 4927.
5590(110) 0.0000783 602. 5447.
5910(120) 0.0000743 600. 5637.
5330(110) 0.0000826 599. 5313.
4650(100) 0.0000943 597. 4484.
3394(87) 0.0001321 596. 3408.
2410(73) 0.0001877 594. 2400.
1610(59) 0.0002873 593. 1642.
1232(51) 0.000384 592. 1166.
904(43) 0.000541 590. 909.
778(40) 0.000625 589. 783.
744(39) 0.000657 587. 723.
675(37) 0.000730 586. 692.
665(36) 0.000772 585. 672.
607(34) 0.000865 583.5 657.6
629(35) 0.000816 582.1 646.1
631(35) 0.000816 580.8 636.7
600(34) 0.000865 579.5 628.7
594(34) 0.000865 578.2 621.9
618(35) 0.000816 576.9 615.9
565(33) 0.000918 575.6 610.7
623(35) 0.000816 574.4 606.1
573(33) 0.000918 573.1 601.9
626(35) 0.000816 571.9 598.1
597(34) 0.000865 570.6 594.7
618(35) 0.000816 569.4 591.5
594(34) 0.000865 568.2 588.6
516(31) 0.001041 567.0 585.8
533(32) 0.000977 565.8 583.3
539(32) 0.000977 564.6 580.8
538(32) 0.000977 563.4 578.6
622(35) 0.000816 562.2 576.4
586(34) 0.000865 561.0 574.3
560(33) 0.000918 559.8 572.3
551(32) 0.000977 558.7 570.4
592(34) 0.000865 557.5 568.6
592(34) 0.000865 556.4 566.8
586(34) 0.000865 555.3 565.1
523(32) 0.000977 554.2 563.5
524(32) 0.000977 553.0 561.9
549(32) 0.000977 551.9 560.3
534(32) 0.000977 550.8 558.8
573(33) 0.000918 549.7 557.3
539(32) 0.000977 548.7 555.9
533(32) 0.000977 547.6 554.5
513(31) 0.001041 546.5 553.1
587(34) 0.000865 545.5 551.7
456(39) 0.000657 544. 550.
536(44) 0.000517 543. 549.
547(44) 0.000517 542. 548.
549(44) 0.000517 541. 547.
516(31) 0.001041 540.3 545.3
507(31) 0.001041 539.2 544.3
552(33) 0.000918 538.2 543.1
562(33) 0.000918 537.2 541.9
579(33) 0.000918 536.2 540.7
508(31) 0.001041 535.3 539.6
516(31) 0.001041 534.3 538.4
537(32) 0.000977 533.3 537.3
554(33) 0.000918 532.3 536.2
519(31) 0.001041 531.4 535.1
503(31) 0.001041 530.4 534.1
557(33) 0.000918 529.5 533.0
549(32) 0.000977 528.5 532.0
556(33) 0.000918 527.6 530.9
577(33) 0.000918 526.7 529.9
565(33) 0.000918 525.7 528.9
536(32) 0.000977 524.8 527.9
518(31) 0.001041 523.9 526.9
500(31) 0.001041 523.0 525.9
526(32) 0.000977 522.1 525.0
540(32) 0.000977 521.2 524.0
581(34) 0.000865 520.4 523.1
514(31) 0.001041 519.5 522.1
499(30) 0.001111 518.6 521.2
552(32) 0.000977 517.8 520.3
505(31) 0.001041 516.9 519.4
514(31) 0.001041 516.0 518.5
506(31) 0.001041 515.2 517.6
513(31) 0.001041 514.4 514.4
529(32) 0.000977 513.5 513.6
525(32) 0.000977 512.7 512.8
503(31) 0.001041 511.9 512.0
515(31) 0.001041 511.1 511.2
484(30) 0.001111 510.2 510.4
472(30) 0.001111 509.4 509.6
499(31) 0.001041 508.6 508.8
513(31) 0.001041 507.9 508.1
524(31) 0.001041 507.1 507.3
513(31) 0.001041 506.3 506.5
526(32) 0.000977 505.5 505.8
516(31) 0.001041 504.7 505.0
530(32) 0.000977 504.0 504.3
538(32) 0.000977 503.2 503.6
486(30) 0.001111 502.4 502.9
529(32) 0.000977 501.7 502.1
514(31) 0.001041 501.0 501.4
488(30) 0.001111 500.2 500.7
491(30) 0.001111 499.5 500.0
505(31) 0.001041 498.7 499.4
511(31) 0.001041 498.0 498.8
536(32) 0.000977 497.3 498.1
488(30) 0.001111 496.6 497.5
486(30) 0.001111 495.9 496.8
508(31) 0.001041 495.2 496.2
562(33) 0.000918 494.5 495.6
483(30) 0.001111 493.8 495.0
513(31) 0.001041 493.1 494.4
504(31) 0.001041 492.4 493.8
491(30) 0.001111 491.7 493.2
530(32) 0.000977 491.0 492.7
530(32) 0.000977 490.4 492.2
535(32) 0.000977 489.7 491.7
527(32) 0.000977 489.0 491.2
523(31) 0.001041 488.4 490.8
513(31) 0.001041 487.7 490.4
527(32) 0.000977 487.1 490.1
536(32) 0.000977 486.4 489.8
481(30) 0.001111 485.8 489.6
533(32) 0.000977 485.2 489.6
494(30) 0.001111 484.5 489.9
509(31) 0.001041 483.9 490.6
521(31) 0.001041 483.3 492.0
536(32) 0.000977 482.7 494.6
549(32) 0.000977 482.1 498.8
546(32) 0.000977 481.4 504.7
530(32) 0.000977 480.8 512.7
504(31) 0.001041 480.2 522.6
491(30) 0.001111 479.6 534.6
466(29) 0.001189 479.1 548.9
543(32) 0.000977 478.5 566.2
588(34) 0.000865 477.9 587.3
630(35) 0.000816 477.3 614.0
672(37) 0.000730 477. 648.
723(38) 0.000693 476. 692.
766(39) 0.000657 476. 745.
802(40) 0.000625 475. 801.
880(43) 0.000541 474. 846.
905(43) 0.000541 474. 859.
860(42) 0.000567 473. 825.
766(39) 0.000657 473. 751.
646(36) 0.000772 472. 665.
609(34) 0.000865 471.7 590.8
544(32) 0.000977 471.2 539.5
471(29) 0.001189 470.6 509.7
532(32) 0.000977 470.1 493.9
563(33) 0.000918 469.6 485.9
514(46) 0.000473 469. 482.
473(29) 0.001189 468.5 478.8
502(31) 0.001041 468.0 476.8
466(29) 0.001189 467.5 475.1
454(29) 0.001189 467.0 473.7
505(31) 0.001041 466.5 472.5
498(30) 0.001111 466.0 471.4
492(30) 0.001111 465.5 470.5
484(30) 0.001111 465.0 469.6
478(30) 0.001111 464.5 468.8
532(32) 0.000977 464.0 468.1
492(30) 0.001111 463.5 467.5
482(30) 0.001111 463.1 466.8
501(31) 0.001041 462.6 466.3
457(29) 0.001189 462.1 465.7
477(30) 0.001111 461.6 465.2
519(31) 0.001041 461.2 464.8
485(30) 0.001111 460.7 464.3
518(31) 0.001041 460.2 464.0
495(30) 0.001111 459.8 463.6
511(31) 0.001041 459.3 463.4
489(30) 0.001111 458.9 463.2
463(29) 0.001189 458.4 463.1
485(30) 0.001111 458.0 463.2
435(28) 0.001276 457.5 463.5
544(32) 0.000977 457.1 464.4
467(29) 0.001189 456.6 466.1
439(28) 0.001276 456.2 468.8
453(29) 0.001189 455.8 472.9
503(31) 0.001041 455.3 478.4
436(28) 0.001276 454.9 485.7
521(31) 0.001041 454.5 494.8
518(31) 0.001041 454.1 506.2
577(33) 0.000918 453.7 520.7
519(31) 0.001041 453.2 539.5
544(32) 0.000977 452.8 563.5
590(34) 0.000865 452.4 592.8
640(35) 0.000816 452.0 624.0
729(38) 0.000693 452. 650.
739(38) 0.000693 451. 660.
691(37) 0.000730 451. 645.
571(33) 0.000918 450.4 607.7
564(33) 0.000918 450.0 562.9
512(31) 0.001041 449.6 522.9
521(31) 0.001041 449.2 493.9
488(30) 0.001111 448.9 475.8
473(29) 0.001189 448.5 465.8
434(28) 0.001276 448.1 460.5
479(30) 0.001111 447.7 457.5
453(29) 0.001189 447.4 455.7
464(29) 0.001189 447.0 454.5
450(29) 0.001189 446.6 453.5
473(29) 0.001189 446.2 452.7
489(30) 0.001111 445.9 452.1
467(29) 0.001189 445.5 451.5
451(29) 0.001189 445.2 451.1
465(29) 0.001189 444.8 450.7
447(28) 0.001276 444.4 450.4
475(30) 0.001111 444.1 450.2
425(28) 0.001276 443.7 450.1
461(29) 0.001189 443.4 450.0
423(28) 0.001276 443.1 450.1
388(26) 0.001479 442.7 450.2
429(28) 0.001276 442.4 450.4
458(29) 0.001189 442.0 450.8
469(29) 0.001189 441.7 451.4
462(29) 0.001189 441.4 452.1
483(30) 0.001111 441.0 453.2
501(31) 0.001041 440.7 454.8
486(30) 0.001111 440.4 457.2
445(28) 0.001276 440.1 461.1
476(30) 0.001111 439.7 467.6
472(29) 0.001189 439.4 477.8
455(29) 0.001189 439.1 493.4
523(31) 0.001041 438.8 515.6
581(33) 0.000918 438.5 545.5
601(34) 0.000865 438.2 584.7
551(32) 0.000977 437.8 634.8
699(37) 0.000730 438. 700.
712(37) 0.000730 437. 784.
845(41) 0.000595 437. 889.
1037(46) 0.000473 437. 1006.
1205(50) 0.000400 436. 1113.
1296(52) 0.000370 436. 1171.
1173(49) 0.000416 436. 1141.
1027(46) 0.000473 435. 1017.
827(41) 0.000595 435. 851.
631(35) 0.000816 434.9 700.0
567(33) 0.000918 434.6 590.9
502(31) 0.001041 434.3 524.6
476(30) 0.001111 434.0 489.1
470(29) 0.001189 433.7 471.1
516(31) 0.001041 433.5 461.6
404(27) 0.001372 433.2 455.8
441(28) 0.001276 432.9 451.8
430(28) 0.001276 432.6 448.7
430(28) 0.001276 432.4 446.2
410(27) 0.001372 432.1 444.2
465(29) 0.001189 431.8 442.5
460(29) 0.001189 431.6 441.1
430(27) 0.001372 431.3 439.9
411(26) 0.001479 431.0 438.9
401(25) 0.001600 430.8 437.9
452(27) 0.001372 430.5 437.1
452(27) 0.001372 430.3 436.4
442(27) 0.001372 430.0 435.8
409(26) 0.001479 429.7 435.2
451(27) 0.001372 429.5 434.7
453(27) 0.001372 429.2 434.3
435(27) 0.001372 429.0 434.0
428(27) 0.001372 428.7 433.7
391(25) 0.001600 428.5 433.7
435(27) 0.001372 428.3 433.9
406(26) 0.001479 428.0 434.4
457(28) 0.001276 427.8 435.5
476(28) 0.001276 427.5 437.3
446(27) 0.001372 427.3 440.0
453(27) 0.001372 427.1 443.7
443(27) 0.001372 426.8 448.8
445(27) 0.001372 426.6 455.5
492(29) 0.001189 426.4 464.1
485(29) 0.001189 426.1 474.0
510(29) 0.001189 425.9 483.6
486(29) 0.001189 425.7 489.6
497(29) 0.001189 425.5 488.5
498(29) 0.001189 425.2 478.9
505(29) 0.001189 425.0 464.7
489(29) 0.001189 424.8 451.1
429(27) 0.001372 424.6 441.0
412(26) 0.001479 424.4 434.6
420(26) 0.001479 424.2 431.0
393(25) 0.001600 423.9 429.1
421(26) 0.001479 423.7 428.0
460(28) 0.001276 423.5 427.3
434(27) 0.001372 423.3 426.9
486(29) 0.001189 423.1 426.5
416(26) 0.001479 422.9 426.1
407(26) 0.001479 422.7 425.8
438(27) 0.001372 422.5 425.5
406(26) 0.001479 422.3 425.3
451(27) 0.001372 422.1 425.1
453(27) 0.001372 421.9 425.0
397(25) 0.001600 421.7 424.8
460(28) 0.001276 421.5 424.8
436(27) 0.001372 421.3 424.7
391(25) 0.001600 421.1 424.8
376(24) 0.001736 420.9 424.8
398(25) 0.001600 420.7 425.0
437(27) 0.001372 420.5 425.3
421(26) 0.001479 420.3 425.8
424(26) 0.001479 420.1 426.7
394(25) 0.001600 420.0 428.1
395(25) 0.001600 419.8 430.5
455(28) 0.001276 419.6 434.5
500(29) 0.001189 419.4 440.5
475(28) 0.001276 419.2 449.2
460(28) 0.001276 419.0 461.4
473(28) 0.001276 418.9 478.1
525(30) 0.001111 418.7 499.9
521(30) 0.001111 418.5 526.9
532(30) 0.001111 418.3 556.2
564(31) 0.001041 418.2 581.3
584(32) 0.000977 418.0 592.1
528(30) 0.001111 417.8 579.8
545(31) 0.001041 417.7 546.7
520(30) 0.001111 417.5 507.3
470(28) 0.001276 417.3 474.1
455(28) 0.001276 417.1 451.3
460(28) 0.001276 417.0 437.8
403(26) 0.001479 416.8 430.6
401(26) 0.001479 416.7 426.9
430(27) 0.001372 416.5 424.8
492(29) 0.001189 416.3 423.4
421(26) 0.001479 416.2 422.4
385(25) 0.001600 416.0 421.7
384(25) 0.001600 415.9 421.1
402(26) 0.001479 415.7 420.6
408(26) 0.001479 415.5 420.3
423(26) 0.001479 415.4 420.0
457(28) 0.001276 415.2 419.8
437(27) 0.001372 415.1 419.7
436(27) 0.001372 414.9 419.8
389(25) 0.001600 414.8 419.9
411(26) 0.001479 414.6 420.2
424(26) 0.001479 414.5 420.9
411(26) 0.001479 414.3 422.1
410(26) 0.001479 414.2 424.1
420(26) 0.001479 414.0 427.4
428(27) 0.001372 413.9 432.5
452(27) 0.001372 413.7 439.9
432(27) 0.001372 413.6 450.4
481(28) 0.001276 413.5 464.4
491(29) 0.001189 413.3 482.1
508(29) 0.001189 413.2 501.7
525(30) 0.001111 413.0 519.2
525(30) 0.001111 412.9 528.1
513(30) 0.001111 412.8 521.8
517(30) 0.001111 412.6 501.2
456(28) 0.001276 412.5 475.6
420(26) 0.001479 412.4 453.4
433(27) 0.001372 412.2 437.9
464(28) 0.001276 412.1 428.8
436(27) 0.001372 412.0 423.9
416(26) 0.001479 411.8 421.4
444(27) 0.001372 411.7 420.1
453(27) 0.001372 411.6 419.3
449(27) 0.001372 411.4 418.9
415(26) 0.001479 411.3 418.6
468(28) 0.001276 411.2 418.6
428(26) 0.001479 411.1 418.7
427(26) 0.001479 410.9 418.9
418(26) 0.001479 410.8 419.3
433(26) 0.001479 410.7 419.9
438(27) 0.001372 410.6 420.7
458(27) 0.001372 410.5 421.8
449(27) 0.001372 410.3 423.3
416(26) 0.001479 410.2 425.4
430(26) 0.001479 410.1 428.5
431(26) 0.001479 410.0 433.3
441(27) 0.001372 409.9 441.0
498(29) 0.001189 409.7 453.5
506(29) 0.001189 409.6 473.2
522(30) 0.001111 409.5 502.9
544(30) 0.001111 409.4 545.7
575(31) 0.001041 409.3 604.5
685(35) 0.000816 409.2 680.0
730(36) 0.000772 409. 767.
812(38) 0.000693 409. 849.
908(40) 0.000625 409. 902.
960(42) 0.000567 409. 899.
852(39) 0.000657 409. 834.
708(35) 0.000816 408.5 729.4
634(33) 0.000918 408.4 624.6
576(31) 0.001041 408.3 543.3
484(28) 0.001276 408.2 490.1
463(28) 0.001276 408.1 459.4
443(27) 0.001372 408.0 442.8
458(27) 0.001372 407.9 433.8
428(26) 0.001479 407.8 428.4
451(27) 0.001372 407.6 424.8
431(26) 0.001479 407.5 422.1
399(25) 0.001600 407.4 420.0
389(25) 0.001600 407.3 418.4
414(26) 0.001479 407.2 417.1
428(26) 0.001479 407.1 416.1
416(26) 0.001479 407.0 415.3
447(27) 0.001372 406.9 414.6
427(26) 0.001479 406.8 414.2
428(26) 0.001479 406.7 414.1
455(27) 0.001372 406.6 414.2
401(25) 0.001600 406.5 414.8
436(27) 0.001372 406.5 416.0
370(24) 0.001736 406.4 418.3
393(25) 0.001600 406.3 422.0
422(26) 0.001479 406.2 427.5
464(28) 0.001276 406.1 435.0
464(28) 0.001276 406.0 444.1
434(27) 0.001372 405.9 453.6
426(26) 0.001479 405.8 460.7
479(28) 0.001276 405.7 462.0
445(27) 0.001372 405.6 455.3
406(25) 0.001600 405.5 443.6
395(25) 0.001600 405.4 431.6
438(27) 0.001372 405.3 422.3
415(26) 0.001479 405.2 416.2
389(25) 0.001600 405.2 412.7
415(26) 0.001479 405.1 410.8
430(26) 0.001479 405.0 409.7
423(26) 0.001479 404.9 409.0
392(25) 0.001600 404.8 408.5
404(25) 0.001600 404.7 408.1
418(26) 0.001479 404.6 407.7
407(25) 0.001600 404.6 407.5
407(25) 0.001600 404.5 407.2
392(25) 0.001600 404.4 407.0
413(26) 0.001479 404.3 407.1
435(27) 0.001372 404.2 407.0
426(26) 0.001479 404.1 406.9
442(27) 0.001372 404.0 406.8
408(26) 0.001479 404.0 406.7
407(25) 0.001600 403.9 406.6
430(26) 0.001479 403.8 406.6
412(26) 0.001479 403.7 406.5
413(26) 0.001479 403.6 406.5
396(25) 0.001600 403.6 406.5
426(26) 0.001479 403.5 406.5
437(27) 0.001372 403.4 406.5
403(25) 0.001600 403.3 406.6
418(26) 0.001479 403.2 406.7
418(26) 0.001479 403.2 406.8
422(26) 0.001479 403.1 406.9
387(25) 0.001600 403.0 407.0
411(26) 0.001479 402.9 407.2
476(28) 0.001276 402.9 407.4
453(27) 0.001372 402.8 407.7
400(25) 0.001600 402.7 408.0
360(24) 0.001736 402.6 408.3
407(25) 0.001600 402.5 408.7
420(26) 0.001479 402.5 409.3
426(26) 0.001479 402.4 409.9
434(26) 0.001479 402.3 410.6
450(26) 0.001479 402.2 411.5
419(25) 0.001600 402.2 412.6
422(25) 0.001600 402.1 414.0
447(26) 0.001479 402.0 415.8
410(25) 0.001600 402.0 418.0
427(25) 0.001600 401.9 421.2
442(26) 0.001479 401.8 425.8
438(26) 0.001479 401.7 433.0
481(27) 0.001372 401.7 444.6
470(27) 0.001372 401.6 463.5
535(29) 0.001189 401.5 493.4
552(30) 0.001111 401.4 538.4
619(32) 0.000977 401.4 601.3
665(33) 0.000918 401.3 681.4
756(35) 0.000816 401.2 769.3
811(37) 0.000730 401. 845.
847(38) 0.000693 401. 879.
827(37) 0.000730 401. 850.
742(35) 0.000816 401.0 766.7
725(35) 0.000816 400.9 663.9
636(32) 0.000977 400.8 573.9
551(30) 0.001111 400.8 509.9
511(28) 0.001276 400.7 470.3
468(27) 0.001372 400.6 448.0
458(26) 0.001479 400.5 435.9
427(25) 0.001600 400.5 429.1
398(24) 0.001736 400.4 425.0
446(26) 0.001479 400.3 422.3
458(27) 0.001372 400.3 420.5
413(25) 0.001600 400.2 419.5
415(25) 0.001600 400.1 419.0
440(26) 0.001479 400.1 419.2
386(24) 0.001736 400.0 420.1
410(25) 0.001600 399.9 421.9
482(27) 0.001372 399.9 425.4
455(26) 0.001479 399.8 431.5
451(26) 0.001479 399.7 442.1
492(28) 0.001276 399.7 459.4
461(27) 0.001372 399.6 485.9
503(28) 0.001276 399.5 523.3
589(31) 0.001041 399.5 571.3
678(33) 0.000918 399.4 625.8
690(34) 0.000865 399.3 673.9
688(34) 0.000865 399.3 697.1
666(33) 0.000918 399.2 681.4
645(32) 0.000977 399.2 631.4
576(30) 0.001111 399.1 568.6
520(29) 0.001189 399.0 513.1
475(27) 0.001372 399.0 473.3
458(26) 0.001479 398.9 448.5
421(25) 0.001600 398.8 434.6
411(25) 0.001600 398.8 427.3
440(26) 0.001479 398.7 423.4
433(26) 0.001479 398.6 421.3
441(26) 0.001479 398.6 420.4
415(25) 0.001600 398.5 420.2
419(25) 0.001600 398.4 420.9
447(26) 0.001479 398.4 422.3
450(26) 0.001479 398.3 424.7
459(27) 0.001372 398.3 428.7
446(26) 0.001479 398.2 435.2
521(29) 0.001189 398.1 446.3
501(28) 0.001276 398.1 465.0
490(28) 0.001276 398.0 495.7
559(30) 0.001111 397.9 543.8
646(32) 0.000977 397.9 612.3
707(34) 0.000865 397.8 699.9
815(37) 0.000730 398. 799.
896(39) 0.000657 398. 885.
957(40) 0.000625 398. 921.
868(38) 0.000693 398. 882.
812(37) 0.000730 397. 782.
684(33) 0.000918 397.4 667.0
540(29) 0.001189 397.4 572.3
501(28) 0.001276 397.3 507.1
479(27) 0.001372 397.2 467.6
463(27) 0.001372 397.2 445.5
429(25) 0.001600 397.1 433.2
420(25) 0.001600 397.0 425.9
420(25) 0.001600 397.0 421.2
401(24) 0.001736 396.9 417.9
394(24) 0.001736 396.9 415.6
427(25) 0.001600 396.8 414.1
424(25) 0.001600 396.7 413.4
398(24) 0.001736 396.7 413.8
424(25) 0.001600 396.6 415.9
470(27) 0.001372 396.5 419.8
443(26) 0.001479 396.5 426.3
457(26) 0.001479 396.4 435.2
466(27) 0.001372 396.3 446.0
474(27) 0.001372 396.3 456.3
480(27) 0.001372 396.2 462.1
472(27) 0.001372 396.2 459.7
418(25) 0.001600 396.1 449.1
458(26) 0.001479 396.0 435.5
440(26) 0.001479 396.0 423.4
413(25) 0.001600 395.9 414.6
418(25) 0.001600 395.8 409.1
424(25) 0.001600 395.8 405.8
429(20) 0.002500 395.7 404.0
420(23) 0.001890 395.6 402.8
420(23) 0.001890 395.6 402.1
366(21) 0.002268 395.5 401.6
418(23) 0.001890 395.4 401.3
436(24) 0.001736 395.4 401.1
419(23) 0.001890 395.3 401.0
415(23) 0.001890 395.3 401.1
423(23) 0.001890 395.2 401.4
464(25) 0.001600 395.1 401.9
455(25) 0.001600 395.1 402.8
425(24) 0.001736 395.0 404.4
422(23) 0.001890 394.9 407.0
417(23) 0.001890 394.9 411.1
409(23) 0.001890 394.8 417.1
449(24) 0.001736 394.7 425.1
435(24) 0.001736 394.7 434.6
452(24) 0.001736 394.6 444.3
470(25) 0.001600 394.5 452.3
494(26) 0.001479 394.5 457.2
519(26) 0.001479 394.4 457.4
492(26) 0.001479 394.3 451.4
480(25) 0.001600 394.3 440.4
447(24) 0.001736 394.2 428.2
441(24) 0.001736 394.1 418.1
445(24) 0.001736 394.0 411.1
423(23) 0.001890 394.0 406.9
417(23) 0.001890 393.9 404.6
398(23) 0.001890 393.8 403.5
408(23) 0.001890 393.8 403.2
380(22) 0.002066 393.7 403.4
420(23) 0.001890 393.6 404.1
423(23) 0.001890 393.6 405.4
411(23) 0.001890 393.5 407.8
400(23) 0.001890 393.4 412.0
428(24) 0.001736 393.4 419.1
481(25) 0.001600 393.3 430.7
435(24) 0.001736 393.2 448.3
466(25) 0.001600 393.1 471.8
539(27) 0.001372 393.1 499.1
550(27) 0.001372 393.0 524.8
560(28) 0.001276 392.9 539.0
523(27) 0.001372 392.9 533.0
500(26) 0.001479 392.8 508.2
489(26) 0.001479 392.7 476.9
459(25) 0.001600 392.6 449.5
469(25) 0.001600 392.6 429.6
452(24) 0.001736 392.5 417.0
428(24) 0.001736 392.4 409.6
397(23) 0.001890 392.4 405.5
396(23) 0.001890 392.3 403.0
424(24) 0.001736 392.2 401.3
436(24) 0.001736 392.1 400.2
428(24) 0.001736 392.1 399.4
441(24) 0.001736 392.0 398.7
414(23) 0.001890 391.9 398.2
388(22) 0.002066 391.8 397.8
401(23) 0.001890 391.8 397.5
398(23) 0.001890 391.7 397.3
404(23) 0.001890 391.6 397.2
405(23) 0.001890 391.5 397.2
410(23) 0.001890 391.5 397.2
436(24) 0.001736 391.4 397.4
437(24) 0.001736 391.3 397.7
447(24) 0.001736 391.2 398.1
425(24) 0.001736 391.1 398.7
467(25) 0.001600 391.1 399.3
434(24) 0.001736 391.0 399.9
424(23) 0.001890 390.9 400.2
410(23) 0.001890 390.8 400.3
401(23) 0.001890 390.7 400.2
430(24) 0.001736 390.7 400.3
453(24) 0.001736 390.6 400.6
411(23) 0.001890 390.5 401.2
404(23) 0.001890 390.4 402.0
427(24) 0.001736 390.3 403.1
419(23) 0.001890 390.3 404.5
394(22) 0.002066 390.2 406.2
375(22) 0.002066 390.1 408.5
408(23) 0.001890 390.0 411.4
407(23) 0.001890 389.9 415.5
439(24) 0.001736 389.9 421.2
446(24) 0.001736 389.8 429.7
452(24) 0.001736 389.7 442.7
484(25) 0.001600 389.6 462.8
481(25) 0.001600 389.5 493.1
564(28) 0.001276 389.4 537.3
634(30) 0.001111 389.4 598.6
691(31) 0.001041 389.3 675.5
803(34) 0.000865 389.2 758.5
898(36) 0.000772 389. 833.
886(36) 0.000772 389. 881.
840(35) 0.000816 388.9 869.5
817(34) 0.000865 388.8 792.7
759(33) 0.000918 388.7 689.5
588(28) 0.001276 388.7 596.5
569(28) 0.001276 388.6 527.5
537(27) 0.001372 388.5 482.8
466(25) 0.001600 388.4 456.7
456(25) 0.001600 388.3 442.4
463(23) 0.001890 388.2 435.1
437(23) 0.001890 388.1 432.0
464(23) 0.001890 388.0 432.1
436(23) 0.001890 387.9 435.8
439(23) 0.001890 387.9 444.3
480(24) 0.001736 387.8 459.7
466(24) 0.001736 387.7 484.5
522(25) 0.001600 387.6 519.9
583(27) 0.001372 387.5 564.4
600(27) 0.001372 387.4 613.9
704(30) 0.001111 387.3 658.9
731(30) 0.001111 387.2 685.2
701(30) 0.001111 387.1 688.7
669(29) 0.001189 387.0 669.1
673(29) 0.001189 386.9 624.8
616(28) 0.001276 386.8 568.1
533(25) 0.001600 386.7 516.1
503(25) 0.001600 386.6 476.8
462(23) 0.001890 386.5 450.6
437(23) 0.001890 386.4 434.6
422(22) 0.002066 386.3 425.6
432(23) 0.001890 386.2 420.9
397(21) 0.002268 386.1 418.8
388(21) 0.002268 386.0 418.6
425(22) 0.002066 385.9 420.2
446(23) 0.001890 385.9 424.3
448(23) 0.001890 385.8 432.0
469(24) 0.001736 385.6 445.2
508(25) 0.001600 385.5 466.4
534(25) 0.001600 385.4 497.9
582(27) 0.001372 385.3 540.8
581(27) 0.001372 385.2 593.2
694(30) 0.001111 385.1 648.3
713(30) 0.001111 385.0 693.3
723(30) 0.001111 384.9 718.0
728(30) 0.001111 384.8 712.1
662(29) 0.001189 384.7 668.7
592(27) 0.001372 384.6 603.7
502(25) 0.001600 384.5 540.1
475(24) 0.001736 384.4 489.9
467(24) 0.001736 384.3 455.1
426(22) 0.002066 384.2 433.1
419(22) 0.002066 384.1 419.8
413(22) 0.002066 384.0 411.7
434(23) 0.001890 383.9 406.5
405(22) 0.002066 383.8 402.8
427(22) 0.002066 383.7 400.1
364(20) 0.002500 383.5 398.0
410(22) 0.002066 383.4 396.3
395(21) 0.002268 383.3 394.9
360(20) 0.002500 383.2 393.7
397(21) 0.002268 383.1 392.7
422(22) 0.002066 383.0 391.9
438(23) 0.001890 382.9 391.2
411(22) 0.002066 382.8 390.7
404(22) 0.002066 382.7 390.2
419(22) 0.002066 382.5 389.8
385(21) 0.002268 382.4 389.5
371(21) 0.002268 382.3 389.3
412(22) 0.002066 382.2 389.1
390(21) 0.002268 382.1 389.1
415(22) 0.002066 382.0 389.2
391(21) 0.002268 381.8 389.4
394(21) 0.002268 381.7 389.7
411(22) 0.002066 381.6 390.3
437(23) 0.001890 381.5 391.1
428(22) 0.002066 381.4 392.5
404(22) 0.002066 381.3 394.8
403(22) 0.002066 381.1 398.8
433(23) 0.001890 381.0 405.4
468(24) 0.001736 380.9 415.3
449(23) 0.001890 380.8 429.2
461(23) 0.001890 380.7 446.0
471(24) 0.001736 380.5 462.4
479(24) 0.001736 380.4 473.7
493(24) 0.001736 380.3 474.2
510(25) 0.001600 380.2 462.2
461(23) 0.001890 380.0 444.0
431(22) 0.002066 379.9 426.4
387(21) 0.002268 379.8 412.7
375(21) 0.002268 379.7 403.4
388(21) 0.002268 379.5 397.6
427(22) 0.002066 379.4 394.3
400(22) 0.002066 379.3 392.6
400(21) 0.002268 379.2 391.8
404(22) 0.002066 379.0 391.5
397(21) 0.002268 378.9 391.8
391(21) 0.002268 378.8 392.6
414(22) 0.002066 378.6 394.0
435(23) 0.001890 378.5 396.5
408(22) 0.002066 378.4 400.6
414(22) 0.002066 378.3 407.5
437(23) 0.001890 378.1 418.6
452(23) 0.001890 378.0 435.4
493(24) 0.001736 377.9 459.0
515(25) 0.001600 377.7 488.1
532(25) 0.001600 377.6 517.9
582(27) 0.001372 377.5 540.8
556(26) 0.001479 377.3 547.4
514(25) 0.001600 377.2 531.8
479(23) 0.001890 377.1 501.1
484(23) 0.001890 376.9 468.4
444(22) 0.002066 376.8 441.3
415(21) 0.002268 376.6 421.9
396(20) 0.002500 376.5 409.5
397(20) 0.002500 376.4 402.3
400(20) 0.002500 376.2 398.5
413(21) 0.002268 376.1 396.9
411(21) 0.002268 376.0 397.0
415(21) 0.002268 375.8 399.1
398(20) 0.002500 375.7 403.5
399(20) 0.002500 375.5 411.1
406(21) 0.002268 375.4 422.5
435(21) 0.002268 375.2 437.5
425(21) 0.002268 375.1 454.5
455(22) 0.002066 375.0 470.0
481(23) 0.001890 374.8 479.6
456(22) 0.002066 374.7 480.5
504(23) 0.001890 374.5 473.9
494(23) 0.001890 374.4 462.2
447(22) 0.002066 374.2 446.6
457(22) 0.002066 374.1 430.1
425(21) 0.002268 373.9 415.8
415(21) 0.002268 373.8 405.2
435(21) 0.002268 373.6 397.9
429(21) 0.002268 373.5 393.5
446(22) 0.002066 373.4 391.0
413(21) 0.002268 373.2 389.9
386(20) 0.002500 373.1 389.8
403(20) 0.002500 372.9 390.8
389(20) 0.002500 372.8 393.2
403(20) 0.002500 372.6 397.8
398(20) 0.002500 372.4 405.8
404(20) 0.002500 372.3 418.7
424(21) 0.002268 372.1 437.3
460(22) 0.002066 372.0 460.9
491(23) 0.001890 371.8 485.4
515(24) 0.001736 371.7 501.6
534(24) 0.001736 371.5 499.8
485(23) 0.001890 371.4 481.0
472(22) 0.002066 371.2 456.0
449(22) 0.002066 371.1 433.0
422(21) 0.002268 370.9 415.3
432(21) 0.002268 370.7 403.3
405(21) 0.002268 370.6 395.9
401(20) 0.002500 370.4 391.7
389(20) 0.002500 370.3 389.6
384(20) 0.002500 370.1 388.8
416(21) 0.002268 369.9 389.2
407(21) 0.002268 369.8 390.7
417(21) 0.002268 369.6 393.8
443(22) 0.002066 369.5 399.3
435(21) 0.002268 369.3 408.2
434(21) 0.002268 369.1 421.6
454(22) 0.002066 369.0 440.0
471(22) 0.002066 368.8 462.6
493(23) 0.001890 368.6 487.1
507(23) 0.001890 368.5 507.9
542(24) 0.001736 368.3 515.0
543(24) 0.001736 368.1 502.6
511(23) 0.001890 368.0 477.9
487(23) 0.001890 367.8 451.5
464(22) 0.002066 367.6 429.4
453(22) 0.002066 367.5 413.5
396(20) 0.002500 367.3 403.4
401(20) 0.002500 367.1 397.7
411(21) 0.002268 367.0 395.2
411(21) 0.002268 366.8 395.0
369(19) 0.002770 366.6 396.9
395(20) 0.002500 366.4 401.4
426(21) 0.002268 366.3 409.9
427(21) 0.002268 366.1 424.4
428(21) 0.002268 365.9 447.5
465(22) 0.002066 365.8 480.7
515(24) 0.001736 365.6 523.6
564(25) 0.001600 365.4 570.2
609(26) 0.001479 365.2 606.4
615(26) 0.001479 365.1 613.5
570(25) 0.001600 364.9 587.0
548(24) 0.001736 364.7 542.3
511(24) 0.001736 364.5 496.5
503(23) 0.001890 364.4 458.6
458(22) 0.002066 364.2 431.1
419(21) 0.002268 364.0 412.9
421(21) 0.002268 363.8 401.8
401(20) 0.002500 363.6 395.5
389(20) 0.002500 363.5 392.2
403(20) 0.002500 363.3 391.1
410(21) 0.002268 363.1 392.2
404(21) 0.002268 362.9 395.9
394(20) 0.002500 362.7 403.2
412(21) 0.002268 362.5 415.3
453(22) 0.002066 362.4 432.9
468(22) 0.002066 362.2 455.3
469(22) 0.002066 362.0 479.4
493(23) 0.001890 361.8 497.8
517(24) 0.001736 361.6 500.9
490(23) 0.001890 361.4 486.0
483(23) 0.001890 361.3 461.3
460(22) 0.002066 361.1 436.2
469(21) 0.002268 360.9 415.3
432(20) 0.002500 360.7 400.0
400(19) 0.002770 360.5 389.6
397(19) 0.002770 360.3 383.1
386(19) 0.002770 360.1 379.0
410(20) 0.002500 359.9 376.4
402(19) 0.002770 359.7 374.9
390(19) 0.002770 359.5 373.9
384(19) 0.002770 359.4 373.6
370(18) 0.003086 359.2 373.8
367(18) 0.003086 359.0 374.7
368(18) 0.003086 358.8 376.4
373(19) 0.002770 358.6 378.7
384(19) 0.002770 358.4 381.3
388(19) 0.002770 358.2 383.4
374(19) 0.002770 358.0 384.1
378(19) 0.002770 357.8 383.1
379(19) 0.002770 357.6 381.5
360(18) 0.003086 357.4 380.2
343(18) 0.003086 357.2 379.8
377(19) 0.002770 357.0 380.5
394(19) 0.002770 356.8 382.5
382(19) 0.002770 356.6 386.3
394(19) 0.002770 356.4 392.9
418(20) 0.002500 356.2 403.8
427(20) 0.002500 356.0 421.3
428(20) 0.002500 355.8 448.1
500(22) 0.002066 355.6 486.3
564(23) 0.001890 355.4 535.8
565(23) 0.001890 355.2 591.4
626(25) 0.001600 355.0 639.6
642(25) 0.001600 354.8 659.1
667(26) 0.001479 354.6 638.8
621(25) 0.001600 354.4 591.7
582(24) 0.001736 354.2 537.7
549(23) 0.001890 354.0 489.0
475(21) 0.002268 353.8 450.4
420(20) 0.002500 353.6 422.4
413(20) 0.002500 353.4 403.7
383(19) 0.002770 353.2 391.6
387(19) 0.002770 353.0 383.8
395(19) 0.002770 352.8 379.0
366(18) 0.003086 352.6 375.8
388(19) 0.002770 352.4 373.9
385(19) 0.002770 352.1 373.2
375(19) 0.002770 351.9 373.4
365(18) 0.003086 351.7 374.6
361(18) 0.003086 351.5 376.5
371(18) 0.003086 351.3 378.7
400(19) 0.002770 351.1 380.0
389(19) 0.002770 350.9 379.8
408(20) 0.002500 350.7 377.8
414(20) 0.002500 350.5 375.4
395(19) 0.002770 350.2 373.4
362(18) 0.003086 350.0 372.4
374(19) 0.002770 349.8 372.9
380(19) 0.002770 349.6 375.3
356(18) 0.003086 349.4 380.4
387(19) 0.002770 349.2 389.3
403(19) 0.002770 349.0 402.9
437(20) 0.002500 348.7 421.9
459(21) 0.002268 348.5 445.8
506(22) 0.002066 348.3 471.6
491(22) 0.002066 348.1 492.2
515(22) 0.002066 347.9 498.0
485(22) 0.002066 347.7 485.5
465(21) 0.002268 347.4 461.7
450(21) 0.002268 347.2 435.9
405(19) 0.002770 347.0 413.5
415(20) 0.002500 346.8 396.4
373(19) 0.002770 346.6 384.6
359(18) 0.003086 346.3 377.2
390(19) 0.002770 346.1 373.1
366(18) 0.003086 345.9 371.4
390(19) 0.002770 345.7 371.7
376(19) 0.002770 345.5 374.0
400(19) 0.002770 345.2 378.9
414(20) 0.002500 345.0 386.9
402(19) 0.002770 344.8 398.5
442(20) 0.002500 344.6 413.6
461(21) 0.002268 344.3 430.7
436(20) 0.002500 344.1 446.4
444(21) 0.002268 343.9 455.4
465(21) 0.002268 343.7 455.9
474(21) 0.002268 343.4 451.8
461(21) 0.002268 343.2 448.6
460(21) 0.002268 343.0 448.4
473(21) 0.002268 342.8 449.3
466(21) 0.002268 342.5 446.3
448(21) 0.002268 342.3 436.1
401(19) 0.002770 342.1 420.7
390(19) 0.002770 341.9 404.5
421(20) 0.002500 341.6 390.5
384(19) 0.002770 341.4 379.7
380(19) 0.002770 341.2 372.2
365(18) 0.003086 340.9 367.8
396(19) 0.002770 340.7 366.0
351(18) 0.003086 340.5 366.6
334(17) 0.003460 340.2 369.8
379(19) 0.002770 340.0 375.6
418(19) 0.002770 339.8 384.0
424(20) 0.002500 339.5 394.5
455(20) 0.002500 339.3 405.2
429(20) 0.002500 339.1 412.6
409(19) 0.002770 338.8 412.8
403(19) 0.002770 338.6 405.4
404(19) 0.002770 338.4 393.9
403(19) 0.002770 338.1 382.2
379(18) 0.003086 337.9 372.1
362(18) 0.003086 337.7 364.4
376(18) 0.003086 337.4 359.1
383(18) 0.003086 337.2 355.7
355(18) 0.003086 337.0 353.9
361(18) 0.003086 336.7 353.3
359(18) 0.003086 336.5 353.5
371(18) 0.003086 336.3 354.4
361(18) 0.003086 336.0 355.7
360(18) 0.003086 335.8 357.3
363(18) 0.003086 335.5 358.8
365(18) 0.003086 335.3 360.3
372(18) 0.003086 335.1 362.2
371(18) 0.003086 334.8 364.6
399(19) 0.002770 334.6 367.2
357(18) 0.003086 334.3 369.2
374(18) 0.003086 334.1 369.7
388(19) 0.002770 333.9 368.9
409(19) 0.002770 333.6 367.8
401(19) 0.002770 333.4 367.7
409(19) 0.002770 333.1 369.9
377(18) 0.003086 332.9 375.3
372(18) 0.003086 332.7 384.6
422(19) 0.002770 332.4 398.4
484(21) 0.002268 332.2 416.9
497(21) 0.002268 331.9 439.0
490(21) 0.002268 331.7 461.6
518(22) 0.002066 331.4 480.0
491(21) 0.002268 331.2 491.2
555(23) 0.001890 331.0 497.5
511(22) 0.002066 330.7 502.5
533(22) 0.002066 330.5 506.4
576(23) 0.001890 330.2 506.4
501(21) 0.002268 330.0 498.2
510(22) 0.002066 329.7 480.0
470(21) 0.002268 329.5 455.2
433(20) 0.002500 329.2 429.8
403(19) 0.002770 329.0 407.7
412(19) 0.002770 328.7 390.5
403(19) 0.002770 328.5 378.2
394(19) 0.002770 328.2 370.5
348(17) 0.003460 328.0 366.4
371(18) 0.003086 327.8 365.7
369(18) 0.003086 327.5 368.2
379(18) 0.003086 327.3 374.3
391(19) 0.002770 327.0 384.7
425(20) 0.002500 326.8 399.7
464(21) 0.002268 326.5 419.0
438(20) 0.002500 326.3 440.9
468(21) 0.002268 326.0 461.1
504(22) 0.002066 325.8 472.5
471(21) 0.002268 325.5 469.5
474(21) 0.002268 325.3 453.6
448(20) 0.002500 325.0 431.7
426(20) 0.002500 324.8 410.1
395(19) 0.002770 324.5 392.0
392(19) 0.002770 324.2 378.8
384(18) 0.003086 324.0 370.4
391(19) 0.002770 323.7 366.7
372(18) 0.003086 323.5 367.1
382(18) 0.003086 323.2 371.3
353(18) 0.003086 323.0 379.3
391(19) 0.002770 322.7 390.4
426(20) 0.002500 322.5 403.5
459(20) 0.002500 322.2 416.0
436(20) 0.002500 322.0 423.8
440(20) 0.002500 321.7 423.6
450(20) 0.002500 321.5 416.1
416(19) 0.002770 321.2 405.2
388(19) 0.002770 321.0 394.4
386(18) 0.003086 320.7 386.2
377(18) 0.003086 320.4 382.1
371(18) 0.003086 320.2 383.1
406(19) 0.002770 319.9 390.1
410(19) 0.002770 319.7 403.7
456(20) 0.002500 319.4 424.1
433(20) 0.002500 319.2 450.9
510(22) 0.002066 318.9 482.0
552(23) 0.001890 318.6 512.3
547(23) 0.001890 318.4 535.6
601(24) 0.001736 318.1 548.5
564(23) 0.001890 317.9 551.9
564(23) 0.001890 317.6 545.4
553(23) 0.001890 317.4 527.4
489(21) 0.002268 317.1 499.8
477(21) 0.002268 316.8 468.0
438(20) 0.002500 316.6 437.3
436(20) 0.002500 316.3 411.0
442(20) 0.002500 316.1 390.4
400(19) 0.002770 315.8 375.6
335(17) 0.003460 315.6 366.0
380(18) 0.003086 315.3 360.8
351(17) 0.003460 315.0 359.6
359(18) 0.003086 314.8 362.3
364(18) 0.003086 314.5 368.9
364(18) 0.003086 314.3 379.4
412(19) 0.002770 314.0 393.7
433(20) 0.002500 313.7 410.5
417(19) 0.002770 313.5 427.0
473(20) 0.002500 313.2 438.7
438(20) 0.002500 313.0 441.6
443(20) 0.002500 312.7 434.6
466(20) 0.002500 312.4 420.4
448(20) 0.002500 312.2 402.4
403(19) 0.002770 311.9 384.4
374(18) 0.003086 311.6 368.9
362(18) 0.003086 311.4 356.9
334(17) 0.003460 311.1 348.5
365(18) 0.003086 310.9 343.4
302(16) 0.00391 310.6 340.7
315(16) 0.00391 310.3 339.9
361(18) 0.003086 310.1 339.8
350(17) 0.003460 309.8 339.4
348(17) 0.003460 309.5 337.7
333(17) 0.003460 309.3 334.8
352(17) 0.003460 309.0 331.1
298(16) 0.00391 308.8 327.4
303(16) 0.00391 308.5 324.1
303(16) 0.00391 308.2 321.4
319(16) 0.00391 308.0 319.2
330(17) 0.003460 307.7 317.5
332(17) 0.003460 307.4 316.2
284(15) 0.00444 307.2 315.2
323(17) 0.003460 306.9 314.5
317(16) 0.00391 306.6 313.8
335(17) 0.003460 306.4 313.4
318(16) 0.00391 306.1 313.0
304(16) 0.00391 305.9 312.8
310(16) 0.00391 305.6 312.7
336(17) 0.003460 305.3 312.9
344(17) 0.003460 305.1 313.3
324(17) 0.003460 304.8 314.0
321(16) 0.00391 304.5 314.9
325(17) 0.003460 304.3 316.0
294(16) 0.00391 304.0 317.0
278(15) 0.00444 303.7 317.6
290(16) 0.00391 303.5 317.3
301(16) 0.00391 303.2 316.2
310(16) 0.00391 302.9 314.7
304(16) 0.00391 302.7 313.2
332(17) 0.003460 302.4 311.7
311(16) 0.00391 302.1 310.6
317(16) 0.00391 301.9 309.8
311(16) 0.00391 301.6 309.3
315(16) 0.00391 301.4 309.1
320(17) 0.003460 301.1 309.1
306(16) 0.00391 300.8 309.4
323(17) 0.003460 300.6 310.0
325(17) 0.003460 300.3 310.8
299(16) 0.00391 300.0 311.8
291(16) 0.00391 299.8 312.8
350(17) 0.003460 299.5 313.7
313(16) 0.00391 299.2 314.4
335(17) 0.003460 299.0 315.2
325(17) 0.003460 298.7 316.3
311(16) 0.00391 298.4 318.3
302(16) 0.00391 298.2 321.6
314(16) 0.00391 297.9 326.5
335(17) 0.003460 297.6 333.4
336(17) 0.003460 297.4 342.1
374(18) 0.003086 297.1 352.4
352(17) 0.003460 296.8 363.0
355(17) 0.003460 296.6 372.4
369(18) 0.003086 296.3 379.2
399(19) 0.002770 296.0 382.9
403(19) 0.002770 295.8 383.7
395(19) 0.002770 295.5 380.9
353(17) 0.003460 295.2 374.6
366(18) 0.003086 295.0 365.7
370(18) 0.003086 294.7 355.8
324(17) 0.003460 294.4 346.7
328(17) 0.003460 294.2 339.6
320(16) 0.00391 293.9 335.3
327(17) 0.003460 293.6 333.9
341(17) 0.003460 293.4 335.3
339(17) 0.003460 293.1 339.1
316(16) 0.00391 292.8 344.3
325(17) 0.003460 292.6 349.4
344(17) 0.003460 292.3 352.3
344(17) 0.003460 292.0 351.2
327(17) 0.003460 291.8 346.2
337(17) 0.003460 291.5 338.9
323(17) 0.003460 291.2 331.1
334(17) 0.003460 291.0 324.0
312(16) 0.00391 290.7 318.2
305(16) 0.00391 290.4 313.7
299(16) 0.00391 290.2 310.5
316(16) 0.00391 289.9 308.5
309(16) 0.00391 289.6 307.6
287(16) 0.00391 289.4 307.8
298(16) 0.00391 289.1 309.2
297(16) 0.00391 288.8 311.8
342(24) 0.001736 288.6 315.9
329(16) 0.00391 288.3 321.7
359(17) 0.003460 288.0 328.9
338(17) 0.003460 287.8 337.4
343(17) 0.003460 287.5 346.0
376(17) 0.003460 287.2 353.0
378(18) 0.003086 287.0 356.2
367(17) 0.003460 286.7 354.3
360(17) 0.003460 286.4 348.2
333(16) 0.00391 286.2 340.3
339(17) 0.003460 285.9 332.5
342(17) 0.003460 285.6 325.9
328(16) 0.00391 285.4 321.4
325(16) 0.00391 285.1 319.3
313(16) 0.00391 284.8 319.8
323(16) 0.00391 284.6 323.2
335(16) 0.00391 284.3 329.8
372(17) 0.003460 284.0 339.8
373(17) 0.003460 283.8 353.3
380(18) 0.003086 283.5 369.9
397(18) 0.003086 283.2 388.4
437(19) 0.002770 283.0 406.1
434(19) 0.002770 282.7 419.4
440(19) 0.002770 282.4 424.8
439(19) 0.002770 282.2 421.0
431(19) 0.002770 281.9 409.3
418(19) 0.002770 281.7 392.3
391(18) 0.003086 281.4 373.7
365(17) 0.003460 281.1 356.4
354(17) 0.003460 280.9 342.0
335(16) 0.00391 280.6 331.2
314(16) 0.00391 280.3 324.1
329(16) 0.00391 280.1 320.4
322(16) 0.00391 279.8 319.7
335(16) 0.00391 279.5 321.4
344(17) 0.003460 279.3 324.8
350(17) 0.003460 279.0 328.9
342(17) 0.003460 278.7 332.6
330(16) 0.00391 278.5 334.3
329(16) 0.00391 278.2 332.9
340(17) 0.003460 278.0 328.7
344(17) 0.003460 277.7 322.6
323(16) 0.00391 277.4 315.7
295(15) 0.00444 277.2 309.0
306(16) 0.00391 276.9 303.0
318(16) 0.00391 276.6 298.0
303(16) 0.00391 276.4 294.1
300(16) 0.00391 276.1 291.1
294(15) 0.00444 275.8 289.0
266(14) 0.00510 275.6 287.7
275(15) 0.00444 275.3 286.8
260(14) 0.00510 275.1 286.5
284(15) 0.00444 274.8 286.5
283(15) 0.00444 274.5 286.7
294(15) 0.00444 274.3 287.1
303(16) 0.00391 274.0 287.3
273(15) 0.00444 273.7 287.3
295(15) 0.00444 273.5 286.8
293(15) 0.00444 273.2 286.0
280(15) 0.00444 273.0 285.1
275(15) 0.00444 272.7 284.2
288(15) 0.00444 272.4 283.7
302(16) 0.00391 272.2 283.6
292(15) 0.00444 271.9 284.0
299(15) 0.00444 271.7 285.0
309(16) 0.00391 271.4 286.6
283(15) 0.00444 271.1 288.6
291(15) 0.00444 270.9 291.0
313(16) 0.00391 270.6 293.4
286(15) 0.00444 270.4 295.3
293(15) 0.00444 270.1 296.2
307(16) 0.00391 269.8 295.8
299(15) 0.00444 269.6 294.6
290(15) 0.00444 269.3 293.2
306(16) 0.00391 269.1 292.3
298(15) 0.00444 268.8 292.4
310(16) 0.00391 268.5 293.8
317(16) 0.00391 268.3 296.7
297(15) 0.00444 268.0 301.0
304(16) 0.00391 267.8 306.7
321(16) 0.00391 267.5 313.1
307(16) 0.00391 267.2 319.4
309(16) 0.00391 267.0 324.3
325(16) 0.00391 266.7 326.7
310(16) 0.00391 266.5 326.6
324(16) 0.00391 266.2 324.3
349(17) 0.003460 266.0 320.6
334(16) 0.00391 265.7 315.7
329(16) 0.00391 265.4 310.2
327(16) 0.00391 265.2 304.3
306(16) 0.00391 264.9 298.4
277(15) 0.00444 264.7 293.0
271(15) 0.00444 264.4 288.4
271(15) 0.00444 264.2 284.8
286(15) 0.00444 263.9 282.2
290(15) 0.00444 263.7 280.7
292(15) 0.00444 263.4 280.2
294(15) 0.00444 263.1 280.6
291(15) 0.00444 262.9 281.9
280(15) 0.00444 262.6 283.9
278(15) 0.00444 262.4 286.5
285(15) 0.00444 262.1 289.3
317(16) 0.00391 261.9 291.8
330(16) 0.00391 261.6 293.1
305(16) 0.00391 261.4 293.0
305(16) 0.00391 261.1 291.4
305(16) 0.00391 260.9 289.1
286(15) 0.00444 260.6 286.7
288(15) 0.00444 260.4 284.9
279(15) 0.00444 260.1 283.8
305(16) 0.00391 259.8 283.6
292(15) 0.00444 259.6 284.1
288(15) 0.00444 259.3 285.0
303(16) 0.00391 259.1 285.8
309(16) 0.00391 258.8 286.0
295(15) 0.00444 258.6 285.6
289(15) 0.00444 258.3 284.6
267(15) 0.00444 258.1 283.3
300(16) 0.00391 257.8 281.9
280(15) 0.00444 257.6 280.3
277(15) 0.00444 257.3 278.6
289(15) 0.00444 257.1 277.1
284(15) 0.00444 256.8 275.8
290(15) 0.00444 256.6 275.2
299(16) 0.00391 256.3 275.4
298(16) 0.00391 256.1 276.6
290(15) 0.00444 255.8 278.9
298(16) 0.00391 255.6 282.3
275(15) 0.00444 255.3 286.8
307(16) 0.00391 255.1 292.0
307(16) 0.00391 254.8 297.4
297(16) 0.00391 254.6 302.2
324(16) 0.00391 254.3 305.1
320(16) 0.00391 254.1 305.2
310(16) 0.00391 253.9 302.6
311(16) 0.00391 253.6 298.1
303(16) 0.00391 253.4 293.0
290(15) 0.00444 253.1 288.3
300(16) 0.00391 252.9 284.7
274(15) 0.00444 252.6 282.6
275(15) 0.00444 252.4 282.3
290(15) 0.00444 252.1 283.7
296(16) 0.00391 251.9 287.1
293(15) 0.00444 251.6 292.2
306(16) 0.00391 251.4 298.7
332(17) 0.003460 251.2 306.0
297(16) 0.00391 250.9 313.1
327(16) 0.00391 250.7 318.4
330(16) 0.00391 250.4 320.5
290(15) 0.00444 250.2 318.4
324(16) 0.00391 249.9 312.8
302(16) 0.00391 249.7 305.1
310(16) 0.00391 249.4 296.8
324(16) 0.00391 249.2 289.0
306(16) 0.00391 249.0 282.2
281(15) 0.00444 248.7 276.7
280(15) 0.00444 248.5 272.7
282(15) 0.00444 248.2 270.0
285(15) 0.00444 248.0 268.6
275(15) 0.00444 247.8 268.3
274(15) 0.00444 247.5 268.9
281(15) 0.00444 247.3 270.4
271(15) 0.00444 247.0 272.4
265(15) 0.00444 246.8 274.8
290(15) 0.00444 246.6 277.1
292(15) 0.00444 246.3 279.0
292(15) 0.00444 246.1 279.9
290(15) 0.00444 245.8 279.8
284(15) 0.00444 245.6 279.1
296(16) 0.00391 245.4 278.2
278(15) 0.00444 245.1 277.7
278(15) 0.00444 244.9 278.0
270(15) 0.00444 244.7 279.1
284(15) 0.00444 244.4 280.9
281(15) 0.00444 244.2 283.0
297(16) 0.00391 243.9 284.8
284(15) 0.00444 243.7 286.0
293(15) 0.00444 243.5 286.2
294(15) 0.00444 243.2 285.7
309(16) 0.00391 243.0 284.7
284(15) 0.00444 242.8 283.2
288(15) 0.00444 242.5 281.0
289(15) 0.00444 242.3 278.3
295(16) 0.00391 242.1 275.3
302(16) 0.00391 241.8 272.6
276(15) 0.00444 241.6 270.5
282(15) 0.00444 241.4 269.4
307(16) 0.00391 241.1 269.4
281(15) 0.00444 240.9 270.4
290(15) 0.00444 240.7 272.5
290(15) 0.00444 240.4 275.6
279(15) 0.00444 240.2 279.2
287(15) 0.00444 240.0 283.0
286(15) 0.00444 239.7 286.2
300(16) 0.00391 239.5 288.0
306(16) 0.00391 239.3 288.3
292(15) 0.00444 239.0 287.2
294(15) 0.00444 238.8 285.6
301(16) 0.00391 238.6 284.2
287(15) 0.00444 238.4 283.7
290(13) 0.00592 238.1 284.3
296(16) 0.00391 237.9 285.9
288(16) 0.00391 237.7 288.5
269(15) 0.00444 237.4 291.9
286(16) 0.00391 237.2 295.7
290(16) 0.00391 237.0 299.4
304(16) 0.00391 236.8 302.6
310(16) 0.00391 236.5 304.8
327(17) 0.003460 236.3 306.2
313(16) 0.00391 236.1 307.2
334(17) 0.003460 235.9 307.9
315(16) 0.00391 235.6 308.4
297(16) 0.00391 235.4 308.6
308(16) 0.00391 235.2 308.8
313(16) 0.00391 234.9 309.7
318(16) 0.00391 234.7 311.5
290(16) 0.00391 234.5 314.4
316(16) 0.00391 234.3 318.4
337(17) 0.003460 234.1 323.3
321(17) 0.003460 233.8 329.0
331(17) 0.003460 233.6 335.1
332(17) 0.003460 233.4 341.1
351(17) 0.003460 233.2 346.4
375(18) 0.003086 232.9 350.5
374(18) 0.003086 232.7 353.0
373(18) 0.003086 232.5 353.3
356(17) 0.003460 232.3 350.5
326(17) 0.003460 232.1 343.8
324(17) 0.003460 231.8 333.7
311(16) 0.00391 231.6 321.2
305(16) 0.00391 231.4 308.1
308(16) 0.00391 231.2 295.5
287(16) 0.00391 231.0 284.3
276(15) 0.00444 230.7 274.7
287(16) 0.00391 230.5 266.8
235(14) 0.00510 230.3 260.6
231(14) 0.00510 230.1 255.9
245(14) 0.00510 229.9 252.4
249(15) 0.00444 229.6 249.8
248(15) 0.00444 229.4 248.0
250(15) 0.00444 229.2 246.7
263(15) 0.00444 229.0 245.8
257(15) 0.00444 228.8 245.1
253(15) 0.00444 228.6 244.6
232(14) 0.00510 228.3 244.2
259(15) 0.00444 228.1 243.9
248(15) 0.00444 227.9 243.6
230(14) 0.00510 227.7 243.4
228(14) 0.00510 227.5 243.3
235(14) 0.00510 227.3 243.2
262(15) 0.00444 227.1 243.3
260(15) 0.00444 226.8 243.7
252(15) 0.00444 226.6 244.5
239(14) 0.00510 226.4 245.8
272(15) 0.00444 226.2 247.6
247(15) 0.00444 226.0 249.9
252(15) 0.00444 225.8 252.8
253(15) 0.00444 225.6 256.1
253(15) 0.00444 225.4 259.8
244(14) 0.00510 225.1 264.1
280(15) 0.00444 224.9 268.7
254(15) 0.00444 224.7 273.7
271(15) 0.00444 224.5 278.9
318(16) 0.00391 224.3 283.9
300(16) 0.00391 224.1 288.8
325(17) 0.003460 223.9 293.1
311(16) 0.00391 223.7 296.7
344(17) 0.003460 223.5 299.1
333(17) 0.003460 223.3 300.0
308(16) 0.00391 223.1 299.5
314(16) 0.00391 222.9 297.7
288(16) 0.00391 222.6 294.6
300(16) 0.00391 222.4 290.2
262(15) 0.00444 222.2 284.6
271(15) 0.00444 222.0 278.4
284(16) 0.00391 221.8 272.0
277(15) 0.00444 221.6 265.8
262(15) 0.00444 221.4 260.1
273(15) 0.00444 221.2 255.0
271(15) 0.00444 221.0 250.5
250(15) 0.00444 220.8 246.7
246(14) 0.00510 220.6 243.5
245(14) 0.00510 220.4 240.9
243(14) 0.00510 220.2 238.8
234(14) 0.00510 220.0 237.1
253(15) 0.00444 219.8 235.5
222(14) 0.00510 219.6 234.0
234(14) 0.00510 219.4 232.6
227(14) 0.00510 219.2 231.3
234(14) 0.00510 219.0 230.0
228(14) 0.00510 218.8 228.9
223(14) 0.00510 218.6 228.0
243(14) 0.00510 218.4 227.2
233(14) 0.00510 218.2 226.6
239(14) 0.00510 218.0 226.1
242(14) 0.00510 217.8 225.7
247(15) 0.00444 217.6 225.6
247(14) 0.00510 217.4 225.6
217(14) 0.00510 217.2 225.8
231(14) 0.00510 217.0 226.2
230(19) 0.002770 216.8 226.8
240(14) 0.00510 216.6 227.6
233(14) 0.00510 216.4 228.6
227(13) 0.00592 216.2 229.9
235(14) 0.00510 216.0 231.3
257(14) 0.00510 215.8 232.8
260(14) 0.00510 215.6 234.2
243(14) 0.00510 215.4 235.5
225(13) 0.00592 215.2 236.5
239(14) 0.00510 215.0 237.4
251(14) 0.00510 214.8 238.2
247(14) 0.00510 214.6 239.2
240(14) 0.00510 214.4 240.2
239(14) 0.00510 214.2 241.5
256(14) 0.00510 214.1 242.7
254(14) 0.00510 213.9 243.6
234(14) 0.00510 213.7 244.1
251(14) 0.00510 213.5 243.9
240(14) 0.00510 213.3 243.0
245(14) 0.00510 213.1 241.4
243(14) 0.00510 212.9 239.6
233(14) 0.00510 212.7 237.7
244(14) 0.00510 212.5 236.0
227(13) 0.00592 212.3 234.8
243(14) 0.00510 212.1 234.0
239(14) 0.00510 212.0 233.9
233(14) 0.00510 211.8 234.5
228(13) 0.00592 211.6 235.6
215(13) 0.00592 211.4 237.4
246(14) 0.00510 211.2 239.6
233(14) 0.00510 211.0 242.1
254(14) 0.00510 210.8 244.6
266(15) 0.00444 210.6 246.9
278(15) 0.00444 210.5 248.8
252(14) 0.00510 210.3 250.4
229(13) 0.00592 210.1 251.8
261(14) 0.00510 209.9 253.0
276(15) 0.00444 209.7 254.0
254(14) 0.00510 209.5 254.6
256(14) 0.00510 209.3 255.1
254(14) 0.00510 209.2 255.7
246(14) 0.00510 209.0 256.4
275(15) 0.00444 208.8 257.3
270(15) 0.00444 208.6 258.3
248(14) 0.00510 208.4 258.8
258(14) 0.00510 208.2 258.7
284(15) 0.00444 208.1 257.7
251(14) 0.00510 207.9 255.7
283(15) 0.00444 207.7 253.2
244(14) 0.00510 207.5 250.4
249(14) 0.00510 207.3 247.9
249(14) 0.00510 207.2 245.8
270(15) 0.00444 207.0 244.5
239(14) 0.00510 206.8 243.8
245(14) 0.00510 206.6 243.8
238(14) 0.00510 206.4 244.1
266(15) 0.00444 206.3 244.5
267(15) 0.00444 206.1 244.7
236(14) 0.00510 205.9 244.5
242(14) 0.00510 205.7 244.0
238(14) 0.00510 205.5 243.2
254(14) 0.00510 205.4 242.2
264(15) 0.00444 205.2 240.8
233(14) 0.00510 205.0 239.3
256(14) 0.00510 204.8 237.7
234(14) 0.00510 204.7 236.3
230(14) 0.00510 204.5 235.3
250(14) 0.00510 204.3 234.6
235(14) 0.00510 204.1 234.4
257(14) 0.00510 204.0 234.7
233(14) 0.00510 203.8 235.3
231(14) 0.00510 203.6 236.3
221(13) 0.00592 203.4 237.4
243(14) 0.00510 203.3 238.2
249(14) 0.00510 203.1 238.5
249(14) 0.00510 202.9 238.0
246(14) 0.00510 202.7 236.5
228(13) 0.00592 202.6 234.4
219(13) 0.00592 202.4 231.9
227(13) 0.00592 202.2 229.4
209(13) 0.00592 202.1 227.0
220(13) 0.00592 201.9 225.0
250(14) 0.00510 201.7 223.4
219(13) 0.00592 201.5 222.2
218(13) 0.00592 201.4 221.3
244(14) 0.00510 201.2 220.7
237(14) 0.00510 201.0 220.2
253(14) 0.00510 200.9 219.8
219(13) 0.00592 200.7 219.3
211(13) 0.00592 200.5 218.8
211(13) 0.00592 200.4 218.3
218(13) 0.00592 200.2 217.9
233(14) 0.00510 200.0 217.7
212(13) 0.00592 199.9 217.8
239(14) 0.00510 199.7 218.2
224(13) 0.00592 199.5 219.1
226(13) 0.00592 199.4 220.5
221(13) 0.00592 199.2 222.4
231(14) 0.00510 199.0 224.8
236(14) 0.00510 198.9 227.7
230(14) 0.00510 198.7 230.9
237(14) 0.00510 198.5 234.3
245(14) 0.00510 198.4 237.7
272(15) 0.00444 198.2 240.6
234(14) 0.00510 198.0 242.5
246(14) 0.00510 197.9 243.3
270(15) 0.00444 197.7 242.8
265(15) 0.00444 197.5 241.1
270(15) 0.00444 197.4 238.6
225(13) 0.00592 197.2 235.8
259(15) 0.00444 197.1 233.0
249(14) 0.00510 196.9 230.7
223(13) 0.00592 196.7 229.0
237(14) 0.00510 196.6 228.0
244(14) 0.00510 196.4 227.9
227(14) 0.00510 196.3 228.7
238(14) 0.00510 196.1 230.2
231(14) 0.00510 195.9 232.3
232(14) 0.00510 195.8 234.9
214(13) 0.00592 195.6 237.4
265(15) 0.00444 195.5 239.7
225(14) 0.00510 195.3 241.3
235(14) 0.00510 195.1 242.0
270(15) 0.00444 195.0 241.8
247(14) 0.00510 194.8 241.0
248(14) 0.00510 194.7 239.7
260(15) 0.00444 194.5 238.2
233(14) 0.00510 194.4 236.5
247(14) 0.00510 194.2 234.9
254(14) 0.00510 194.0 233.4
261(15) 0.00444 193.9 232.2
231(14) 0.00510 193.7 231.4
221(13) 0.00592 193.6 231.0
222(13) 0.00592 193.4 230.8
245(14) 0.00510 193.3 230.8
235(14) 0.00510 193.1 230.9
219(13) 0.00592 193.0 231.2
231(14) 0.00510 192.8 231.8
239(14) 0.00510 192.7 232.8
234(14) 0.00510 192.5 234.3
244(14) 0.00510 192.4 236.4
243(14) 0.00510 192.2 239.1
245(14) 0.00510 192.0 242.4
250(14) 0.00510 191.9 246.2
254(14) 0.00510 191.7 250.4
248(14) 0.00510 191.6 254.9
275(15) 0.00444 191.4 259.5
269(15) 0.00444 191.3 263.9
284(15) 0.00444 191.1 267.7
249(14) 0.00510 191.0 270.4
281(15) 0.00444 190.8 271.5
280(15) 0.00444 190.7 270.4
261(15) 0.00444 190.5 267.1
263(15) 0.00444 190.4 261.8
254(14) 0.00510 190.3 255.3
251(14) 0.00510 190.1 248.1
225(13) 0.00592 190.0 240.8
235(14) 0.00510 189.8 233.9
207(13) 0.00592 189.7 227.6
229(14) 0.00510 189.5 222.0
237(14) 0.00510 189.4 217.2
189(12) 0.00694 189.2 213.2
194(12) 0.00694 189.1 210.0
221(13) 0.00592 188.9 207.4
214(13) 0.00592 188.8 205.4
191(12) 0.00694 188.6 203.9
214(13) 0.00592 188.5 202.8
197(13) 0.00592 188.4 202.1
229(14) 0.00510 188.2 201.7
212(13) 0.00592 188.1 201.6
234(14) 0.00510 187.9 201.8
178(12) 0.00694 187.8 202.3
223(13) 0.00592 187.6 203.0
228(14) 0.00510 187.5 204.0
211(13) 0.00592 187.3 205.2
213(13) 0.00592 187.2 206.7
220(13) 0.00592 187.1 208.4
234(14) 0.00510 186.9 210.2
198(13) 0.00592 186.8 212.0
199(13) 0.00592 186.6 213.7
219(13) 0.00592 186.5 215.0
203(13) 0.00592 186.4 216.0
230(14) 0.00510 186.2 216.6
221(13) 0.00592 186.1 216.9
229(14) 0.00510 185.9 216.8
199(13) 0.00592 185.8 216.6
208(13) 0.00592 185.7 216.2
217(13) 0.00592 185.5 215.7
242(14) 0.00510 185.4 215.2
201(13) 0.00592 185.2 214.8
235(14) 0.00510 185.1 214.6
194(12) 0.00694 185.0 214.6
225(13) 0.00592 184.8 214.8
223(13) 0.00592 184.7 215.3
221(13) 0.00592 184.6 216.0
207(13) 0.00592 184.4 216.9
214(13) 0.00592 184.3 218.0
214(13) 0.00592 184.2 219.6
240(14) 0.00510 184.0 221.7
241(14) 0.00510 183.9 224.6
203(13) 0.00592 183.8 228.2
251(15) 0.00444 183.6 232.8
231(14) 0.00510 183.5 238.4
249(15) 0.00444 183.4 244.8
254(15) 0.00444 183.2 252.0
257(15) 0.00444 183.1 259.6
276(16) 0.00391 183.0 267.2
266(15) 0.00444 182.8 274.1
281(16) 0.00391 182.7 279.7
258(15) 0.00444 182.6 283.3
267(15) 0.00444 182.4 284.5
276(16) 0.00391 182.3 283.3
292(16) 0.00391 182.2 280.0
303(16) 0.00391 182.0 275.3
260(15) 0.00444 181.9 269.8
243(15) 0.00444 181.8 264.0
243(15) 0.00444 181.6 258.4
259(15) 0.00444 181.5 253.2
284(16) 0.00391 181.4 248.5
254(15) 0.00444 181.2 244.3
226(14) 0.00510 181.1 240.5
257(15) 0.00444 181.0 237.0
238(15) 0.00444 180.9 233.7
225(14) 0.00510 180.7 230.6
247(15) 0.00444 180.6 227.7
228(14) 0.00510 180.5 225.0
244(15) 0.00444 180.4 222.7
221(14) 0.00510 180.2 220.8
226(14) 0.00510 180.1 219.4
216(14) 0.00510 180.0 218.6
204(13) 0.00592 179.8 218.2
240(15) 0.00444 179.7 218.2
216(14) 0.00510 179.6 218.4
187(13) 0.00592 179.5 218.7
234(14) 0.00510 179.3 218.9
236(14) 0.00510 179.2 218.8
234(14) 0.00510 179.1 218.4
216(14) 0.00510 179.0 217.7
214(14) 0.00510 178.8 216.8
236(14) 0.00510 178.7 215.9
224(14) 0.00510 178.6 215.1
229(14) 0.00510 178.5 214.3
218(14) 0.00510 178.4 213.7
208(14) 0.00510 178.2 213.1
200(13) 0.00592 178.1 212.3
228(14) 0.00510 178.0 211.3
214(14) 0.00510 177.9 209.9
227(14) 0.00510 177.7 208.2
210(14) 0.00510 177.6 206.3
226(14) 0.00510 177.5 204.4
217(14) 0.00510 177.4 202.4
196(13) 0.00592 177.3 200.6
178(13) 0.00592 177.1 199.1
208(14) 0.00510 177.0 197.8
198(13) 0.00592 176.9 196.9
192(13) 0.00592 176.8 196.3
173(12) 0.00694 176.7 196.2
196(13) 0.00592 176.6 196.5
212(14) 0.00510 176.4 197.2
220(14) 0.00510 176.3 198.4
197(13) 0.00592 176.2 200.1
224(14) 0.00510 176.1 202.3
214(14) 0.00510 176.0 205.0
216(14) 0.00510 175.8 208.2
207(14) 0.00510 175.7 211.9
214(14) 0.00510 175.6 216.0
218(14) 0.00510 175.5 220.4
224(14) 0.00510 175.4 224.9
225(14) 0.00510 175.3 229.5
261(15) 0.00444 175.2 233.8
251(15) 0.00444 175.0 237.7
234(14) 0.00510 174.9 241.1
255(15) 0.00444 174.8 244.0
257(15) 0.00444 174.7 246.2
253(15) 0.00444 174.6 247.8
265(15) 0.00444 174.5 248.7
269(15) 0.00444 174.4 249.0
220(14) 0.00510 174.2 248.5
238(15) 0.00444 174.1 247.3
246(15) 0.00444 174.0 245.4
228(14) 0.00510 173.9 243.0
243(15) 0.00444 173.8 239.9
258(15) 0.00444 173.7 236.3
234(14) 0.00510 173.6 232.3
240(15) 0.00444 173.5 228.1
220(14) 0.00510 173.4 223.8
215(14) 0.00510 173.2 219.5
199(13) 0.00592 173.1 215.4
212(14) 0.00510 173.0 211.7
243(15) 0.00444 172.9 208.3
200(13) 0.00592 172.8 205.5
223(14) 0.00510 172.7 203.3
216(14) 0.00510 172.6 201.5
182(13) 0.00592 172.5 200.3
195(13) 0.00592 172.4 199.4
186(13) 0.00592 172.3 199.0
178(13) 0.00592 172.2 198.7
200(13) 0.00592 172.1 198.5
218(14) 0.00510 171.9 198.3
192(13) 0.00592 171.8 197.9
212(14) 0.00510 171.7 197.3
179(13) 0.00592 171.6 196.3
209(14) 0.00510 171.5 195.1
207(14) 0.00510 171.4 193.8
197(13) 0.00592 171.3 192.4
199(13) 0.00592 171.2 191.1
185(13) 0.00592 171.1 189.8
200(13) 0.00592 171.0 188.6
206(14) 0.00510 170.9 187.6
205(14) 0.00510 170.8 186.7
194(13) 0.00592 170.7 185.9
189(13) 0.00592 170.6 185.2
192(13) 0.00592 170.5 184.6
169(12) 0.00694 170.4 184.1
195(13) 0.00592 170.3 183.6
192(13) 0.00592 170.2 183.2
154(12) 0.00694 170.1 182.8
175(13) 0.00592 170.0 182.6
180(13) 0.00592 169.9 182.5
207(14) 0.00510 169.8 182.5
192(13) 0.00592 169.7 182.7
190(13) 0.00592 169.6 183.2
188(13) 0.00592 169.5 183.8
192(13) 0.00592 169.4 184.7
192(13) 0.00592 169.3 185.8
207(14) 0.00510 169.2 187.2
202(13) 0.00592 169.1 188.9
198(13) 0.00592 169.0 190.9
219(14) 0.00510 168.9 193.1
198(13) 0.00592 168.8 195.5
195(13) 0.00592 168.7 198.0
192(13) 0.00592 168.6 200.6
238(15) 0.00444 168.5 203.1
216(14) 0.00510 168.4 205.3
204(14) 0.00510 168.3 207.2
217(14) 0.00510 168.2 208.5
196(13) 0.00592 168.1 209.4
206(14) 0.00510 168.0 209.7
225(14) 0.00510 167.9 209.7
224(14) 0.00510 167.8 209.4
201(13) 0.00592 167.7 208.8
196(13) 0.00592 167.6 208.1
194(13) 0.00592 167.5 207.2
206(14) 0.00510 167.4 206.2
212(14) 0.00510 167.4 205.1
207(14) 0.00510 167.3 204.0
199(13) 0.00592 167.2 202.9
200(13) 0.00592 167.1 202.1
195(13) 0.00592 167.0 201.6
206(14) 0.00510 166.9 201.4
219(14) 0.00510 166.8 201.6
209(14) 0.00510 166.7 202.1
225(14) 0.00510 166.6 203.0
218(14) 0.00510 166.5 204.2
217(14) 0.00510 166.4 205.6
216(14) 0.00510 166.3 207.1
211(14) 0.00510 166.3 208.7
216(14) 0.00510 166.2 210.1
256(15) 0.00444 166.1 211.5
215(14) 0.00510 166.0 212.5
215(14) 0.00510 165.9 213.4
216(14) 0.00510 165.8 214.0
221(14) 0.00510 165.7 214.5
221(14) 0.00510 165.6 215.2
223(14) 0.00510 165.6 216.0
233(14) 0.00510 165.5 217.2
217(14) 0.00510 165.4 218.9
222(14) 0.00510 165.3 221.0
224(14) 0.00510 165.2 223.7
219(14) 0.00510 165.1 226.8
233(14) 0.00510 165.0 230.3
222(14) 0.00510 165.0 233.9
238(15) 0.00444 164.9 237.6
244(15) 0.00444 164.8 241.1
225(14) 0.00510 164.7 244.3
267(16) 0.00391 164.6 247.0
272(16) 0.00391 164.5 249.1
258(15) 0.00444 164.4 250.6
251(15) 0.00444 164.4 251.3
272(16) 0.00391 164.3 251.3
275(16) 0.00391 164.2 250.5
281(16) 0.00391 164.1 249.0
250(15) 0.00444 164.0 247.1
259(15) 0.00444 164.0 245.1
259(15) 0.00444 163.9 243.2
241(15) 0.00444 163.8 241.6
267(15) 0.00444 163.7 240.7
272(16) 0.00391 163.6 240.4
249(15) 0.00444 163.6 240.8
246(15) 0.00444 163.5 241.8
278(16) 0.00391 163.4 243.4
264(15) 0.00444 163.3 245.1
267(16) 0.00391 163.2 246.8
249(15) 0.00444 163.2 248.1
252(15) 0.00444 163.1 248.6
255(15) 0.00444 163.0 248.2
265(15) 0.00444 162.9 246.5
259(15) 0.00444 162.8 243.9
250(15) 0.00444 162.8 240.3
242(15) 0.00444 162.7 236.2
248(15) 0.00444 162.6 231.8
234(14) 0.00510 162.5 227.3
211(13) 0.00592 162.5 222.9
222(14) 0.00510 162.4 218.7
218(13) 0.00592 162.3 214.7
211(13) 0.00592 162.2 211.0
226(14) 0.00510 162.2 207.7
220(13) 0.00592 162.1 204.8
204(13) 0.00592 162.0 202.3
187(12) 0.00694 161.9 200.2
210(13) 0.00592 161.9 198.6
201(13) 0.00592 161.8 197.5
208(13) 0.00592 161.7 196.8
202(13) 0.00592 161.7 196.5
187(12) 0.00694 161.6 196.6
189(12) 0.00694 161.5 197.0
198(13) 0.00592 161.4 197.6
205(13) 0.00592 161.4 198.4
191(12) 0.00694 161.3 199.4
205(13) 0.00592 161.2 200.5
205(13) 0.00592 161.2 201.6
211(13) 0.00592 161.1 202.7
201(13) 0.00592 161.0 203.9
190(12) 0.00694 161.0 205.0
204(13) 0.00592 160.9 206.1
217(13) 0.00592 160.8 207.1
203(13) 0.00592 160.8 208.2
217(13) 0.00592 160.7 209.2
199(13) 0.00592 160.6 210.3
207(13) 0.00592 160.6 211.4
207(13) 0.00592 160.5 212.6
204(13) 0.00592 160.4 213.8
221(13) 0.00592 160.4 215.1
230(14) 0.00510 160.3 216.2
223(14) 0.00510 160.2 217.2
224(14) 0.00510 160.2 218.1
229(14) 0.00510 160.1 218.8
212(13) 0.00592 160.0 219.4
215(13) 0.00592 160.0 219.7
210(13) 0.00592 159.9 219.7
230(14) 0.00510 159.8 219.4
226(14) 0.00510 159.8 218.7
210(13) 0.00592 159.7 217.6
232(14) 0.00510 159.7 216.1
236(14) 0.00510 159.6 214.3
233(14) 0.00510 159.5 212.4
229(14) 0.00510 159.5 210.2
212(13) 0.00592 159.4 208.0
200(13) 0.00592 159.4 205.7
199(13) 0.00592 159.3 203.4
206(13) 0.00592 159.2 201.1
195(13) 0.00592 159.2 198.8
190(12) 0.00694 159.1 196.6
204(13) 0.00592 159.1 194.5
211(13) 0.00592 159.0 192.6
202(13) 0.00592 158.9 190.9
208(13) 0.00592 158.9 189.3
195(13) 0.00592 158.8 188.0
177(12) 0.00694 158.8 186.8
180(12) 0.00694 158.7 185.8
182(12) 0.00694 158.7 184.9
157(11) 0.00826 158.6 184.0
186(12) 0.00694 158.5 183.2
201(13) 0.00592 158.5 182.4
212(13) 0.00592 158.4 181.6
185(12) 0.00694 158.4 180.8
183(12) 0.00694 158.3 180.0
190(12) 0.00694 158.3 179.2
188(12) 0.00694 158.2 178.4
192(13) 0.00592 158.2 177.6
160(11) 0.00826 158.1 177.0
180(12) 0.00694 158.1 176.5
187(12) 0.00694 158.0 176.0
194(13) 0.00592 158.0 175.7
201(13) 0.00592 157.9 175.6
180(12) 0.00694 157.9 175.5
168(12) 0.00694 157.8 175.6
162(12) 0.00694 157.8 175.8
186(12) 0.00694 157.7 176.2
176(12) 0.00694 157.7 176.6
182(12) 0.00694 157.6 177.0
161(11) 0.00826 157.6 177.6
179(12) 0.00694 157.5 178.2
183(12) 0.00694 157.5 178.9
182(12) 0.00694 157.4 179.6
199(13) 0.00592 157.4 180.4
199(13) 0.00592 157.3 181.4
203(13) 0.00592 157.3 182.4
178(12) 0.00694 157.2 183.6
200(13) 0.00592 157.2 185.0
188(12) 0.00694 157.1 186.5
173(12) 0.00694 157.1 188.2
188(12) 0.00694 157.1 190.1
165(12) 0.00694 157.0 192.2
197(13) 0.00592 157.0 194.4
172(12) 0.00694 156.9 196.7
196(13) 0.00592 156.9 199.1
184(12) 0.00694 156.8 201.6
202(13) 0.00592 156.8 204.2
178(12) 0.00694 156.8 206.9
188(17) 0.003460 156.7 209.7
204(13) 0.00592 156.7 212.6
211(13) 0.00592 156.6 215.4
223(13) 0.00592 156.6 218.3
215(13) 0.00592 156.6 221.0
215(13) 0.00592 156.5 223.5
238(14) 0.00510 156.5 225.7
242(14) 0.00510 156.4 227.4
246(14) 0.00510 156.4 228.7
217(13) 0.00592 156.4 229.3
236(14) 0.00510 156.3 229.3
230(14) 0.00510 156.3 228.7
221(13) 0.00592 156.3 227.4
232(14) 0.00510 156.2 225.6
235(14) 0.00510 156.2 223.3
229(14) 0.00510 156.1 220.7
231(14) 0.00510 156.1 217.9
226(13) 0.00592 156.1 215.1
216(13) 0.00592 156.0 212.3
201(13) 0.00592 156.0 209.6
195(12) 0.00694 156.0 207.2
198(13) 0.00592 155.9 204.9
208(13) 0.00592 155.9 202.9
204(13) 0.00592 155.9 200.9
206(13) 0.00592 155.8 199.2
207(13) 0.00592 155.8 197.4
210(13) 0.00592 155.8 195.7
194(12) 0.00694 155.8 194.0
188(12) 0.00694 155.7 192.3
201(13) 0.00592 155.7 190.6
189(12) 0.00694 155.7 188.9
175(12) 0.00694 155.6 187.4
182(12) 0.00694 155.6 186.0
171(12) 0.00694 155.6 184.8
177(12) 0.00694 155.6 183.8
181(12) 0.00694 155.5 183.0
194(12) 0.00694 155.5 182.6
177(12) 0.00694 155.5 182.3
186(12) 0.00694 155.4 182.4
186(12) 0.00694 155.4 182.8
195(12) 0.00694 155.4 183.4
195(12) 0.00694 155.4 184.3
185(12) 0.00694 155.3 185.3
178(12) 0.00694 155.3 186.6
185(12) 0.00694 155.3 188.0
186(12) 0.00694 155.3 189.4
188(12) 0.00694 155.2 190.8
184(12) 0.00694 155.2 192.2
188(12) 0.00694 155.2 193.4
182(12) 0.00694 155.2 194.5
184(12) 0.00694 155.2 195.4
184(12) 0.00694 155.1 196.1
193(12) 0.00694 155.1 196.7
198(13) 0.00592 155.1 197.1
189(12) 0.00694 155.1 197.5
195(12) 0.00694 155.1 197.7
188(12) 0.00694 155.0 197.9
202(13) 0.00592 155.0 198.0
205(13) 0.00592 155.0 198.0
196(12) 0.00694 155.0 197.9
192(12) 0.00694 155.0 197.6
202(13) 0.00592 155.0 197.3
207(13) 0.00592 154.9 196.9
197(13) 0.00592 154.9 196.6
185(12) 0.00694 154.9 196.3
197(13) 0.00592 154.9 196.2
206(13) 0.00592 154.9 196.2
206(13) 0.00592 154.9 196.3
207(13) 0.00592 154.9 196.6
203(13) 0.00592 154.8 197.0
202(13) 0.00592 154.8 197.4
201(13) 0.00592 154.8 197.8
199(13) 0.00592 154.8 198.2
194(12) 0.00694 154.8 198.4
192(12) 0.00694 154.8 198.4
193(12) 0.00694 154.8 198.2
203(13) 0.00592 154.8 197.8
203(13) 0.00592 154.7 197.3
209(13) 0.00592 154.7 196.5
199(13) 0.00592 154.7 195.7
184(12) 0.00694 154.7 194.7
184(12) 0.00694 154.7 193.7
186(12) 0.00694 154.7 192.7
189(12) 0.00694 154.7 191.8
203(13) 0.00592 154.7 190.9
208(13) 0.00592 154.7 190.0
202(13) 0.00592 154.7 189.2
192(12) 0.00694 154.7 188.4
187(12) 0.00694 154.7 187.7
188(12) 0.00694 154.7 187.0
190(12) 0.00694 154.7 186.3
170(12) 0.00694 154.7 185.6
175(12) 0.00694 154.7 184.9
189(12) 0.00694 154.6 184.2
185(12) 0.00694 154.6 183.5
184(12) 0.00694 154.6 182.9
188(12) 0.00694 154.6 182.3
197(13) 0.00592 154.6 181.8
171(12) 0.00694 154.6 181.3
169(12) 0.00694 154.6 180.9
175(12) 0.00694 154.6 180.5
189(12) 0.00694 154.6 180.2
177(12) 0.00694 154.6 179.9
175(11) 0.00826 154.6 179.7
183(12) 0.00694 154.6 179.4
170(11) 0.00826 154.6 179.2
172(11) 0.00826 154.6 179.1
183(12) 0.00694 154.7 179.0
182(12) 0.00694 154.7 178.9
173(11) 0.00826 154.7 178.9
179(12) 0.00694 154.7 179.0
186(12) 0.00694 154.7 179.2
182(12) 0.00694 154.7 179.5
172(11) 0.00826 154.7 179.9
174(11) 0.00826 154.7 180.4
173(11) 0.00826 154.7 181.0
182(12) 0.00694 154.7 181.7
184(12) 0.00694 154.7 182.4
177(12) 0.00694 154.7 183.2
188(12) 0.00694 154.7 184.0
188(12) 0.00694 154.7 184.8
193(12) 0.00694 154.7 185.5
182(12) 0.00694 154.8 186.2
202(12) 0.00694 154.8 186.9
195(12) 0.00694 154.8 187.5
206(13) 0.00592 154.8 188.2
192(12) 0.00694 154.8 188.8
202(12) 0.00694 154.8 189.6
199(12) 0.00694 154.8 190.4
207(13) 0.00592 154.8 191.4
204(12) 0.00694 154.9 192.4
202(12) 0.00694 154.9 193.6
209(13) 0.00592 154.9 194.9
221(13) 0.00592 154.9 196.4
211(13) 0.00592 154.9 198.0
209(13) 0.00592 154.9 199.6
210(13) 0.00592 154.9 201.4
212(13) 0.00592 155.0 203.1
191(12) 0.00694 155.0 204.8
168(11) 0.00826 155.0 206.4
191(12) 0.00694 155.0 207.9
216(13) 0.00592 155.0 209.2
206(13) 0.00592 155.0 210.2
208(13) 0.00592 155.1 210.9
214(13) 0.00592 155.1 211.2
197(12) 0.00694 155.1 211.2
189(12) 0.00694 155.1 210.8
196(12) 0.00694 155.1 210.0
199(12) 0.00694 155.2 209.0
203(12) 0.00694 155.2 207.8
186(12) 0.00694 155.2 206.3
180(12) 0.00694 155.2 204.7
193(12) 0.00694 155.3 203.0
203(12) 0.00694 155.3 201.1
200(12) 0.00694 155.3 199.2
197(12) 0.00694 155.3 197.3
215(13) 0.00592 155.4 195.3
217(13) 0.00592 155.4 193.3
206(13) 0.00592 155.4 191.3
201(12) 0.00694 155.4 189.5
204(12) 0.00694 155.5 187.7
205(13) 0.00592 155.5 186.1
191(12) 0.00694 155.5 184.7
199(12) 0.00694 155.5 183.5
208(13) 0.00592 155.6 182.5
190(12) 0.00694 155.6 181.7
180(12) 0.00694 155.6 181.2
204(12) 0.00694 155.7 180.9
198(12) 0.00694 155.7 180.9
189(12) 0.00694 155.7 181.2
208(13) 0.00592 155.8 181.7
194(12) 0.00694 155.8 182.5
202(12) 0.00694 155.8 183.6
199(12) 0.00694 155.9 184.9
189(12) 0.00694 155.9 186.5
180(12) 0.00694 155.9 188.4
193(12) 0.00694 156.0 190.5
212(13) 0.00592 156.0 192.8
218(13) 0.00592 156.0 195.3
213(13) 0.00592 156.1 198.0
209(13) 0.00592 156.1 200.9
220(13) 0.00592 156.1 203.9
222(13) 0.00592 156.2 206.9
214(13) 0.00592 156.2 209.9
233(13) 0.00592 156.2 212.8
223(13) 0.00592 156.3 215.5
209(13) 0.00592 156.3 218.0
217(13) 0.00592 156.4 220.2
220(13) 0.00592 156.4 222.0
222(13) 0.00592 156.4 223.5
242(14) 0.00510 156.5 224.7
250(14) 0.00510 156.5 225.6
224(13) 0.00592 156.6 226.2
223(13) 0.00592 156.6 226.5
218(13) 0.00592 156.6 226.7
211(13) 0.00592 156.7 226.7
224(13) 0.00592 156.7 226.5
238(14) 0.00510 156.8 226.2
223(13) 0.00592 156.8 225.6
215(13) 0.00592 156.9 224.9
230(13) 0.00592 156.9 223.9
227(14) 0.00510 157.0 222.7
218(13) 0.00592 157.0 221.4
227(14) 0.00510 157.0 219.9
236(14) 0.00510 157.1 218.2
229(14) 0.00510 157.1 216.4
221(13) 0.00592 157.2 214.6
216(13) 0.00592 157.2 212.8
221(13) 0.00592 157.3 211.1
218(13) 0.00592 157.3 209.4
199(13) 0.00592 157.4 207.9
209(13) 0.00592 157.4 206.6
218(13) 0.00592 157.5 205.5
197(13) 0.00592 157.5 204.5
199(13) 0.00592 157.6 203.7
204(13) 0.00592 157.6 203.2
222(13) 0.00592 157.7 202.7
208(13) 0.00592 157.7 202.4
195(13) 0.00592 157.8 202.2
197(13) 0.00592 157.8 202.0
172(12) 0.00694 157.9 201.9
208(13) 0.00592 158.0 201.8
185(12) 0.00694 158.0 201.8
200(13) 0.00592 158.1 201.8
219(13) 0.00592 158.1 201.8
217(13) 0.00592 158.2 201.9
201(13) 0.00592 158.2 202.0
202(13) 0.00592 158.3 202.2
203(13) 0.00592 158.3 202.5
231(14) 0.00510 158.4 202.9
182(12) 0.00694 158.5 203.3
212(13) 0.00592 158.5 203.8
197(13) 0.00592 158.6 204.3
203(13) 0.00592 158.6 204.9
210(13) 0.00592 158.7 205.4
198(13) 0.00592 158.8 206.0
184(12) 0.00694 158.8 206.5
198(13) 0.00592 158.9 207.1
202(13) 0.00592 158.9 207.6
203(13) 0.00592 159.0 208.1
204(13) 0.00592 159.1 208.7
208(13) 0.00592 159.1 209.2
186(12) 0.00694 159.2 209.7
215(13) 0.00592 159.3 210.2
212(13) 0.00592 159.3 210.8
213(13) 0.00592 159.4 211.4
196(13) 0.00592 159.4 212.1
197(13) 0.00592 159.5 213.0
223(13) 0.00592 159.6 213.9
212(13) 0.00592 159.6 215.0
233(14) 0.00510 159.7 216.2
219(13) 0.00592 159.8 217.6
217(13) 0.00592 159.8 219.2
219(13) 0.00592 159.9 220.8
218(13) 0.00592 160.0 222.6
224(14) 0.00510 160.0 224.5
222(13) 0.00592 160.1 226.3
226(14) 0.00510 160.2 228.2
251(14) 0.00510 160.3 229.9
240(14) 0.00510 160.3 231.5
232(14) 0.00510 160.4 233.0
241(14) 0.00510 160.5 234.2
254(14) 0.00510 160.5 235.2
228(14) 0.00510 160.6 236.1
248(14) 0.00510 160.7 236.8
241(14) 0.00510 160.8 237.3
237(14) 0.00510 160.8 237.7
225(14) 0.00510 160.9 238.0
246(14) 0.00510 161.0 238.1
249(14) 0.00510 161.0 238.2
217(13) 0.00592 161.1 238.2
230(14) 0.00510 161.2 238.2
237(14) 0.00510 161.3 238.0
228(14) 0.00510 161.3 237.8
225(14) 0.00510 161.4 237.7
230(14) 0.00510 161.5 237.5
224(14) 0.00510 161.6 237.4
243(14) 0.00510 161.6 237.4
227(14) 0.00510 161.7 237.5
220(13) 0.00592 161.8 237.7
213(13) 0.00592 161.9 237.9
248(14) 0.00510 162.0 238.2
246(14) 0.00510 162.0 238.6
220(13) 0.00592 162.1 238.9
234(14) 0.00510 162.2 239.1
228(14) 0.00510 162.3 239.2
247(14) 0.00510 162.4 239.1
224(14) 0.00510 162.4 238.8
247(14) 0.00510 162.5 238.1
234(14) 0.00510 162.6 237.3
244(14) 0.00510 162.7 236.1
259(15) 0.00444 162.8 234.7
221(13) 0.00592 162.8 233.1
220(13) 0.00592 162.9 231.4
227(14) 0.00510 163.0 229.5
226(14) 0.00510 163.1 227.7
233(14) 0.00510 163.2 225.8
220(13) 0.00592 163.3 224.1
236(14) 0.00510 163.3 222.4
210(13) 0.00592 163.4 220.9
211(11) 0.00826 163.5 219.5
223(14) 0.00510 163.6 218.2
208(13) 0.00592 163.7 217.1
213(14) 0.00510 163.8 216.1
220(14) 0.00510 163.9 215.2
198(13) 0.00592 163.9 214.4
212(14) 0.00510 164.0 213.7
213(14) 0.00510 164.1 213.0
222(14) 0.00510 164.2 212.3
225(14) 0.00510 164.3 211.5
183(13) 0.00592 164.4 210.8
202(13) 0.00592 164.5 210.0
198(13) 0.00592 164.6 209.1
186(13) 0.00592 164.7 208.2
197(13) 0.00592 164.7 207.3
213(14) 0.00510 164.8 206.3
186(13) 0.00592 164.9 205.3
199(13) 0.00592 165.0 204.3
198(13) 0.00592 165.1 203.3
203(13) 0.00592 165.2 202.3
198(13) 0.00592 165.3 201.4
188(13) 0.00592 165.4 200.5
203(13) 0.00592 165.5 199.7
227(14) 0.00510 165.6 198.9
190(13) 0.00592 165.7 198.3
190(13) 0.00592 165.8 197.8
204(13) 0.00592 165.8 197.4
218(14) 0.00510 165.9 197.1
215(14) 0.00510 166.0 196.9
182(13) 0.00592 166.1 196.8
232(14) 0.00510 166.2 196.9
221(14) 0.00510 166.3 197.0
182(13) 0.00592 166.4 197.3
195(13) 0.00592 166.5 197.7
204(13) 0.00592 166.6 198.1
197(13) 0.00592 166.7 198.6
211(14) 0.00510 166.8 199.2
204(13) 0.00592 166.9 199.8
196(13) 0.00592 167.0 200.4
194(13) 0.00592 167.1 201.1
193(13) 0.00592 167.2 201.7
203(13) 0.00592 167.3 202.3
205(13) 0.00592 167.4 203.0
199(13) 0.00592 167.5 203.7
203(13) 0.00592 167.6 204.4
219(14) 0.00510 167.7 205.1
203(13) 0.00592 167.8 205.8
218(14) 0.00510 167.9 206.6
201(13) 0.00592 168.0 207.4
222(14) 0.00510 168.1 208.3
215(14) 0.00510 168.2 209.1
208(13) 0.00592 168.3 209.9
203(13) 0.00592 168.4 210.7
196(13) 0.00592 168.5 211.5
219(14) 0.00510 168.6 212.2
198(13) 0.00592 168.7 212.7
227(14) 0.00510 168.8 213.1
217(14) 0.00510 168.9 213.3
226(14) 0.00510 169.0 213.4
205(13) 0.00592 169.1 213.2
215(14) 0.00510 169.2 212.9
223(14) 0.00510 169.3 212.4
197(13) 0.00592 169.4 211.7
212(14) 0.00510 169.5 210.9
206(13) 0.00592 169.6 210.0
213(14) 0.00510 169.7 209.0
205(13) 0.00592 169.8 208.1
206(13) 0.00592 169.9 207.1
208(13) 0.00592 170.0 206.3
188(13) 0.00592 170.1 205.4
212(14) 0.00510 170.2 204.7
197(13) 0.00592 170.3 204.2
197(13) 0.00592 170.4 203.7
194(13) 0.00592 170.5 203.5
197(13) 0.00592 170.7 203.4
207(13) 0.00592 170.8 203.4
201(13) 0.00592 170.9 203.7
203(13) 0.00592 171.0 204.2
215(14) 0.00510 171.1 204.9
201(13) 0.00592 171.2 205.8
195(13) 0.00592 171.3 206.9
188(13) 0.00592 171.4 208.3
204(13) 0.00592 171.5 209.9
218(14) 0.00510 171.6 211.7
198(13) 0.00592 171.7 213.7
201(13) 0.00592 171.8 215.9
231(14) 0.00510 171.9 218.3
220(14) 0.00510 172.0 220.8
198(13) 0.00592 172.2 223.6
227(14) 0.00510 172.3 226.5
257(15) 0.00444 172.4 229.5
230(14) 0.00510 172.5 232.6
233(14) 0.00510 172.6 235.7
250(15) 0.00444 172.7 238.9
249(15) 0.00444 172.8 242.1
250(15) 0.00444 172.9 245.3
240(14) 0.00510 173.0 248.5
229(14) 0.00510 173.1 251.6
260(15) 0.00444 173.2 254.5
254(15) 0.00444 173.4 257.4
253(15) 0.00444 173.5 260.1
271(15) 0.00444 173.6 262.6
266(15) 0.00444 173.7 265.0
258(15) 0.00444 173.8 267.1
262(15) 0.00444 173.9 269.1
264(15) 0.00444 174.0 270.9
248(14) 0.00510 174.1 272.4
280(15) 0.00444 174.2 273.8
258(15) 0.00444 174.4 274.9
274(15) 0.00444 174.5 275.9
246(14) 0.00510 174.6 276.6
246(14) 0.00510 174.7 277.0
258(15) 0.00444 174.8 277.3
249(14) 0.00510 174.9 277.2
271(15) 0.00444 175.0 277.0
259(15) 0.00444 175.1 276.5
279(15) 0.00444 175.2 275.9
238(14) 0.00510 175.4 275.1
278(15) 0.00444 175.5 274.2
258(15) 0.00444 175.6 273.2
270(15) 0.00444 175.7 272.1
295(16) 0.00391 175.8 271.1
245(14) 0.00510 175.9 270.0
245(14) 0.00510 176.0 269.0
268(15) 0.00444 176.1 268.0
268(15) 0.00444 176.3 267.0
260(15) 0.00444 176.4 265.9
263(15) 0.00444 176.5 264.9
243(14) 0.00510 176.6 263.8
251(14) 0.00510 176.7 262.6
251(14) 0.00510 176.8 261.2
235(14) 0.00510 176.9 259.8
240(14) 0.00510 177.1 258.1
270(15) 0.00444 177.2 256.3
233(14) 0.00510 177.3 254.3
230(14) 0.00510 177.4 252.2
235(14) 0.00510 177.5 249.9
239(14) 0.00510 177.6 247.6
238(14) 0.00510 177.7 245.2
238(14) 0.00510 177.9 242.7
247(14) 0.00510 178.0 240.3
221(13) 0.00592 178.1 237.9
227(14) 0.00510 178.2 235.5
232(14) 0.00510 178.3 233.2
232(14) 0.00510 178.4 231.0
239(14) 0.00510 178.5 228.9
207(13) 0.00592 178.7 226.9
238(14) 0.00510 178.8 225.0
240(14) 0.00510 178.9 223.3
211(13) 0.00592 179.0 221.7
231(14) 0.00510 179.1 220.3
240(14) 0.00510 179.2 219.0
230(14) 0.00510 179.3 217.8
224(14) 0.00510 179.5 216.8
202(13) 0.00592 179.6 216.0
205(13) 0.00592 179.7 215.3
209(13) 0.00592 179.8 214.7
236(14) 0.00510 179.9 214.3
241(14) 0.00510 180.0 214.0
213(13) 0.00592 180.1 213.9
204(13) 0.00592 180.3 213.8
219(13) 0.00592 180.4 213.9
209(13) 0.00592 180.5 214.0
176(12) 0.00694 180.6 214.2
202(13) 0.00592 180.7 214.5
190(12) 0.00694 180.8 214.9
215(13) 0.00592 180.9 215.3
198(13) 0.00592 181.1 215.7
221(13) 0.00592 181.2 216.1
213(13) 0.00592 181.3 216.5
222(13) 0.00592 181.4 217.0
231(14) 0.00510 181.5 217.5
225(14) 0.00510 181.6 217.9
198(13) 0.00592 181.7 218.4
230(14) 0.00510 181.9 218.9
202(13) 0.00592 182.0 219.5
241(14) 0.00510 182.1 220.0
224(14) 0.00510 182.2 220.6
231(14) 0.00510 182.3 221.2
227(14) 0.00510 182.4 221.9
245(14) 0.00510 182.5 222.5
224(14) 0.00510 182.7 223.2
235(14) 0.00510 182.8 224.0
246(14) 0.00510 182.9 224.7
214(13) 0.00592 183.0 225.5
214(13) 0.00592 183.1 226.2
224(14) 0.00510 183.2 227.0
232(14) 0.00510 183.3 227.7
229(14) 0.00510 183.5 228.4
223(13) 0.00592 183.6 229.0
237(14) 0.00510 183.7 229.6
233(14) 0.00510 183.8 230.2
240(14) 0.00510 183.9 230.7
230(14) 0.00510 184.0 231.2
209(13) 0.00592 184.1 231.7
236(14) 0.00510 184.3 232.1
242(14) 0.00510 184.4 232.6
211(13) 0.00592 184.5 233.0
223(13) 0.00592 184.6 233.5
237(14) 0.00510 184.7 234.0
261(21) 0.002268 184.8 234.5
240(14) 0.00510 184.9 235.0
237(14) 0.00510 185.0 235.5
227(13) 0.00592 185.2 236.1
244(14) 0.00510 185.3 236.7
242(14) 0.00510 185.4 237.3
223(13) 0.00592 185.5 237.9
241(14) 0.00510 185.6 238.5
235(14) 0.00510 185.7 239.1
236(14) 0.00510 185.8 239.7
238(14) 0.00510 186.0 240.3
247(14) 0.00510 186.1 241.0
242(14) 0.00510 186.2 241.6
232(13) 0.00592 186.3 242.3
225(13) 0.00592 186.4 242.9
246(14) 0.00510 186.5 243.6
227(13) 0.00592 186.6 244.3
247(14) 0.00510 186.7 245.0
250(14) 0.00510 186.8 245.6
239(14) 0.00510 187.0 246.3
231(13) 0.00592 187.1 246.9
247(14) 0.00510 187.2 247.6
242(14) 0.00510 187.3 248.2
258(14) 0.00510 187.4 248.7
266(14) 0.00510 187.5 249.3
262(14) 0.00510 187.6 249.7
246(14) 0.00510 187.7 250.2
266(14) 0.00510 187.8 250.5
280(15) 0.00444 188.0 250.9
256(14) 0.00510 188.1 251.2
261(14) 0.00510 188.2 251.4
296(15) 0.00444 188.3 251.6
266(14) 0.00510 188.4 251.8
279(15) 0.00444 188.5 251.9
266(14) 0.00510 188.6 252.0
243(14) 0.00510 188.7 252.1
256(14) 0.00510 188.8 252.1
274(15) 0.00444 189.0 252.1
267(14) 0.00510 189.1 252.1
270(15) 0.00444 189.2 252.0
262(14) 0.00510 189.3 252.0
264(14) 0.00510 189.4 251.9
256(14) 0.00510 189.5 251.8
250(14) 0.00510 189.6 251.7
265(14) 0.00510 189.7 251.7
241(14) 0.00510 189.8 251.6
255(14) 0.00510 189.9 251.5
256(14) 0.00510 190.0 251.5
259(14) 0.00510 190.2 251.5
247(14) 0.00510 190.3 251.5
251(14) 0.00510 190.4 251.5
268(15) 0.00444 190.5 251.6
275(15) 0.00444 190.6 251.7
271(15) 0.00444 190.7 251.8
253(14) 0.00510 190.8 252.0
243(14) 0.00510 190.9 252.3
245(14) 0.00510 191.0 252.6
247(14) 0.00510 191.1 253.0
252(14) 0.00510 191.2 253.4
262(14) 0.00510 191.3 254.0
264(14) 0.00510 191.4 254.6
271(15) 0.00444 191.6 255.3
260(14) 0.00510 191.7 256.1
248(14) 0.00510 191.8 256.9
256(14) 0.00510 191.9 257.7
260(14) 0.00510 192.0 258.6
269(15) 0.00444 192.1 259.5
255(14) 0.00510 192.2 260.4
263(14) 0.00510 192.3 261.3
272(15) 0.00444 192.4 262.2
271(15) 0.00444 192.5 263.1
280(15) 0.00444 192.6 263.9
287(15) 0.00444 192.7 264.6
273(15) 0.00444 192.8 265.3
267(14) 0.00510 192.9 266.0
260(14) 0.00510 193.0 266.6
254(14) 0.00510 193.1 267.2
265(14) 0.00510 193.2 267.7
264(14) 0.00510 193.4 268.1
276(15) 0.00444 193.5 268.5
289(15) 0.00444 193.6 268.9
280(15) 0.00444 193.7 269.1
270(15) 0.00444 193.8 269.4
268(14) 0.00510 193.9 269.5
268(15) 0.00444 194.0 269.5
272(15) 0.00444 194.1 269.5
261(14) 0.00510 194.2 269.4
279(15) 0.00444 194.3 269.1
262(14) 0.00510 194.4 268.8
260(14) 0.00510 194.5 268.3
272(15) 0.00444 194.6 267.7
256(14) 0.00510 194.7 267.0
249(14) 0.00510 194.8 266.2
265(14) 0.00510 194.9 265.3
274(15) 0.00444 195.0 264.3
283(15) 0.00444 195.1 263.3
264(14) 0.00510 195.2 262.1
262(14) 0.00510 195.3 260.9
268(14) 0.00510 195.4 259.6
248(14) 0.00510 195.5 258.4
237(11) 0.00826 195.6 257.1
221(13) 0.00592 195.7 255.8
239(14) 0.00510 195.8 254.6
257(14) 0.00510 196.0 253.3
243(14) 0.00510 196.1 252.2
233(13) 0.00592 196.2 251.1
252(14) 0.00510 196.3 250.0
254(14) 0.00510 196.4 249.1
246(14) 0.00510 196.5 248.2
237(14) 0.00510 196.6 247.4
262(14) 0.00510 196.7 246.7
239(14) 0.00510 196.8 246.1
258(14) 0.00510 196.9 245.6
257(14) 0.00510 197.0 245.2
269(15) 0.00444 197.1 244.9
253(14) 0.00510 197.2 244.6
235(14) 0.00510 197.3 244.4
229(13) 0.00592 197.4 244.4
229(13) 0.00592 197.5 244.3
227(13) 0.00592 197.6 244.4
232(13) 0.00592 197.7 244.4
253(14) 0.00510 197.8 244.6
252(14) 0.00510 197.9 244.7
236(14) 0.00510 198.0 244.9
240(14) 0.00510 198.1 245.1
246(14) 0.00510 198.2 245.4
251(14) 0.00510 198.3 245.6
249(14) 0.00510 198.4 245.9
238(14) 0.00510 198.5 246.2
243(14) 0.00510 198.6 246.4
247(14) 0.00510 198.7 246.7
253(14) 0.00510 198.8 246.9
255(14) 0.00510 198.9 247.1
243(14) 0.00510 199.0 247.3
254(14) 0.00510 199.1 247.5
248(14) 0.00510 199.2 247.7
248(14) 0.00510 199.3 247.8
255(14) 0.00510 199.4 248.0
247(14) 0.00510 199.5 248.1
255(14) 0.00510 199.6 248.2
245(14) 0.00510 199.8 248.3
235(14) 0.00510 199.9 248.4
243(14) 0.00510 200.0 248.5
243(14) 0.00510 200.1 248.5
228(13) 0.00592 200.2 248.6
228(13) 0.00592 200.3 248.6
249(14) 0.00510 200.4 248.7
239(14) 0.00510 200.5 248.7
237(14) 0.00510 200.6 248.8
254(14) 0.00510 200.7 248.8
264(14) 0.00510 200.8 248.8
250(14) 0.00510 200.9 248.7
249(14) 0.00510 201.0 248.7
245(14) 0.00510 201.1 248.6
248(14) 0.00510 201.2 248.5
244(14) 0.00510 201.3 248.4
253(14) 0.00510 201.4 248.3
246(14) 0.00510 201.5 248.1
238(14) 0.00510 201.6 247.9
227(13) 0.00592 201.7 247.7
245(14) 0.00510 201.8 247.5
254(14) 0.00510 202.0 247.3
263(14) 0.00510 202.1 247.1
246(14) 0.00510 202.2 246.9
254(14) 0.00510 202.3 246.7
260(14) 0.00510 202.4 246.5
239(14) 0.00510 202.5 246.4
236(14) 0.00510 202.6 246.3
239(14) 0.00510 202.7 246.2
240(14) 0.00510 202.8 246.1
257(14) 0.00510 202.9 246.1
260(14) 0.00510 203.0 246.0
242(14) 0.00510 203.1 246.0
234(14) 0.00510 203.3 246.1
244(14) 0.00510 203.4 246.1
256(14) 0.00510 203.5 246.2
257(14) 0.00510 203.6 246.3
242(14) 0.00510 203.7 246.4
252(14) 0.00510 203.8 246.5
237(14) 0.00510 203.9 246.6
250(14) 0.00510 204.0 246.8
248(14) 0.00510 204.1 246.9
253(14) 0.00510 204.3 247.0
236(14) 0.00510 204.4 247.1
241(14) 0.00510 204.5 247.2
247(14) 0.00510 204.6 247.2
246(14) 0.00510 204.7 247.3
237(14) 0.00510 204.8 247.4
243(14) 0.00510 204.9 247.4
234(14) 0.00510 205.1 247.5
234(14) 0.00510 205.2 247.5
224(13) 0.00592 205.3 247.5
237(14) 0.00510 205.4 247.5
247(14) 0.00510 205.5 247.5
238(14) 0.00510 205.7 247.5
245(14) 0.00510 205.8 247.5
223(13) 0.00592 205.9 247.5
237(14) 0.00510 206.0 247.4
247(14) 0.00510 206.1 247.4
267(14) 0.00510 206.3 247.3
262(14) 0.00510 206.4 247.2
249(14) 0.00510 206.5 247.1
230(14) 0.00510 206.6 247.0
246(14) 0.00510 206.7 246.9
264(15) 0.00444 206.9 246.7
229(14) 0.00510 207.0 246.6
234(14) 0.00510 207.1 246.5
232(14) 0.00510 207.2 246.3
241(14) 0.00510 207.4 246.1
249(14) 0.00510 207.5 246.0
244(14) 0.00510 207.6 245.8
259(15) 0.00444 207.8 245.7
246(14) 0.00510 207.9 245.6
237(14) 0.00510 208.0 245.5
232(14) 0.00510 208.2 245.4
250(14) 0.00510 208.3 245.4
249(14) 0.00510 208.4 245.3
252(14) 0.00510 208.6 245.3
271(15) 0.00444 208.7 245.4
258(14) 0.00510 208.8 245.5
229(14) 0.00510 209.0 245.6
237(14) 0.00510 209.1 245.7
238(14) 0.00510 209.2 245.9
243(14) 0.00510 209.4 246.1
269(15) 0.00444 209.5 246.4
246(14) 0.00510 209.7 246.7
246(14) 0.00510 209.8 247.0
241(14) 0.00510 209.9 247.4
221(13) 0.00592 210.1 247.8
229(14) 0.00510 210.2 248.3
238(14) 0.00510 210.4 248.7
241(14) 0.00510 210.5 249.2
256(14) 0.00510 210.7 249.7
263(15) 0.00444 210.8 250.3
256(14) 0.00510 211.0 250.8
255(14) 0.00510 211.1 251.4
264(15) 0.00444 211.3 252.0
249(14) 0.00510 211.4 252.6
258(14) 0.00510 211.6 253.2
256(14) 0.00510 211.7 253.9
252(14) 0.00510 211.9 254.5
261(15) 0.00444 212.1 255.2
268(15) 0.00444 212.2 255.9
239(14) 0.00510 212.4 256.6
247(14) 0.00510 212.5 257.3
265(15) 0.00444 212.7 258.0
262(15) 0.00444 212.9 258.7
273(15) 0.00444 213.0 259.4
278(15) 0.00444 213.2 260.2
266(15) 0.00444 213.4 260.9
257(14) 0.00510 213.5 261.7
270(15) 0.00444 213.7 262.4
275(15) 0.00444 213.9 263.1
265(15) 0.00444 214.1 263.9
279(15) 0.00444 214.2 264.6
277(15) 0.00444 214.4 265.3
248(14) 0.00510 214.6 266.1
265(15) 0.00444 214.8 266.7
284(15) 0.00444 215.0 267.4
290(15) 0.00444 215.1 268.1
267(15) 0.00444 215.3 268.7
276(15) 0.00444 215.5 269.3
287(15) 0.00444 215.7 269.8
258(14) 0.00510 215.9 270.3
284(15) 0.00444 216.1 270.8
274(15) 0.00444 216.3 271.2
285(15) 0.00444 216.5 271.6
278(15) 0.00444 216.7 271.9
293(15) 0.00444 216.9 272.2
270(15) 0.00444 217.1 272.5
256(14) 0.00510 217.3 272.6
248(14) 0.00510 217.5 272.8
268(15) 0.00444 217.7 272.9
259(15) 0.00444 217.9 272.9
261(15) 0.00444 218.1 272.9
257(14) 0.00510 218.3 272.8
272(15) 0.00444 218.5 272.7
300(16) 0.00391 218.7 272.6
271(15) 0.00444 219.0 272.4
283(15) 0.00444 219.2 272.1
280(15) 0.00444 219.4 271.8
288(15) 0.00444 219.6 271.5
271(15) 0.00444 219.8 271.2
268(15) 0.00444 220.1 270.8
276(15) 0.00444 220.3 270.4
243(14) 0.00510 220.5 270.0
283(15) 0.00444 220.8 269.5
276(15) 0.00444 221.0 269.1
266(15) 0.00444 221.2 268.6
267(15) 0.00444 221.5 268.2
262(15) 0.00444 221.7 267.8
272(15) 0.00444 222.0 267.3
268(15) 0.00444 222.2 266.9
279(15) 0.00444 222.5 266.5
262(15) 0.00444 222.7 266.2
262(15) 0.00444 223.0 265.8
280(15) 0.00444 223.2 265.5
277(15) 0.00444 223.5 265.2
253(14) 0.00510 223.8 265.0
262(15) 0.00444 224.0 264.7
271(15) 0.00444 224.3 264.6
260(15) 0.00444 224.6 264.4
248(15) 0.00444 224.8 264.3
266(15) 0.00444 225.1 264.3
278(15) 0.00444 225.4 264.2
251(15) 0.00444 225.7 264.2
258(15) 0.00444 226.0 264.3
265(15) 0.00444 226.2 264.4
238(14) 0.00510 226.5 264.5
246(15) 0.00444 226.8 264.7
277(15) 0.00444 227.1 264.9
276(15) 0.00444 227.4 265.2
281(16) 0.00391 227.7 265.5
274(15) 0.00444 228.0 265.8
255(15) 0.00444 228.3 266.1
257(15) 0.00444 228.6 266.5
279(15) 0.00444 229.0 266.9
278(15) 0.00444 229.3 267.4
270(15) 0.00444 229.6 267.8
242(14) 0.00510 229.9 268.3
243(14) 0.00510 230.2 268.8
259(15) 0.00444 230.6 269.4
254(15) 0.00444 230.9 269.9
261(15) 0.00444 231.2 270.5
282(16) 0.00391 231.6 271.1
285(16) 0.00391 231.9 271.8
273(15) 0.00444 232.3 272.4
267(15) 0.00444 232.6 273.1
271(15) 0.00444 233.0 273.8
272(15) 0.00444 233.3 274.5
272(15) 0.00444 233.7 275.2
300(16) 0.00391 234.1 276.0
271(15) 0.00444 234.4 276.8
269(15) 0.00444 234.8 277.6
299(16) 0.00391 235.2 278.4
285(16) 0.00391 235.5 279.3
272(15) 0.00444 235.9 280.2
291(16) 0.00391 236.3 281.0
292(16) 0.00391 236.7 281.9
297(16) 0.00391 237.1 282.9
285(16) 0.00391 237.5 283.8
307(16) 0.00391 237.9 284.7
304(16) 0.00391 238.3 285.7
274(15) 0.00444 238.7 286.6
310(16) 0.00391 239.1 287.6
313(16) 0.00391 239.6 288.5
292(16) 0.00391 240.0 289.5
280(15) 0.00444 240.4 290.4
298(16) 0.00391 240.8 291.3
296(16) 0.00391 241.3 292.2
288(16) 0.00391 241.7 293.1
295(16) 0.00391 242.2 293.9
304(16) 0.00391 242.6 294.7
295(16) 0.00391 243.1 295.5
299(16) 0.00391 243.5 296.3
291(16) 0.00391 244.0 297.1
301(16) 0.00391 244.5 297.8
301(16) 0.00391 244.9 298.5
304(16) 0.00391 245.4 299.1
292(16) 0.00391 245.9 299.7
303(16) 0.00391 246.4 300.3
288(16) 0.00391 246.9 300.9
272(15) 0.00444 247.4 301.4
267(15) 0.00444 247.9 301.9
289(16) 0.00391 248.4 302.3
333(17) 0.003460 248.9 302.8
320(17) 0.003460 249.4 303.2
283(16) 0.00391 249.9 303.6
309(16) 0.00391 250.4 303.9
292(16) 0.00391 251.0 304.2
294(16) 0.00391 251.5 304.6
296(16) 0.00391 252.1 304.8
297(16) 0.00391 252.6 305.1
293(16) 0.00391 253.2 305.4
301(16) 0.00391 253.7 305.6
291(16) 0.00391 254.3 305.8
304(16) 0.00391 254.9 306.0
287(16) 0.00391 255.4 306.2
286(16) 0.00391 256.0 306.3
294(16) 0.00391 256.6 306.5
302(16) 0.00391 257.2 306.6
298(16) 0.00391 257.8 306.8
302(16) 0.00391 258.4 306.9
295(16) 0.00391 259.0 307.0
311(16) 0.00391 259.6 307.1
303(16) 0.00391 260.2 307.2
300(16) 0.00391 260.9 307.3
319(17) 0.003460 261.5 307.4
302(16) 0.00391 262.2 307.5
287(16) 0.00391 262.8 307.6
286(16) 0.00391 263.5 307.6
304(16) 0.00391 264.1 307.7
302(16) 0.00391 264.8 307.9
295(16) 0.00391 265.5 308.0
311(16) 0.00391 266.1 308.1
281(16) 0.00391 266.8 308.2
284(16) 0.00391 267.5 308.4
302(16) 0.00391 268.2 308.6
305(16) 0.00391 268.9 308.8
294(16) 0.00391 269.6 309.0
304(13) 0.00592 270.4 309.2
326(17) 0.003460 271.1 309.5
316(17) 0.003460 271.8 309.8
319(17) 0.003460 272.6 310.1
323(17) 0.003460 273.3 310.4
302(17) 0.003460 274.1 310.8
292(16) 0.00391 274.8 311.2
297(17) 0.003460 275.6 311.6
302(17) 0.003460 276.4 312.1
313(17) 0.003460 277.2 312.6
323(17) 0.003460 277.9 313.1
329(17) 0.003460 278.7 313.7
318(17) 0.003460 279.5 314.3
310(17) 0.003460 280.4 314.9
304(17) 0.003460 281.2 315.6
296(17) 0.003460 282.0 316.3
310(17) 0.003460 282.9 317.0
309(17) 0.003460 283.7 317.7
307(17) 0.003460 284.6 318.5
303(17) 0.003460 285.4 319.4
311(17) 0.003460 286.3 320.2
321(17) 0.003460 287.2 321.1
303(17) 0.003460 288.1 322.0
296(17) 0.003460 288.9 322.9
314(17) 0.003460 289.9 323.9
307(17) 0.003460 290.8 324.9
335(18) 0.003086 291.7 325.9
344(18) 0.003086 292.6 327.0
314(17) 0.003460 293.6 328.1
313(17) 0.003460 294.5 329.2
325(17) 0.003460 295.5 330.3
338(18) 0.003086 296.4 331.5
342(18) 0.003086 297.4 332.7
351(18) 0.003086 298.4 333.9
331(17) 0.003460 299.4 335.2
328(17) 0.003460 300.4 336.5
348(18) 0.003086 301.4 337.8
337(18) 0.003086 302.4 339.1
350(18) 0.003086 303.4 340.5
356(18) 0.003086 304.5 341.9
341(18) 0.003086 305.5 343.3
338(18) 0.003086 306.6 344.8
350(18) 0.003086 307.6 346.3
351(18) 0.003086 308.7 347.8
347(18) 0.003086 309.8 349.4
331(17) 0.003460 310.9 350.9
318(17) 0.003460 312.0 352.5
344(18) 0.003086 313.1 354.1
369(18) 0.003086 314.2 355.8
365(18) 0.003086 315.4 357.4
365(18) 0.003086 316.5 359.1
350(18) 0.003086 317.7 360.8
360(18) 0.003086 318.8 362.5
354(18) 0.003086 320.0 364.3
362(18) 0.003086 321.2 366.0
375(18) 0.003086 322.4 367.8
400(19) 0.002770 323.6 369.6
369(18) 0.003086 324.8 371.4
365(18) 0.003086 326.1 373.2
384(19) 0.002770 327.3 375.1
381(19) 0.002770 328.5 376.9
391(19) 0.002770 329.8 378.8
384(19) 0.002770 331.1 380.6
392(19) 0.002770 332.4 382.5
406(19) 0.002770 333.7 384.4
395(19) 0.002770 335.0 386.3
388(19) 0.002770 336.3 388.2
392(19) 0.002770 337.6 390.1
387(19) 0.002770 339.0 392.0
406(19) 0.002770 340.3 393.9
410(19) 0.002770 341.7 395.8
399(19) 0.002770 343.1 397.7
412(19) 0.002770 344.5 399.6
409(19) 0.002770 345.9 401.5
419(19) 0.002770 347.3 403.4
442(20) 0.002500 348.7 405.3
422(19) 0.002770 350.2 407.2
429(20) 0.002500 351.6 409.1
425(20) 0.002500 353.1 411.0
420(19) 0.002770 354.6 412.9
415(19) 0.002770 356.0 414.7
417(19) 0.002770 357.5 416.6
420(19) 0.002770 359.1 418.4
426(20) 0.002500 360.6 420.2
428(20) 0.002500 362.1 422.0
420(19) 0.002770 363.7 423.7
425(20) 0.002500 365.3 425.5
436(20) 0.002500 366.8 427.2
446(20) 0.002500 368.4 428.9
429(20) 0.002500 370.1 430.5
429(20) 0.002500 371.7 432.2
441(20) 0.002500 373.3 433.8
433(20) 0.002500 375.0 435.4
432(20) 0.002500 376.6 436.9
428(20) 0.002500 378.3 438.5
421(19) 0.002770 380.0 440.0
445(20) 0.002500 381.7 441.5
448(20) 0.002500 383.4 443.0
454(20) 0.002500 385.2 444.4
435(20) 0.002500 386.9 445.9
450(21) 0.002268 388.7 447.3
491(21) 0.002268 390.5 448.7
468(21) 0.002268 392.3 450.2
465(21) 0.002268 394.1 451.6
444(20) 0.002500 395.9 452.9
437(20) 0.002500 397.7 454.3
450(21) 0.002268 399.6 455.7
460(21) 0.002268 401.5 457.1
467(21) 0.002268 403.3 458.5
434(20) 0.002500 405.2 459.9
441(20) 0.002500 407.2 461.3
449(21) 0.002268 409.1 462.7
446(21) 0.002268 411.0 464.1
449(21) 0.002268 413.0 465.6
471(21) 0.002268 415.0 467.0
432(20) 0.002500 417.0 468.5
456(21) 0.002268 419.0 469.9
445(20) 0.002500 421.0 471.4
471(21) 0.002268 423.1 473.0
486(21) 0.002268 425.1 474.5
483(21) 0.002268 427.2 476.0
489(21) 0.002268 429.3 477.6
469(21) 0.002268 431.4 479.2
477(21) 0.002268 433.6 480.8
463(21) 0.002268 435.7 482.5
469(21) 0.002268 437.9 484.2
489(21) 0.002268 440.1 485.9
485(21) 0.002268 442.3 487.6
512(22) 0.002066 444.5 489.3
491(21) 0.002268 446.7 491.1
499(22) 0.002066 449.0 492.9
484(21) 0.002268 451.2 494.7
527(22) 0.002066 453.5 496.6
473(21) 0.002268 455.8 498.5
486(21) . . .
508(22) . . .
507(22) . . .
464(21) . . .
456(21) . . .
490(21) . . .
512(22) . . .
486(21) . . .
466(21) . . .
506(22) . . .
510(22) . . .
538(22) . . .
555(23) . . .
540(22) . . .
510(22) . . .
504(22) . . .
513(22) . . .
501(22) . . .
513(22) . . .
506(22) . . .
515(22) . . .
555(23) . . .
555(23) . . .
553(23) . . .
541(22) . . .
539(22) . . .
533(22) . . .
545(22) . . .
572(23) . . .
545(22) . . .
555(23) . . .
562(23) . . .
539(22) . . .
576(23) . . .
595(23) . . .
559(23) . . .
563(23) . . .
577(23) . . .
577(23) . . .
601(23) . . .
616(24) . . .
593(23) . . .
587(23) . . .
601(23) . . .
619(24) . . .
629(24) . . .
644(24) . . .
587(23) . . .
601(23) . . .
616(24) . . .
623(24) . . .
622(24) . . .
635(24) . . .
646(24) . . .
648(24) . . .
633(24) . . .
646(24) . . .
677(25) . . .
663(25) . . .
656(24) . . .
662(25) . . .
655(24) . . .
666(25) . . .
686(25) . . .
673(25) . . .
685(25) . . .
673(36) . . .
719(37) . . .
701(36) . . .
694(36) . . .
723(37) . . .
690(36) . . .
724(37) . . .
706(36) . . .
727(37) . . .
743(37) . . .
703(36) . . .
647(35) . . .
670(35) . . .
715(36) . . .
681(36) . . .
673(36) . . .
712(36) . . .
715(36) . . .
730(37) . . .
777(38) . . .
815(39) . . .
764(38) . . .
724(37) . . .
767(38) . . .
732(37) . . .
824(39) . . .
842(39) . . .
827(39) . . .
834(39) . . .
782(38) . . .
755(37) . . .
788(38) . . .
766(38) . . .
794(38) . . .
769(38) . . .
811(39) . . .
799(38) . . .
801(38) . . .
841(39) . . .
839(39) . . .
846(39) . . .
871(40) . . .
798(38) . . .
832(39) . . .
789(38) . . .
818(39) . . .
838(39) . . .
857(40) . . .
784(38) . . .
802(38) . . .
837(39) . . .
883(40) . . .
888(40) . . .
841(39) . . .
863(40) . . .
869(40) . . .
885(40) . . .
856(40) . . .
859(40) . . .
893(40) . . .
872(40) . . .
862(40) . . .
861(40) . . .
876(40) . . .
878(40) . . .
935(41) . . .
918(41) . . .
896(40) . . .
896(40) . . .
906(41) . . .
920(41) . . .
914(41) . . .
935(41) . . .
887(40) . . .
928(41) . . .
917(41) . . .
923(41) . . .
921(41) . . .
894(40) . . .
920(41) . . .
982(42) . . .
953(42) . . .
912(41) . . .
922(41) . . .
945(41) . . .
920(41) . . .
978(42) . . .
985(42) . . .
1008(43) . . .
931(41) . . .
1000(42) . . .
1004(43) . . .
970(42) . . .
997(42) . . .
1001(42) . . .
950(41) . . .
939(41) . . .
983(42) . . .
932(41) . . .
989(42) . . .
loop_
_refln_index_h
_refln_index_k
_refln_index_l
_refln_observed_status
_refln_F_squared_meas
_refln_F_squared_calc
_refln_phase_calc
_refln_d_spacing
_gsas_i100_meas
1 1 0 o 1139.120 1122.373 180.00 12.92601 100.00
3 0 0 o 275.056 209.457 -12.43 7.46283 8.10
1 0 1 o 163.564 130.546 41.64 6.49758 3.66
2 2 0 o 17.102 13.892 0.00 6.46300 0.38
2 0 -1 o 617.099 613.989 135.05 5.80539 11.07
2 1 1 o 38.699 30.703 49.65 5.29579 1.16
4 1 0 o 92.857 97.821 67.26 4.88557 2.38
3 1 -1 o 75.571 71.669 -50.89 4.58221 1.71
4 0 1 o 342.489 315.906 -124.87 4.31887 3.45
3 3 0 o 450.782 415.500 180.00 4.30867 4.52
3 2 1 o 36.822 42.239 -174.12 4.09627 0.67
5 0 -1 o 520.784 465.085 27.80 3.73804 3.97
6 0 0 o 500.872 442.872 -68.89 3.73142 3.80
4 2 -1 o 196.753 179.508 -156.74 3.59090 2.78
5 2 0 o 132.336 121.788 -42.86 3.58503 1.86
5 1 1 o 622.240 564.330 26.20 3.45987 8.18
1 0 -2 o 194.216 139.545 -7.74 3.35654 1.21
2 0 2 o 85.654 51.581 -104.63 3.24879 0.50
4 3 1 o 103.414 60.126 -88.65 3.23580 1.20
4 4 0 o 1.304 0.740 -180.00 3.23150 0.01
2 1 -2 o 248.159 189.363 -171.95 3.15079 2.73
6 1 -1 o 12.390 3.257 -114.29 3.05029 0.13
3 1 2 o 70.799 59.547 83.83 2.97877 0.70
7 1 0 o 823.345 711.259 127.35 2.96543 8.10
4 0 -2 o 475.544 427.051 3.78 2.90269 2.25
7 0 1 o 682.208 600.139 170.17 2.89342 3.20
5 3 -1 o 19.829 17.443 118.96 2.89342 0.19
3 2 -2 o 152.295 131.880 109.11 2.83216 1.38
6 2 1 o 467.435 429.643 -153.06 2.82354 4.20
6 3 0 o 45.447 42.419 -93.63 2.82069 0.41
5 0 2 o 454.030 334.801 -3.21 2.70526 1.88
4 2 2 o 17.450 13.790 -127.57 2.64789 0.14
5 4 1 o 360.178 313.584 40.89 2.64085 2.86
5 1 -2 o 141.588 135.401 -90.36 2.59403 1.09
8 0 -1 o 97.904 82.368 16.10 2.58740 0.37
5 5 0 o 152.748 122.241 0.00 2.58520 0.58
7 2 -1 o 296.328 255.778 -173.29 2.53707 2.19
4 3 -2 o 34.356 26.065 -56.46 2.49547 0.25
9 0 0 o 713.666 569.025 -34.81 2.48761 2.55
8 1 1 o 477.825 452.747 -15.53 2.44464 3.30
8 2 0 o 104.130 96.937 -70.93 2.44279 0.72
6 1 2 o 10.518 9.242 167.63 2.40736 0.07
6 4 -1 o 362.850 305.496 6.30 2.40206 2.43
7 3 1 o 29.325 33.385 98.96 2.36163 0.19
7 0 -2 o 987.748 924.262 86.97 2.32796 3.13
5 3 2 o 307.793 288.010 -151.07 2.32796 1.95
7 4 0 o 32.685 28.877 118.06 2.32158 0.21
6 2 -2 o 53.683 41.918 -158.86 2.29110 0.33
0 0 3 o 2578.456 2369.266 92.38 2.26327 2.60
1 1 3 o 288.095 251.062 -74.52 2.22935 1.70
6 5 1 o 136.344 121.549 -132.51 2.21818 0.80
9 1 -1 o 120.687 107.591 -7.01 2.21818 0.70
5 4 -2 o 249.697 200.186 -45.00 2.19021 1.43
3 0 3 o 20.131 15.155 117.05 2.16586 0.06
3 0 -3 o 35.817 26.964 -177.56 2.16586 0.10
8 0 2 o 7.783 5.800 178.93 2.15943 0.02
8 3 -1 o 75.168 54.068 179.89 2.15561 0.42
6 6 0 o 12.823 9.073 -180.00 2.15433 0.04
2 2 3 o 401.199 315.705 136.18 2.13608 2.19
7 2 2 o 140.631 116.726 79.94 2.12992 0.77
10 0 1 o 765.867 647.197 94.36 2.12624 2.08
10 1 0 o 40.113 34.054 107.03 2.12502 0.22
9 2 1 o 527.479 457.947 -147.28 2.09805 2.80
8 1 -2 o 319.442 279.501 -102.10 2.07434 1.66
9 3 0 o 23.702 21.428 135.04 2.06982 0.12
6 4 2 o 516.084 467.626 -28.57 2.04813 2.63
7 5 -1 o 81.715 73.594 -179.84 2.04487 0.42
4 1 3 o 154.458 139.473 -33.03 2.05361 0.79
4 1 -3 o 344.341 310.935 10.65 2.05361 1.76
7 3 -2 o 350.606 316.623 105.12 2.02290 1.75
8 4 1 o 172.522 153.100 70.99 2.01975 0.86
3 3 3 o 64.406 66.817 -149.45 2.00366 0.32
8 5 0 o 26.970 36.816 117.14 1.97120 0.13
11 0 -1 o 51.631 41.851 61.78 1.94961 0.12
6 0 3 o 166.484 168.261 102.59 1.93513 0.39
6 0 -3 o 177.311 179.203 -110.84 1.93513 0.41
6 5 -2 o 98.776 100.254 -112.84 1.93054 0.46
9 1 2 o 71.923 72.998 -39.82 1.93054 0.33
5 2 3 o 15.106 17.695 55.58 1.91380 0.07
5 2 -3 o 173.747 203.521 171.59 1.91380 0.79
10 2 -1 o 78.758 82.464 -164.16 1.92780 0.36
7 6 1 o 3.113 3.558 -129.98 1.90672 0.01
8 3 2 o 314.232 274.979 -176.63 1.88887 1.41
10 0 -2 o 871.320 758.118 60.02 1.86902 1.92
9 4 -1 o 30.911 27.004 -47.98 1.86653 0.14
11 1 1 o 238.044 207.953 -30.01 1.86653 1.05
12 0 0 o 147.865 129.336 179.82 1.86571 0.32
4 4 3 o 10.348 8.944 7.02 1.85381 0.04
9 2 -2 o 220.236 192.293 -58.80 1.84978 0.95
11 2 0 o 35.399 31.290 -71.32 1.84657 0.15
7 7 0 o 10.050 8.884 180.00 1.84657 0.02
10 3 1 o 35.141 33.483 -90.75 1.82879 0.15
7 1 -3 o 57.656 52.943 54.65 1.79914 0.24
7 1 3 o 169.872 155.988 -128.79 1.79914 0.71
7 5 2 o 118.195 95.831 156.88 1.81302 0.50
8 4 -2 o 88.070 78.782 77.97 1.79545 0.36
10 4 0 o 75.642 67.351 -51.90 1.79251 0.31
8 6 -1 o 177.438 134.043 35.10 1.77624 0.72
6 3 3 o 37.549 28.556 -48.12 1.76526 0.15
6 3 -3 o 77.504 58.941 10.17 1.76526 0.31
9 5 1 o 60.803 45.921 -19.36 1.75970 0.24
11 0 2 o 629.510 511.282 122.42 1.74564 1.25
10 2 2 o 418.870 362.028 -38.03 1.72994 1.64
12 1 -1 o 24.146 20.217 162.22 1.72797 0.09
7 6 -2 o 15.814 12.792 -139.28 1.71465 0.06
9 6 0 o 155.847 128.021 -25.78 1.71209 0.60
5 5 3 o 167.828 142.115 72.82 1.70289 0.64
11 3 -1 o 151.339 116.905 12.77 1.69789 0.58
1 0 4 o 10.345 7.539 -35.06 1.69259 0.02
11 1 -2 o 186.604 154.034 -153.91 1.68525 0.71
9 4 2 o 80.227 66.224 54.56 1.68525 0.30
2 0 -4 o 106.084 98.058 24.04 1.67827 0.20
9 0 -3 o 95.113 89.975 69.79 1.67408 0.18
9 0 3 o 349.408 330.532 48.71 1.67408 0.65
8 7 1 o 123.380 116.843 128.44 1.66933 0.46
13 0 1 o 153.477 145.345 164.69 1.66933 0.29
2 1 4 o 141.937 138.195 144.00 1.66430 0.53
8 2 3 o 32.602 31.515 110.12 1.66021 0.12
8 2 -3 o 245.549 237.362 -114.31 1.66021 0.91
10 3 -2 o 86.130 83.163 -169.52 1.65731 0.32
12 2 1 o 430.986 419.887 133.61 1.65558 1.59
13 1 0 o 85.397 83.523 39.32 1.65501 0.31
3 1 -4 o 24.603 22.326 168.85 1.63738 0.09
10 5 -1 o 15.638 14.088 -6.95 1.64217 0.06
12 3 0 o 50.129 46.027 171.87 1.62852 0.18
4 0 4 o 269.136 239.985 -38.20 1.62439 0.48
7 4 3 o 80.506 68.269 -125.46 1.62060 0.29
7 4 -3 o 217.373 184.333 122.19 1.62060 0.78
8 6 2 o 95.508 81.621 -69.02 1.61790 0.34
11 4 1 o 176.956 152.346 -11.04 1.61629 0.63
8 8 0 o 135.310 116.532 -180.00 1.61575 0.24
3 2 4 o 58.207 48.530 -50.06 1.61172 0.21
9 5 -2 o 42.073 33.898 8.65 1.60537 0.15
5 0 -4 o 220.842 161.972 -17.93 1.58723 0.39
12 1 2 o 73.311 62.784 -171.44 1.58117 0.25
9 7 -1 o 140.229 128.627 -141.49 1.56800 0.48
11 5 0 o 131.046 116.233 106.22 1.57916 0.45
4 2 -4 o 9.336 8.676 -150.04 1.57540 0.03
5 1 4 o 168.219 152.174 99.33 1.56383 0.58
6 6 3 o 10.667 9.616 -6.26 1.56044 0.04
11 3 2 o 207.742 184.910 174.03 1.55803 0.71
14 0 -1 o 176.142 155.484 9.13 1.55659 0.30
10 6 1 o 29.765 26.274 -152.31 1.55659 0.10
10 1 -3 o 29.053 25.321 -8.80 1.54919 0.10
10 1 3 o 140.274 122.251 -74.42 1.54919 0.48
13 2 -1 o 131.836 114.713 -138.57 1.54542 0.45
4 3 4 o 39.974 35.286 -142.23 1.54143 0.13
8 7 -2 o 3.419 3.144 40.11 1.53587 0.01
13 0 -2 o 472.312 434.342 19.66 1.53587 0.79
9 3 3 o 49.822 39.472 134.41 1.52740 0.17
9 3 -3 o 13.096 10.375 -152.07 1.52740 0.04
10 5 2 o 287.059 230.907 23.67 1.51464 0.95
12 2 -2 o 34.341 27.336 108.04 1.52514 0.11
12 4 -1 o 116.123 92.982 -170.73 1.51331 0.38
10 7 0 o 25.422 20.353 -50.83 1.51287 0.08
6 1 -4 o 11.938 9.718 99.80 1.51996 0.04
14 1 1 o 302.843 267.846 -28.09 1.50305 0.99
7 0 4 o 139.447 120.589 -94.03 1.49937 0.23
5 3 -4 o 52.119 45.071 -98.34 1.49937 0.17
11 4 -2 o 134.062 121.718 -8.82 1.49426 0.44
15 0 0 o 26.927 24.845 -62.45 1.49257 0.04
6 2 4 o 84.647 79.017 -106.00 1.48939 0.27
8 5 -3 o 62.102 58.481 28.68 1.48646 0.20
8 5 3 o 57.703 54.337 64.84 1.48646 0.19
9 8 1 o 233.261 224.004 -60.57 1.48313 0.75
13 3 1 o 311.470 299.109 -94.24 1.48313 1.01
14 2 0 o 96.876 93.274 -102.09 1.48271 0.31
11 6 -1 o 167.740 145.703 81.81 1.46398 0.53
5 4 4 o 95.245 87.671 -1.56 1.46058 0.30
9 7 2 o 57.297 53.862 170.95 1.45586 0.18
13 4 0 o 66.256 62.702 55.74 1.45429 0.21
8 0 -4 o 6.841 6.563 -133.18 1.45135 0.01
10 6 -2 o 134.751 132.016 -119.91 1.44671 0.42
14 0 2 o 362.703 355.341 -19.63 1.44671 0.57
12 5 1 o 614.415 600.715 115.96 1.44555 1.93
7 2 -4 o 65.749 62.570 125.70 1.44228 0.21
12 0 3 o 224.313 207.256 93.58 1.43962 0.35
12 0 -3 o 58.229 53.801 -159.36 1.43962 0.09
13 2 2 o 150.587 137.415 23.65 1.43773 0.47
9 9 0 o 0.305 0.277 -180.00 1.43622 0.00
11 2 -3 o 128.027 114.706 99.99 1.43078 0.40
7 7 3 o 99.387 89.046 173.63 1.43078 0.31
11 2 3 o 36.463 32.669 -174.85 1.43078 0.11
6 4 -4 o 5.672 5.040 -72.15 1.41608 0.02
8 1 4 o 229.016 199.805 56.39 1.42466 0.71
12 4 2 o 77.986 70.489 -102.71 1.41177 0.24
15 1 -1 o 9.744 8.870 18.12 1.41070 0.03
12 6 0 o 263.655 240.583 -123.61 1.41034 0.81
7 3 4 o 305.225 284.111 170.66 1.40766 0.94
10 4 3 o 109.760 103.346 -43.03 1.40518 0.34
10 4 -3 o 166.008 156.307 -65.65 1.40518 0.51
14 1 -2 o 88.231 82.945 -144.86 1.40342 0.27
10 8 -1 o 126.007 118.163 -105.50 1.40237 0.39
11 7 1 o 116.999 102.847 -75.42 1.39419 0.36
14 3 -1 o 86.597 76.122 57.13 1.39419 0.26
13 3 -2 o 13.139 10.678 -130.29 1.38717 0.04
9 8 -2 o 33.547 27.264 68.45 1.38717 0.10
9 1 -4 o 76.611 65.511 -59.96 1.37541 0.23
6 5 4 o 276.346 236.308 10.05 1.37541 0.84
11 6 2 o 167.692 152.884 -164.83 1.37146 0.51
16 0 1 o 93.733 85.117 123.10 1.37048 0.14
9 6 -3 o 9.307 7.927 133.30 1.36542 0.03
9 6 3 o 61.098 52.041 -87.53 1.36542 0.18
13 5 -1 o 22.625 19.502 -67.33 1.36284 0.07
15 2 1 o 314.856 271.395 120.35 1.36284 0.95
8 3 -4 o 29.238 26.187 51.69 1.36010 0.09
12 5 -2 o 233.316 213.478 109.80 1.35628 0.70
2 0 5 o 33.426 29.008 36.10 1.34808 0.05
11 8 0 o 134.944 122.219 105.57 1.35501 0.40
16 1 0 o 97.315 88.138 114.22 1.35501 0.29
1 0 -5 o 15.474 14.077 -98.36 1.35547 0.02
9 2 4 o 940.871 830.883 -14.17 1.34529 2.81
10 0 4 o 1302.875 1149.325 -156.20 1.35263 1.95
14 4 1 o 55.631 50.827 -39.03 1.34067 0.17
15 3 0 o 17.115 15.669 -90.85 1.34036 0.05
2 1 -5 o 73.252 66.866 90.87 1.34081 0.22
13 1 3 o 24.458 23.314 -113.32 1.33593 0.07
13 1 -3 o 20.196 19.252 -20.12 1.33593 0.06
10 9 1 o 134.288 130.421 77.17 1.33352 0.40
7 5 -4 o 181.596 177.617 174.90 1.33095 0.54
15 1 2 o 228.940 219.221 165.40 1.32737 0.68
4 0 -5 o 148.227 132.795 -116.50 1.31968 0.22
3 1 5 o 45.705 43.426 173.93 1.32661 0.14
8 4 4 o 398.248 367.437 -177.73 1.32395 1.18
8 8 3 o 75.042 64.788 63.72 1.31503 0.22
12 3 -3 o 52.510 47.544 -141.99 1.32189 0.16
12 3 3 o 50.293 45.537 -3.62 1.32189 0.15
14 3 2 o 39.145 33.016 -150.11 1.31359 0.12
11 7 -2 o 8.390 7.076 -102.19 1.31359 0.02
10 8 2 o 25.838 23.224 12.40 1.32042 0.08
14 5 0 o 27.206 22.607 22.73 1.31244 0.08
3 2 -5 o 31.927 26.650 -22.70 1.31285 0.09
12 7 -1 o 83.348 74.623 -41.54 1.31955 0.25
13 6 1 o 68.220 60.336 -25.08 1.30601 0.20
11 0 -4 o 90.285 83.848 37.48 1.30359 0.13
17 0 -1 o 307.661 302.055 157.58 1.29288 0.45
10 10 0 o 367.368 359.763 0.00 1.29260 0.54
4 2 5 o 93.690 92.095 -115.20 1.29300 0.28
5 0 5 o 344.174 362.004 32.14 1.29952 0.51
7 6 4 o 45.124 43.813 -94.63 1.29053 0.13
10 2 -4 o 68.385 71.739 162.78 1.29701 0.20
11 5 3 o 198.382 201.024 117.50 1.29508 0.58
11 5 -3 o 101.440 102.792 65.60 1.29508 0.30
13 5 2 o 145.793 142.954 60.24 1.28727 0.43
15 2 -2 o 14.697 14.411 156.56 1.28727 0.04
16 2 -1 o 62.637 61.777 -83.34 1.28646 0.18
16 0 -2 o 302.249 299.592 10.59 1.29370 0.44
5 1 -5 o 57.971 57.121 29.39 1.28658 0.17
11 1 4 o 239.031 250.633 86.22 1.27786 0.70
9 4 -4 o 47.676 49.990 -33.98 1.27786 0.14
14 4 -2 o 117.714 113.752 -51.39 1.26854 0.35
11 9 -1 o 257.454 248.861 102.23 1.26776 0.76
15 4 -1 o 6.415 6.201 -86.24 1.26776 0.02
13 7 0 o 217.927 219.410 31.42 1.27364 0.64
4 3 -5 o 91.198 92.366 -138.90 1.27402 0.27
10 3 4 o 118.206 114.377 -116.05 1.26555 0.35
10 9 -2 o 11.295 11.023 -45.90 1.26247 0.03
12 8 1 o 166.124 163.060 -176.89 1.26170 0.49
6 1 5 o 19.848 19.464 -174.06 1.26182 0.06
10 7 3 o 75.899 76.626 -25.01 1.25775 0.22
10 7 -3 o 1.583 1.598 -97.82 1.25775 0.00
17 1 1 o 84.350 85.140 -78.17 1.25574 0.25
14 10 1 o 41.217 42.332 -44.61 1.05909 0.25
8 6 -4 o 44.717 39.804 -24.60 1.24774 0.13
10 5 5 o 94.460 96.981 98.06 1.05916 0.57
15 0 -3 o 19.294 17.477 154.98 1.24601 0.03
15 0 3 o 103.818 94.043 28.79 1.24601 0.15
16 3 1 o 57.155 54.289 -79.32 1.24405 0.17
18 0 0 o 122.324 116.862 1.72 1.24381 0.18
12 7 2 o 66.681 61.775 7.22 1.25060 0.20
6 2 -5 o 22.738 21.540 84.56 1.24416 0.07
5 3 5 o 114.555 104.626 -0.68 1.24996 0.34
7 0 -5 o 125.757 114.857 -161.91 1.24996 0.19
9 5 4 o 502.730 491.827 42.55 1.24196 1.48
14 2 3 o 0.172 0.164 4.06 1.24026 0.00
14 2 -3 o 74.291 70.921 -37.56 1.24026 0.22
13 6 -2 o 2.762 2.521 110.70 1.23905 0.01
14 6 -1 o 144.551 127.650 135.03 1.23833 0.43
17 2 0 o 108.204 94.478 -126.35 1.23809 0.32
19 2 2 o 20.972 21.482 -152.67 1.05954 0.13
14 9 2 o 4.880 4.999 76.58 1.05954 0.03
12 1 -4 o 17.864 14.360 -155.65 1.23065 0.05
17 0 2 o 79.509 69.025 -42.23 1.22782 0.12
12 9 0 o 657.929 585.318 -146.58 1.22688 1.95
5 4 -5 o 74.840 66.017 146.83 1.22722 0.22
10 9 4 o 113.886 114.581 -75.49 1.06136 0.66
13 4 3 o 176.602 165.692 -174.08 1.22348 0.52
13 4 -3 o 147.807 138.676 131.26 1.22348 0.44
16 2 2 o 212.470 200.581 -12.57 1.22232 0.63
15 5 1 o 8.487 8.036 140.83 1.22162 0.03
16 4 0 o 180.241 170.838 57.73 1.22139 0.54
8 0 5 o 72.319 68.441 32.81 1.22173 0.11
11 3 -4 o 4.205 4.031 -79.79 1.21965 0.01
13 11 -1 o 67.046 66.381 44.04 1.06266 0.38
9 9 3 o 133.408 136.293 -156.49 1.21267 0.40
20 2 0 o 251.372 249.312 72.83 1.06251 1.42
12 2 -5 o 333.489 329.938 47.11 1.06273 1.88
11 10 1 o 174.456 181.047 12.43 1.21086 0.52
7 2 5 o 304.489 300.995 -159.86 1.21631 0.91
13 0 4 o 422.043 437.736 -10.41 1.20893 0.63
8 7 4 o 24.956 25.884 -155.97 1.20893 0.07
15 4 2 o 11.380 11.548 156.15 1.20625 0.03
11 9 2 o 21.681 22.001 -129.49 1.20625 0.07
8 1 -5 o 2.301 2.326 22.30 1.20568 0.01
10 5 -4 o 13.228 13.783 94.54 1.19849 0.04
20 0 2 o 938.122 924.512 -32.52 1.06312 2.62
12 2 4 o 665.084 668.512 -141.40 1.20368 2.00
12 6 -3 o 94.219 98.145 -106.77 1.19697 0.28
12 6 3 o 30.236 31.496 -49.78 1.19697 0.09
17 1 -2 o 32.752 34.002 175.11 1.19588 0.10
15 6 0 o 535.938 555.016 -139.13 1.19501 1.62
12 8 -2 o 0.760 0.779 139.23 1.20103 0.00
7 3 -5 o 270.179 280.017 -38.28 1.19532 0.82
13 8 -1 o 62.065 63.944 -66.07 1.20037 0.19
6 4 5 o 463.204 476.805 38.84 1.20047 1.40
14 4 4 o 35.726 35.048 -159.21 1.06496 0.19
18 1 -1 o 141.305 148.163 13.68 1.19015 0.43
14 7 1 o 26.951 28.259 32.18 1.19015 0.08
4 4 6 o 15.642 16.179 -4.94 1.06804 0.08
12 11 -2 o 11.956 12.009 -32.54 1.06674 0.06
11 4 4 o 310.118 323.475 59.17 1.18832 0.95
14 6 2 o 175.347 168.833 -101.78 1.18081 0.54
21 0 0 o 238.533 236.962 -106.71 1.06612 0.63
15 9 0 o 60.086 59.690 -20.89 1.06612 0.32
17 3 -1 o 94.906 91.874 -178.60 1.18019 0.29
16 3 -2 o 74.641 74.334 138.66 1.18577 0.23
13 0 -5 o 105.189 104.883 -176.00 1.06634 0.28
8 7 -5 o 50.958 50.810 121.15 1.06634 0.27
11 11 0 o 121.587 124.008 0.00 1.17509 0.19
9 1 5 o 116.267 118.155 25.20 1.17539 0.36
6 5 -5 o 411.659 418.343 145.97 1.17539 1.27
9 7 -4 o 2.916 3.113 -131.15 1.16873 0.01
17 6 -1 o 116.312 125.736 -3.96 1.06992 0.58
19 3 1 o 71.381 77.165 -107.79 1.06992 0.36
19 0 1 o 58.661 64.084 106.33 1.16099 0.09
16 5 -1 o 274.338 299.699 -3.21 1.16099 0.87
14 8 0 o 316.281 345.734 22.04 1.16079 1.00
15 5 -2 o 38.562 40.881 -14.60 1.16630 0.12
10 0 -5 o 611.380 667.689 15.21 1.16108 0.97
8 3 5 o 258.928 274.622 -118.18 1.16579 0.81
13 2 -4 o 14.510 15.877 -55.19 1.15929 0.05
14 0 -4 o 65.106 69.687 45.73 1.16398 0.10
10 6 4 o 518.713 555.213 -123.77 1.16398 1.63
13 9 1 o 12.649 12.915 -98.70 1.15173 0.04
16 1 3 o 33.279 36.021 169.93 1.16258 0.11
16 1 -3 o 43.948 47.570 124.41 1.16258 0.14
11 8 3 o 39.219 42.450 -157.22 1.16258 0.12
11 8 -3 o 33.239 35.978 37.34 1.16258 0.10
11 10 -2 o 3.351 3.630 -130.46 1.15692 0.01
18 2 1 o 45.935 49.489 77.93 1.15633 0.15
12 10 -1 o 148.237 159.706 161.17 1.15633 0.47
16 4 -3 o 12.809 14.158 103.02 1.07486 0.06
16 4 3 o 252.451 279.046 160.89 1.07486 1.19
9 2 -5 o 745.791 804.205 -177.51 1.15642 2.38
20 1 1 o 30.476 32.200 -76.70 1.07733 0.14
17 4 1 o 32.193 31.775 78.60 1.14270 0.11
12 12 0 o 317.857 337.022 0.00 1.07717 0.73
15 3 3 o 81.202 83.986 -47.73 1.15329 0.26
15 3 -3 o 12.809 13.248 -73.05 1.15329 0.04
13 8 2 o 155.507 157.916 130.85 1.14777 0.50
8 4 -5 o 402.746 397.418 14.87 1.14278 1.32
11 3 5 o 172.734 192.724 -60.36 1.07367 0.83
19 1 0 o 16.952 17.079 60.90 1.14700 0.06
7 5 5 o 101.707 102.785 47.54 1.14727 0.33
14 1 4 o 53.684 53.251 107.50 1.14108 0.18
14 5 3 o 330.379 313.194 22.96 1.13536 1.11
14 5 -3 o 115.862 109.835 -11.50 1.13536 0.39
12 4 -4 o 8.069 8.005 88.61 1.14555 0.03
15 2 4 o 111.064 120.706 -135.24 1.07597 0.52
13 5 -4 o 22.732 24.706 3.66 1.07597 0.11
16 0 4 o 42.852 43.317 -28.03 1.07972 0.10
15 7 -1 o 191.718 177.659 -168.33 1.13387 0.64
18 1 2 o 227.381 225.363 136.60 1.13882 0.75
14 7 -2 o 31.584 31.304 -91.35 1.13882 0.10
18 3 0 o 133.351 131.545 -133.32 1.13807 0.44
12 9 -3 o 241.780 248.659 95.36 1.07860 1.10
12 9 3 o 173.850 178.796 -8.77 1.07860 0.79
5 2 6 o 35.323 35.981 59.69 1.07915 0.16
5 2 -6 o 10.549 10.745 -12.15 1.07915 0.05
6 0 6 o 264.879 267.205 -114.97 1.08293 0.58
6 0 -6 o 354.687 357.802 -133.50 1.08293 0.77
9 8 4 o 66.787 61.320 49.08 1.13229 0.23
13 3 4 o 294.933 270.791 25.64 1.13229 1.00
16 6 -2 o 113.774 118.958 130.52 1.07780 0.52
1 1 6 o 18.965 17.997 -115.36 1.12732 0.07
16 6 1 o 32.607 32.925 -159.63 1.12101 0.11
17 5 0 o 281.760 284.986 46.61 1.12083 0.99
13 10 0 o 239.860 242.606 144.56 1.12083 0.84
0 0 6 o 298.804 274.598 45.64 1.13164 0.17
18 4 -1 o 417.951 412.850 161.98 1.08873 1.74
7 6 -5 o 133.647 134.844 -160.03 1.12109 0.47
12 1 5 o 7.791 7.816 -131.68 1.08116 0.03
17 3 2 o 44.981 41.716 -103.95 1.13008 0.15
10 2 5 o 702.960 678.183 78.95 1.12533 2.43
9 5 -5 o 25.403 25.080 -11.10 1.08880 0.11
12 5 4 o 223.169 229.326 -125.64 1.11530 0.80
8 6 5 o 82.503 80.090 10.45 1.09269 0.33
13 7 -3 o 12.707 13.137 -173.29 1.10996 0.05
13 7 3 o 175.029 180.956 -177.05 1.10996 0.64
11 0 5 o 789.329 734.792 -115.75 1.12962 1.34
14 9 -1 o 204.855 214.601 -6.22 1.10050 0.79
19 2 -1 o 121.644 127.431 8.91 1.10050 0.47
13 9 -2 o 40.062 41.892 97.52 1.10503 0.15
20 0 -1 o 597.212 627.011 -154.29 1.10451 1.12
2 2 6 o 31.093 31.965 24.80 1.11468 0.11
11 6 -4 o 14.501 14.218 -105.99 1.12370 0.05
12 10 2 o 16.648 17.190 -42.20 1.10909 0.06
18 2 -2 o 158.439 163.595 -14.58 1.10909 0.58
12 11 1 o 188.304 194.312 128.44 1.10857 0.70
3 0 6 o 53.455 54.759 -137.32 1.11885 0.09
3 0 -6 o 110.722 113.422 -143.11 1.11885 0.20
10 3 -5 o 4.328 4.541 -133.68 1.10459 0.02
16 5 2 o 191.947 197.762 82.51 1.11319 0.69
19 0 -2 o 22.400 23.079 -129.42 1.11319 0.04
14 3 -4 o 58.836 57.224 156.59 1.09120 0.24
11 7 4 o 413.543 402.212 64.08 1.09120 1.69
10 10 3 o 411.674 409.367 49.92 1.12244 1.44
10 8 -4 o 40.999 40.508 147.69 1.09511 0.16
15 1 -4 o 6.930 7.157 -120.73 1.09906 0.03
17 2 3 o 0.083 0.084 77.56 1.08619 0.00
17 2 -3 o 105.847 106.437 -107.72 1.08619 0.45
11 1 -5 o 23.010 23.731 -78.54 1.11275 0.08
9 4 5 o 159.075 164.058 -131.40 1.11275 0.58
18 0 -3 o 81.170 79.456 30.72 1.09004 0.17
18 0 3 o 13.248 12.969 4.79 1.09004 0.03
3 3 6 o 205.179 201.454 -157.75 1.09451 0.82
15 7 2 o 159.088 156.601 -56.42 1.08922 0.66
4 1 6 o 67.602 71.582 48.67 1.10245 0.26
4 1 -6 o 90.887 96.237 31.23 1.10245 0.35
17 4 -2 o 5.817 5.879 -150.50 1.09704 0.02
15 8 1 o 0.726 0.705 -162.01 1.09261 0.00
16 7 0 o 154.496 154.937 -161.12 1.09637 0.61
