#------------------------------------------------------------------------------
#$Date: 2016-03-22 21:51:41 +0200 (Tue, 22 Mar 2016) $
#$Revision: 179026 $
#$URL: svn://www.crystallography.net/cod/cif/4/12/24/4122442.cif $
#------------------------------------------------------------------------------
#
# This file is available in the Crystallography Open Database (COD),
# http://www.crystallography.net/
#
# All data on this site have been placed in the public domain by the
# contributors.
#
data_4122442
loop_
_publ_author_name
'Kapelewski, Matthew T.'
'Geier, Stephen J.'
'Hudson, Matthew R.'
'St\"uck, David'
'Mason, Jarad A.'
'Nelson, Jocienne N.'
'Xiao, Dianne J.'
'Hulvey, Zeric'
'Gilmour, Elizabeth'
'FitzGerald, Stephen A.'
'Head-Gordon, Martin'
'Brown, Craig M.'
'Long, Jeffrey R.'
_publ_section_title
;
 M2(m-dobdc) (M = Mg, Mn, Fe, Co, Ni) Metal-Organic Frameworks Exhibiting
 Increased Charge Density and Enhanced H2 Binding at the Open Metal Sites.
;
_journal_issue                   34
_journal_name_full               'Journal of the American Chemical Society'
_journal_page_first              12119
_journal_paper_doi               10.1021/ja506230r
_journal_volume                  136
_journal_year                    2014
_chemical_formula_sum            'C4 H Co O3'
_chemical_formula_weight         155.98
_chemical_name_systematic        ' ?'
_space_group_IT_number           160
_symmetry_cell_setting           trigonal
_symmetry_space_group_name_Hall  'R 3 -2"'
_symmetry_space_group_name_H-M   'R 3 m :H'
_audit_creation_date             2013-03-28T11:59
_audit_creation_method           'from EXP file using GSAS2CIF'
_audit_update_record
' 2013-03-28T11:59  Initial CIF as created by GSAS2CIF'
_cell_angle_alpha                90.0
_cell_angle_beta                 90.0
_cell_angle_gamma                120.0
_cell_formula_units_Z            18
_cell_length_a                   25.8734(23)
_cell_length_b                   25.8734
_cell_length_c                   6.7677(9)
_cell_volume                     3923.5(6)
_computing_structure_refinement  GSAS
_diffrn_radiation_probe          neutron
_diffrn_radiation_wavelength     2.078
_exptl_absorpt_correction_T_max  1.00000
_exptl_absorpt_correction_T_min  1.00000
_exptl_absorpt_process_details
;   GSAS Absorption/surface roughness correction: function number 0
 No correction is applied.
;
_pd_block_id                     2013-03-28T11:59|CO_PRIME_R3M_R||BT1
_pd_calc_method                  'Rietveld Refinement'
_pd_instr_location               ' ?'
_pd_meas_2theta_range_inc        0.05
_pd_meas_2theta_range_max        166.25
_pd_meas_2theta_range_min        1.5
_pd_meas_number_of_points        3296
_pd_phase_name                   Co_dobdc_prime_bare_10K
_pd_proc_2theta_range_inc        0.05
_pd_proc_2theta_range_max        166.3584
_pd_proc_2theta_range_min        1.6084
_pd_proc_info_datetime           2013-03-28T11:59:59
_pd_proc_info_excluded_regions   ' ?'
_pd_proc_ls_background_function
;   GSAS Background function number 1 with 12 terms.
 Shifted Chebyshev function of 1st kind
      1:    304.084     2:   -126.016     3:    130.409     4:    22.2123    
      5:    45.0147     6:   -6.66587     7:    29.1619     8:    5.44234    
      9:    8.61362    10:    2.65276    11:    4.70526    12:   -1.99693    
;
_pd_proc_ls_peak_cutoff          0.00100
_pd_proc_ls_profile_function
;
 CW Profile function number 3 with  19 terms
 Pseudovoigt profile coefficients as parameterized in
 P. Thompson, D.E. Cox & J.B. Hastings (1987). J. Appl. Cryst.,20,79-83.
 Asymmetry correction of L.W. Finger, D.E. Cox & A. P. Jephcoat (1994).
 J. Appl. Cryst.,27,892-900.
 Peak tails are ignored  where the intensity is below 0.0010 times the peak
   Aniso. broadening axis   0.0   0.0   1.0
;
_pd_proc_ls_prof_R_factor        0.0432
_pd_proc_ls_prof_wR_expected     0.0586
_pd_proc_ls_prof_wR_factor       0.0542
_pd_proc_number_of_points        3296
_pd_spec_mounting                ' ?'
_refine_ls_goodness_of_fit_all   0.93
_refine_ls_matrix_type           full
_refine_ls_number_parameters     55
_refine_ls_number_restraints     16
_refine_ls_R_Fsqd_factor         0.06401
_refine_ls_shift/su_max          3.93
_refine_ls_shift/su_mean         0.74
_reflns_d_resolution_high        1.060
_reflns_d_resolution_low         12.937
_reflns_limit_h_max              21
_reflns_limit_h_min              0
_reflns_limit_k_max              12
_reflns_limit_k_min              0
_reflns_limit_l_max              6
_reflns_limit_l_min              -6
_reflns_number_total             431
_cod_data_source_file            CO_PRIME_R3M_R.cif
_cod_data_source_block           CO_PRIME_R3M_R_publ
_cod_depositor_comments
;
The following automatic conversions were performed:

'_geom_bond_publ_flag' value 'N' changed to 'n' according to
/usr/data/users/saulius/crontab/automatic-downloads/rss-feeds/ACS/lib/dictionaries/cif_core.dic
dictionary named 'cif_core.dic' version 2.4.2 from 2011-04-26 (33
times).

'_geom_angle_publ_flag' value 'N' changed to 'n' according
to
/usr/data/users/saulius/crontab/automatic-downloads/rss-feeds/ACS/lib/dictionaries/cif_core.dic
dictionary named 'cif_core.dic' version 2.4.2 from 2011-04-26 (26
times).

Automatic conversion script
Id: cif_fix_values 2281 2013-09-26 08:29:07Z andrius 

 Adding full bibliography for 4122440--4122455.cif.
;
_cod_original_cell_volume        3923.6(6)
_cod_original_sg_symbol_H-M      'R 3 m'
_cod_database_code               4122442
#BEGIN Tags that were not found in dictionaries:
_gsas_exptl_extinct_corr_t_min   1.00000
_gsas_exptl_extinct_corr_t_max   1.00000
#END Tags that were not found in dictionaries
loop_
_symmetry_equiv_pos_site_id
_symmetry_equiv_pos_as_xyz
1 +x,+y,+z
2 -y,x-y,+z
3 y-x,-x,+z
4 y-x,+y,+z
5 -y,-x,+z
6 +x,x-y,+z
101 +x+1/3,+y+2/3,+z+2/3
102 -y+1/3,x-y+2/3,+z+2/3
103 y-x+1/3,-x+2/3,+z+2/3
104 y-x+1/3,+y+2/3,+z+2/3
105 -y+1/3,-x+2/3,+z+2/3
106 +x+1/3,x-y+2/3,+z+2/3
201 +x+2/3,+y+1/3,+z+1/3
202 -y+2/3,x-y+1/3,+z+1/3
203 y-x+2/3,-x+1/3,+z+1/3
204 y-x+2/3,+y+1/3,+z+1/3
205 -y+2/3,-x+1/3,+z+1/3
206 +x+2/3,x-y+1/3,+z+1/3
loop_
_atom_site_type_symbol
_atom_site_label
_atom_site_fract_x
_atom_site_fract_y
_atom_site_fract_z
_atom_site_occupancy
_atom_site_thermal_displace_type
_atom_site_U_iso_or_equiv
_atom_site_symmetry_multiplicity
C C1 0.6577(10) 0.8783(11) 0.837(4) 1.0 Uiso 0.044(9) 18
C C2 0.6653(13) 0.8327(7) 0.744(5) 1.0 Uiso 0.023(10) 9
C C6 0.6391(10) 0.8661(8) 0.040(4) 1.0 Uiso 0.015(6) 18
C C11 0.6322(8) 0.9088(8) 0.1632(29) 1.0 Uiso 0.013(5) 18
Co Co2 0.3282(29) 0.3756(23) 0.556(8) 1.0 Uiso 0.021(15) 18
H H7 0.6796(26) 0.8398(13) 0.588(10) 1.0 Uiso 0.040(19) 9
O O9 0.6699(10) 0.9263(11) 0.748(4) 1.0 Uiso 0.031(9) 18
O O12 0.6515(10) 0.9616(10) 0.0961(33) 1.0 Uiso 0.019(7) 18
O O15 0.6098(11) 0.8912(10) 0.334(4) 1.0 Uiso 0.034(7) 18
C C2m 0.6281(13) 0.8141(6) 0.125(4) 1.0 Uiso 0.026(9) 9
H H7m 0.6173(23) 0.8086(12) 0.282(8) 1.0 Uiso 0.028(14) 9
loop_
_atom_type_symbol
_atom_type_number_in_cell
_atom_type_scat_length_neutron
_atom_type_scat_source
C 72.0 0.6646 International_Tables_Vol_C
Co 18.0 0.2490 International_Tables_Vol_C
H 18.0 -0.3739 International_Tables_Vol_C
O 54.0 0.5803 International_Tables_Vol_C
loop_
_geom_angle_atom_site_label_1
_geom_angle_atom_site_label_2
_geom_angle_atom_site_label_3
_geom_angle
_geom_angle_site_symmetry_1
_geom_angle_site_symmetry_3
_geom_angle_publ_flag
C2 C1 C6 114.1(23) 1_555 1_556 n
C2 C1 O9 121.6(33) 1_555 1_555 n
C6 C1 O9 124.2(27) 1_556 1_555 n
C1 C2 C1 126(4) 1_555 6_565 n
C1 C2 H7 117.1(18) 1_555 1_555 n
C1 C2 H7 117.1(18) 6_565 1_555 n
C1 C6 C11 122.1(20) 1_554 1_555 n
C1 C6 C2m 120.1(20) 1_554 1_555 n
C11 C6 C2m 117.8(22) 1_555 1_555 n
C6 C11 O12 118.3(22) 1_555 1_555 n
C6 C11 O15 116.9(20) 1_555 1_555 n
O12 C11 O15 124.7(22) 1_555 1_555 n
O9 Co2 O9 165(4) 3_565 102_654 n
O9 Co2 O12 82.9(23) 3_565 102_655 n
O9 Co2 O15 96.7(32) 3_565 3_565 n
O9 Co2 O12 82.7(28) 102_654 102_655 n
O9 Co2 O15 97.4(27) 102_654 3_565 n
O12 Co2 O15 176.5(28) 102_655 3_565 n
C1 O9 Co2 135.3(25) 1_555 2_665 n
C1 O9 Co2 120.1(28) 1_555 203_565 n
Co2 O9 Co2 95.3(25) 2_665 203_565 n
C11 O12 Co2 128.4(25) 1_555 203_564 n
C11 O15 Co2 120.4(22) 1_555 2_665 n
C6 C2m C6 125.4(29) 1_555 6_565 n
C6 C2m H7m 116.8(15) 1_555 1_555 n
C6 C2m H7m 116.8(15) 6_565 1_555 n
loop_
_geom_bond_atom_site_label_1
_geom_bond_atom_site_label_2
_geom_bond_distance
_geom_bond_site_symmetry_2
_geom_bond_publ_flag
C1 C2 1.439(30) 1_555 n
C1 C6 1.439(26) 1_556 n
C1 O9 1.271(31) 1_555 n
C2 C1 1.439(30) 1_555 n
C2 C1 1.438(30) 6_565 n
C2 H7 1.10(9) 1_555 n
C6 C1 1.439(26) 1_554 n
C6 C11 1.463(28) 1_555 n
C6 C2m 1.356(23) 1_555 n
C6 H7m 2.09(5) 1_555 n
C11 C6 1.463(28) 1_555 n
C11 O12 1.280(26) 1_555 n
C11 O15 1.272(26) 1_555 n
Co2 O9 2.08(6) 3_565 n
Co2 O9 2.01(6) 102_654 n
Co2 O12 2.01(7) 102_655 n
Co2 O12 2.15(5) 201_445 n
Co2 O15 2.08(6) 3_565 n
H7 C2 1.10(9) 1_555 n
O9 C1 1.271(31) 1_555 n
O9 Co2 2.08(6) 2_665 n
O9 Co2 2.01(6) 203_565 n
O12 C11 1.280(26) 1_555 n
O12 Co2 2.15(5) 101_554 n
O12 Co2 2.01(7) 203_564 n
O15 C11 1.272(26) 1_555 n
O15 Co2 2.08(6) 2_665 n
C2m C6 1.356(23) 1_555 n
C2m C6 1.356(23) 6_565 n
C2m H7m 1.09(8) 1_555 n
H7m C6 2.09(5) 1_555 n
H7m C6 2.09(5) 6_565 n
H7m C2m 1.09(8) 1_555 n
loop_
_pd_meas_intensity_total
_pd_proc_ls_weight
_pd_proc_intensity_bkg_calc
_pd_calc_intensity_total
3620(130) 0.0 985. .
3210(120) 0.0 979. .
3130(120) 0.0 974. .
2670(110) 0.0 969. .
2530(110) 0.0 964. .
2102(97) 0.0 959. .
2121(97) 0.0 954. .
1930(93) 0.0 948. .
1577(83) 0.0 943. .
1652(85) 0.0 938. .
1582(83) 0.0 934. .
1535(82) 0.0 929. .
1619(84) 0.0 924. .
1368(77) 0.0 919. .
1382(78) 0.0 914. .
1387(78) 0.0 910. .
1419(79) 0.0 905. .
1414(79) 0.0 900. .
1340(76) 0.0 896. .
1247(74) 0.0 891. .
1400(78) 0.0 887. .
1396(78) 0.0 882. .
1256(74) 0.0 878. .
1284(75) 0.0 874. .
1317(76) 0.0 869. .
1354(77) 0.0 865. .
1201(72) 0.0 861. .
1126(70) 0.0 856. .
1108(69) 0.0 852. .
1140(70) 0.0 848. .
1159(71) 0.0 844. .
1098(69) 0.0 840. .
1001(65) 0.0 836. .
1033(66) 0.0 832. .
968(64) 0.0 828. .
950(63) 0.0 824. .
894(61) 0.0 820. .
964(64) 0.0 816. .
894(61) 0.0 812. .
810(58) 0.0 809. .
973(64) 0.0 805. .
852(60) 0.0 801. .
847(60) 0.0 798. .
936(63) 0.0 794. .
982(65) 0.0 790. .
754(56) 0.0 787. .
805(58) 0.0 783. .
912(62) 0.0 780. .
866(60) 0.0 776. .
852(60) 0.0 773. .
750(56) 0.0 769. .
894(61) 0.0 766. .
824(59) 0.0 763. .
824(59) 0.0 759. .
810(58) 0.0 756. .
819(58) 0.0 753. .
889(61) 0.0 749. .
764(56) 0.0 746. .
847(60) 0.0 743. .
736(55) 0.0 740. .
759(56) 0.0 737. .
833(59) 0.0 734. .
745(55) 0.0 731. .
726(55) 0.0 728. .
764(56) 0.0 725. .
717(54) 0.0 722. .
699(53) 0.0 719. .
652(51) 0.0 716. .
773(57) 0.0 713. .
792(57) 0.0 710. .
750(56) 0.0 707. .
541(46) 0.0 704. .
675(52) 0.0 701. .
675(52) 0.0 699. .
568(47) 0.0 696. .
573(48) 0.0 693. .
671(52) 0.0 690. .
666(52) 0.0 688. .
564(47) 0.0 685. .
661(52) 0.0 683. .
843(59) 0.0 680. .
680(53) 0.0 677. .
740(55) 0.0 675. .
643(51) 0.0 672. .
657(52) 0.0 670. .
759(56) 0.0 667. .
582(48) 0.0 665. .
768(56) 0.0 662. .
587(48) 0.0 660. .
633(50) 0.0 658. .
713(54) 0.0 655. .
527(45) 0.0 653. .
694(53) 0.0 651. .
610(49) 0.0 648. .
685(53) 0.0 646. .
722(54) 0.0 644. .
638(51) 0.0 641. .
671(52) 0.0 639. .
666(52) 0.0 637. .
610(49) 0.0 635. .
707(37) 0.0 633. .
642(35) 0.0 630.6 .
633(35) 0.0 628.5 .
636(35) 0.000816 626.4 637.9
665(36) 0.000772 624. 636.
609(34) 0.000865 622.2 634.9
638(35) 0.000816 620.2 633.5
598(33) 0.000918 618.1 632.2
653(35) 0.000816 616.1 631.0
570(33) 0.000918 614.1 629.8
655(35) 0.000816 612.2 628.7
592(33) 0.000918 610.2 627.8
637(35) 0.000816 608.3 626.9
568(32) 0.000977 606.4 626.2
593(33) 0.000918 604.5 625.6
671(36) 0.000772 603. 625.
678(36) 0.000772 601. 625.
704(37) 0.000730 599. 625.
640(35) 0.000816 597.0 625.2
669(36) 0.000772 595. 626.
669(36) 0.000772 593. 627.
665(36) 0.000772 592. 628.
666(36) 0.000772 590. 630.
774(39) 0.000657 588. 632.
688(36) 0.000772 586. 636.
717(37) 0.000730 585. 642.
688(36) 0.000772 583. 650.
730(38) 0.000693 581. 663.
778(39) 0.000657 580. 683.
780(39) 0.000657 578. 709.
803(40) 0.000625 576. 743.
825(40) 0.000625 575. 785.
919(43) 0.000541 573. 835.
1067(47) 0.000453 571. 891.
974(44) 0.000517 570. 954.
1047(46) 0.000473 568. 1023.
1094(47) 0.000453 567. 1099.
1164(49) 0.000416 565. 1185.
1354(53) 0.000356 564. 1279.
1380(53) 0.000356 562. 1385.
1403(54) 0.0003429 561. 1505.
1564(57) 0.0003078 559. 1641.
1587(58) 0.0002973 558. 1798.
1855(63) 0.0002520 556. 1982.
2088(67) 0.0002228 555. 2203.
2426(72) 0.0001929 553. 2472.
2776(77) 0.0001687 552. 2808.
3181(83) 0.0001452 551. 3219.
3726(90) 0.0001235 549. 3693.
4091(94) 0.0001132 548. 4165.
4530(99) 0.0001020 546. 4505.
4570(100) 0.0001000 545. 4533.
4217(96) 0.0001085 544. 4117.
3521(87) 0.0001321 542. 3345.
2557(74) 0.0001826 541. 2502.
1795(61) 0.0002687 540. 1807.
1218(50) 0.000400 538. 1327.
892(42) 0.000567 537. 1035.
753(38) 0.000693 536. 872.
690(36) 0.000772 535. 782.
657(35) 0.000816 533.3 727.9
672(36) 0.000772 532. 692.
572(33) 0.000918 530.8 665.6
612(34) 0.000865 529.6 645.0
583(33) 0.000918 528.3 628.4
534(31) 0.001041 527.1 614.7
558(32) 0.000977 525.9 603.2
553(32) 0.000977 524.8 593.5
516(31) 0.001041 523.6 585.1
568(32) 0.000977 522.4 577.8
573(33) 0.000918 521.3 571.4
589(33) 0.000918 520.1 565.7
532(31) 0.001041 519.0 560.7
511(30) 0.001111 517.9 556.1
547(32) 0.000977 516.8 552.0
511(30) 0.001111 515.7 548.2
523(31) 0.001041 514.6 544.7
542(32) 0.000977 513.5 541.5
536(31) 0.001041 512.4 538.5
531(31) 0.001041 511.3 535.7
515(31) 0.001041 510.3 533.1
599(34) 0.000865 509.2 530.6
588(33) 0.000918 508.2 528.3
623(34) 0.000865 507.2 526.1
481(29) 0.001189 506.1 524.0
533(31) 0.001041 505.1 522.0
548(32) 0.000977 504.1 520.1
518(31) 0.001041 503.1 518.3
531(31) 0.001041 502.1 516.5
493(30) 0.001111 501.2 514.8
439(28) 0.001276 500.2 513.2
442(28) 0.001276 499.2 511.6
518(31) 0.001041 498.3 510.1
527(31) 0.001041 497.3 508.6
436(28) 0.001276 496.4 507.2
477(29) 0.001189 495.4 505.8
446(38) 0.000693 495. 504.
451(38) 0.000693 494. 503.
506(41) 0.000595 493. 502.
498(41) 0.000595 492. 501.
476(29) 0.001189 490.9 499.3
536(31) 0.001041 490.0 498.1
532(31) 0.001041 489.1 496.9
503(30) 0.001111 488.3 495.7
541(32) 0.000977 487.4 494.6
511(31) 0.001041 486.5 493.5
520(31) 0.001041 485.7 492.4
472(29) 0.001189 484.8 491.3
533(31) 0.001041 484.0 490.3
503(30) 0.001111 483.2 490.0
465(29) 0.001189 482.3 489.0
470(29) 0.001189 481.5 488.0
476(29) 0.001189 480.7 487.1
472(29) 0.001189 479.9 486.1
490(30) 0.001111 479.1 485.2
509(31) 0.001041 478.3 484.2
473(29) 0.001189 477.5 483.3
519(31) 0.001041 476.7 482.4
518(31) 0.001041 476.0 481.6
463(29) 0.001189 475.2 480.7
490(30) 0.001111 474.4 479.8
455(28) 0.001276 473.7 479.0
466(29) 0.001189 472.9 478.2
460(29) 0.001189 472.2 477.3
514(31) 0.001041 471.4 476.5
466(29) 0.001189 470.7 475.7
515(31) 0.001041 470.0 475.0
472(29) 0.001189 469.2 474.2
460(29) 0.001189 468.5 469.9
512(31) 0.001041 467.8 469.2
550(32) 0.000977 467.1 468.6
495(30) 0.001111 466.4 467.9
480(29) 0.001189 465.7 467.3
498(30) 0.001111 465.0 466.6
460(29) 0.001189 464.3 466.0
456(28) 0.001276 463.6 465.4
513(31) 0.001041 463.0 464.8
461(29) 0.001189 462.3 464.2
475(29) 0.001189 461.6 463.6
490(30) 0.001111 461.0 463.1
450(28) 0.001276 460.3 462.5
454(28) 0.001276 459.7 462.0
467(29) 0.001189 459.0 461.4
466(29) 0.001189 458.4 460.9
455(28) 0.001276 457.7 460.4
451(28) 0.001276 457.1 459.9
433(28) 0.001276 456.5 459.4
439(28) 0.001276 455.8 459.0
459(29) 0.001189 455.2 458.5
503(30) 0.001111 454.6 458.1
504(30) 0.001111 454.0 457.7
487(30) 0.001111 453.4 457.3
475(29) 0.001189 452.8 457.0
447(28) 0.001276 452.2 456.6
469(29) 0.001189 451.6 456.3
512(31) 0.001041 451.0 456.1
488(30) 0.001111 450.4 455.8
459(29) 0.001189 449.8 455.7
455(28) 0.001276 449.2 455.6
487(30) 0.001111 448.7 455.7
500(30) 0.001111 448.1 455.7
482(29) 0.001189 447.5 455.8
450(28) 0.001276 447.0 456.0
494(30) 0.001111 446.4 456.3
497(30) 0.001111 445.8 456.7
471(29) 0.001189 445.3 457.2
469(29) 0.001189 444.7 458.0
497(30) 0.001111 444.2 459.0
484(30) 0.001111 443.7 460.4
514(31) 0.001041 443.1 462.2
527(31) 0.001041 442.6 464.8
495(30) 0.001111 442.0 468.4
466(29) 0.001189 441.5 473.9
451(28) 0.001276 441.0 482.1
486(30) 0.001111 440.5 494.4
544(32) 0.000977 440.0 512.0
544(32) 0.000977 439.4 535.9
574(33) 0.000918 438.9 567.1
621(34) 0.000865 438.4 607.0
639(35) 0.000816 437.9 656.9
786(39) 0.000657 437. 718.
836(41) 0.000595 437. 796.
883(42) 0.000567 436. 891.
1005(45) 0.000494 436. 1005.
1165(49) 0.000416 435. 1129.
1294(52) 0.000370 435. 1242.
1408(54) 0.0003429 434. 1308.
1294(52) 0.000370 434. 1289.
1103(47) 0.000453 433. 1171.
1008(45) 0.000494 433. 994.
835(41) 0.000595 433. 821.
668(36) 0.000772 432. 684.
567(33) 0.000918 431.6 591.4
499(30) 0.001111 431.1 535.1
497(30) 0.001111 430.7 502.9
474(29) 0.001189 430.2 484.4
443(41) 0.000595 430. 473.
460(29) 0.001189 429.3 465.2
446(28) 0.001276 428.9 459.4
438(28) 0.001276 428.4 454.8
423(27) 0.001372 428.0 451.0
451(28) 0.001276 427.5 448.0
508(30) 0.001111 427.1 445.4
421(27) 0.001372 426.6 443.7
441(28) 0.001276 426.2 441.8
449(28) 0.001276 425.8 440.1
401(26) 0.001479 425.3 438.7
450(28) 0.001276 424.9 437.4
437(28) 0.001276 424.5 436.3
427(27) 0.001372 424.1 435.3
455(28) 0.001276 423.6 434.4
465(29) 0.001189 423.2 433.6
425(27) 0.001372 422.8 433.0
448(28) 0.001276 422.4 432.4
436(28) 0.001276 422.0 431.9
455(28) 0.001276 421.6 431.5
435(28) 0.001276 421.1 431.2
444(28) 0.001276 420.7 431.0
429(27) 0.001372 420.3 430.9
467(29) 0.001189 419.9 431.0
454(28) 0.001276 419.5 431.3
411(27) 0.001372 419.1 431.9
457(28) 0.001276 418.7 432.8
493(30) 0.001111 418.3 434.5
473(29) 0.001189 417.9 437.1
448(28) 0.001276 417.6 441.3
458(28) 0.001276 417.2 447.7
478(29) 0.001189 416.8 457.0
482(29) 0.001189 416.4 469.8
479(29) 0.001189 416.0 486.9
564(32) 0.000977 415.6 509.4
544(32) 0.000977 415.2 538.2
555(32) 0.000977 414.9 574.0
585(33) 0.000918 414.5 616.3
676(36) 0.000772 414. 661.
781(39) 0.000657 414. 700.
798(39) 0.000657 413. 719.
712(37) 0.000730 413. 708.
714(37) 0.000730 413. 663.
613(34) 0.000865 412.3 602.0
529(31) 0.001041 411.9 543.8
517(31) 0.001041 411.6 498.7
440(28) 0.001276 411.2 468.2
408(27) 0.001372 410.8 449.8
399(26) 0.001479 410.5 439.0
429(27) 0.001372 410.1 432.7
420(27) 0.001372 409.8 428.7
411(27) 0.001372 409.4 426.0
424(27) 0.001372 409.1 423.9
420(27) 0.001372 408.7 422.3
415(27) 0.001372 408.4 421.0
408(27) 0.001372 408.0 420.0
405(26) 0.001479 407.7 419.1
393(26) 0.001479 407.3 418.4
385(26) 0.001479 407.0 417.9
413(27) 0.001372 406.7 417.5
372(25) 0.001600 406.3 417.2
394(26) 0.001479 406.0 417.0
444(28) 0.001276 405.6 417.0
467(29) 0.001189 405.3 417.1
404(26) 0.001479 405.0 417.3
451(28) 0.001276 404.6 417.7
428(27) 0.001372 404.3 418.3
437(28) 0.001276 404.0 418.4
421(27) 0.001372 403.7 419.6
420(27) 0.001372 403.3 421.2
395(26) 0.001479 403.0 423.5
442(28) 0.001276 402.7 426.8
459(29) 0.001189 402.4 431.7
447(28) 0.001276 402.0 439.2
435(28) 0.001276 401.7 450.7
481(29) 0.001189 401.4 467.9
463(29) 0.001189 401.1 492.7
496(30) 0.001111 400.8 527.1
539(31) 0.001041 400.5 573.4
601(33) 0.000918 400.2 634.3
664(35) 0.000816 399.8 709.6
802(39) 0.000657 400. 795.
973(44) 0.000517 399. 882.
1051(46) 0.000473 399. 949.
1025(45) 0.000494 399. 972.
956(43) 0.000541 398. 929.
845(40) 0.000625 398. 831.
668(35) 0.000816 397.7 715.5
595(33) 0.000918 397.4 613.8
496(30) 0.001111 397.1 538.3
454(28) 0.001276 396.8 488.8
451(28) 0.001276 396.5 459.0
454(28) 0.001276 396.2 441.8
431(27) 0.001372 395.9 431.7
433(28) 0.001276 395.6 425.2
367(25) 0.001600 395.3 420.6
393(26) 0.001479 395.0 417.2
403(26) 0.001479 394.7 414.5
420(27) 0.001372 394.4 412.3
401(26) 0.001479 394.2 410.5
392(25) 0.001600 393.9 409.1
407(25) 0.001600 393.6 408.0
401(25) 0.001600 393.3 407.0
363(24) 0.001736 393.0 406.3
432(26) 0.001479 392.7 405.8
395(25) 0.001600 392.4 405.4
375(24) 0.001736 392.2 405.3
386(25) 0.001600 391.9 405.3
405(25) 0.001600 391.6 405.5
425(26) 0.001479 391.3 406.0
424(26) 0.001479 391.0 406.9
390(25) 0.001600 390.8 408.3
422(26) 0.001479 390.5 410.4
397(25) 0.001600 390.2 413.9
437(27) 0.001372 390.0 419.4
444(27) 0.001372 389.7 428.0
439(27) 0.001372 389.4 441.1
426(26) 0.001479 389.1 460.0
466(28) 0.001276 388.9 486.7
469(28) 0.001276 388.6 522.3
508(29) 0.001189 388.3 568.0
559(31) 0.001041 388.1 621.2
659(34) 0.000865 387.8 674.3
738(36) 0.000772 388. 717.
766(37) 0.000730 387. 733.
715(35) 0.000816 387.0 709.7
666(34) 0.000865 386.8 653.1
570(31) 0.001041 386.5 584.6
534(30) 0.001111 386.2 523.1
478(28) 0.001276 386.0 476.8
443(27) 0.001372 385.7 445.9
398(25) 0.001600 385.5 427.0
401(25) 0.001600 385.2 416.0
374(24) 0.001736 384.9 409.5
402(25) 0.001600 384.7 405.4
395(25) 0.001600 384.4 402.5
390(25) 0.001600 384.2 400.4
393(25) 0.001600 383.9 398.8
379(24) 0.001736 383.7 397.5
387(25) 0.001600 383.4 396.6
395(25) 0.001600 383.2 395.9
434(26) 0.001479 382.9 395.4
417(26) 0.001479 382.7 395.0
391(25) 0.001600 382.4 394.9
358(23) 0.001890 382.2 395.0
402(25) 0.001600 382.0 395.3
447(27) 0.001372 381.7 395.9
422(26) 0.001479 381.5 396.8
395(25) 0.001600 381.2 398.1
434(26) 0.001479 381.0 400.0
416(26) 0.001479 380.8 403.0
380(24) 0.001736 380.5 408.2
401(25) 0.001600 380.3 415.5
450(27) 0.001372 380.0 427.1
415(26) 0.001479 379.8 444.7
444(27) 0.001372 379.6 470.9
526(30) 0.001111 379.3 507.4
606(32) 0.000977 379.1 555.7
648(33) 0.000918 378.9 615.1
664(34) 0.000865 378.6 679.4
750(36) 0.000772 378. 737.
792(37) 0.000730 378. 771.
821(38) 0.000693 378. 765.
722(35) 0.000816 377.7 715.2
674(34) 0.000865 377.5 639.7
585(31) 0.001041 377.3 564.2
465(27) 0.001372 377.0 502.9
453(27) 0.001372 376.8 459.6
442(27) 0.001372 376.6 431.9
418(26) 0.001479 376.4 415.3
413(26) 0.001479 376.1 405.5
421(26) 0.001479 375.9 399.5
403(25) 0.001600 375.7 395.5
369(24) 0.001736 375.5 392.5
401(25) 0.001600 375.2 390.3
433(26) 0.001479 375.0 388.5
398(25) 0.001600 374.8 387.0
376(24) 0.001736 374.6 385.7
371(24) 0.001736 374.4 384.7
408(25) 0.001600 374.2 383.9
399(25) 0.001600 373.9 383.2
395(25) 0.001600 373.7 382.6
375(24) 0.001736 373.5 382.2
402(25) 0.001600 373.3 381.9
440(27) 0.001372 373.1 381.8
410(25) 0.001600 372.9 382.0
435(26) 0.001479 372.7 382.6
371(24) 0.001736 372.5 383.7
373(24) 0.001736 372.2 385.7
383(24) 0.001736 372.0 388.8
384(25) 0.001600 371.8 393.5
356(23) 0.001890 371.6 399.8
391(25) 0.001600 371.4 407.5
430(26) 0.001479 371.2 416.2
440(27) 0.001372 371.0 424.2
478(28) 0.001276 370.8 429.0
440(27) 0.001372 370.6 428.2
459(27) 0.001372 370.4 421.6
422(26) 0.001479 370.2 411.5
406(25) 0.001600 370.0 401.2
366(24) 0.001736 369.8 392.9
384(25) 0.001600 369.6 386.7
384(25) 0.001600 369.4 383.0
378(24) 0.001736 369.2 380.8
387(25) 0.001600 369.0 379.6
392(25) 0.001600 368.8 379.0
385(25) 0.001600 368.6 378.8
396(25) 0.001600 368.4 378.9
385(25) 0.001600 368.2 379.1
398(25) 0.001600 368.0 379.5
415(26) 0.001479 367.8 380.1
362(24) 0.001736 367.6 380.9
392(25) 0.001600 367.4 382.0
368(24) 0.001736 367.3 383.4
399(25) 0.001600 367.1 385.3
381(25) 0.001600 366.9 387.7
391(25) 0.001600 366.7 391.1
424(26) 0.001479 366.5 395.8
411(26) 0.001479 366.3 403.0
404(25) 0.001600 366.1 414.1
425(26) 0.001479 365.9 431.7
464(28) 0.001276 365.7 459.0
452(27) 0.001372 365.6 500.1
541(30) 0.001111 365.4 558.1
613(32) 0.000977 365.2 633.4
736(36) 0.000772 365. 722.
794(37) 0.000730 365. 815.
920(40) 0.000625 365. 891.
953(41) 0.000595 364. 922.
969(42) 0.000567 364. 891.
893(40) 0.000625 364. 805.
754(36) 0.000772 364. 698.
664(34) 0.000865 363.8 598.4
575(31) 0.001041 363.6 520.9
417(26) 0.001479 363.4 467.3
374(24) 0.001736 363.2 433.3
416(26) 0.001479 363.1 412.9
418(26) 0.001479 362.9 400.7
359(24) 0.001736 362.7 392.9
356(24) 0.001736 362.5 387.3
390(25) 0.001600 362.4 383.4
392(25) 0.001600 362.2 380.4
373(24) 0.001736 362.0 377.9
371(24) 0.001736 361.8 375.9
374(24) 0.001736 361.7 374.2
401(25) 0.001600 361.5 372.7
389(25) 0.001600 361.3 371.5
380(25) 0.001600 361.2 370.4
361(24) 0.001736 361.0 369.5
369(24) 0.001736 360.8 368.8
357(24) 0.001736 360.7 368.1
325(22) 0.002066 360.5 367.6
411(26) 0.001479 360.3 367.3
385(25) 0.001600 360.2 367.2
372(24) 0.001736 360.0 367.3
350(23) 0.001890 359.9 367.7
368(24) 0.001736 359.7 368.2
378(25) 0.001600 359.5 368.7
388(25) 0.001600 359.4 369.3
400(25) 0.001600 359.2 369.2
375(24) 0.001736 359.0 368.4
371(24) 0.001736 358.9 367.2
360(24) 0.001736 358.7 365.8
353(23) 0.001890 358.6 364.5
357(24) 0.001736 358.4 363.5
364(24) 0.001736 358.3 362.7
355(24) 0.001736 358.1 362.1
360(24) 0.001736 358.0 361.7
368(24) 0.001736 357.8 361.3
364(24) 0.001736 357.6 361.1
341(23) 0.001890 357.5 360.8
320(22) 0.002066 357.3 360.6
369(24) 0.001736 357.2 360.3
364(24) 0.001736 357.0 360.2
377(24) 0.001736 356.9 360.0
377(24) 0.001736 356.7 359.8
372(24) 0.001736 356.6 359.7
361(24) 0.001736 356.4 359.5
351(23) 0.001890 356.3 359.4
382(25) 0.001600 356.1 359.3
397(25) 0.001600 356.0 359.2
377(24) 0.001736 355.8 359.1
344(23) 0.001890 355.7 359.0
353(24) 0.001736 355.6 358.9
384(25) 0.001600 355.4 359.0
367(24) 0.001736 355.3 359.0
368(24) 0.001736 355.1 359.0
394(25) 0.001600 355.0 359.0
376(24) 0.001736 354.8 359.0
340(23) 0.001890 354.7 359.0
395(25) 0.001600 354.6 359.1
407(26) 0.001479 354.4 359.1
383(25) 0.001600 354.3 359.3
379(25) 0.001600 354.1 359.4
370(24) 0.001736 354.0 359.6
370(24) 0.001736 353.9 359.8
363(24) 0.001736 353.7 360.1
383(25) 0.001600 353.6 360.5
356(24) 0.001736 353.4 361.0
371(24) 0.001736 353.3 361.5
359(23) 0.001890 353.2 362.2
387(24) 0.001736 353.0 363.0
369(24) 0.001736 352.9 364.1
373(24) 0.001736 352.8 365.3
388(24) 0.001736 352.6 367.0
362(23) 0.001890 352.5 368.7
382(24) 0.001736 352.4 371.8
396(25) 0.001600 352.2 376.5
382(24) 0.001736 352.1 383.8
405(25) 0.001600 352.0 395.3
437(26) 0.001479 351.9 413.5
453(27) 0.001372 351.7 440.9
460(27) 0.001372 351.6 479.4
487(28) 0.001276 351.5 528.3
557(30) 0.001111 351.3 582.8
656(33) 0.000918 351.2 634.2
677(33) 0.000918 351.1 672.2
687(34) 0.000865 351.0 681.8
682(33) 0.000918 350.8 653.4
593(31) 0.001041 350.7 597.8
530(29) 0.001189 350.6 535.8
455(27) 0.001372 350.5 481.5
416(25) 0.001600 350.3 440.2
409(25) 0.001600 350.2 412.0
358(23) 0.001890 350.1 394.2
340(23) 0.001890 350.0 383.6
355(23) 0.001890 349.8 377.4
389(24) 0.001736 349.7 373.7
390(24) 0.001736 349.6 371.4
362(23) 0.001890 349.5 370.0
359(23) 0.001890 349.4 369.3
353(23) 0.001890 349.2 369.3
374(24) 0.001736 349.1 369.8
359(23) 0.001890 349.0 371.2
383(24) 0.001736 348.9 373.9
381(24) 0.001736 348.8 378.5
389(24) 0.001736 348.7 386.3
373(24) 0.001736 348.5 399.0
399(25) 0.001600 348.4 418.7
421(26) 0.001479 348.3 447.2
455(27) 0.001372 348.2 484.6
540(29) 0.001189 348.1 528.0
545(30) 0.001111 348.0 570.7
580(31) 0.001041 347.8 604.1
624(32) 0.000977 347.7 617.0
637(32) 0.000977 347.6 600.3
598(31) 0.001041 347.5 559.2
511(28) 0.001276 347.4 509.7
461(27) 0.001372 347.3 464.5
428(26) 0.001479 347.2 428.9
397(25) 0.001600 347.1 403.9
371(24) 0.001736 347.0 387.8
395(25) 0.001600 346.8 378.0
389(24) 0.001736 346.7 372.2
373(24) 0.001736 346.6 368.8
383(24) 0.001736 346.5 366.8
360(23) 0.001890 346.4 365.7
374(24) 0.001736 346.3 365.2
350(23) 0.001890 346.2 365.4
353(23) 0.001890 346.1 366.3
361(23) 0.001890 346.0 368.4
366(24) 0.001736 345.9 372.1
388(24) 0.001736 345.8 378.6
373(24) 0.001736 345.7 389.3
374(24) 0.001736 345.6 406.0
404(25) 0.001600 345.5 430.2
464(27) 0.001372 345.4 462.3
496(28) 0.001276 345.2 499.6
568(30) 0.001111 345.1 536.5
585(31) 0.001041 345.0 565.1
610(31) 0.001041 344.9 576.0
617(32) 0.000977 344.8 561.4
563(30) 0.001111 344.7 526.3
474(27) 0.001372 344.6 483.9
424(26) 0.001479 344.5 445.0
403(25) 0.001600 344.4 414.1
387(24) 0.001736 344.3 392.0
382(24) 0.001736 344.2 377.6
354(23) 0.001890 344.1 368.5
339(23) 0.001890 344.0 362.9
372(24) 0.001736 343.9 359.3
372(24) 0.001736 343.8 356.9
345(23) 0.001890 343.7 355.1
316(22) 0.002066 343.6 353.6
360(23) 0.001890 343.5 352.5
376(24) 0.001736 343.5 351.6
342(23) 0.001890 343.4 350.8
333(22) 0.002066 343.3 350.1
343(23) 0.001890 343.2 349.6
354(23) 0.001890 343.1 349.3
354(23) 0.001890 343.0 349.0
377(24) 0.001736 342.9 348.9
326(22) 0.002066 342.8 348.8
335(22) 0.002066 342.7 348.8
354(23) 0.001890 342.6 348.7
364(23) 0.001890 342.5 348.4
368(24) 0.001736 342.4 348.0
315(22) 0.002066 342.3 347.5
349(23) 0.001890 342.2 347.1
348(23) 0.001890 342.1 346.7
336(18) 0.003086 342.0 346.4
354(21) 0.002268 341.9 346.2
345(21) 0.002268 341.8 346.1
338(21) 0.002268 341.8 345.8
355(22) 0.002066 341.7 345.9
375(22) 0.002066 341.6 346.1
377(22) 0.002066 341.5 346.3
358(22) 0.002066 341.4 346.6
348(21) 0.002268 341.3 347.1
349(21) 0.002268 341.2 347.8
366(22) 0.002066 341.1 348.9
333(21) 0.002268 341.0 350.7
366(22) 0.002066 340.9 353.6
376(22) 0.002066 340.9 358.3
352(21) 0.002268 340.8 365.2
371(22) 0.002066 340.7 374.9
378(22) 0.002066 340.6 387.3
394(23) 0.001890 340.5 401.1
413(23) 0.001890 340.4 414.0
441(24) 0.001736 340.3 422.8
483(26) 0.001479 340.2 424.4
465(25) 0.001600 340.2 417.4
429(24) 0.001736 340.1 404.2
376(22) 0.002066 340.0 389.3
386(23) 0.001890 339.9 375.8
341(21) 0.002268 339.8 365.1
355(22) 0.002066 339.7 357.5
365(22) 0.002066 339.6 352.6
323(20) 0.002500 339.6 349.4
330(21) 0.002268 339.5 347.4
342(21) 0.002268 339.4 346.0
343(21) 0.002268 339.3 345.2
341(21) 0.002268 339.2 344.6
342(21) 0.002268 339.1 344.3
349(21) 0.002268 339.0 344.2
355(21) 0.002268 339.0 344.4
343(21) 0.002268 338.9 344.9
347(21) 0.002268 338.8 346.0
323(20) 0.002500 338.7 347.7
360(22) 0.002066 338.6 350.1
341(21) 0.002268 338.5 353.0
338(21) 0.002268 338.5 356.1
362(22) 0.002066 338.4 358.7
348(21) 0.002268 338.3 359.9
353(21) 0.002268 338.2 359.1
341(21) 0.002268 338.1 356.5
332(21) 0.002268 338.0 352.9
355(22) 0.002066 338.0 349.5
324(20) 0.002500 337.9 346.8
342(21) 0.002268 337.8 344.6
338(21) 0.002268 337.7 343.1
331(21) 0.002268 337.6 342.2
327(20) 0.002500 337.5 341.6
348(21) 0.002268 337.5 341.2
332(21) 0.002268 337.4 340.9
341(21) 0.002268 337.3 340.8
324(20) 0.002500 337.2 340.6
331(21) 0.002268 337.1 340.6
319(20) 0.002500 337.1 340.7
339(21) 0.002268 337.0 340.9
354(21) 0.002268 336.9 341.4
338(21) 0.002268 336.8 342.2
357(22) 0.002066 336.7 343.4
356(22) 0.002066 336.7 345.0
360(22) 0.002066 336.6 347.1
334(21) 0.002268 336.5 349.3
352(21) 0.002268 336.4 351.4
344(21) 0.002268 336.3 352.7
336(21) 0.002268 336.2 352.8
343(21) 0.002268 336.2 351.5
356(22) 0.002066 336.1 349.5
335(21) 0.002268 336.0 347.4
344(21) 0.002268 335.9 345.6
354(21) 0.002268 335.8 344.3
341(21) 0.002268 335.8 343.6
324(20) 0.002500 335.7 343.4
328(21) 0.002268 335.6 343.5
333(21) 0.002268 335.5 344.0
356(22) 0.002066 335.4 344.7
361(22) 0.002066 335.4 345.9
319(20) 0.002500 335.3 347.6
335(21) 0.002268 335.2 350.2
348(21) 0.002268 335.1 354.2
338(21) 0.002268 335.0 360.7
360(22) 0.002066 335.0 370.6
381(22) 0.002066 334.9 385.1
409(23) 0.001890 334.8 405.1
450(25) 0.001600 334.7 429.8
467(25) 0.001600 334.6 457.0
480(26) 0.001479 334.6 481.5
492(26) 0.001479 334.5 497.0
491(26) 0.001479 334.4 497.4
492(26) 0.001479 334.3 481.5
481(26) 0.001479 334.2 455.5
407(23) 0.001890 334.2 427.5
405(23) 0.001890 334.1 402.7
407(23) 0.001890 334.0 383.5
379(22) 0.002066 333.9 369.8
365(22) 0.002066 333.8 360.9
337(21) 0.002268 333.8 355.5
358(20) 0.002500 333.7 352.4
367(21) 0.002268 333.6 350.9
365(21) 0.002268 333.5 350.6
353(20) 0.002500 333.4 351.3
322(19) 0.002770 333.4 353.4
338(20) 0.002500 333.3 357.4
353(20) 0.002500 333.2 363.9
375(21) 0.002268 333.1 374.0
402(22) 0.002066 333.0 388.0
394(22) 0.002066 333.0 405.5
409(22) 0.002066 332.9 424.9
472(24) 0.001736 332.8 442.6
497(25) 0.001600 332.7 453.9
475(24) 0.001736 332.6 454.3
442(23) 0.001890 332.6 443.1
420(22) 0.002066 332.5 424.6
399(22) 0.002066 332.4 404.4
396(22) 0.002066 332.3 386.5
366(21) 0.002268 332.2 372.5
367(21) 0.002268 332.1 362.6
360(21) 0.002268 332.1 356.2
346(20) 0.002500 332.0 352.6
358(20) 0.002500 331.9 350.8
350(20) 0.002500 331.8 350.6
341(20) 0.002500 331.7 351.7
343(20) 0.002500 331.7 354.7
381(21) 0.002268 331.6 360.1
349(20) 0.002500 331.5 369.1
353(20) 0.002500 331.4 382.9
378(21) 0.002268 331.3 402.3
421(22) 0.002066 331.2 427.0
429(23) 0.001890 331.2 454.9
471(24) 0.001736 331.1 480.7
501(25) 0.001600 331.0 496.3
533(26) 0.001479 330.9 494.8
503(25) 0.001600 330.8 476.7
481(24) 0.001736 330.7 449.6
450(23) 0.001890 330.7 421.3
406(22) 0.002066 330.6 396.5
386(21) 0.002268 330.5 377.2
352(20) 0.002500 330.4 363.3
334(20) 0.002500 330.3 354.0
326(19) 0.002770 330.2 348.0
321(19) 0.002770 330.1 344.1
328(19) 0.002770 330.1 341.6
332(20) 0.002500 330.0 339.8
354(20) 0.002500 329.9 338.4
340(20) 0.002500 329.8 337.4
350(20) 0.002500 329.7 336.5
363(21) 0.002268 329.6 335.7
344(20) 0.002500 329.5 335.1
353(20) 0.002500 329.5 334.5
317(19) 0.002770 329.4 334.1
349(20) 0.002500 329.3 333.6
342(20) 0.002500 329.2 333.2
320(19) 0.002770 329.1 332.9
351(20) 0.002500 329.0 332.6
312(19) 0.002770 328.9 332.3
318(19) 0.002770 328.8 332.1
357(20) 0.002500 328.8 331.8
348(20) 0.002500 328.7 331.7
331(20) 0.002500 328.6 331.5
354(20) 0.002500 328.5 331.3
370(21) 0.002268 328.4 331.2
358(20) 0.002500 328.3 331.0
327(19) 0.002770 328.2 330.9
332(20) 0.002500 328.1 330.8
320(19) 0.002770 328.0 330.7
321(19) 0.002770 328.0 330.6
327(19) 0.002770 327.9 330.6
356(20) 0.002500 327.8 330.7
331(20) 0.002500 327.7 330.8
322(19) 0.002770 327.6 330.9
344(20) 0.002500 327.5 331.1
341(20) 0.002500 327.4 331.3
317(19) 0.002770 327.3 331.4
332(20) 0.002500 327.2 331.4
320(19) 0.002770 327.1 331.0
342(20) 0.002500 327.0 330.8
325(19) 0.002770 326.9 330.6
325(19) 0.002770 326.8 330.4
338(20) 0.002500 326.8 330.4
347(20) 0.002500 326.7 330.4
356(20) 0.002500 326.6 330.5
306(19) 0.002770 326.5 330.7
311(19) 0.002770 326.4 331.0
322(19) 0.002770 326.3 331.4
331(20) 0.002500 326.2 332.2
350(20) 0.002500 326.1 333.3
356(20) 0.002500 326.0 335.1
341(20) 0.002500 325.9 338.0
368(21) 0.002268 325.8 342.2
352(20) 0.002500 325.7 348.2
344(20) 0.002500 325.6 355.9
364(21) 0.002268 325.5 365.0
370(21) 0.002268 325.4 374.1
365(21) 0.002268 325.3 381.0
398(22) 0.002066 325.2 383.1
391(22) 0.002066 325.1 379.3
388(21) 0.002268 325.0 371.4
366(20) 0.002500 324.9 362.3
364(20) 0.002500 324.8 353.7
337(19) 0.002770 324.7 346.7
322(18) 0.003086 324.6 341.5
322(18) 0.003086 324.5 338.1
331(19) 0.002770 324.4 336.1
345(19) 0.002770 324.3 335.3
318(18) 0.003086 324.2 335.4
338(19) 0.002770 324.1 336.5
342(19) 0.002770 324.0 338.8
328(18) 0.003086 323.9 342.8
326(18) 0.003086 323.8 348.9
353(19) 0.002770 323.7 357.3
370(20) 0.002500 323.6 367.9
405(21) 0.002268 323.5 379.9
383(20) 0.002500 323.4 391.1
422(21) 0.002268 323.3 398.3
409(21) 0.002268 323.2 398.4
406(21) 0.002268 323.1 391.4
404(21) 0.002268 323.0 380.0
396(21) 0.002268 322.9 367.7
365(20) 0.002500 322.8 356.7
370(20) 0.002500 322.7 347.8
334(19) 0.002770 322.5 341.3
352(19) 0.002770 322.4 336.8
322(18) 0.003086 322.3 333.9
320(18) 0.003086 322.2 332.2
323(18) 0.003086 322.1 331.3
346(19) 0.002770 322.0 331.0
340(19) 0.002770 321.9 331.2
333(19) 0.002770 321.8 332.1
341(19) 0.002770 321.7 333.9
351(19) 0.002770 321.6 336.6
351(19) 0.002770 321.5 340.3
355(19) 0.002770 321.3 344.9
376(20) 0.002500 321.2 349.9
356(19) 0.002770 321.1 354.3
342(19) 0.002770 321.0 356.5
365(20) 0.002500 320.9 355.6
364(20) 0.002500 320.8 352.1
331(19) 0.002770 320.7 347.2
335(19) 0.002770 320.6 342.4
342(19) 0.002770 320.4 338.2
322(18) 0.003086 320.3 335.1
330(19) 0.002770 320.2 333.1
344(19) 0.002770 320.1 332.0
336(19) 0.002770 320.0 331.9
348(19) 0.002770 319.9 332.6
329(18) 0.003086 319.7 334.5
305(18) 0.003086 319.6 337.7
329(18) 0.003086 319.5 342.8
366(20) 0.002500 319.4 350.4
346(19) 0.002770 319.3 360.6
377(20) 0.002500 319.2 373.3
414(21) 0.002268 319.0 387.5
414(21) 0.002268 318.9 401.0
440(22) 0.002066 318.8 410.1
461(22) 0.002066 318.7 411.5
431(22) 0.002066 318.6 404.7
424(21) 0.002268 318.4 392.3
390(20) 0.002500 318.3 378.3
387(20) 0.002500 318.2 365.2
382(20) 0.002500 318.1 354.6
346(19) 0.002770 317.9 346.7
337(19) 0.002770 317.8 341.5
325(18) 0.003086 317.7 338.5
331(19) 0.002770 317.6 337.5
345(19) 0.002770 317.5 338.4
342(19) 0.002770 317.3 341.2
353(19) 0.002770 317.2 346.5
339(19) 0.002770 317.1 355.0
349(19) 0.002770 317.0 367.3
372(20) 0.002500 316.8 383.7
390(20) 0.002500 316.7 403.7
455(22) 0.002066 316.6 425.1
461(22) 0.002066 316.4 444.1
443(22) 0.002066 316.3 454.6
456(22) 0.002066 316.2 452.2
461(22) 0.002066 316.1 438.0
435(22) 0.002066 315.9 417.3
412(21) 0.002268 315.8 395.6
376(20) 0.002500 315.7 376.3
357(19) 0.002770 315.5 360.8
359(19) 0.002770 315.4 349.3
375(20) 0.002500 315.3 341.4
350(19) 0.002770 315.1 336.4
352(19) 0.002770 315.0 333.6
335(19) 0.002770 314.9 332.6
308(18) 0.003086 314.7 333.1
340(19) 0.002770 314.6 335.1
331(19) 0.002770 314.5 338.6
318(18) 0.003086 314.3 343.7
373(20) 0.002500 314.2 350.1
386(20) 0.002500 314.1 357.2
397(21) 0.002268 313.9 363.5
396(21) 0.002268 313.8 367.0
395(21) 0.002268 313.7 366.1
383(20) 0.002500 313.5 361.1
393(20) 0.002500 313.4 353.7
352(19) 0.002770 313.3 345.8
350(18) 0.003086 313.1 338.8
329(18) 0.003086 313.0 333.0
316(17) 0.003460 312.8 328.7
312(17) 0.003460 312.7 325.6
318(17) 0.003460 312.6 323.7
341(18) 0.003086 312.4 322.5
303(17) 0.003460 312.3 322.0
329(18) 0.003086 312.1 322.0
322(17) 0.003460 312.0 322.6
324(17) 0.003460 311.8 323.6
329(18) 0.003086 311.7 325.2
340(18) 0.003086 311.6 327.2
345(18) 0.003086 311.4 329.3
320(17) 0.003460 311.3 331.2
323(17) 0.003460 311.1 332.4
342(18) 0.003086 311.0 332.3
354(18) 0.003086 310.8 331.2
352(18) 0.003086 310.7 329.6
327(17) 0.003460 310.5 328.0
333(18) 0.003086 310.4 326.8
330(18) 0.003086 310.2 326.3
307(17) 0.003460 310.1 326.7
327(17) 0.003460 310.0 328.2
333(18) 0.003086 309.8 331.3
328(18) 0.003086 309.7 336.6
337(18) 0.003086 309.5 344.8
331(18) 0.003086 309.4 357.0
373(19) 0.002770 309.2 373.7
401(20) 0.002500 309.1 395.3
431(20) 0.002500 308.9 420.5
461(21) 0.002268 308.8 446.9
505(22) 0.002066 308.6 469.2
512(22) 0.002066 308.4 480.7
504(22) 0.002066 308.3 476.6
508(22) 0.002066 308.1 458.6
440(21) 0.002268 308.0 433.2
431(20) 0.002500 307.8 406.6
383(19) 0.002770 307.7 382.6
361(18) 0.003086 307.5 363.0
349(18) 0.003086 307.4 348.2
314(17) 0.003460 307.2 337.6
291(16) 0.00391 307.1 330.3
322(17) 0.003460 306.9 325.5
316(17) 0.003460 306.7 322.3
311(17) 0.003460 306.6 320.1
317(17) 0.003460 306.4 318.6
326(17) 0.003460 306.3 317.4
303(17) 0.003460 306.1 316.6
320(17) 0.003460 305.9 315.9
300(17) 0.003460 305.8 315.4
309(17) 0.003460 305.6 315.0
299(17) 0.003460 305.5 314.6
307(17) 0.003460 305.3 314.5
288(16) 0.00391 305.1 314.4
290(16) 0.00391 305.0 314.5
319(17) 0.003460 304.8 314.7
327(17) 0.003460 304.6 315.2
326(17) 0.003460 304.5 316.1
320(17) 0.003460 304.3 317.5
317(17) 0.003460 304.2 319.8
351(18) 0.003086 304.0 323.4
343(18) 0.003086 303.8 328.7
341(18) 0.003086 303.7 336.2
334(18) 0.003086 303.5 346.0
361(18) 0.003086 303.3 357.9
383(19) 0.002770 303.2 371.0
407(20) 0.002500 303.0 383.5
424(20) 0.002500 302.8 392.3
413(20) 0.002500 302.7 394.4
419(20) 0.002500 302.5 388.8
407(20) 0.002500 302.3 378.0
357(18) 0.003086 302.2 365.2
346(18) 0.003086 302.0 352.9
367(19) 0.002770 301.8 342.5
351(18) 0.003086 301.6 334.7
302(17) 0.003460 301.5 329.5
339(18) 0.003086 301.3 326.9
297(17) 0.003460 301.1 326.7
309(17) 0.003460 301.0 329.0
316(17) 0.003460 300.8 334.0
306(17) 0.003460 300.6 342.1
333(18) 0.003086 300.4 353.5
365(19) 0.002770 300.3 368.4
401(20) 0.002500 300.1 385.8
448(21) 0.002268 299.9 404.2
456(21) 0.002268 299.7 420.2
481(22) 0.002066 299.6 429.9
463(21) 0.002268 299.4 430.2
457(21) 0.002268 299.2 421.3
427(20) 0.002500 299.0 405.4
407(20) 0.002500 298.8 386.6
393(19) 0.002770 298.7 368.1
342(18) 0.003086 298.5 351.9
334(18) 0.003086 298.3 339.0
343(18) 0.003086 298.1 329.2
338(18) 0.003086 298.0 322.1
324(17) 0.003460 297.8 317.4
316(17) 0.003460 297.6 314.2
306(17) 0.003460 297.4 312.3
297(17) 0.003460 297.2 311.2
294(16) 0.00391 297.1 310.6
326(17) 0.003460 296.9 310.5
306(16) 0.00391 296.7 310.6
314(17) 0.003460 296.5 310.9
319(17) 0.003460 296.3 311.0
316(17) 0.003460 296.1 310.7
301(16) 0.00391 296.0 310.1
283(16) 0.00391 295.8 309.2
304(16) 0.00391 295.6 308.2
302(16) 0.00391 295.4 307.5
319(17) 0.003460 295.2 306.9
276(16) 0.00391 295.0 306.8
303(16) 0.00391 294.8 307.0
296(16) 0.00391 294.7 307.8
296(16) 0.00391 294.5 309.4
300(16) 0.00391 294.3 311.7
325(17) 0.003460 294.1 315.1
305(16) 0.00391 293.9 319.6
320(17) 0.003460 293.7 325.0
322(17) 0.003460 293.5 331.0
320(17) 0.003460 293.3 336.9
354(18) 0.003086 293.2 341.5
337(17) 0.003460 293.0 343.6
364(18) 0.003086 292.8 342.8
303(16) 0.00391 292.6 339.6
331(17) 0.003460 292.4 335.2
333(17) 0.003460 292.2 330.8
318(17) 0.003460 292.0 327.4
305(16) 0.00391 291.8 325.5
317(17) 0.003460 291.6 325.9
312(17) 0.003460 291.4 329.1
325(17) 0.003460 291.2 335.7
398(19) 0.002770 291.0 346.7
405(19) 0.002770 290.9 363.0
417(20) 0.002500 290.7 385.3
451(20) 0.002500 290.5 413.7
491(21) 0.002268 290.3 447.2
524(22) 0.002066 290.1 482.9
529(22) 0.002066 289.9 515.5
571(23) 0.001890 289.7 537.8
557(23) 0.001890 289.5 543.2
564(23) 0.001890 289.3 529.9
547(23) 0.001890 289.1 501.9
479(21) 0.002268 288.9 466.8
445(20) 0.002500 288.7 431.3
393(19) 0.002770 288.5 399.7
344(18) 0.003086 288.3 373.8
329(17) 0.003460 288.1 354.4
333(17) 0.003460 287.9 340.8
295(16) 0.00391 287.7 332.3
304(16) 0.00391 287.5 328.2
315(17) 0.003460 287.3 327.5
318(17) 0.003460 287.1 329.8
333(17) 0.003460 286.9 334.7
347(18) 0.003086 286.7 341.4
355(18) 0.003086 286.5 349.2
382(19) 0.002770 286.3 356.6
391(19) 0.002770 286.1 361.6
341(18) 0.003086 285.9 362.2
359(18) 0.003086 285.7 357.9
390(19) 0.002770 285.5 350.2
330(17) 0.003460 285.3 341.2
326(17) 0.003460 285.1 332.5
334(17) 0.003460 284.9 325.3
311(17) 0.003460 284.7 320.2
333(17) 0.003460 284.5 317.4
304(16) 0.00391 284.3 317.2
316(17) 0.003460 284.1 319.6
324(17) 0.003460 283.9 324.9
306(16) 0.00391 283.7 332.8
342(18) 0.003086 283.5 343.2
361(18) 0.003086 283.3 355.3
344(18) 0.003086 283.0 367.6
371(18) 0.003086 282.8 377.9
381(19) 0.002770 282.6 383.3
404(19) 0.002770 282.4 381.9
382(19) 0.002770 282.2 374.3
364(18) 0.003086 282.0 363.1
324(17) 0.003460 281.8 351.1
353(18) 0.003086 281.6 340.5
301(16) 0.00391 281.4 332.3
288(16) 0.00391 281.2 327.5
312(17) 0.003460 281.0 326.4
300(16) 0.00391 280.8 329.4
339(17) 0.003460 280.6 336.7
340(17) 0.003460 280.3 348.5
365(18) 0.003086 280.1 364.6
383(19) 0.002770 279.9 384.1
440(20) 0.002500 279.7 405.2
478(21) 0.002268 279.5 424.9
497(21) 0.002268 279.3 438.8
499(22) 0.002066 279.1 442.7
447(20) 0.002500 278.9 435.2
426(20) 0.002500 278.7 418.7
434(20) 0.002500 278.4 397.5
384(19) 0.002770 278.2 375.8
365(18) 0.003086 278.0 356.2
309(17) 0.003460 277.8 340.2
317(17) 0.003460 277.6 328.2
299(16) 0.00391 277.4 320.4
314(17) 0.003460 277.2 316.5
309(16) 0.00391 277.0 316.2
309(16) 0.00391 276.7 319.3
331(17) 0.003460 276.5 325.3
348(18) 0.003086 276.3 333.9
347(17) 0.003460 276.1 344.3
381(18) 0.003086 275.9 355.1
407(19) 0.002770 275.7 364.3
402(19) 0.002770 275.5 369.1
401(19) 0.002770 275.3 367.6
368(18) 0.003086 275.0 360.1
345(17) 0.003460 274.8 348.7
345(17) 0.003460 274.6 335.9
312(17) 0.003460 274.4 323.7
299(16) 0.00391 274.2 312.9
281(16) 0.00391 274.0 304.1
291(16) 0.00391 273.7 297.3
268(15) 0.00444 273.5 292.3
306(16) 0.00391 273.3 288.7
257(15) 0.00444 273.1 286.2
269(15) 0.00444 272.9 284.5
285(16) 0.00391 272.7 283.2
267(15) 0.00444 272.4 282.3
266(15) 0.00444 272.2 281.5
259(15) 0.00444 272.0 280.7
285(16) 0.00391 271.8 280.0
249(15) 0.00444 271.6 279.1
268(15) 0.00444 271.4 278.4
276(15) 0.00444 271.1 277.6
260(15) 0.00444 270.9 276.9
286(16) 0.00391 270.7 276.3
268(15) 0.00444 270.5 275.8
249(15) 0.00444 270.3 275.4
272(15) 0.00444 270.0 275.0
281(16) 0.00391 269.8 274.7
263(15) 0.00444 269.6 274.5
269(15) 0.00444 269.4 274.3
276(15) 0.00444 269.2 274.2
285(16) 0.00391 268.9 274.2
267(15) 0.00444 268.7 274.2
275(15) 0.00444 268.5 274.2
272(15) 0.00444 268.3 274.2
272(15) 0.00444 268.1 274.1
267(15) 0.00444 267.8 273.8
273(15) 0.00444 267.6 273.4
267(15) 0.00444 267.4 272.8
264(15) 0.00444 267.2 272.2
274(15) 0.00444 267.0 271.8
264(15) 0.00444 266.7 271.4
273(15) 0.00444 266.5 271.1
289(16) 0.00391 266.3 270.9
270(15) 0.00444 266.1 270.7
259(15) 0.00444 265.9 270.7
259(15) 0.00444 265.6 270.7
290(16) 0.00391 265.4 270.8
271(15) 0.00444 265.2 271.0
257(15) 0.00444 265.0 271.3
290(16) 0.00391 264.8 271.5
266(15) 0.00444 264.5 271.8
258(15) 0.00444 264.3 272.0
256(15) 0.00444 264.1 272.3
290(16) 0.00391 263.9 272.6
267(15) 0.00444 263.6 273.2
251(15) 0.00444 263.4 274.2
262(15) 0.00444 263.2 275.9
267(15) 0.00444 263.0 278.5
276(15) 0.00444 262.8 282.2
299(16) 0.00391 262.5 287.4
287(16) 0.00391 262.3 294.2
306(16) 0.00391 262.1 302.5
304(16) 0.00391 261.9 312.0
332(17) 0.003460 261.6 321.8
346(17) 0.003460 261.4 330.7
342(17) 0.003460 261.2 336.6
340(17) 0.003460 261.0 338.0
375(18) 0.003086 260.7 334.4
334(17) 0.003460 260.5 326.9
313(17) 0.003460 260.3 317.3
288(16) 0.00391 260.1 307.5
281(16) 0.00391 259.9 298.5
263(15) 0.00444 259.6 291.0
286(16) 0.00391 259.4 285.4
300(16) 0.00391 259.2 281.6
267(15) 0.00444 259.0 279.5
274(15) 0.00444 258.7 278.9
273(15) 0.00444 258.5 279.5
279(16) 0.00391 258.3 281.0
295(16) 0.00391 258.1 282.8
280(16) 0.00391 257.8 284.7
273(15) 0.00444 257.6 285.8
291(16) 0.00391 257.4 285.7
281(16) 0.00391 257.2 284.4
263(15) 0.00444 256.9 282.1
277(15) 0.00444 256.7 279.3
264(15) 0.00444 256.5 276.6
268(15) 0.00444 256.3 274.2
283(16) 0.00391 256.1 272.5
258(15) 0.00444 255.8 271.5
262(15) 0.00444 255.6 271.4
279(16) 0.00391 255.4 272.4
283(22) 0.002066 255.2 274.3
279(15) 0.00444 254.9 277.2
300(16) 0.00391 254.7 280.9
298(16) 0.00391 254.5 285.4
300(16) 0.00391 254.3 290.1
321(16) 0.00391 254.0 294.4
308(16) 0.00391 253.8 297.4
300(16) 0.00391 253.6 298.3
287(15) 0.00444 253.4 297.0
288(15) 0.00444 253.1 294.2
287(15) 0.00444 252.9 291.0
270(15) 0.00444 252.7 288.2
253(14) 0.00510 252.5 286.6
267(15) 0.00444 252.3 286.9
277(15) 0.00444 252.0 289.7
304(16) 0.00391 251.8 295.5
295(15) 0.00444 251.6 304.6
307(16) 0.00391 251.4 317.4
346(17) 0.003460 251.1 333.6
375(17) 0.003460 250.9 352.6
395(18) 0.003086 250.7 373.0
417(18) 0.003086 250.5 392.3
422(19) 0.002770 250.2 406.8
427(19) 0.002770 250.0 412.6
419(19) 0.002770 249.8 407.9
418(18) 0.003086 249.6 394.2
398(18) 0.003086 249.4 375.0
386(18) 0.003086 249.1 354.1
337(17) 0.003460 248.9 334.3
306(16) 0.00391 248.7 317.2
293(15) 0.00444 248.5 303.5
299(16) 0.00391 248.2 293.4
288(15) 0.00444 248.0 286.7
286(15) 0.00444 247.8 283.0
269(15) 0.00444 247.6 281.7
293(15) 0.00444 247.4 282.2
292(15) 0.00444 247.1 283.8
287(15) 0.00444 246.9 285.6
294(15) 0.00444 246.7 286.8
286(15) 0.00444 246.5 286.4
295(15) 0.00444 246.2 284.3
304(16) 0.00391 246.0 280.6
287(15) 0.00444 245.8 276.0
274(15) 0.00444 245.6 271.2
268(15) 0.00444 245.4 266.6
273(15) 0.00444 245.1 262.6
266(15) 0.00444 244.9 259.3
273(15) 0.00444 244.7 256.6
264(15) 0.00444 244.5 254.5
257(14) 0.00510 244.3 252.9
242(14) 0.00510 244.0 251.7
252(14) 0.00510 243.8 250.8
252(14) 0.00510 243.6 250.1
235(14) 0.00510 243.4 249.5
224(13) 0.00592 243.2 249.0
221(13) 0.00592 242.9 248.5
238(14) 0.00510 242.7 248.0
256(14) 0.00510 242.5 247.5
243(14) 0.00510 242.3 247.1
229(14) 0.00510 242.1 246.6
242(14) 0.00510 241.8 246.2
245(14) 0.00510 241.6 245.8
244(14) 0.00510 241.4 245.5
261(14) 0.00510 241.2 245.2
263(15) 0.00444 241.0 244.9
237(14) 0.00510 240.7 244.7
233(14) 0.00510 240.5 244.5
249(14) 0.00510 240.3 244.4
250(14) 0.00510 240.1 244.3
235(14) 0.00510 239.9 244.2
250(14) 0.00510 239.6 244.1
274(15) 0.00444 239.4 244.1
262(15) 0.00444 239.2 244.0
242(14) 0.00510 239.0 244.1
242(14) 0.00510 238.8 244.2
264(15) 0.00444 238.6 244.6
264(15) 0.00444 238.3 245.2
243(14) 0.00510 238.1 246.2
235(14) 0.00510 237.9 247.6
237(14) 0.00510 237.7 249.5
247(14) 0.00510 237.5 251.9
232(14) 0.00510 237.3 254.7
264(15) 0.00444 237.0 257.8
271(15) 0.00444 236.8 260.9
259(14) 0.00510 236.6 263.4
260(14) 0.00510 236.4 264.9
257(14) 0.00510 236.2 264.9
269(15) 0.00444 236.0 263.4
253(14) 0.00510 235.8 260.8
255(14) 0.00510 235.5 257.6
249(14) 0.00510 235.3 254.4
254(14) 0.00510 235.1 251.4
261(14) 0.00510 234.9 249.0
258(14) 0.00510 234.7 247.3
245(14) 0.00510 234.5 246.3
261(14) 0.00510 234.3 245.9
263(15) 0.00444 234.0 246.2
253(14) 0.00510 233.8 247.1
245(14) 0.00510 233.6 248.4
242(14) 0.00510 233.4 250.1
243(14) 0.00510 233.2 251.7
270(15) 0.00444 233.0 253.1
267(15) 0.00444 232.8 253.8
252(14) 0.00510 232.6 253.6
262(15) 0.00444 232.3 252.6
261(15) 0.00444 232.1 251.0
256(14) 0.00510 231.9 249.3
243(14) 0.00510 231.7 247.8
253(14) 0.00510 231.5 246.9
262(15) 0.00444 231.3 246.6
245(14) 0.00510 231.1 247.0
231(14) 0.00510 230.9 248.2
249(14) 0.00510 230.7 250.0
247(14) 0.00510 230.4 252.4
260(15) 0.00444 230.2 254.9
252(14) 0.00510 230.0 257.3
245(14) 0.00510 229.8 258.8
276(15) 0.00444 229.6 259.3
255(14) 0.00510 229.4 258.3
255(14) 0.00510 229.2 256.3
249(14) 0.00510 229.0 253.6
232(14) 0.00510 228.8 250.7
259(14) 0.00510 228.6 248.0
282(15) 0.00444 228.4 245.9
273(15) 0.00444 228.2 244.5
240(14) 0.00510 227.9 243.9
237(14) 0.00510 227.7 244.1
235(14) 0.00510 227.5 245.1
260(15) 0.00444 227.3 246.8
265(15) 0.00444 227.1 249.0
270(15) 0.00444 226.9 251.4
256(14) 0.00510 226.7 253.7
258(14) 0.00510 226.5 255.3
272(15) 0.00444 226.3 255.9
276(15) 0.00444 226.1 255.3
267(15) 0.00444 225.9 253.8
242(14) 0.00510 225.7 251.9
244(14) 0.00510 225.5 250.3
239(14) 0.00510 225.3 249.3
240(14) 0.00510 225.1 249.2
254(14) 0.00510 224.9 250.6
260(15) 0.00444 224.7 253.4
262(15) 0.00444 224.5 257.8
274(15) 0.00444 224.3 263.6
257(14) 0.00510 224.1 270.5
286(15) 0.00444 223.9 278.1
309(16) 0.00391 223.7 285.3
286(15) 0.00444 223.5 291.0
306(16) 0.00391 223.3 293.7
312(16) 0.00391 223.1 292.6
286(15) 0.00444 222.9 288.0
284(15) 0.00444 222.7 280.8
268(15) 0.00444 222.5 272.6
271(15) 0.00444 222.3 264.3
260(15) 0.00444 222.1 256.7
252(14) 0.00510 221.9 250.1
238(14) 0.00510 221.7 244.7
237(14) 0.00510 221.5 240.5
245(14) 0.00510 221.3 237.4
239(14) 0.00510 221.1 235.3
233(14) 0.00510 220.9 233.9
214(13) 0.00592 220.7 232.9
219(13) 0.00592 220.5 232.4
227(14) 0.00510 220.3 232.0
229(14) 0.00510 220.1 231.7
257(14) 0.00510 219.9 231.4
242(14) 0.00510 219.7 231.2
220(13) 0.00592 219.5 231.1
243(14) 0.00510 219.3 231.3
244(14) 0.00510 219.1 231.9
260(15) 0.00444 218.9 232.9
235(14) 0.00510 218.7 234.6
225(13) 0.00592 218.5 236.8
258(14) 0.00510 218.3 239.7
254(14) 0.00510 218.1 243.2
238(14) 0.00510 217.9 246.9
261(15) 0.00444 217.7 250.7
256(14) 0.00510 217.6 253.8
245(14) 0.00510 217.4 255.8
282(15) 0.00444 217.2 256.2
284(15) 0.00444 217.0 254.9
257(14) 0.00510 216.8 252.2
259(15) 0.00444 216.6 248.8
249(14) 0.00510 216.4 245.2
242(14) 0.00510 216.2 241.9
239(14) 0.00510 216.0 239.3
247(14) 0.00510 215.8 237.5
223(13) 0.00592 215.6 236.7
241(14) 0.00510 215.5 236.8
241(14) 0.00510 215.3 237.7
243(14) 0.00510 215.1 239.3
250(14) 0.00510 214.9 241.3
252(14) 0.00510 214.7 243.4
221(13) 0.00592 214.5 245.0
236(14) 0.00510 214.3 245.9
257(14) 0.00510 214.1 245.8
239(14) 0.00510 214.0 244.8
241(14) 0.00510 213.8 243.3
239(14) 0.00510 213.6 241.8
239(14) 0.00510 213.4 240.9
245(11) 0.00826 213.2 240.8
250(14) 0.00510 213.0 241.7
232(14) 0.00510 212.8 243.8
240(14) 0.00510 212.7 247.1
269(15) 0.00444 212.5 251.4
257(15) 0.00444 212.3 256.5
259(15) 0.00444 212.1 261.8
291(16) 0.00391 211.9 266.6
280(15) 0.00444 211.7 270.1
281(15) 0.00444 211.6 271.7
270(15) 0.00444 211.4 271.1
272(15) 0.00444 211.2 268.7
292(16) 0.00391 211.0 265.3
254(15) 0.00444 210.8 261.9
264(15) 0.00444 210.7 259.4
258(15) 0.00444 210.5 258.4
260(15) 0.00444 210.3 259.4
257(15) 0.00444 210.1 262.8
259(15) 0.00444 209.9 268.7
252(15) 0.00444 209.8 276.9
297(16) 0.00391 209.6 286.8
308(16) 0.00391 209.4 297.8
300(16) 0.00391 209.2 308.5
324(16) 0.00391 209.0 317.3
352(17) 0.003460 208.9 322.6
329(17) 0.003460 208.7 322.9
308(16) 0.00391 208.5 317.9
286(16) 0.00391 208.3 308.7
315(16) 0.00391 208.2 296.7
301(16) 0.00391 208.0 283.7
264(15) 0.00444 207.8 271.0
233(14) 0.00510 207.6 259.4
236(14) 0.00510 207.5 249.4
258(15) 0.00444 207.3 241.1
245(14) 0.00510 207.1 234.5
247(14) 0.00510 206.9 229.4
220(14) 0.00510 206.8 225.5
216(13) 0.00592 206.6 222.7
208(13) 0.00592 206.4 220.6
237(14) 0.00510 206.2 219.0
205(13) 0.00592 206.1 217.8
210(13) 0.00592 205.9 216.8
223(14) 0.00510 205.7 216.0
209(13) 0.00592 205.6 215.3
224(14) 0.00510 205.4 214.8
203(13) 0.00592 205.2 214.4
188(13) 0.00592 205.0 214.1
203(13) 0.00592 204.9 214.0
222(14) 0.00510 204.7 214.0
219(14) 0.00510 204.5 214.2
213(13) 0.00592 204.4 214.4
221(14) 0.00510 204.2 214.7
219(14) 0.00510 204.0 215.1
201(13) 0.00592 203.9 215.5
224(14) 0.00510 203.7 215.9
234(14) 0.00510 203.5 216.4
208(13) 0.00592 203.4 217.0
243(14) 0.00510 203.2 217.8
226(14) 0.00510 203.0 219.1
191(13) 0.00592 202.9 220.9
230(14) 0.00510 202.7 223.5
251(15) 0.00444 202.5 227.1
237(14) 0.00510 202.4 231.7
244(14) 0.00510 202.2 237.4
252(15) 0.00444 202.1 244.2
230(14) 0.00510 201.9 251.6
243(14) 0.00510 201.7 259.2
285(15) 0.00444 201.6 266.3
289(16) 0.00391 201.4 271.8
292(16) 0.00391 201.2 274.9
286(16) 0.00391 201.1 274.9
269(15) 0.00444 200.9 271.8
275(15) 0.00444 200.8 266.1
286(15) 0.00444 200.6 258.8
247(14) 0.00510 200.4 250.9
260(15) 0.00444 200.3 243.2
230(14) 0.00510 200.1 236.3
212(13) 0.00592 200.0 230.4
215(13) 0.00592 199.8 225.6
210(13) 0.00592 199.6 221.9
240(14) 0.00510 199.5 219.1
239(14) 0.00510 199.3 217.0
224(14) 0.00510 199.2 215.3
224(14) 0.00510 199.0 213.9
218(14) 0.00510 198.8 212.5
211(13) 0.00592 198.7 211.2
202(13) 0.00592 198.5 209.9
204(13) 0.00592 198.4 208.6
214(13) 0.00592 198.2 207.3
207(13) 0.00592 198.1 206.2
173(12) 0.00694 197.9 205.2
189(13) 0.00592 197.8 204.3
210(13) 0.00592 197.6 203.5
203(13) 0.00592 197.5 202.9
210(13) 0.00592 197.3 202.4
196(13) 0.00592 197.1 201.9
195(13) 0.00592 197.0 201.5
187(13) 0.00592 196.8 201.2
201(13) 0.00592 196.7 201.0
198(13) 0.00592 196.5 200.8
210(18) 0.003086 196.4 200.7
190(12) 0.00694 196.2 200.6
193(12) 0.00694 196.1 200.5
180(12) 0.00694 195.9 200.6
186(12) 0.00694 195.8 200.8
186(12) 0.00694 195.6 201.0
204(13) 0.00592 195.5 201.4
195(12) 0.00694 195.3 202.0
207(13) 0.00592 195.2 202.7
202(13) 0.00592 195.0 203.6
222(13) 0.00592 194.9 204.6
200(13) 0.00592 194.7 205.7
219(13) 0.00592 194.6 206.7
223(13) 0.00592 194.5 207.6
188(12) 0.00694 194.3 208.2
213(13) 0.00592 194.2 208.5
207(13) 0.00592 194.0 208.3
195(12) 0.00694 193.9 207.7
202(13) 0.00592 193.7 206.8
226(13) 0.00592 193.6 205.9
205(13) 0.00592 193.4 205.0
218(13) 0.00592 193.3 204.3
216(13) 0.00592 193.1 203.8
226(13) 0.00592 193.0 203.6
209(13) 0.00592 192.9 203.6
217(13) 0.00592 192.7 203.9
207(13) 0.00592 192.6 204.3
174(12) 0.00694 192.4 204.9
196(12) 0.00694 192.3 205.4
218(13) 0.00592 192.2 206.0
206(13) 0.00592 192.0 206.5
219(13) 0.00592 191.9 206.9
219(13) 0.00592 191.7 207.5
210(13) 0.00592 191.6 208.2
204(13) 0.00592 191.4 209.4
195(12) 0.00694 191.3 211.0
193(12) 0.00694 191.2 213.4
230(13) 0.00592 191.0 216.4
239(14) 0.00510 190.9 220.2
234(14) 0.00510 190.8 224.4
235(14) 0.00510 190.6 229.0
258(14) 0.00510 190.5 233.4
251(14) 0.00510 190.3 237.2
262(14) 0.00510 190.2 239.7
238(14) 0.00510 190.1 240.7
261(14) 0.00510 189.9 239.8
222(13) 0.00592 189.8 237.3
238(14) 0.00510 189.7 233.5
243(14) 0.00510 189.5 229.2
241(14) 0.00510 189.4 224.8
260(14) 0.00510 189.3 220.8
217(13) 0.00592 189.1 217.5
221(13) 0.00592 189.0 215.1
211(13) 0.00592 188.9 213.4
212(13) 0.00592 188.7 212.6
197(13) 0.00592 188.6 212.4
198(13) 0.00592 188.5 212.7
214(13) 0.00592 188.3 213.1
229(13) 0.00592 188.2 213.4
229(13) 0.00592 188.1 213.2
208(13) 0.00592 187.9 212.4
212(13) 0.00592 187.8 211.1
239(14) 0.00510 187.7 209.4
221(13) 0.00592 187.5 207.6
209(13) 0.00592 187.4 205.8
206(13) 0.00592 187.3 204.3
192(12) 0.00694 187.1 203.2
186(12) 0.00694 187.0 202.5
223(13) 0.00592 186.9 202.2
208(13) 0.00592 186.8 202.3
197(12) 0.00694 186.6 202.8
196(12) 0.00694 186.5 203.5
205(13) 0.00592 186.4 204.3
211(13) 0.00592 186.3 204.9
194(12) 0.00694 186.1 205.2
190(12) 0.00694 186.0 205.0
182(12) 0.00694 185.9 204.4
193(12) 0.00694 185.7 203.5
194(12) 0.00694 185.6 202.4
198(13) 0.00592 185.5 201.4
200(13) 0.00592 185.4 200.7
198(13) 0.00592 185.2 200.2
205(13) 0.00592 185.1 200.1
190(12) 0.00694 185.0 200.3
208(13) 0.00592 184.9 200.9
194(12) 0.00694 184.7 201.7
189(12) 0.00694 184.6 202.5
192(12) 0.00694 184.5 203.3
202(13) 0.00592 184.4 203.8
204(13) 0.00592 184.3 203.9
203(13) 0.00592 184.1 203.5
212(13) 0.00592 184.0 202.7
207(13) 0.00592 183.9 201.7
175(12) 0.00694 183.8 200.8
197(12) 0.00694 183.6 200.0
212(13) 0.00592 183.5 199.6
213(13) 0.00592 183.4 199.5
203(13) 0.00592 183.3 199.9
201(13) 0.00592 183.2 200.8
189(12) 0.00694 183.0 202.0
204(13) 0.00592 182.9 203.5
186(12) 0.00694 182.8 205.2
213(13) 0.00592 182.7 206.7
213(13) 0.00592 182.6 207.9
223(13) 0.00592 182.5 208.5
239(14) 0.00510 182.3 208.3
205(13) 0.00592 182.2 207.4
206(13) 0.00592 182.1 205.9
193(12) 0.00694 182.0 204.2
199(13) 0.00592 181.9 202.3
218(13) 0.00592 181.8 200.7
197(13) 0.00592 181.6 199.4
217(13) 0.00592 181.5 198.6
205(13) 0.00592 181.4 198.1
197(13) 0.00592 181.3 198.1
193(12) 0.00694 181.2 198.5
201(13) 0.00592 181.1 199.2
208(13) 0.00592 180.9 199.9
218(13) 0.00592 180.8 200.7
185(12) 0.00694 180.7 201.3
197(13) 0.00592 180.6 201.5
190(12) 0.00694 180.5 201.4
196(13) 0.00592 180.4 201.2
210(13) 0.00592 180.3 200.9
197(13) 0.00592 180.2 200.7
206(13) 0.00592 180.0 200.9
183(12) 0.00694 179.9 201.3
196(13) 0.00592 179.8 202.1
206(13) 0.00592 179.7 203.2
198(13) 0.00592 179.6 204.3
208(13) 0.00592 179.5 205.5
218(13) 0.00592 179.4 206.4
176(12) 0.00694 179.3 206.8
196(13) 0.00592 179.1 206.7
207(13) 0.00592 179.0 206.2
215(13) 0.00592 178.9 205.3
214(13) 0.00592 178.8 204.4
224(13) 0.00592 178.7 203.6
208(13) 0.00592 178.6 203.3
213(13) 0.00592 178.5 203.6
182(12) 0.00694 178.4 204.6
214(13) 0.00592 178.3 206.4
227(13) 0.00592 178.2 209.0
221(13) 0.00592 178.1 212.3
226(13) 0.00592 178.0 216.2
203(13) 0.00592 177.8 220.3
214(13) 0.00592 177.7 224.3
217(13) 0.00592 177.6 227.7
245(14) 0.00510 177.5 229.8
243(14) 0.00510 177.4 230.2
234(14) 0.00510 177.3 228.9
217(13) 0.00592 177.2 225.8
201(13) 0.00592 177.1 221.5
207(13) 0.00592 177.0 216.6
201(13) 0.00592 176.9 211.5
218(13) 0.00592 176.8 206.5
204(13) 0.00592 176.7 201.9
192(12) 0.00694 176.6 197.9
203(13) 0.00592 176.5 194.4
179(12) 0.00694 176.4 191.5
200(13) 0.00592 176.3 189.2
168(12) 0.00694 176.2 187.3
182(12) 0.00694 176.1 185.9
196(13) 0.00592 176.0 184.9
179(12) 0.00694 175.9 184.1
199(13) 0.00592 175.8 183.6
184(12) 0.00694 175.6 183.3
189(12) 0.00694 175.5 183.2
166(12) 0.00694 175.4 183.3
169(12) 0.00694 175.3 183.5
195(12) 0.00694 175.2 183.9
166(12) 0.00694 175.1 184.5
195(12) 0.00694 175.0 185.3
187(12) 0.00694 174.9 186.2
186(12) 0.00694 174.8 187.2
185(12) 0.00694 174.7 188.3
222(13) 0.00592 174.6 189.3
195(12) 0.00694 174.5 190.1
188(12) 0.00694 174.4 190.7
201(13) 0.00592 174.3 191.0
216(13) 0.00592 174.2 190.9
184(12) 0.00694 174.1 190.6
179(12) 0.00694 174.0 190.1
182(12) 0.00694 173.9 189.5
184(12) 0.00694 173.8 189.1
170(12) 0.00694 173.8 188.9
199(13) 0.00592 173.7 188.8
197(13) 0.00592 173.6 189.0
184(12) 0.00694 173.5 189.5
173(12) 0.00694 173.4 190.0
188(12) 0.00694 173.3 190.6
190(12) 0.00694 173.2 191.3
174(12) 0.00694 173.1 191.8
184(12) 0.00694 173.0 192.1
198(13) 0.00592 172.9 192.3
196(13) 0.00592 172.8 192.5
187(12) 0.00694 172.7 192.7
182(12) 0.00694 172.6 193.2
172(12) 0.00694 172.5 194.0
185(12) 0.00694 172.4 195.3
205(13) 0.00592 172.3 197.2
202(13) 0.00592 172.2 199.6
210(13) 0.00592 172.1 202.5
196(13) 0.00592 172.0 205.9
197(13) 0.00592 171.9 209.5
184(13) 0.00592 171.8 213.0
225(14) 0.00510 171.7 216.1
211(13) 0.00592 171.6 218.4
215(14) 0.00510 171.6 219.7
233(14) 0.00510 171.5 219.5
228(14) 0.00510 171.4 218.1
203(13) 0.00592 171.3 215.9
230(14) 0.00510 171.2 213.2
208(13) 0.00592 171.1 210.4
219(14) 0.00510 171.0 208.0
221(14) 0.00510 170.9 206.0
224(14) 0.00510 170.8 204.5
205(13) 0.00592 170.7 203.7
204(13) 0.00592 170.6 203.3
195(13) 0.00592 170.5 203.3
204(13) 0.00592 170.4 203.4
197(13) 0.00592 170.4 203.3
209(13) 0.00592 170.3 203.0
199(13) 0.00592 170.2 202.2
203(13) 0.00592 170.1 201.0
205(13) 0.00592 170.0 199.6
199(13) 0.00592 169.9 198.1
191(13) 0.00592 169.8 196.8
192(13) 0.00592 169.7 195.8
196(13) 0.00592 169.6 195.2
200(13) 0.00592 169.5 194.9
179(12) 0.00694 169.5 195.2
191(13) 0.00592 169.4 195.7
205(13) 0.00592 169.3 196.5
189(13) 0.00592 169.2 197.4
203(13) 0.00592 169.1 198.1
203(13) 0.00592 169.0 198.3
215(14) 0.00510 168.9 198.1
212(13) 0.00592 168.8 197.3
227(14) 0.00510 168.8 196.0
197(13) 0.00592 168.7 194.5
192(13) 0.00592 168.6 193.0
180(12) 0.00694 168.5 191.5
189(13) 0.00592 168.4 190.3
181(12) 0.00694 168.3 189.3
185(13) 0.00592 168.2 188.6
187(13) 0.00592 168.1 188.2
185(13) 0.00592 168.1 187.9
198(13) 0.00592 168.0 187.8
188(13) 0.00592 167.9 187.7
201(13) 0.00592 167.8 187.5
196(13) 0.00592 167.7 187.1
180(12) 0.00694 167.6 186.6
180(12) 0.00694 167.5 186.1
207(13) 0.00592 167.5 185.6
192(13) 0.00592 167.4 185.3
185(13) 0.00592 167.3 185.3
175(12) 0.00694 167.2 185.6
201(13) 0.00592 167.1 186.3
197(13) 0.00592 167.0 187.4
190(13) 0.00592 166.9 188.9
214(14) 0.00510 166.9 190.8
199(13) 0.00592 166.8 193.0
193(13) 0.00592 166.7 195.5
213(13) 0.00592 166.6 198.0
191(13) 0.00592 166.5 200.4
205(13) 0.00592 166.4 202.5
195(13) 0.00592 166.4 204.1
221(14) 0.00510 166.3 205.2
212(13) 0.00592 166.2 205.7
188(13) 0.00592 166.1 205.9
190(13) 0.00592 166.0 206.0
203(13) 0.00592 165.9 206.4
199(13) 0.00592 165.9 207.1
193(13) 0.00592 165.8 208.4
242(14) 0.00510 165.7 210.1
240(14) 0.00510 165.6 212.4
218(14) 0.00510 165.5 214.9
221(14) 0.00510 165.5 217.4
221(14) 0.00510 165.4 219.6
234(14) 0.00510 165.3 221.0
222(14) 0.00510 165.2 221.2
221(14) 0.00510 165.1 220.3
209(13) 0.00592 165.1 218.1
218(14) 0.00510 165.0 214.9
248(15) 0.00444 164.9 211.2
227(14) 0.00510 164.8 207.2
209(13) 0.00592 164.7 203.4
211(13) 0.00592 164.7 199.9
211(13) 0.00592 164.6 196.9
211(13) 0.00592 164.5 194.5
195(13) 0.00592 164.4 192.6
161(12) 0.00694 164.3 191.4
168(12) 0.00694 164.3 190.7
182(12) 0.00694 164.2 190.3
211(13) 0.00592 164.1 190.1
179(12) 0.00694 164.0 189.9
198(13) 0.00592 163.9 189.5
208(13) 0.00592 163.9 188.8
176(12) 0.00694 163.8 187.8
193(13) 0.00592 163.7 186.5
193(13) 0.00592 163.6 185.1
201(13) 0.00592 163.5 183.6
183(13) 0.00592 163.5 182.2
158(12) 0.00694 163.4 180.9
184(13) 0.00592 163.3 179.9
186(13) 0.00592 163.2 179.0
194(13) 0.00592 163.2 178.3
185(13) 0.00592 163.1 177.8
163(12) 0.00694 163.0 177.4
174(12) 0.00694 162.9 177.1
165(12) 0.00694 162.8 176.7
189(13) 0.00592 162.8 176.3
187(13) 0.00592 162.7 175.8
180(12) 0.00694 162.6 175.1
191(13) 0.00592 162.5 174.4
190(13) 0.00592 162.5 173.7
169(12) 0.00694 162.4 173.0
178(12) 0.00694 162.3 172.4
160(12) 0.00694 162.2 171.8
158(12) 0.00694 162.2 171.3
160(12) 0.00694 162.1 171.0
158(12) 0.00694 162.0 170.7
156(12) 0.00694 161.9 170.7
165(12) 0.00694 161.9 170.7
164(12) 0.00694 161.8 171.0
184(13) 0.00592 161.7 171.5
168(12) 0.00694 161.6 172.1
173(12) 0.00694 161.6 173.1
185(13) 0.00592 161.5 174.2
191(13) 0.00592 161.4 175.7
189(13) 0.00592 161.3 177.4
188(13) 0.00592 161.3 179.4
188(13) 0.00592 161.2 181.7
202(13) 0.00592 161.1 184.1
184(13) 0.00592 161.0 186.7
160(12) 0.00694 161.0 189.3
186(13) 0.00592 160.9 191.8
179(12) 0.00694 160.8 193.9
185(13) 0.00592 160.8 195.5
185(13) 0.00592 160.7 196.4
206(13) 0.00592 160.6 196.7
197(13) 0.00592 160.5 196.4
190(13) 0.00592 160.5 195.7
175(12) 0.00694 160.4 194.8
199(13) 0.00592 160.3 193.9
192(13) 0.00592 160.2 193.2
186(13) 0.00592 160.2 192.9
190(13) 0.00592 160.1 193.2
179(12) 0.00694 160.0 193.9
173(12) 0.00694 160.0 195.2
202(13) 0.00592 159.9 196.9
209(13) 0.00592 159.8 199.0
195(13) 0.00592 159.7 201.3
192(13) 0.00592 159.7 203.6
188(13) 0.00592 159.6 205.5
196(13) 0.00592 159.5 206.8
204(13) 0.00592 159.5 207.2
219(14) 0.00510 159.4 206.8
210(13) 0.00592 159.3 205.6
218(14) 0.00510 159.2 203.8
215(14) 0.00510 159.2 201.7
205(13) 0.00592 159.1 199.6
199(13) 0.00592 159.0 197.6
211(14) 0.00510 159.0 196.0
179(12) 0.00694 158.9 194.8
203(13) 0.00592 158.8 194.0
173(12) 0.00694 158.8 193.7
199(13) 0.00592 158.7 193.7
208(13) 0.00592 158.6 194.1
204(13) 0.00592 158.5 194.8
197(13) 0.00592 158.5 195.7
174(12) 0.00694 158.4 196.7
199(13) 0.00592 158.3 197.9
196(13) 0.00592 158.3 199.4
200(13) 0.00592 158.2 201.2
213(14) 0.00510 158.1 203.4
208(13) 0.00592 158.1 206.1
223(14) 0.00510 158.0 209.2
243(15) 0.00444 157.9 212.7
230(14) 0.00510 157.9 216.5
226(14) 0.00510 157.8 220.2
227(14) 0.00510 157.7 223.6
231(14) 0.00510 157.7 226.4
220(14) 0.00510 157.6 228.1
236(14) 0.00510 157.5 228.7
237(14) 0.00510 157.5 228.2
235(14) 0.00510 157.4 226.9
269(15) 0.00444 157.3 225.1
253(15) 0.00444 157.3 223.4
246(15) 0.00444 157.2 221.9
237(14) 0.00510 157.1 221.0
223(14) 0.00510 157.1 220.8
234(14) 0.00510 157.0 221.4
232(14) 0.00510 156.9 222.6
242(14) 0.00510 156.9 224.4
228(14) 0.00510 156.8 226.4
222(14) 0.00510 156.7 228.2
229(14) 0.00510 156.7 229.5
225(14) 0.00510 156.6 229.8
233(14) 0.00510 156.5 228.8
231(14) 0.00510 156.5 226.6
206(13) 0.00592 156.4 223.1
237(14) 0.00510 156.3 218.9
221(13) 0.00592 156.3 214.1
216(13) 0.00592 156.2 209.2
214(13) 0.00592 156.2 204.4
204(13) 0.00592 156.1 200.0
193(12) 0.00694 156.0 196.0
189(12) 0.00694 156.0 192.6
181(12) 0.00694 155.9 189.8
192(12) 0.00694 155.8 187.6
179(12) 0.00694 155.8 185.9
174(12) 0.00694 155.7 184.7
186(12) 0.00694 155.6 183.9
192(12) 0.00694 155.6 183.3
170(12) 0.00694 155.5 182.9
183(12) 0.00694 155.5 182.5
170(12) 0.00694 155.4 182.2
171(12) 0.00694 155.3 181.9
197(12) 0.00694 155.3 181.7
177(12) 0.00694 155.2 181.6
184(12) 0.00694 155.1 181.7
197(12) 0.00694 155.1 181.9
179(12) 0.00694 155.0 182.4
181(12) 0.00694 155.0 183.2
185(12) 0.00694 154.9 184.1
177(12) 0.00694 154.8 185.2
184(12) 0.00694 154.8 186.4
177(12) 0.00694 154.7 187.6
194(12) 0.00694 154.7 188.7
193(12) 0.00694 154.6 189.6
191(12) 0.00694 154.5 190.4
195(12) 0.00694 154.5 191.1
193(12) 0.00694 154.4 191.7
209(13) 0.00592 154.4 192.5
186(12) 0.00694 154.3 193.5
202(13) 0.00592 154.2 194.8
200(13) 0.00592 154.2 196.5
200(13) 0.00592 154.1 198.4
198(12) 0.00694 154.1 200.6
191(12) 0.00694 154.0 203.0
189(12) 0.00694 153.9 205.2
202(13) 0.00592 153.9 207.2
223(13) 0.00592 153.8 208.6
200(13) 0.00592 153.8 209.2
197(12) 0.00694 153.7 208.9
209(13) 0.00592 153.7 207.7
191(12) 0.00694 153.6 205.7
203(13) 0.00592 153.5 203.1
210(13) 0.00592 153.5 200.3
204(13) 0.00592 153.4 197.3
182(12) 0.00694 153.4 194.5
199(13) 0.00592 153.3 192.0
201(13) 0.00592 153.3 189.7
178(12) 0.00694 153.2 187.9
185(12) 0.00694 153.1 186.4
196(12) 0.00694 153.1 185.2
211(13) 0.00592 153.0 184.2
181(12) 0.00694 153.0 183.4
172(12) 0.00694 152.9 182.5
177(12) 0.00694 152.9 181.6
178(12) 0.00694 152.8 180.6
181(12) 0.00694 152.8 179.4
189(12) 0.00694 152.7 178.1
182(12) 0.00694 152.6 176.6
190(12) 0.00694 152.6 175.2
175(12) 0.00694 152.5 173.8
182(12) 0.00694 152.5 172.5
162(11) 0.00826 152.4 171.3
171(12) 0.00694 152.4 170.2
164(11) 0.00826 152.3 169.3
166(11) 0.00826 152.3 168.5
168(11) 0.00826 152.2 167.8
159(11) 0.00826 152.2 167.2
164(11) 0.00826 152.1 166.7
173(12) 0.00694 152.1 166.2
139(10) 0.01000 152.0 165.8
150(11) 0.00826 152.0 165.3
170(12) 0.00694 151.9 164.8
168(11) 0.00826 151.8 164.3
167(11) 0.00826 151.8 163.8
173(12) 0.00694 151.7 163.3
164(11) 0.00826 151.7 162.8
145(11) 0.00826 151.6 162.4
152(11) 0.00826 151.6 162.1
172(12) 0.00694 151.5 161.9
154(11) 0.00826 151.5 161.8
175(12) 0.00694 151.4 161.8
162(11) 0.00826 151.4 161.9
166(11) 0.00826 151.3 162.2
174(12) 0.00694 151.3 162.6
165(11) 0.00826 151.2 163.3
171(12) 0.00694 151.2 164.1
178(12) 0.00694 151.1 165.2
156(11) 0.00826 151.1 166.6
181(12) 0.00694 151.0 168.2
146(11) 0.00826 151.0 170.1
173(12) 0.00694 150.9 172.4
189(12) 0.00694 150.9 175.0
185(17) 0.003460 150.9 177.8
179(12) 0.00694 150.8 180.9
184(12) 0.00694 150.8 184.1
195(12) 0.00694 150.7 187.3
187(12) 0.00694 150.7 190.4
191(12) 0.00694 150.6 193.4
198(12) 0.00694 150.6 195.8
204(13) 0.00592 150.5 197.7
187(12) 0.00694 150.5 198.9
191(12) 0.00694 150.4 199.3
211(13) 0.00592 150.4 198.9
218(13) 0.00592 150.3 197.9
190(12) 0.00694 150.3 196.5
196(12) 0.00694 150.3 194.8
179(12) 0.00694 150.2 193.0
181(12) 0.00694 150.2 191.3
196(12) 0.00694 150.1 189.8
185(12) 0.00694 150.1 188.4
192(12) 0.00694 150.0 187.3
197(12) 0.00694 150.0 186.3
193(12) 0.00694 149.9 185.4
193(12) 0.00694 149.9 184.4
187(12) 0.00694 149.9 183.4
188(12) 0.00694 149.8 182.3
183(12) 0.00694 149.8 181.0
184(12) 0.00694 149.7 179.6
174(12) 0.00694 149.7 178.0
185(12) 0.00694 149.6 176.3
186(12) 0.00694 149.6 174.6
189(12) 0.00694 149.6 173.0
180(12) 0.00694 149.5 171.5
161(11) 0.00826 149.5 170.0
156(11) 0.00826 149.4 168.8
159(11) 0.00826 149.4 167.6
169(11) 0.00826 149.4 166.7
177(12) 0.00694 149.3 165.9
164(11) 0.00826 149.3 165.3
172(12) 0.00694 149.2 164.9
165(11) 0.00826 149.2 164.7
167(11) 0.00826 149.2 164.6
151(11) 0.00826 149.1 164.7
161(11) 0.00826 149.1 165.1
159(11) 0.00826 149.1 165.7
177(12) 0.00694 149.0 166.6
167(11) 0.00826 149.0 167.7
159(11) 0.00826 148.9 169.0
175(12) 0.00694 148.9 170.5
179(12) 0.00694 148.9 172.3
167(11) 0.00826 148.8 174.2
167(11) 0.00826 148.8 176.1
176(12) 0.00694 148.8 178.0
184(12) 0.00694 148.7 179.9
184(12) 0.00694 148.7 181.5
176(12) 0.00694 148.7 182.8
179(12) 0.00694 148.6 183.7
185(12) 0.00694 148.6 184.2
165(11) 0.00826 148.6 184.3
169(11) 0.00826 148.5 184.1
160(11) 0.00826 148.5 183.5
176(12) 0.00694 148.5 182.9
185(12) 0.00694 148.4 182.1
185(12) 0.00694 148.4 181.4
184(12) 0.00694 148.4 180.8
180(12) 0.00694 148.3 180.4
194(12) 0.00694 148.3 180.1
183(12) 0.00694 148.3 179.9
166(11) 0.00826 148.2 179.8
177(12) 0.00694 148.2 179.8
180(12) 0.00694 148.2 179.8
173(12) 0.00694 148.1 179.7
188(12) 0.00694 148.1 179.5
185(12) 0.00694 148.1 179.2
172(12) 0.00694 148.0 178.8
190(12) 0.00694 148.0 178.2
177(12) 0.00694 148.0 177.6
165(11) 0.00826 148.0 177.0
162(11) 0.00826 147.9 176.4
174(12) 0.00694 147.9 175.9
172(12) 0.00694 147.9 175.6
164(11) 0.00826 147.8 175.5
177(12) 0.00694 147.8 175.5
177(12) 0.00694 147.8 175.6
167(11) 0.00826 147.8 175.9
176(12) 0.00694 147.7 176.2
173(12) 0.00694 147.7 176.5
169(11) 0.00826 147.7 176.7
183(12) 0.00694 147.7 176.7
191(12) 0.00694 147.6 176.5
183(12) 0.00694 147.6 176.1
184(12) 0.00694 147.6 175.5
172(12) 0.00694 147.6 174.9
177(12) 0.00694 147.5 174.2
175(12) 0.00694 147.5 173.4
168(11) 0.00826 147.5 172.8
174(12) 0.00694 147.5 172.2
169(11) 0.00826 147.4 171.7
166(11) 0.00826 147.4 171.4
166(11) 0.00826 147.4 171.2
173(12) 0.00694 147.4 171.1
174(12) 0.00694 147.4 171.0
175(12) 0.00694 147.3 170.9
165(11) 0.00826 147.3 170.8
171(11) 0.00826 147.3 170.5
176(12) 0.00694 147.3 170.1
166(11) 0.00826 147.3 169.5
154(11) 0.00826 147.2 168.8
163(11) 0.00826 147.2 168.0
155(11) 0.00826 147.2 167.2
155(11) 0.00826 147.2 166.3
163(11) 0.00826 147.2 165.5
163(11) 0.00826 147.1 164.9
168(11) 0.00826 147.1 164.3
158(11) 0.00826 147.1 163.8
161(11) 0.00826 147.1 163.5
161(11) 0.00826 147.1 163.3
158(11) 0.00826 147.1 163.3
165(11) 0.00826 147.0 163.4
164(11) 0.00826 147.0 163.6
153(11) 0.00826 147.0 163.9
169(11) 0.00826 147.0 164.2
162(11) 0.00826 147.0 164.7
162(11) 0.00826 147.0 165.2
171(11) 0.00826 147.0 165.8
180(12) 0.00694 146.9 166.5
177(12) 0.00694 146.9 167.3
173(11) 0.00826 146.9 168.2
161(11) 0.00826 146.9 169.1
171(11) 0.00826 146.9 170.1
184(12) 0.00694 146.9 171.1
188(12) 0.00694 146.9 172.1
177(12) 0.00694 146.9 173.0
174(12) 0.00694 146.8 173.9
182(12) 0.00694 146.8 174.6
177(12) 0.00694 146.8 175.3
172(11) 0.00826 146.8 175.9
200(12) 0.00694 146.8 176.6
186(12) 0.00694 146.8 177.3
174(11) 0.00826 146.8 178.0
185(12) 0.00694 146.8 179.0
185(12) 0.00694 146.8 180.1
177(12) 0.00694 146.8 181.5
175(11) 0.00826 146.8 183.0
181(12) 0.00694 146.8 184.7
193(12) 0.00694 146.8 186.5
188(12) 0.00694 146.7 188.4
190(12) 0.00694 146.7 190.2
195(12) 0.00694 146.7 191.8
196(12) 0.00694 146.7 193.1
178(12) 0.00694 146.7 193.9
178(12) 0.00694 146.7 194.2
194(12) 0.00694 146.7 193.8
187(12) 0.00694 146.7 192.9
192(12) 0.00694 146.7 191.3
196(12) 0.00694 146.7 189.3
181(12) 0.00694 146.7 187.0
189(12) 0.00694 146.7 184.4
181(12) 0.00694 146.7 181.7
194(12) 0.00694 146.7 179.0
191(12) 0.00694 146.7 176.3
203(12) 0.00694 146.7 173.9
203(12) 0.00694 146.7 171.6
195(12) 0.00694 146.7 169.6
170(11) 0.00826 146.7 167.9
168(11) 0.00826 146.7 166.4
180(12) 0.00694 146.7 165.3
179(12) 0.00694 146.7 164.4
180(12) 0.00694 146.7 163.8
161(11) 0.00826 146.7 163.5
170(11) 0.00826 146.7 163.5
190(12) 0.00694 146.7 163.8
201(12) 0.00694 146.7 164.4
181(12) 0.00694 146.7 165.2
162(11) 0.00826 146.7 166.3
160(11) 0.00826 146.7 167.6
159(11) 0.00826 146.7 169.2
180(12) 0.00694 146.7 171.0
185(12) 0.00694 146.8 173.0
173(11) 0.00826 146.8 175.2
163(11) 0.00826 146.8 177.5
194(12) 0.00694 146.8 179.8
189(12) 0.00694 146.8 182.2
201(12) 0.00694 146.8 184.6
203(12) 0.00694 146.8 186.8
194(12) 0.00694 146.8 188.8
201(12) 0.00694 146.8 190.5
202(12) 0.00694 146.8 191.9
205(13) 0.00592 146.8 193.0
191(12) 0.00694 146.8 194.0
173(11) 0.00826 146.9 194.7
179(12) 0.00694 146.9 195.5
196(12) 0.00694 146.9 196.2
212(13) 0.00592 146.9 197.0
221(13) 0.00592 146.9 197.8
225(13) 0.00592 146.9 198.7
202(12) 0.00694 146.9 199.5
198(12) 0.00694 146.9 200.3
192(12) 0.00694 147.0 200.9
197(12) 0.00694 147.0 201.3
207(13) 0.00592 147.0 201.3
189(12) 0.00694 147.0 201.0
194(12) 0.00694 147.0 200.1
191(13) 0.00592 147.0 198.9
205(13) 0.00592 147.0 197.2
184(12) 0.00694 147.1 195.2
187(12) 0.00694 147.1 193.0
207(13) 0.00592 147.1 190.7
201(13) 0.00592 147.1 188.3
175(12) 0.00694 147.1 186.1
197(13) 0.00592 147.2 183.9
176(12) 0.00694 147.2 182.0
186(12) 0.00694 147.2 180.2
178(12) 0.00694 147.2 178.7
173(12) 0.00694 147.2 177.5
186(12) 0.00694 147.3 176.5
184(12) 0.00694 147.3 175.7
173(12) 0.00694 147.3 175.3
170(12) 0.00694 147.3 175.2
180(12) 0.00694 147.3 175.3
190(13) 0.00592 147.4 175.8
186(12) 0.00694 147.4 176.6
193(13) 0.00592 147.4 177.8
182(12) 0.00694 147.4 179.2
186(12) 0.00694 147.5 180.9
159(11) 0.00826 147.5 182.8
179(12) 0.00694 147.5 184.9
188(12) 0.00694 147.5 187.1
200(13) 0.00592 147.6 189.4
191(13) 0.00592 147.6 191.6
199(13) 0.00592 147.6 193.7
194(13) 0.00592 147.6 195.6
187(12) 0.00694 147.7 197.1
203(13) 0.00592 147.7 198.3
203(13) 0.00592 147.7 199.1
197(13) 0.00592 147.8 199.5
210(13) 0.00592 147.8 199.4
206(13) 0.00592 147.8 199.0
207(13) 0.00592 147.8 198.3
195(13) 0.00592 147.9 197.4
190(13) 0.00592 147.9 196.4
206(13) 0.00592 147.9 195.3
192(13) 0.00592 148.0 194.4
192(13) 0.00592 148.0 193.6
202(13) 0.00592 148.0 192.9
190(13) 0.00592 148.1 192.5
184(12) 0.00694 148.1 192.1
181(12) 0.00694 148.1 192.0
191(13) 0.00592 148.2 191.9
172(12) 0.00694 148.2 191.8
180(12) 0.00694 148.2 191.9
208(13) 0.00592 148.3 191.9
187(12) 0.00694 148.3 192.0
199(13) 0.00592 148.3 192.1
216(13) 0.00592 148.4 192.3
194(13) 0.00592 148.4 192.7
179(12) 0.00694 148.4 193.2
207(13) 0.00592 148.5 193.9
199(13) 0.00592 148.5 194.8
202(13) 0.00592 148.6 195.9
180(12) 0.00694 148.6 197.2
184(12) 0.00694 148.6 198.7
203(13) 0.00592 148.7 200.3
185(12) 0.00694 148.7 201.9
195(13) 0.00592 148.8 203.5
213(13) 0.00592 148.8 205.0
197(13) 0.00592 148.8 206.3
213(13) 0.00592 148.9 207.4
198(13) 0.00592 148.9 208.2
197(13) 0.00592 149.0 208.8
217(13) 0.00592 149.0 209.3
198(13) 0.00592 149.1 209.8
207(13) 0.00592 149.1 210.2
225(14) 0.00510 149.1 210.8
229(14) 0.00510 149.2 211.5
245(14) 0.00510 149.2 212.4
217(13) 0.00592 149.3 213.5
207(13) 0.00592 149.3 214.9
212(13) 0.00592 149.4 216.3
231(14) 0.00510 149.4 217.9
229(14) 0.00510 149.5 219.5
200(13) 0.00592 149.5 221.0
210(13) 0.00592 149.6 222.3
216(13) 0.00592 149.6 223.3
229(14) 0.00510 149.7 223.9
232(14) 0.00510 149.7 224.1
222(14) 0.00510 149.7 223.8
227(14) 0.00510 149.8 223.0
213(13) 0.00592 149.8 221.8
208(13) 0.00592 149.9 220.3
223(14) 0.00510 149.9 218.4
220(13) 0.00592 150.0 216.4
226(14) 0.00510 150.1 214.3
222(14) 0.00510 150.1 212.2
221(13) 0.00592 150.2 210.2
212(13) 0.00592 150.2 208.2
215(13) 0.00592 150.3 206.4
205(13) 0.00592 150.3 204.6
184(12) 0.00694 150.4 202.9
191(13) 0.00592 150.4 201.3
210(13) 0.00592 150.5 199.7
196(13) 0.00592 150.5 198.1
185(10) 0.01000 150.6 196.5
196(13) 0.00592 150.6 195.0
181(13) 0.00592 150.7 193.4
181(13) 0.00592 150.8 191.8
179(13) 0.00592 150.8 190.2
173(12) 0.00694 150.9 188.8
189(13) 0.00592 150.9 187.3
189(13) 0.00592 151.0 186.0
200(13) 0.00592 151.0 184.8
173(12) 0.00694 151.1 183.8
189(13) 0.00592 151.2 182.8
180(13) 0.00592 151.2 182.0
201(13) 0.00592 151.3 181.3
177(13) 0.00592 151.3 180.7
172(12) 0.00694 151.4 180.1
172(12) 0.00694 151.5 179.5
192(13) 0.00592 151.5 179.0
159(12) 0.00694 151.6 178.4
182(13) 0.00592 151.6 177.8
191(13) 0.00592 151.7 177.2
199(13) 0.00592 151.8 176.6
188(13) 0.00592 151.8 175.9
202(13) 0.00592 151.9 175.2
194(13) 0.00592 151.9 174.6
168(12) 0.00694 152.0 174.0
173(12) 0.00694 152.1 173.5
178(13) 0.00592 152.1 173.1
183(13) 0.00592 152.2 172.7
153(12) 0.00694 152.3 172.5
147(12) 0.00694 152.3 172.3
171(12) 0.00694 152.4 172.2
174(13) 0.00592 152.5 172.1
157(12) 0.00694 152.5 172.1
157(12) 0.00694 152.6 172.1
173(12) 0.00694 152.7 172.1
187(13) 0.00592 152.7 172.1
159(12) 0.00694 152.8 172.1
183(13) 0.00592 152.9 172.0
188(13) 0.00592 152.9 171.9
170(12) 0.00694 153.0 171.7
189(13) 0.00592 153.1 171.4
171(12) 0.00694 153.1 171.2
182(13) 0.00592 153.2 170.9
182(13) 0.00592 153.3 170.7
170(12) 0.00694 153.4 170.5
157(12) 0.00694 153.4 170.3
181(13) 0.00592 153.5 170.3
159(12) 0.00694 153.6 170.3
165(12) 0.00694 153.6 170.4
171(12) 0.00694 153.7 170.6
155(12) 0.00694 153.8 170.9
168(12) 0.00694 153.8 171.3
160(12) 0.00694 153.9 171.8
162(12) 0.00694 154.0 172.3
180(13) 0.00592 154.1 173.0
178(13) 0.00592 154.1 173.7
177(13) 0.00592 154.2 174.5
161(12) 0.00694 154.3 175.3
190(13) 0.00592 154.4 176.2
177(13) 0.00592 154.4 177.1
193(13) 0.00592 154.5 178.0
174(13) 0.00592 154.6 178.9
176(13) 0.00592 154.7 179.8
183(13) 0.00592 154.7 180.6
180(13) 0.00592 154.8 181.4
176(13) 0.00592 154.9 182.0
166(12) 0.00694 155.0 182.4
169(12) 0.00694 155.0 182.7
168(12) 0.00694 155.1 182.8
200(13) 0.00592 155.2 182.7
194(13) 0.00592 155.3 182.4
169(12) 0.00694 155.4 182.0
192(13) 0.00592 155.4 181.4
181(13) 0.00592 155.5 180.8
174(12) 0.00694 155.6 180.2
181(13) 0.00592 155.7 179.5
181(13) 0.00592 155.7 178.9
179(13) 0.00592 155.8 178.4
167(12) 0.00694 155.9 177.9
187(13) 0.00592 156.0 177.6
183(13) 0.00592 156.1 177.4
192(13) 0.00592 156.1 177.4
186(13) 0.00592 156.2 177.6
184(13) 0.00592 156.3 177.9
168(12) 0.00694 156.4 178.5
169(12) 0.00694 156.5 179.2
176(13) 0.00592 156.6 180.2
183(13) 0.00592 156.6 181.4
170(12) 0.00694 156.7 182.9
185(13) 0.00592 156.8 184.5
210(14) 0.00510 156.9 186.5
169(12) 0.00694 157.0 188.7
196(13) 0.00592 157.0 191.1
210(14) 0.00510 157.1 193.8
189(13) 0.00592 157.2 196.8
195(13) 0.00592 157.3 200.0
221(14) 0.00510 157.4 203.4
214(14) 0.00510 157.5 207.0
236(15) 0.00444 157.5 210.8
209(14) 0.00510 157.6 214.7
222(14) 0.00510 157.7 218.7
196(13) 0.00592 157.8 222.6
204(13) 0.00592 157.9 226.5
251(14) 0.00510 158.0 230.1
206(13) 0.00592 158.1 233.4
233(14) 0.00510 158.1 236.3
199(13) 0.00592 158.2 238.8
235(14) 0.00510 158.3 240.6
231(14) 0.00510 158.4 241.9
247(14) 0.00510 158.5 242.5
232(14) 0.00510 158.6 242.5
214(13) 0.00592 158.7 242.0
247(14) 0.00510 158.7 241.0
269(15) 0.00444 158.8 239.6
267(15) 0.00444 158.9 238.0
230(14) 0.00510 159.0 236.2
240(14) 0.00510 159.1 234.3
243(14) 0.00510 159.2 232.4
245(14) 0.00510 159.3 230.6
230(14) 0.00510 159.4 228.8
210(13) 0.00592 159.4 227.1
212(13) 0.00592 159.5 225.6
217(13) 0.00592 159.6 224.2
216(13) 0.00592 159.7 222.8
213(13) 0.00592 159.8 221.6
237(14) 0.00510 159.9 220.4
229(14) 0.00510 160.0 219.4
238(14) 0.00510 160.1 218.4
217(13) 0.00592 160.2 217.5
214(13) 0.00592 160.2 216.8
232(14) 0.00510 160.3 216.1
213(13) 0.00592 160.4 215.5
218(13) 0.00592 160.5 215.1
222(14) 0.00510 160.6 214.7
233(14) 0.00510 160.7 214.5
213(13) 0.00592 160.8 214.3
217(13) 0.00592 160.9 214.2
223(14) 0.00510 161.0 214.0
200(13) 0.00592 161.1 213.8
216(13) 0.00592 161.1 213.6
218(13) 0.00592 161.2 213.1
235(14) 0.00510 161.3 212.5
198(13) 0.00592 161.4 211.7
208(13) 0.00592 161.5 210.7
197(13) 0.00592 161.6 209.5
212(13) 0.00592 161.7 208.1
188(13) 0.00592 161.8 206.5
219(14) 0.00510 161.9 204.8
223(14) 0.00510 162.0 203.0
205(13) 0.00592 162.1 201.2
201(13) 0.00592 162.1 199.5
167(12) 0.00694 162.2 197.7
188(13) 0.00592 162.3 196.0
175(12) 0.00694 162.4 194.4
202(13) 0.00592 162.5 193.0
201(13) 0.00592 162.6 191.6
194(13) 0.00592 162.7 190.4
199(13) 0.00592 162.8 189.3
185(12) 0.00694 162.9 188.4
190(13) 0.00592 163.0 187.6
186(12) 0.00694 163.1 186.8
177(12) 0.00694 163.2 186.3
196(13) 0.00592 163.3 185.8
189(13) 0.00592 163.3 185.3
179(12) 0.00694 163.4 185.0
196(13) 0.00592 163.5 184.7
190(13) 0.00592 163.6 184.4
186(12) 0.00694 163.7 184.2
201(13) 0.00592 163.8 184.0
192(13) 0.00592 163.9 183.9
170(12) 0.00694 164.0 183.8
176(12) 0.00694 164.1 183.7
166(12) 0.00694 164.2 183.7
177(12) 0.00694 164.3 183.7
179(12) 0.00694 164.4 183.8
192(13) 0.00592 164.5 184.0
209(13) 0.00592 164.5 184.2
173(12) 0.00694 164.6 184.5
181(12) 0.00694 164.7 184.8
170(12) 0.00694 164.8 185.3
166(12) 0.00694 164.9 185.8
191(13) 0.00592 165.0 186.3
187(13) 0.00592 165.1 187.0
215(13) 0.00592 165.2 187.7
188(13) 0.00592 165.3 188.6
200(13) 0.00592 165.4 189.5
190(13) 0.00592 165.5 190.6
210(13) 0.00592 165.6 191.7
185(12) 0.00694 165.7 192.9
199(13) 0.00592 165.8 194.3
224(14) 0.00510 165.8 195.7
196(13) 0.00592 165.9 197.2
213(13) 0.00592 166.0 198.7
204(13) 0.00592 166.1 200.3
218(13) 0.00592 166.2 201.8
188(13) 0.00592 166.3 203.4
204(13) 0.00592 166.4 204.9
192(13) 0.00592 166.5 206.2
216(13) 0.00592 166.6 207.5
221(14) 0.00510 166.7 208.5
226(19) 0.002770 166.8 209.4
200(13) 0.00592 166.9 210.0
206(13) 0.00592 167.0 210.4
224(14) 0.00510 167.1 210.6
229(14) 0.00510 167.1 210.6
200(13) 0.00592 167.2 210.3
197(13) 0.00592 167.3 209.9
209(13) 0.00592 167.4 209.3
218(13) 0.00592 167.5 208.6
220(13) 0.00592 167.6 207.8
231(14) 0.00510 167.7 207.0
192(13) 0.00592 167.8 206.2
209(13) 0.00592 167.9 205.4
209(13) 0.00592 168.0 204.6
200(13) 0.00592 168.1 204.0
207(13) 0.00592 168.2 203.4
179(12) 0.00694 168.2 202.9
206(13) 0.00592 168.3 202.5
204(13) 0.00592 168.4 202.2
186(12) 0.00694 168.5 202.0
197(13) 0.00592 168.6 201.9
213(13) 0.00592 168.7 201.9
216(13) 0.00592 168.8 201.9
188(12) 0.00694 168.9 202.0
214(13) 0.00592 169.0 202.1
234(14) 0.00510 169.1 202.3
229(14) 0.00510 169.2 202.5
197(13) 0.00592 169.2 202.7
225(14) 0.00510 169.3 203.0
216(13) 0.00592 169.4 203.3
206(13) 0.00592 169.5 203.7
187(12) 0.00694 169.6 204.1
206(13) 0.00592 169.7 204.6
209(13) 0.00592 169.8 205.1
218(13) 0.00592 169.9 205.7
203(13) 0.00592 170.0 206.3
203(13) 0.00592 170.1 206.9
218(13) 0.00592 170.1 207.5
213(13) 0.00592 170.2 208.0
223(13) 0.00592 170.3 208.5
213(13) 0.00592 170.4 209.0
216(13) 0.00592 170.5 209.4
198(13) 0.00592 170.6 209.7
210(13) 0.00592 170.7 209.9
216(13) 0.00592 170.8 210.0
215(13) 0.00592 170.9 210.1
220(13) 0.00592 171.0 210.1
228(14) 0.00510 171.0 210.1
225(14) 0.00510 171.1 210.1
223(13) 0.00592 171.2 210.1
226(14) 0.00510 171.3 210.1
228(14) 0.00510 171.4 210.2
223(13) 0.00592 171.5 210.3
235(14) 0.00510 171.6 210.5
198(13) 0.00592 171.7 210.7
209(13) 0.00592 171.7 211.1
208(13) 0.00592 171.8 211.5
231(14) 0.00510 171.9 211.9
226(14) 0.00510 172.0 212.5
225(14) 0.00510 172.1 213.0
216(13) 0.00592 172.2 213.7
221(13) 0.00592 172.3 214.4
234(14) 0.00510 172.4 215.2
213(13) 0.00592 172.4 216.0
208(13) 0.00592 172.5 217.0
221(13) 0.00592 172.6 218.1
232(14) 0.00510 172.7 219.3
220(13) 0.00592 172.8 220.6
231(14) 0.00510 172.9 222.1
223(13) 0.00592 173.0 223.7
232(14) 0.00510 173.0 225.5
216(13) 0.00592 173.1 227.4
245(14) 0.00510 173.2 229.4
257(14) 0.00510 173.3 231.5
269(15) 0.00444 173.4 233.7
256(14) 0.00510 173.5 235.9
220(13) 0.00592 173.6 238.0
226(14) 0.00510 173.6 240.1
233(14) 0.00510 173.7 242.0
238(14) 0.00510 173.8 243.8
243(14) 0.00510 173.9 245.3
248(14) 0.00510 174.0 246.5
260(15) 0.00444 174.1 247.4
254(14) 0.00510 174.1 247.9
245(14) 0.00510 174.2 248.0
248(14) 0.00510 174.3 247.7
253(14) 0.00510 174.4 247.1
233(14) 0.00510 174.5 246.0
234(14) 0.00510 174.6 244.7
260(15) 0.00444 174.6 243.0
245(14) 0.00510 174.7 241.1
243(14) 0.00510 174.8 239.0
235(14) 0.00510 174.9 236.7
246(14) 0.00510 175.0 234.3
236(14) 0.00510 175.1 231.9
251(14) 0.00510 175.1 229.5
233(14) 0.00510 175.2 227.1
229(14) 0.00510 175.3 224.8
236(14) 0.00510 175.4 222.6
224(13) 0.00592 175.5 220.5
201(11) 0.00826 175.6 218.5
215(13) 0.00592 175.6 216.6
229(14) 0.00510 175.7 214.9
241(14) 0.00510 175.8 213.4
234(14) 0.00510 175.9 212.0
222(14) 0.00510 176.0 210.8
208(13) 0.00592 176.0 209.7
203(13) 0.00592 176.1 208.8
216(13) 0.00592 176.2 208.1
213(13) 0.00592 176.3 207.6
198(13) 0.00592 176.4 207.2
202(13) 0.00592 176.5 207.0
207(13) 0.00592 176.5 206.9
200(13) 0.00592 176.6 207.0
192(13) 0.00592 176.7 207.2
194(13) 0.00592 176.8 207.5
202(13) 0.00592 176.9 208.0
220(13) 0.00592 176.9 208.6
198(13) 0.00592 177.0 209.2
193(13) 0.00592 177.1 210.0
208(13) 0.00592 177.2 210.7
194(13) 0.00592 177.3 211.6
198(13) 0.00592 177.3 212.5
208(13) 0.00592 177.4 213.3
209(13) 0.00592 177.5 214.2
225(14) 0.00510 177.6 215.1
210(13) 0.00592 177.7 215.9
224(14) 0.00510 177.7 216.7
238(14) 0.00510 177.8 217.5
221(13) 0.00592 177.9 218.3
220(13) 0.00592 178.0 219.0
214(13) 0.00592 178.1 219.7
230(14) 0.00510 178.1 220.3
235(14) 0.00510 178.2 221.0
244(14) 0.00510 178.3 221.6
219(13) 0.00592 178.4 222.3
225(14) 0.00510 178.4 222.9
209(13) 0.00592 178.5 223.6
224(14) 0.00510 178.6 224.3
236(14) 0.00510 178.7 225.0
242(14) 0.00510 178.8 225.7
234(14) 0.00510 178.8 226.4
227(14) 0.00510 178.9 227.1
239(14) 0.00510 179.0 227.8
216(13) 0.00592 179.1 228.4
222(14) 0.00510 179.2 228.9
235(14) 0.00510 179.2 229.4
228(14) 0.00510 179.3 229.8
242(14) 0.00510 179.4 230.0
220(13) 0.00592 179.5 230.1
226(14) 0.00510 179.6 230.1
219(13) 0.00592 179.6 229.9
209(13) 0.00592 179.7 229.6
221(14) 0.00510 179.8 229.2
235(14) 0.00510 179.9 228.6
227(14) 0.00510 180.0 227.9
235(14) 0.00510 180.0 227.1
219(13) 0.00592 180.1 226.2
199(13) 0.00592 180.2 225.3
208(13) 0.00592 180.3 224.3
216(13) 0.00592 180.4 223.4
212(13) 0.00592 180.4 222.4
200(13) 0.00592 180.5 221.5
212(13) 0.00592 180.6 220.7
224(14) 0.00510 180.7 219.8
221(13) 0.00592 180.8 219.1
210(13) 0.00592 180.8 218.4
226(14) 0.00510 180.9 217.7
224(14) 0.00510 181.0 217.1
201(13) 0.00592 181.1 216.6
204(13) 0.00592 181.2 216.1
222(14) 0.00510 181.3 215.6
210(13) 0.00592 181.3 215.1
179(12) 0.00694 181.4 214.7
199(13) 0.00592 181.5 214.2
183(12) 0.00694 181.6 213.8
192(13) 0.00592 181.7 213.3
193(13) 0.00592 181.8 212.9
202(13) 0.00592 181.8 212.4
209(13) 0.00592 181.9 211.9
205(13) 0.00592 182.0 211.4
210(13) 0.00592 182.1 210.9
220(13) 0.00592 182.2 210.4
217(13) 0.00592 182.3 209.9
219(13) 0.00592 182.3 209.4
199(13) 0.00592 182.4 209.0
205(13) 0.00592 182.5 208.5
190(13) 0.00592 182.6 208.2
212(13) 0.00592 182.7 207.8
208(13) 0.00592 182.8 207.5
197(13) 0.00592 182.9 207.3
201(13) 0.00592 183.0 207.0
222(14) 0.00510 183.0 206.8
221(14) 0.00510 183.1 206.7
217(13) 0.00592 183.2 206.5
205(13) 0.00592 183.3 206.4
199(13) 0.00592 183.4 206.3
189(13) 0.00592 183.5 206.3
186(12) 0.00694 183.6 206.2
201(13) 0.00592 183.7 206.1
221(13) 0.00592 183.8 206.0
199(13) 0.00592 183.9 206.0
187(13) 0.00592 183.9 205.9
206(13) 0.00592 184.0 205.8
208(13) 0.00592 184.1 205.7
212(14) 0.00510 184.2 205.7
213(14) 0.00510 184.3 205.6
220(14) 0.00510 184.4 205.5
201(13) 0.00592 184.5 205.5
198(13) 0.00592 184.6 205.4
185(13) 0.00592 184.7 205.4
188(13) 0.00592 184.8 205.3
206(13) 0.00592 184.9 205.3
192(13) 0.00592 185.0 205.3
186(13) 0.00592 185.1 205.2
203(13) 0.00592 185.2 205.2
210(13) 0.00592 185.3 205.2
204(13) 0.00592 185.4 205.2
200(13) 0.00592 185.5 205.2
187(13) 0.00592 185.6 205.2
182(13) 0.00592 185.7 205.3
194(13) 0.00592 185.8 205.3
222(14) 0.00510 185.9 205.4
233(14) 0.00510 186.0 205.5
223(14) 0.00510 186.1 205.6
184(13) 0.00592 186.2 205.7
197(13) 0.00592 186.3 205.9
198(13) 0.00592 186.4 206.1
202(13) 0.00592 186.6 206.3
196(13) 0.00592 186.7 206.6
206(13) 0.00592 186.8 206.9
221(14) 0.00510 186.9 207.3
215(14) 0.00510 187.0 207.6
214(14) 0.00510 187.1 208.1
208(13) 0.00592 187.2 208.6
207(13) 0.00592 187.3 209.1
216(14) 0.00510 187.5 209.7
206(13) 0.00592 187.6 210.3
217(14) 0.00510 187.7 211.0
212(14) 0.00510 187.8 211.7
216(14) 0.00510 187.9 212.5
221(14) 0.00510 188.1 213.3
235(14) 0.00510 188.2 214.2
205(13) 0.00592 188.3 215.1
230(14) 0.00510 188.4 216.0
240(14) 0.00510 188.6 217.0
229(14) 0.00510 188.7 218.0
233(14) 0.00510 188.8 219.0
223(14) 0.00510 188.9 220.1
249(15) 0.00444 189.1 221.2
237(14) 0.00510 189.2 222.4
230(14) 0.00510 189.3 223.5
232(14) 0.00510 189.5 224.7
243(14) 0.00510 189.6 225.9
244(14) 0.00510 189.7 227.2
217(14) 0.00510 189.9 228.4
229(14) 0.00510 190.0 229.7
244(14) 0.00510 190.2 230.9
249(15) 0.00444 190.3 232.2
244(14) 0.00510 190.5 233.4
246(14) 0.00510 190.6 234.5
268(15) 0.00444 190.7 235.6
239(14) 0.00510 190.9 236.7
254(15) 0.00444 191.0 237.6
254(15) 0.00444 191.2 238.4
268(15) 0.00444 191.3 239.2
249(15) 0.00444 191.5 239.8
257(15) 0.00444 191.7 240.2
237(14) 0.00510 191.8 240.6
243(14) 0.00510 192.0 240.7
233(14) 0.00510 192.1 240.7
257(15) 0.00444 192.3 240.6
242(14) 0.00510 192.5 240.3
224(14) 0.00510 192.6 239.8
222(14) 0.00510 192.8 239.3
226(14) 0.00510 193.0 238.6
232(14) 0.00510 193.1 237.7
248(15) 0.00444 193.3 236.8
231(14) 0.00510 193.5 235.8
233(14) 0.00510 193.7 234.8
240(14) 0.00510 193.8 233.7
241(14) 0.00510 194.0 232.6
214(14) 0.00510 194.2 231.4
241(14) 0.00510 194.4 230.3
245(14) 0.00510 194.6 229.2
235(14) 0.00510 194.8 228.1
238(14) 0.00510 194.9 227.0
225(14) 0.00510 195.1 225.9
231(14) 0.00510 195.3 224.9
217(14) 0.00510 195.5 224.0
214(14) 0.00510 195.7 223.1
229(14) 0.00510 195.9 222.2
240(14) 0.00510 196.1 221.5
207(13) 0.00592 196.3 220.7
202(13) 0.00592 196.5 220.1
208(13) 0.00592 196.8 219.4
212(13) 0.00592 197.0 218.9
231(14) 0.00510 197.2 218.4
212(14) 0.00510 197.4 218.0
222(14) 0.00510 197.6 217.6
224(14) 0.00510 197.8 217.3
215(14) 0.00510 198.1 217.0
213(14) 0.00510 198.3 216.8
206(14) 0.00510 198.5 216.7
213(14) 0.00510 198.7 216.6
213(14) 0.00510 199.0 216.5
217(14) 0.00510 199.2 216.6
206(14) 0.00510 199.5 216.7
216(14) 0.00510 199.7 216.8
228(14) 0.00510 199.9 217.0
226(14) 0.00510 200.2 217.3
240(15) 0.00444 200.4 217.6
236(15) 0.00444 200.7 218.0
230(15) 0.00444 200.9 218.5
223(14) 0.00510 201.2 219.0
228(14) 0.00510 201.5 219.6
227(14) 0.00510 201.7 220.2
243(15) 0.00444 202.0 220.9
239(15) 0.00444 202.3 221.7
230(14) 0.00510 202.5 222.5
228(14) 0.00510 202.8 223.4
225(14) 0.00510 203.1 224.3
222(14) 0.00510 203.4 225.3
224(14) 0.00510 203.7 226.4
230(14) 0.00510 204.0 227.5
234(15) 0.00444 204.3 228.7
224(14) 0.00510 204.6 229.9
240(15) 0.00444 204.9 231.2
228(14) 0.00510 205.2 232.5
247(15) 0.00444 205.5 233.9
256(15) 0.00444 205.8 235.3
248(15) 0.00444 206.1 236.8
248(15) 0.00444 206.4 238.3
238(15) 0.00444 206.7 239.8
226(14) 0.00510 207.0 241.4
238(15) 0.00444 207.4 243.0
250(15) 0.00444 207.7 244.5
244(15) 0.00444 208.0 246.1
238(15) 0.00444 208.4 247.7
228(14) 0.00510 208.7 249.2
245(15) 0.00444 209.1 250.7
259(15) 0.00444 209.4 252.2
259(15) 0.00444 209.8 253.6
260(15) 0.00444 210.1 255.0
266(15) 0.00444 210.5 256.3
264(15) 0.00444 210.9 257.5
255(15) 0.00444 211.2 258.7
251(15) 0.00444 211.6 259.8
250(15) 0.00444 212.0 260.8
269(16) 0.00391 212.4 261.7
288(16) 0.00391 212.8 262.5
266(15) 0.00444 213.1 263.2
255(15) 0.00444 213.5 263.8
255(15) 0.00444 213.9 264.4
257(15) 0.00444 214.3 264.8
267(15) 0.00444 214.8 265.2
273(16) 0.00391 215.2 265.4
275(16) 0.00391 215.6 265.7
259(15) 0.00444 216.0 265.8
263(15) 0.00444 216.4 265.9
258(15) 0.00444 216.9 265.9
255(15) 0.00444 217.3 265.9
280(16) 0.00391 217.7 265.8
271(16) 0.00391 218.2 265.8
254(15) 0.00444 218.6 265.7
267(15) 0.00444 219.1 265.6
279(16) 0.00391 219.6 265.5
283(16) 0.00391 220.0 265.4
269(16) 0.00391 220.5 265.3
265(15) 0.00444 221.0 265.2
272(16) 0.00391 221.5 265.2
264(15) 0.00444 221.9 265.1
266(15) 0.00444 222.4 265.0
270(16) 0.00391 222.9 265.0
249(15) 0.00444 223.4 264.9
275(16) 0.00391 223.9 264.9
250(15) 0.00444 224.5 264.8
257(15) 0.00444 225.0 264.8
253(15) 0.00444 225.5 264.8
257(15) 0.00444 226.0 264.8
260(15) 0.00444 226.6 264.7
271(16) 0.00391 227.1 264.7
257(15) 0.00444 227.7 264.7
267(15) 0.00444 228.2 264.7
265(15) 0.00444 228.8 264.7
250(15) 0.00444 229.4 264.8
266(15) 0.00444 229.9 264.8
258(15) 0.00444 230.5 264.9
262(15) 0.00444 231.1 264.9
261(15) 0.00444 231.7 265.0
276(16) 0.00391 232.3 265.1
281(16) 0.00391 232.9 265.3
274(16) 0.00391 233.5 265.4
270(16) 0.00391 234.1 265.6
275(16) 0.00391 234.7 265.9
260(15) 0.00444 235.4 266.1
267(15) 0.00444 236.0 266.4
295(16) 0.00391 236.6 266.7
275(16) 0.00391 237.3 267.1
256(15) 0.00444 237.9 267.4
260(13) 0.00592 238.6 267.8
279(16) 0.00391 239.3 268.2
269(16) 0.00391 240.0 268.7
257(16) 0.00391 240.6 269.2
271(16) 0.00391 241.3 269.6
286(16) 0.00391 242.0 270.1
274(16) 0.00391 242.7 270.7
270(16) 0.00391 243.4 271.2
269(16) 0.00391 244.2 271.7
283(16) 0.00391 244.9 272.3
295(17) 0.003460 245.6 272.9
275(16) 0.00391 246.4 273.4
287(16) 0.00391 247.1 274.0
285(16) 0.00391 247.9 274.6
260(16) 0.00391 248.6 275.2
263(16) 0.00391 249.4 275.9
269(16) 0.00391 250.2 276.5
273(16) 0.00391 251.0 277.2
263(16) 0.00391 251.8 277.8
274(16) 0.00391 252.6 278.5
298(17) 0.003460 253.4 279.2
291(17) 0.003460 254.2 280.0
289(17) 0.003460 255.1 280.7
282(16) 0.00391 255.9 281.5
273(16) 0.00391 256.7 282.3
268(16) 0.00391 257.6 283.2
266(16) 0.00391 258.5 284.1
271(16) 0.00391 259.3 285.0
282(16) 0.00391 260.2 285.9
300(17) 0.003460 261.1 286.9
296(17) 0.003460 262.0 288.0
284(16) 0.00391 262.9 289.0
282(16) 0.00391 263.8 290.1
277(16) 0.00391 264.8 291.3
283(16) 0.00391 265.7 292.5
288(16) 0.00391 266.6 293.7
281(16) 0.00391 267.6 295.0
296(17) 0.003460 268.5 296.3
311(17) 0.003460 269.5 297.7
295(17) 0.003460 270.5 299.1
297(17) 0.003460 271.5 300.5
308(17) 0.003460 272.5 302.0
312(17) 0.003460 273.5 303.5
304(17) 0.003460 274.5 305.0
300(17) 0.003460 275.6 306.6
313(17) 0.003460 276.6 308.2
316(17) 0.003460 277.6 309.9
309(17) 0.003460 278.7 311.6
311(17) 0.003460 279.8 313.3
338(18) 0.003086 280.9 315.0
348(18) 0.003086 282.0 316.8
339(18) 0.003086 283.1 318.6
312(17) 0.003460 284.2 320.4
314(17) 0.003460 285.3 322.2
325(17) 0.003460 286.4 324.1
310(17) 0.003460 287.6 326.0
340(18) 0.003086 288.7 328.0
353(18) 0.003086 289.9 330.0
338(18) 0.003086 291.1 332.0
335(18) 0.003086 292.3 334.0
341(18) 0.003086 293.5 336.0
327(17) 0.003460 294.7 338.1
318(17) 0.003460 295.9 340.2
346(18) 0.003086 297.1 342.3
351(18) 0.003086 298.4 344.5
350(18) 0.003086 299.6 346.6
346(18) 0.003086 300.9 348.8
343(18) 0.003086 302.2 350.9
341(18) 0.003086 303.5 353.1
348(18) 0.003086 304.8 355.2
355(18) 0.003086 306.1 357.4
342(18) 0.003086 307.4 359.5
350(18) 0.003086 308.8 361.6
370(18) 0.003086 310.1 363.7
374(18) 0.003086 311.5 365.8
360(18) 0.003086 312.9 367.8
373(18) 0.003086 314.3 369.8
363(18) 0.003086 315.7 371.7
362(18) 0.003086 317.1 373.6
368(18) 0.003086 318.5 375.4
371(18) 0.003086 319.9 377.2
387(19) 0.002770 321.4 378.9
397(19) 0.002770 322.9 380.6
391(19) 0.002770 324.3 382.2
388(19) 0.002770 325.8 383.7
395(19) 0.002770 327.4 385.2
391(19) 0.002770 328.9 386.6
374(18) 0.003086 330.4 388.0
380(19) 0.002770 332.0 389.4
381(19) 0.002770 333.5 390.7
378(19) 0.002770 335.1 391.9
380(19) 0.002770 336.7 393.2
396(19) 0.002770 338.3 394.4
420(19) 0.002770 339.9 395.6
406(19) 0.002770 341.6 396.7
401(19) 0.002770 343.2 397.9
413(19) 0.002770 344.9 399.0
388(19) 0.002770 346.5 400.2
382(19) 0.002770 348.2 401.3
403(19) 0.002770 349.9 402.4
403(20) 0.002500 351.7 403.6
362(19) 0.002770 353.4 404.7
411(20) 0.002500 355.2 405.9
412(20) 0.002500 356.9 407.0
421(20) 0.002500 358.7 408.2
411(20) 0.002500 360.5 409.4
403(20) 0.002500 362.3 410.5
387(19) 0.002770 364.2 411.7
400(20) 0.002500 366.0 412.9
427(20) 0.002500 367.9 414.1
435(20) 0.002500 369.7 415.4
445(20) 0.002500 371.6 416.6
421(20) 0.002500 373.5 417.8
402(20) 0.002500 375.5 419.1
419(20) 0.002500 377.4 420.4
420(20) 0.002500 379.4 421.7
422(20) 0.002500 381.4 423.0
432(20) 0.002500 383.3 424.4
422(20) 0.002500 385.4 425.8
430(20) 0.002500 387.4 427.2
432(20) 0.002500 389.4 428.6
448(20) 0.002500 391.5 430.1
443(20) 0.002500 393.6 431.5
416(20) 0.002500 395.7 433.1
446(20) 0.002500 397.8 434.6
447(20) 0.002500 399.9 436.2
454(21) 0.002268 402.1 437.9
458(21) 0.002268 404.2 439.6
460(21) 0.002268 406.4 441.3
432(20) 0.002500 408.6 443.0
451(21) 0.002268 410.8 444.8
442(20) 0.002500 413.1 446.7
469(21) 0.002268 415.3 448.6
443(20) 0.002500 417.6 450.5
455(21) . . .
468(21) . . .
447(20) . . .
436(20) . . .
458(21) . . .
453(21) . . .
457(21) . . .
465(21) . . .
457(21) . . .
479(21) . . .
470(21) . . .
473(21) . . .
488(21) . . .
458(21) . . .
474(21) . . .
501(22) . . .
486(21) . . .
479(21) . . .
519(22) . . .
481(21) . . .
493(21) . . .
529(22) . . .
503(22) . . .
480(21) . . .
496(21) . . .
529(22) . . .
521(22) . . .
533(22) . . .
520(22) . . .
534(22) . . .
524(22) . . .
517(22) . . .
521(22) . . .
549(22) . . .
532(22) . . .
525(22) . . .
567(23) . . .
546(22) . . .
523(22) . . .
556(23) . . .
545(22) . . .
521(22) . . .
528(22) . . .
551(22) . . .
555(22) . . .
561(23) . . .
560(23) . . .
548(22) . . .
534(22) . . .
582(23) . . .
572(23) . . .
600(23) . . .
596(23) . . .
587(23) . . .
580(23) . . .
604(23) . . .
608(23) . . .
630(24) . . .
608(23) . . .
624(24) . . .
597(23) . . .
619(24) . . .
650(24) . . .
658(24) . . .
606(23) . . .
632(24) . . .
639(34) . . .
647(35) . . .
676(35) . . .
637(34) . . .
631(34) . . .
640(34) . . .
640(34) . . .
608(34) . . .
679(35) . . .
598(33) . . .
619(34) . . .
630(34) . . .
684(35) . . .
662(35) . . .
685(35) . . .
697(36) . . .
658(35) . . .
672(35) . . .
664(35) . . .
660(35) . . .
698(36) . . .
731(36) . . .
697(36) . . .
644(35) . . .
667(35) . . .
726(36) . . .
734(37) . . .
724(36) . . .
741(37) . . .
749(37) . . .
679(35) . . .
741(37) . . .
755(37) . . .
713(36) . . .
732(36) . . .
734(37) . . .
684(35) . . .
747(37) . . .
709(36) . . .
696(36) . . .
693(36) . . .
743(37) . . .
750(37) . . .
767(37) . . .
783(38) . . .
760(37) . . .
736(37) . . .
817(38) . . .
773(37) . . .
736(37) . . .
740(37) . . .
768(37) . . .
855(39) . . .
763(37) . . .
805(38) . . .
852(39) . . .
831(39) . . .
779(38) . . .
797(38) . . .
832(39) . . .
859(39) . . .
893(40) . . .
838(39) . . .
802(38) . . .
879(40) . . .
821(38) . . .
825(38) . . .
841(39) . . .
841(39) . . .
832(39) . . .
821(38) . . .
849(39) . . .
848(39) . . .
864(39) . . .
887(40) . . .
938(41) . . .
831(39) . . .
853(39) . . .
849(39) . . .
869(39) . . .
944(41) . . .
877(40) . . .
862(39) . . .
905(40) . . .
946(41) . . .
919(40) . . .
975(41) . . .
942(41) . . .
890(40) . . .
917(40) . . .
904(40) . . .
884(40) . . .
995(42) . . .
938(41) . . .
983(42) . . .
883(40) . . .
936(41) . . .
918(40) . . .
912(40) . . .
970(41) . . .
loop_
_refln_index_h
_refln_index_k
_refln_index_l
_refln_observed_status
_refln_F_squared_meas
_refln_F_squared_calc
_refln_phase_calc
_refln_d_spacing
_gsas_i100_meas
1 1 0 o 878.859 883.637 180.00 12.93694 100.00
3 0 0 o 545.563 489.322 -28.60 7.46915 20.83
1 0 1 o 30.272 27.380 73.17 6.47857 0.87
2 2 0 o 208.729 191.569 0.00 6.46847 6.00
2 0 -1 o 494.520 503.856 130.21 5.79280 11.43
2 1 1 o 165.048 178.843 32.05 5.28698 6.38
4 1 0 o 261.410 238.977 134.33 4.88970 8.67
3 1 -1 o 44.836 36.851 -65.34 4.57747 1.31
4 0 1 o 785.032 730.195 -146.53 4.31530 10.21
3 3 0 o 143.368 132.736 -180.00 4.31231 1.86
3 2 1 o 7.937 5.003 -170.91 4.09357 0.19
5 0 -1 o 156.617 149.725 76.93 3.73651 1.54
6 0 0 o 554.747 533.935 -88.27 3.73457 5.46
4 2 -1 o 56.607 57.345 -141.46 3.58978 1.03
5 2 0 o 239.176 240.688 -2.17 3.58806 4.36
5 1 1 o 281.774 276.639 26.58 3.45908 4.79
1 0 -2 o 4.832 4.515 -83.65 3.34587 0.04
2 0 2 o 114.119 100.461 -85.92 3.23929 0.86
4 3 1 o 65.730 58.303 -47.71 3.23550 0.98
4 4 0 o 20.376 18.183 180.00 3.23424 0.15
2 1 -2 o 11.409 29.021 -104.61 3.14228 0.16
6 1 -1 o 15.237 21.034 -55.82 3.05032 0.20
3 1 2 o 18.078 18.832 90.14 2.97184 0.23
7 1 0 o 250.043 254.894 113.77 2.96794 3.19
4 0 -2 o 50.059 48.580 19.54 2.89640 0.30
7 0 1 o 336.653 324.163 167.40 2.89369 2.05
5 3 -1 o 24.605 23.692 108.62 2.89369 0.30
3 2 -2 o 123.402 120.347 96.97 2.82643 1.44
6 2 1 o 176.237 167.762 -149.37 2.82391 2.05
6 3 0 o 12.484 11.809 -131.74 2.82307 0.15
5 0 2 o 8.026 6.209 -57.95 2.70047 0.04
4 2 2 o 12.396 11.218 113.83 2.64349 0.13
5 4 1 o 115.057 106.269 96.39 2.64143 1.18
5 1 -2 o 172.697 150.753 -127.63 2.58997 1.71
8 0 -1 o 27.262 23.208 16.02 2.58803 0.14
5 5 0 o 1.524 1.288 180.00 2.58739 0.01
7 2 -1 o 83.026 72.033 -176.57 2.53775 0.79
4 3 -2 o 132.602 110.861 -14.35 2.49202 1.23
9 0 0 o 261.141 214.337 -66.43 2.48972 1.21
8 1 1 o 313.428 292.327 -15.31 2.44540 2.81
8 2 0 o 54.387 50.456 -79.15 2.44485 0.49
6 1 2 o 10.063 7.760 -26.07 2.40440 0.09
6 4 -1 o 155.685 119.255 -1.00 2.40285 1.35
7 3 1 o 47.777 38.702 36.34 2.36244 0.40
7 0 -2 o 667.508 642.746 65.20 2.32541 2.73
5 3 2 o 170.671 164.340 -158.37 2.32541 1.40
7 4 0 o 2.088 2.026 55.64 2.32354 0.02
6 2 -2 o 0.189 0.705 -173.66 2.28873 0.00
0 0 3 o 1797.009 1589.122 108.94 2.25587 2.33
1 1 3 o 247.960 226.226 -68.60 2.22234 1.88
6 5 1 o 219.908 194.642 -129.66 2.21907 1.66
9 1 -1 o 0.409 0.362 57.65 2.21907 0.00
5 4 -2 o 14.502 19.076 -108.09 2.18830 0.11
3 0 3 o 15.528 18.841 82.14 2.15952 0.06
3 0 -3 o 78.744 95.547 -162.60 2.15952 0.28
8 0 2 o 88.825 106.142 -113.10 2.15765 0.32
8 3 -1 o 14.637 17.412 42.48 2.15653 0.11
6 6 0 o 19.362 23.014 0.00 2.15616 0.07
2 2 3 o 272.312 249.632 102.66 2.13005 1.92
7 2 2 o 286.771 268.565 68.73 2.12825 2.02
10 0 1 o 655.407 622.905 129.99 2.12718 2.30
10 1 0 o 74.741 71.407 98.90 2.12682 0.53
9 2 1 o 235.512 230.522 -153.37 2.09899 1.62
8 1 -2 o 287.656 316.511 -106.12 2.07289 1.94
9 3 0 o 19.979 22.153 97.86 2.07157 0.13
4 1 3 o 101.218 95.512 -88.00 2.04838 0.67
4 1 -3 o 166.623 157.230 42.36 2.04838 1.10
6 4 2 o 303.049 286.242 -45.42 2.04679 2.00
7 5 -1 o 79.749 75.777 -129.31 2.04583 0.53
7 3 -2 o 174.369 174.107 102.37 2.02164 1.13
8 4 1 o 170.855 173.942 43.77 2.02072 1.10
3 3 3 o 0.000 6.596 -125.09 1.99888 0.00
8 5 0 o 5.331 9.443 -177.81 1.97286 0.03
11 0 -1 o 9.463 14.566 -41.34 1.95059 0.03
6 0 -3 o 209.561 221.004 -116.43 1.93093 0.63
6 0 3 o 106.338 112.144 100.28 1.93093 0.32
6 5 -2 o 132.196 139.748 -106.17 1.92959 0.79
9 1 2 o 18.913 19.994 -102.85 1.92959 0.11
10 2 -1 o 9.305 9.901 -161.53 1.92879 0.06
5 2 -3 o 45.965 54.285 167.89 1.90978 0.27
5 2 3 o 26.417 31.198 51.86 1.90978 0.16
7 6 1 o 11.173 13.414 -51.19 1.90771 0.07
8 3 2 o 170.236 167.051 175.22 1.88805 0.99
10 0 -2 o 796.261 750.050 85.62 1.86826 2.27
11 1 1 o 359.577 337.849 -31.10 1.86753 2.05
9 4 -1 o 19.736 18.543 -136.81 1.86753 0.11
12 0 0 o 95.351 89.544 -131.45 1.86729 0.27
4 4 3 o 2.820 2.508 66.56 1.85025 0.02
9 2 -2 o 124.483 108.821 -40.09 1.84908 0.70
11 2 0 o 51.713 44.617 -48.45 1.84813 0.29
7 7 0 o 2.895 2.498 -180.00 1.84813 0.01
10 3 1 o 0.000 3.833 -154.36 1.82979 0.00
7 5 2 o 5.957 3.082 -167.02 1.81242 0.03
7 1 -3 o 27.234 26.613 24.86 1.79597 0.15
7 1 3 o 64.282 62.815 -110.03 1.79597 0.34
8 4 -2 o 40.916 39.274 52.07 1.79489 0.22
10 4 0 o 13.250 12.478 -96.44 1.79403 0.07
8 6 -1 o 113.125 91.151 42.39 1.77723 0.60
6 3 -3 o 89.616 84.441 27.31 1.76233 0.47
6 3 3 o 8.698 8.196 -49.14 1.76233 0.05
9 5 1 o 56.380 51.255 -153.02 1.76070 0.29
11 0 2 o 319.890 262.946 119.91 1.74521 0.82
10 2 2 o 424.247 392.014 -21.57 1.72954 2.15
12 1 -1 o 3.955 3.664 146.46 1.72896 0.02
7 6 -2 o 11.143 9.965 -95.79 1.71429 0.06
9 6 0 o 12.533 10.773 -18.63 1.71354 0.06
5 5 3 o 143.746 118.490 132.19 1.70035 0.71
11 3 -1 o 112.993 94.223 38.99 1.69889 0.56
1 0 4 o 12.572 12.292 -135.82 1.68710 0.03
9 4 2 o 26.598 26.512 95.24 1.68496 0.13
11 1 -2 o 113.281 112.918 -125.63 1.68496 0.55
2 0 -4 o 88.110 81.845 10.34 1.67293 0.21
9 0 3 o 128.602 119.356 69.50 1.67172 0.31
9 0 -3 o 216.335 200.780 117.42 1.67172 0.52
2 1 4 o 54.210 54.138 119.76 1.65912 0.26
13 0 1 o 94.974 88.589 172.98 1.67033 0.23
8 7 1 o 90.493 84.410 96.18 1.67033 0.44
8 2 -3 o 168.278 167.759 -102.03 1.65793 0.80
8 2 3 o 14.779 14.733 85.63 1.65793 0.07
10 3 -2 o 51.864 51.691 -171.22 1.65708 0.25
12 2 1 o 403.690 402.446 124.75 1.65657 1.93
13 1 0 o 45.088 44.956 62.02 1.65641 0.22
10 5 -1 o 5.488 6.573 -137.98 1.64316 0.03
3 1 -4 o 12.545 11.986 149.76 1.63249 0.06
12 3 0 o 17.733 15.784 173.70 1.62990 0.08
4 0 4 o 166.448 155.690 -83.77 1.61964 0.39
7 4 3 o 92.040 86.309 -87.30 1.61854 0.43
7 4 -3 o 80.863 75.829 110.18 1.61854 0.37
8 6 2 o 89.133 83.777 -73.16 1.61775 0.41
11 4 1 o 190.222 179.096 -23.01 1.61728 0.88
8 8 0 o 16.758 15.787 -180.00 1.61712 0.04
3 2 4 o 36.429 37.147 -19.41 1.60710 0.17
9 5 -2 o 6.958 8.234 99.89 1.60525 0.03
5 0 -4 o 17.965 18.903 -45.50 1.58286 0.04
12 1 2 o 41.367 38.943 -154.96 1.58109 0.19
11 5 0 o 36.330 33.152 95.09 1.58050 0.16
4 2 -4 o 19.170 16.464 -175.88 1.57114 0.09
9 7 -1 o 44.819 40.420 -161.53 1.56898 0.20
5 1 4 o 137.850 117.033 107.40 1.55968 0.61
6 6 3 o 43.440 36.726 25.61 1.55869 0.19
11 3 2 o 216.676 182.999 174.89 1.55799 0.96
10 6 1 o 32.984 27.856 -166.90 1.55757 0.15
14 0 -1 o 10.030 8.470 12.69 1.55757 0.02
10 1 3 o 84.565 75.384 -97.89 1.54750 0.37
10 1 -3 o 30.719 27.384 -19.08 1.54750 0.13
13 2 -1 o 48.763 43.179 -133.10 1.54640 0.21
4 3 4 o 2.658 3.166 -63.53 1.53749 0.01
13 0 -2 o 165.556 212.246 12.44 1.53587 0.36
8 7 -2 o 0.296 0.379 -89.01 1.53587 0.00
9 3 3 o 49.855 56.856 110.42 1.52582 0.21
9 3 -3 o 8.880 10.127 142.97 1.52582 0.04
12 2 -2 o 44.378 49.665 73.79 1.52516 0.19
6 1 -4 o 12.339 11.605 53.57 1.51623 0.05
10 5 2 o 80.516 73.508 31.96 1.51467 0.34
12 4 -1 o 80.312 72.886 -127.45 1.51428 0.34
10 7 0 o 22.525 20.405 3.82 1.51415 0.10
14 1 1 o 112.185 113.154 -44.28 1.50402 0.48
7 0 4 o 176.895 182.496 -77.48 1.49582 0.37
5 3 -4 o 29.868 30.814 -83.02 1.49582 0.13
11 4 -2 o 38.441 38.138 -12.49 1.49433 0.16
15 0 0 o 35.607 34.862 -135.46 1.49383 0.07
6 2 4 o 14.985 14.862 -115.19 1.48592 0.06
8 5 -3 o 19.709 19.813 -0.32 1.48507 0.08
8 5 3 o 34.252 34.432 49.91 1.48507 0.14
9 8 1 o 153.394 156.449 -44.40 1.48409 0.64
13 3 1 o 184.131 187.799 -86.46 1.48409 0.77
14 2 0 o 17.965 18.355 -88.84 1.48397 0.08
11 6 -1 o 108.371 102.054 54.07 1.46494 0.45
5 4 4 o 21.348 26.695 -63.82 1.45736 0.09
9 7 2 o 41.832 52.645 129.45 1.45598 0.17
13 4 0 o 19.516 24.532 51.06 1.45552 0.08
8 0 -4 o 24.270 26.081 -104.34 1.44820 0.05
14 0 2 o 149.789 154.033 -28.80 1.44684 0.31
10 6 -2 o 37.442 38.503 -117.76 1.44684 0.15
12 5 1 o 255.593 260.037 115.57 1.44651 1.04
7 2 -4 o 30.703 29.658 110.03 1.43921 0.12
12 0 3 o 55.241 53.778 44.80 1.43843 0.11
12 0 -3 o 112.715 109.729 -123.66 1.43843 0.23
13 2 2 o 96.059 93.975 38.86 1.43788 0.39
9 9 0 o 19.292 18.937 -180.00 1.43744 0.04
11 2 -3 o 136.618 124.470 81.67 1.42962 0.55
7 7 3 o 74.242 67.640 178.56 1.42962 0.30
11 2 3 o 14.326 13.052 121.70 1.42962 0.06
8 1 4 o 117.352 103.330 60.26 1.42172 0.47
6 4 -4 o 29.301 26.383 -155.11 1.41321 0.12
12 4 2 o 84.126 77.891 -59.75 1.41196 0.34
15 1 -1 o 5.778 5.381 24.65 1.41164 0.02
12 6 0 o 177.434 165.541 -109.60 1.41154 0.71
7 3 4 o 143.468 129.164 154.52 1.40486 0.57
10 4 3 o 72.436 64.849 -85.85 1.40414 0.29
10 4 -3 o 115.814 103.685 -87.31 1.40414 0.46
14 1 -2 o 142.930 127.556 -166.26 1.40362 0.57
10 8 -1 o 71.583 63.785 -136.97 1.40331 0.28
14 3 -1 o 148.216 137.985 62.55 1.39513 0.59
11 7 1 o 34.544 32.160 -49.18 1.39513 0.14
13 3 -2 o 17.330 15.943 -70.82 1.38738 0.07
9 8 -2 o 57.064 52.497 63.12 1.38738 0.22
9 1 -4 o 6.446 6.922 -90.63 1.37285 0.03
6 5 4 o 188.951 202.893 -2.01 1.37285 0.74
11 6 2 o 74.695 82.152 -144.36 1.37170 0.29
16 0 1 o 25.441 28.101 163.29 1.37141 0.05
9 6 3 o 49.647 51.491 -118.06 1.36452 0.19
9 6 -3 o 37.890 39.298 114.43 1.36452 0.15
13 5 -1 o 23.985 24.394 -105.18 1.36377 0.09
15 2 1 o 288.626 293.548 97.79 1.36377 1.12
8 3 -4 o 55.886 53.774 19.62 1.35765 0.22
12 5 -2 o 65.067 62.160 124.89 1.35653 0.25
11 8 0 o 49.779 47.383 110.56 1.35616 0.19
16 1 0 o 22.273 21.201 70.32 1.35616 0.09
1 0 -5 o 21.850 19.417 -169.21 1.35106 0.04
2 0 5 o 56.854 52.909 9.65 1.34375 0.11
10 0 4 o 1371.810 1210.563 -156.99 1.35023 2.65
9 2 4 o 654.396 616.913 -10.56 1.34294 2.52
14 4 1 o 31.271 30.038 -76.55 1.34159 0.12
15 3 0 o 9.443 9.082 -94.60 1.34150 0.04
2 1 -5 o 12.167 12.529 55.89 1.33656 0.05
13 1 -3 o 1.204 1.245 8.49 1.33514 0.00
13 1 3 o 27.975 28.919 -159.48 1.33514 0.11
10 9 1 o 94.902 97.864 101.16 1.33443 0.36
7 5 -4 o 106.276 105.957 -157.47 1.32870 0.41
15 1 2 o 131.472 130.468 166.84 1.32765 0.50
3 1 5 o 34.569 35.073 171.06 1.32252 0.13
8 4 4 o 327.471 331.730 176.19 1.32174 1.25
12 3 3 o 106.167 107.157 -6.16 1.32114 0.41
12 3 -3 o 18.793 18.969 -133.56 1.32114 0.07
10 8 2 o 9.753 9.806 57.38 1.32071 0.04
12 7 -1 o 41.715 41.831 -23.39 1.32046 0.16
4 0 -5 o 108.927 103.710 -150.58 1.31566 0.21
8 8 3 o 122.401 116.812 45.10 1.31431 0.47
11 7 -2 o 21.333 20.423 -43.26 1.31388 0.08
14 3 2 o 16.668 15.956 -179.58 1.31388 0.06
14 5 0 o 8.353 8.025 112.34 1.31355 0.03
3 2 -5 o 27.671 30.336 -12.75 1.30891 0.11
13 6 1 o 39.391 43.140 -25.14 1.30691 0.15
5 0 5 o 101.799 97.162 30.51 1.29571 0.19
11 0 -4 o 17.395 15.738 78.62 1.30152 0.03
10 2 -4 o 8.181 7.855 165.62 1.29499 0.03
11 5 -3 o 27.216 26.210 65.08 1.29442 0.10
11 5 3 o 164.150 158.082 119.00 1.29442 0.63
16 0 -2 o 311.095 299.942 3.09 1.29402 0.59
17 0 -1 o 98.962 95.450 178.10 1.29377 0.19
10 10 0 o 165.295 159.439 0.00 1.29369 0.31
4 2 5 o 70.804 65.988 -108.61 1.28926 0.27
7 6 4 o 83.966 77.866 -72.41 1.28855 0.32
13 5 2 o 54.873 50.796 71.80 1.28759 0.21
15 2 -2 o 10.687 9.893 111.85 1.28759 0.04
16 2 -1 o 70.274 65.092 -92.92 1.28735 0.27
5 1 -5 o 37.867 37.631 50.53 1.28291 0.14
9 4 -4 o 1.428 1.561 -47.63 1.27595 0.01
11 1 4 o 175.048 191.348 69.50 1.27595 0.67
13 7 0 o 151.355 165.804 46.36 1.27471 0.58
4 3 -5 o 82.486 86.566 -116.75 1.27048 0.31
10 3 4 o 82.638 84.642 -114.51 1.26372 0.31
14 4 -2 o 46.890 49.310 -45.44 1.26888 0.18
15 4 -1 o 3.696 3.891 -160.74 1.26865 0.01
11 9 -1 o 126.514 133.195 109.91 1.26865 0.48
10 9 -2 o 3.000 3.040 -155.71 1.26282 0.01
12 8 1 o 166.900 168.838 -163.31 1.26259 0.63
6 1 5 o 10.924 11.574 158.92 1.25840 0.04
10 7 -3 o 2.985 3.246 29.58 1.25721 0.01
10 7 3 o 79.579 86.530 -7.93 1.25721 0.30
17 1 1 o 83.148 91.500 -76.38 1.25662 0.32
12 7 2 o 65.131 64.661 21.78 1.25095 0.25
7 0 -5 o 157.438 140.214 -136.95 1.24666 0.30
5 3 5 o 65.781 58.585 4.36 1.24666 0.25
8 6 -4 o 24.736 22.058 -28.83 1.24601 0.09
15 0 -3 o 31.054 27.790 133.45 1.24550 0.06
15 0 3 o 49.434 44.239 -0.22 1.24550 0.09
16 3 1 o 26.189 23.583 -104.09 1.24493 0.10
18 0 0 o 33.301 30.014 -1.63 1.24486 0.06
6 2 -5 o 58.867 53.910 50.87 1.24091 0.22
9 5 4 o 300.519 270.625 40.34 1.24027 1.15
14 2 3 o 7.037 6.222 150.84 1.23977 0.03
14 2 -3 o 61.791 54.638 -37.72 1.23977 0.24
13 6 -2 o 29.422 25.613 131.64 1.23942 0.11
14 6 -1 o 113.362 97.682 144.41 1.23921 0.43
17 2 0 o 74.438 63.915 -150.89 1.23913 0.28
12 1 -4 o 5.721 4.839 -94.26 1.22902 0.02
17 0 2 o 94.360 81.755 -30.97 1.22820 0.18
12 9 0 o 404.627 353.232 -140.05 1.22792 1.55
5 4 -5 o 126.300 118.606 147.13 1.22413 0.49
13 4 -3 o 55.156 52.363 119.55 1.22304 0.21
13 4 3 o 122.022 115.843 -163.55 1.22304 0.47
16 2 2 o 175.431 166.836 -19.96 1.22270 0.67
15 5 1 o 13.528 12.873 145.49 1.22249 0.05
16 4 0 o 131.682 125.324 46.13 1.22243 0.51
8 0 5 o 140.741 131.482 -1.98 1.21869 0.27
11 3 -4 o 2.658 2.477 -48.63 1.21808 0.01
7 2 5 o 187.831 180.686 -169.03 1.21332 0.73
8 7 4 o 42.381 42.522 172.36 1.20742 0.16
13 0 4 o 328.276 329.364 -21.64 1.20742 0.64
9 9 3 o 187.455 181.662 -163.29 1.21225 0.72
11 10 1 o 237.399 230.939 9.99 1.21172 0.92
15 4 2 o 31.312 31.448 168.03 1.20664 0.12
11 9 2 o 62.385 62.656 -112.45 1.20664 0.24
8 1 -5 o 1.922 1.943 160.97 1.20278 0.01
12 2 4 o 454.189 457.622 -155.14 1.20220 1.77
12 8 -2 o 1.223 1.224 -141.53 1.20142 0.00
13 8 -1 o 88.980 88.891 -52.10 1.20123 0.35
6 4 5 o 274.163 270.838 32.24 1.19762 1.07
10 5 -4 o 41.705 41.258 118.95 1.19704 0.16
12 6 3 o 51.659 51.158 -36.37 1.19659 0.20
12 6 -3 o 94.612 93.696 -92.42 1.19659 0.37
17 1 -2 o 31.343 31.064 -158.27 1.19628 0.12
15 6 0 o 400.465 397.164 -135.81 1.19602 1.57
7 3 -5 o 211.119 213.990 -38.04 1.19252 0.83
11 4 4 o 144.316 134.820 60.24 1.18692 0.57
14 7 1 o 54.764 55.489 57.17 1.19100 0.22
18 1 -1 o 120.448 122.042 33.04 1.19100 0.47
16 3 -2 o 69.999 64.953 134.61 1.18618 0.28
14 6 2 o 111.134 108.646 -110.90 1.18122 0.44
17 3 -1 o 39.897 39.002 178.07 1.18104 0.16
11 11 0 o 101.878 106.765 0.00 1.17609 0.20
9 1 5 o 23.765 24.326 54.97 1.17275 0.10
6 5 -5 o 264.048 270.282 155.50 1.17275 1.06
9 7 -4 o 11.105 10.951 -19.43 1.16743 0.04
15 5 -2 o 28.236 27.910 -52.43 1.16672 0.11
8 3 5 o 148.745 150.562 -110.73 1.16323 0.61
14 0 -4 o 43.555 44.090 73.95 1.16271 0.09
10 6 4 o 298.120 301.784 -124.61 1.16271 1.22
11 8 -3 o 20.797 21.019 64.69 1.16230 0.08
16 1 3 o 7.499 7.579 157.08 1.16230 0.03
11 8 3 o 55.557 56.149 -166.65 1.16230 0.23
16 1 -3 o 5.334 5.390 167.45 1.16230 0.02
16 5 -1 o 238.012 239.735 -9.87 1.16183 0.97
19 0 1 o 49.661 50.020 113.26 1.16183 0.10
14 8 0 o 331.088 333.313 23.45 1.16177 1.35
10 0 -5 o 504.712 491.989 26.21 1.15856 1.04
9 2 -5 o 481.997 471.282 -174.74 1.15394 2.00
13 2 -4 o 9.880 9.589 -100.94 1.15804 0.04
11 10 -2 o 24.113 23.297 -76.86 1.15735 0.10
15 3 3 o 49.365 48.558 -10.78 1.15303 0.21
15 3 -3 o 2.293 2.255 111.44 1.15303 0.01
18 2 1 o 64.189 61.968 73.00 1.15717 0.26
12 10 -1 o 110.635 106.807 160.68 1.15717 0.46
13 9 1 o 42.450 41.829 -61.59 1.15257 0.18
13 8 2 o 99.985 97.238 110.31 1.14819 0.42
19 1 0 o 8.702 8.466 71.78 1.14797 0.04
7 5 5 o 55.714 52.988 37.92 1.14487 0.24
8 4 -5 o 318.463 292.831 19.47 1.14041 1.36
12 4 -4 o 6.808 6.404 36.14 1.14437 0.03
14 1 4 o 30.649 28.282 124.01 1.13992 0.13
17 4 1 o 6.406 5.925 51.13 1.14353 0.03
18 1 2 o 218.030 202.031 141.83 1.13925 0.94
14 7 -2 o 12.151 11.259 -19.52 1.13925 0.05
18 3 0 o 74.544 69.153 -112.79 1.13903 0.32
14 5 -3 o 9.944 8.982 -11.11 1.13513 0.04
14 5 3 o 122.268 110.439 15.09 1.13513 0.53
15 7 -1 o 105.972 95.123 163.61 1.13470 0.46
0 0 6 o 122.905 107.523 54.44 1.12794 0.09
11 0 5 o 569.291 501.920 -107.18 1.12735 1.26
9 8 4 o 53.552 46.716 46.02 1.13117 0.23
13 3 4 o 356.973 311.411 22.24 1.13117 1.57
17 3 2 o 14.315 12.431 -85.33 1.13052 0.06
1 1 6 o 8.765 8.154 -110.56 1.12367 0.04
10 2 5 o 496.315 464.136 75.53 1.12309 2.23
7 6 -5 o 78.234 75.052 -137.24 1.11888 0.36
11 6 -4 o 57.393 53.816 -101.12 1.12262 0.26
10 10 3 o 331.717 311.433 46.11 1.12225 1.50
16 6 1 o 35.244 33.114 -89.75 1.12183 0.16
17 5 0 o 141.637 133.086 44.13 1.12178 0.64
13 10 0 o 180.602 169.699 159.24 1.12178 0.82
3 0 6 o 48.514 49.674 -116.17 1.11529 0.11
3 0 -6 o 46.091 47.194 -166.30 1.11529 0.11
2 2 6 o 63.094 64.837 53.48 1.11117 0.30
11 1 -5 o 34.943 36.474 -83.16 1.11061 0.17
9 4 5 o 85.960 89.726 -136.45 1.11061 0.41
12 5 4 o 157.279 159.561 -112.04 1.11426 0.73
16 5 2 o 129.661 130.717 64.82 1.11364 0.61
19 0 -2 o 78.450 79.089 -167.98 1.11364 0.18
13 7 3 o 132.267 141.846 169.73 1.10979 0.63
13 7 -3 o 1.173 1.258 167.15 1.10979 0.01
12 10 2 o 6.085 6.584 -96.87 1.10954 0.03
18 2 -2 o 173.691 187.945 -2.71 1.10954 0.83
12 11 1 o 154.840 168.455 140.48 1.10938 0.74
10 3 -5 o 1.055 1.191 -164.34 1.10251 0.01
13 9 -2 o 14.124 16.668 129.87 1.10548 0.07
20 0 -1 o 467.044 550.518 -146.25 1.10533 1.13
19 2 -1 o 50.294 56.762 14.53 1.10132 0.25
14 9 -1 o 76.614 86.467 -22.78 1.10132 0.38
17 4 -2 o 4.769 5.027 -147.96 1.09749 0.02
16 7 0 o 58.698 61.215 -170.20 1.09730 0.30
4 1 -6 o 51.057 57.179 40.43 1.09907 0.26
4 1 6 o 14.950 16.742 57.24 1.09907 0.08
15 1 -4 o 1.679 1.822 -123.59 1.09809 0.01
3 3 6 o 136.948 119.581 -151.67 1.09122 0.72
10 8 -4 o 96.371 84.958 124.98 1.09415 0.50
8 6 5 o 70.884 62.703 1.07 1.09069 0.38
14 3 -4 o 11.932 10.682 127.03 1.09026 0.06
11 7 4 o 296.989 265.868 67.97 1.09026 1.58
9 5 -5 o 0.756 0.710 -25.18 1.08684 0.00
15 8 1 o 63.442 54.882 147.85 1.09342 0.33
18 0 3 o 11.994 10.839 -44.99 1.08992 0.03
18 0 -3 o 66.877 60.437 58.76 1.08992 0.18
15 7 2 o 104.749 95.281 -69.74 1.08968 0.56
18 4 -1 o 251.989 230.075 167.62 1.08954 1.35
17 2 -3 o 55.315 51.324 -95.11 1.08607 0.30
17 2 3 o 3.350 3.108 -172.65 1.08607 0.02
10 9 4 o 39.882 38.572 -81.88 1.06055 0.30
16 0 4 o 27.539 26.458 -9.50 1.07883 0.08
14 9 2 o 13.291 12.730 39.77 1.06001 0.10
19 2 2 o 21.710 20.794 156.17 1.06001 0.17
8 7 -5 o 50.534 50.666 131.46 1.06453 0.36
13 0 -5 o 75.457 75.655 -154.26 1.06453 0.27
12 9 -3 o 136.291 131.566 100.78 1.07850 0.80
12 9 3 o 209.417 202.156 -19.97 1.07850 1.23
14 10 1 o 31.707 30.299 -55.40 1.05988 0.24
16 6 -2 o 47.935 46.411 146.27 1.07827 0.28
13 5 -4 o 0.946 0.929 5.71 1.07509 0.01
15 2 4 o 81.389 79.877 -139.39 1.07509 0.50
20 1 1 o 30.820 29.888 -110.10 1.07813 0.18
12 12 0 o 233.327 226.397 0.00 1.07808 0.69
21 0 0 o 249.840 248.680 -90.41 1.06702 0.85
15 9 0 o 9.927 9.881 -64.46 1.06702 0.07
14 4 4 o 68.399 68.623 -176.62 1.06413 0.49
11 3 5 o 130.276 127.283 -62.67 1.07181 0.83
16 4 3 o 186.410 182.638 167.06 1.07477 1.14
16 4 -3 o 3.658 3.584 -43.47 1.07477 0.02
6 0 -6 o 313.337 295.724 -137.63 1.07976 0.91
6 0 6 o 232.880 219.790 -121.39 1.07976 0.68
12 2 -5 o 303.018 295.204 54.15 1.06095 2.28
20 0 2 o 687.990 689.828 -36.74 1.06359 2.47
12 1 5 o 3.115 2.971 -175.29 1.07925 0.02
13 11 -1 o 64.055 64.199 34.47 1.06345 0.46
20 2 0 o 280.554 281.144 82.77 1.06341 2.02
5 2 6 o 82.099 80.675 44.34 1.07602 0.50
5 2 -6 o 19.436 19.099 -2.77 1.07602 0.12
4 4 6 o 0.446 0.446 40.20 1.06503 0.00
19 3 1 o 34.211 33.945 -84.85 1.07071 0.22
17 6 -1 o 84.452 83.796 -26.69 1.07071 0.54
12 11 -2 o 45.750 45.572 4.24 1.06720 0.31
