#------------------------------------------------------------------------------
#$Date: 2016-03-22 21:51:41 +0200 (Tue, 22 Mar 2016) $
#$Revision: 179026 $
#$URL: svn://www.crystallography.net/cod/cif/4/12/24/4122440.cif $
#------------------------------------------------------------------------------
#
# This file is available in the Crystallography Open Database (COD),
# http://www.crystallography.net/
#
# All data on this site have been placed in the public domain by the
# contributors.
#
data_4122440
loop_
_publ_author_name
'Kapelewski, Matthew T.'
'Geier, Stephen J.'
'Hudson, Matthew R.'
'St\"uck, David'
'Mason, Jarad A.'
'Nelson, Jocienne N.'
'Xiao, Dianne J.'
'Hulvey, Zeric'
'Gilmour, Elizabeth'
'FitzGerald, Stephen A.'
'Head-Gordon, Martin'
'Brown, Craig M.'
'Long, Jeffrey R.'
_publ_section_title
;
 M2(m-dobdc) (M = Mg, Mn, Fe, Co, Ni) Metal-Organic Frameworks Exhibiting
 Increased Charge Density and Enhanced H2 Binding at the Open Metal Sites.
;
_journal_issue                   34
_journal_name_full               'Journal of the American Chemical Society'
_journal_page_first              12119
_journal_paper_doi               10.1021/ja506230r
_journal_volume                  136
_journal_year                    2014
_chemical_formula_sum            'C4 H2.05 Co O3'
_chemical_formula_weight         157.04
_chemical_name_systematic        ' ?'
_space_group_IT_number           160
_symmetry_cell_setting           trigonal
_symmetry_space_group_name_Hall  'R 3 -2"'
_symmetry_space_group_name_H-M   'R 3 m :H'
_audit_creation_date             2014-02-28T11:20
_audit_creation_method           'from EXP file using GSAS2CIF'
_audit_update_record
' 2014-02-28T11:20  Initial CIF as created by GSAS2CIF'
_cell_angle_alpha                90.0
_cell_angle_beta                 90.0
_cell_angle_gamma                120.0
_cell_formula_units_Z            18
_cell_length_a                   25.8595(10)
_cell_length_b                   25.8595
_cell_length_c                   6.7766(4)
_cell_volume                     3924.5(3)
_computing_structure_refinement  GSAS
_diffrn_radiation_probe          neutron
_diffrn_radiation_wavelength     2.0775
_exptl_absorpt_correction_T_max  1.00000
_exptl_absorpt_correction_T_min  1.00000
_exptl_absorpt_process_details
;   GSAS Absorption/surface roughness correction: function number 0
 No correction is applied.
;
_pd_block_id                     2014-02-28T11:20|P75H2|ZH|BT-1
_pd_calc_method                  'Rietveld Refinement'
_pd_instr_location               ' ?'
_pd_meas_2theta_range_inc        0.05
_pd_meas_2theta_range_max        166.24
_pd_meas_2theta_range_min        1.94
_pd_meas_number_of_points        3287
_pd_phase_name
'from C:/gsas/data/Coprime/CO_PRIME_R3M_R.cif'
_pd_proc_2theta_range_inc        0.05
_pd_proc_2theta_range_max        166.2769
_pd_proc_2theta_range_min        1.9769
_pd_proc_info_datetime           2014-02-28T11:20:10
_pd_proc_info_excluded_regions   ' ?'
_pd_proc_ls_background_function
;   GSAS Background function number 1 with 12 terms.
 Shifted Chebyshev function of 1st kind
      1:    1293.82     2:   -206.473     3:    107.047     4:    11.0083    
      5:    107.022     6:  -0.319005     7:    46.5769     8:    15.8340    
      9:    19.6901    10:  -0.781777    11:    10.5953    12:    2.99969    
;
_pd_proc_ls_peak_cutoff          0.00010
_pd_proc_ls_profile_function
;
 CW Profile function number 3 with  19 terms
 Pseudovoigt profile coefficients as parameterized in
 P. Thompson, D.E. Cox & J.B. Hastings (1987). J. Appl. Cryst.,20,79-83.
 Asymmetry correction of L.W. Finger, D.E. Cox & A. P. Jephcoat (1994).
 J. Appl. Cryst.,27,892-900.
 Peak tails are ignored  where the intensity is below 0.0001 times the peak
   Aniso. broadening axis   0.0   0.0   1.0
;
_pd_proc_ls_prof_R_factor        0.0212
_pd_proc_ls_prof_wR_expected     0.0260
_pd_proc_ls_prof_wR_factor       0.0253
_pd_proc_number_of_points        3287
_pd_spec_mounting                ' ?'
_refine_ls_goodness_of_fit_all   0.99
_refine_ls_matrix_type           full
_refine_ls_number_parameters     59
_refine_ls_number_restraints     0
_refine_ls_R_Fsqd_factor         0.03547
_refine_ls_shift/su_max          0.05
_refine_ls_shift/su_mean         0.01
_reflns_d_resolution_high        1.061
_reflns_d_resolution_low         12.930
_reflns_limit_h_max              21
_reflns_limit_h_min              0
_reflns_limit_k_max              12
_reflns_limit_k_min              0
_reflns_limit_l_max              6
_reflns_limit_l_min              -6
_reflns_number_total             428
_cod_data_source_file            P7H2.cif
_cod_data_source_block           P75H2_publ
_cod_depositor_comments
;
The following automatic conversions were performed:

'_geom_bond_publ_flag' value 'N' changed to 'n' according to
/usr/data/users/saulius/crontab/automatic-downloads/rss-feeds/ACS/lib/dictionaries/cif_core.dic
dictionary named 'cif_core.dic' version 2.4.2 from 2011-04-26 (35
times).

'_geom_angle_publ_flag' value 'N' changed to 'n' according
to
/usr/data/users/saulius/crontab/automatic-downloads/rss-feeds/ACS/lib/dictionaries/cif_core.dic
dictionary named 'cif_core.dic' version 2.4.2 from 2011-04-26 (32
times).

Automatic conversion script
Id: cif_fix_values 2281 2013-09-26 08:29:07Z andrius 

 Adding full bibliography for 4122440--4122455.cif.
;
_cod_original_cell_volume        3924.50(27)
_cod_original_sg_symbol_H-M      'R 3 m'
_cod_database_code               4122440
#BEGIN Tags that were not found in dictionaries:
_gsas_exptl_extinct_corr_t_min   1.00000
_gsas_exptl_extinct_corr_t_max   1.00000
#END Tags that were not found in dictionaries
loop_
_symmetry_equiv_pos_site_id
_symmetry_equiv_pos_as_xyz
1 +x,+y,+z
2 -y,x-y,+z
3 y-x,-x,+z
4 y-x,+y,+z
5 -y,-x,+z
6 +x,x-y,+z
101 +x+1/3,+y+2/3,+z+2/3
102 -y+1/3,x-y+2/3,+z+2/3
103 y-x+1/3,-x+2/3,+z+2/3
104 y-x+1/3,+y+2/3,+z+2/3
105 -y+1/3,-x+2/3,+z+2/3
106 +x+1/3,x-y+2/3,+z+2/3
201 +x+2/3,+y+1/3,+z+1/3
202 -y+2/3,x-y+1/3,+z+1/3
203 y-x+2/3,-x+1/3,+z+1/3
204 y-x+2/3,+y+1/3,+z+1/3
205 -y+2/3,-x+1/3,+z+1/3
206 +x+2/3,x-y+1/3,+z+1/3
loop_
_atom_site_type_symbol
_atom_site_label
_atom_site_fract_x
_atom_site_fract_y
_atom_site_fract_z
_atom_site_occupancy
_atom_site_thermal_displace_type
_atom_site_U_iso_or_equiv
_atom_site_symmetry_multiplicity
C C1 0.6571(4) 0.8756(4) 0.8410(17) 1.0 Uiso 0.011(4) 18
C C2 0.6687(8) 0.8344(4) 0.7520(26) 1.0 Uiso 0.018(5) 9
C C6 0.6388(5) 0.8658(4) 0.0446(16) 1.0 Uiso 0.0099(31) 18
C C11 0.6325(4) 0.9102(4) 0.1706(14) 1.0 Uiso 0.0115(26) 18
Co Co2 0.3270(14) 0.3745(12) 0.560(4) 1.0 Uiso 0.02 18
H H7 0.6797(12) 0.8399(6) 0.597(4) 1.0 Uiso 0.029(9) 9
O O9 0.6715(4) 0.9268(5) 0.7484(18) 1.0 Uiso 0.010(4) 18
O O12 0.6529(4) 0.9633(5) 0.0952(16) 1.0 Uiso 0.014(4) 18
O O15 0.6076(4) 0.8932(5) 0.3452(16) 1.0 Uiso 0.0151(28) 18
C C2m 0.6288(6) 0.81446(28) 0.1394(20) 1.0 Uiso 0.002(4) 9
H H7m 0.6190(11) 0.8094(6) 0.273(4) 1.0 Uiso 0.021(7) 9
H H1 0.2075(11) 0.2141(10) 0.0346(29) 1.046(29) Uiso 0.085(11) 18
loop_
_atom_type_symbol
_atom_type_number_in_cell
_atom_type_scat_length_neutron
_atom_type_scat_source
C 72.0 0.6646 International_Tables_Vol_C
Co 18.0 0.2490 International_Tables_Vol_C
H 36.825 -0.3739 International_Tables_Vol_C
O 54.0 0.5803 International_Tables_Vol_C
loop_
_geom_angle_atom_site_label_1
_geom_angle_atom_site_label_2
_geom_angle_atom_site_label_3
_geom_angle
_geom_angle_site_symmetry_1
_geom_angle_site_symmetry_3
_geom_angle_publ_flag
C2 C1 C6 117.5(10) 1_555 1_556 n
C2 C1 O9 119.8(13) 1_555 1_555 n
C6 C1 O9 121.8(9) 1_556 1_555 n
C1 C2 C1 123.2(17) 1_555 6_565 n
C1 C2 H7 118.0(9) 1_555 1_555 n
C1 C2 H7 117.8(9) 6_565 1_555 n
C1 C6 C11 124.2(8) 1_554 1_555 n
C1 C6 C2m 120.2(9) 1_554 1_555 n
C11 C6 C2m 115.5(9) 1_555 1_555 n
C6 C11 O12 116.1(9) 1_555 1_555 n
C6 C11 O15 118.5(9) 1_555 1_555 n
O12 C11 O15 125.3(10) 1_555 1_555 n
O9 Co2 O9 166.7(17) 3_565 102_654 n
O9 Co2 O12 83.5(11) 3_565 102_655 n
O9 Co2 O12 94.8(11) 3_565 201_445 n
O9 Co2 O15 98.8(15) 3_565 3_565 n
O9 Co2 O12 83.5(13) 102_654 102_655 n
O9 Co2 O12 80.3(9) 102_654 201_445 n
O9 Co2 O15 94.1(12) 102_654 3_565 n
O12 Co2 O12 81.9(9) 102_655 201_445 n
O12 Co2 O15 177.2(15) 102_655 3_565 n
O12 Co2 O15 96.2(11) 201_445 3_565 n
C1 O9 Co2 133.4(10) 1_555 2_665 n
C1 O9 Co2 121.0(12) 1_555 203_565 n
Co2 O9 Co2 94.7(11) 2_665 203_565 n
C11 O12 Co2 129.1(11) 1_555 101_554 n
C11 O12 Co2 131.0(12) 1_555 203_564 n
Co2 O12 Co2 95.2(5) 101_554 203_564 n
C11 O15 Co2 120.9(10) 1_555 2_665 n
C6 C2m C6 120.9(12) 1_555 6_565 n
C6 C2m H7m 119.6(6) 1_555 1_555 n
C6 C2m H7m 119.2(6) 6_565 1_555 n
loop_
_geom_bond_atom_site_label_1
_geom_bond_atom_site_label_2
_geom_bond_distance
_geom_bond_site_symmetry_2
_geom_bond_publ_flag
C1 C2 1.382(13) 1_555 n
C1 C6 1.439(11) 1_556 n
C1 O9 1.339(13) 1_555 n
C2 C1 1.382(13) 1_555 n
C2 C1 1.384(13) 6_565 n
C2 H7 1.08(4) 1_555 n
C6 C1 1.439(11) 1_554 n
C6 C11 1.504(12) 1_555 n
C6 C2m 1.379(11) 1_555 n
C6 H7m 2.008(27) 1_555 n
C11 C6 1.504(12) 1_555 n
C11 O12 1.304(14) 1_555 n
C11 O15 1.314(12) 1_555 n
Co2 O9 2.066(29) 3_565 n
Co2 O9 2.037(29) 102_654 n
Co2 O12 1.962(29) 102_655 n
Co2 O12 2.121(24) 201_445 n
Co2 O15 1.996(29) 3_565 n
Co2 H1 2.26(4) 103_555 n
H7 C2 1.08(4) 1_555 n
O9 C1 1.339(13) 1_555 n
O9 Co2 2.066(29) 2_665 n
O9 Co2 2.037(29) 203_565 n
O12 C11 1.304(14) 1_555 n
O12 Co2 2.121(24) 101_554 n
O12 Co2 1.962(29) 203_564 n
O15 C11 1.314(12) 1_555 n
O15 Co2 1.996(29) 2_665 n
C2m C6 1.379(11) 1_555 n
C2m C6 1.381(11) 6_565 n
C2m H7m 0.93(4) 1_555 n
H7m C6 2.008(27) 1_555 n
H7m C6 2.007(27) 6_565 n
H7m C2m 0.93(4) 1_555 n
H1 Co2 2.26(4) 202_554 n
loop_
_pd_meas_intensity_total
_pd_proc_ls_weight
_pd_proc_intensity_bkg_calc
_pd_calc_intensity_total
3410(120) 0.0 2160. .
2900(120) 0.0 2154. .
2920(120) 0.0 2147. .
2740(110) 0.0 2141. .
2660(110) 0.0 2134. .
2860(110) 0.0 2128. .
2730(110) 0.0 2122. .
2600(110) 0.0 2115. .
2690(110) 0.0 2109. .
2760(110) 0.0 2103. .
2480(110) 0.0 2097. .
2690(110) 0.0 2091. .
2690(110) 0.0 2085. .
2530(110) 0.0 2079. .
2680(110) 0.0 2073. .
2470(110) 0.0 2067. .
2490(110) 0.0 2061. .
2680(110) 0.0 2056. .
2850(110) 0.0 2050. .
2660(110) 0.0 2044. .
2480(110) 0.0 2038. .
2540(110) 0.0 2033. .
2700(110) 0.0 2027. .
2470(110) 0.0 2022. .
2560(110) 0.0 2016. .
2540(110) 0.0 2011. .
2530(110) 0.0 2005. .
2360(100) 0.0 2000. .
2240(100) 0.0 1995. .
2350(100) 0.0 1990. .
2260(100) 0.0 1984. .
2420(110) 0.0 1979. .
2580(110) 0.0 1974. .
2320(100) 0.0 1969. .
2430(110) 0.0 1964. .
2480(110) 0.0 1959. .
2200(100) 0.0 1954. .
2260(100) 0.0 1949. .
2380(100) 0.0 1944. .
2142(99) 0.0 1939. .
2250(100) 0.0 1934. .
2230(100) 0.0 1929. .
2290(100) 0.0 1925. .
2089(98) 0.0 1920. .
2220(100) 0.0 1915. .
2138(99) 0.0 1911. .
2165(99) 0.0 1906. .
2360(100) 0.0 1901. .
2270(100) 0.0 1897. .
2270(100) 0.0 1892. .
2290(100) 0.0 1888. .
2008(96) 0.0 1883. .
2151(99) 0.0 1879. .
2098(98) 0.0 1875. .
2066(97) 0.0 1870. .
1981(95) 0.0 1866. .
2048(97) 0.0 1862. .
1990(95) 0.0 1858. .
1883(93) 0.0 1853. .
2190(100) 0.0 1849. .
2098(98) 0.0 1845. .
2120(98) 0.0 1841. .
1914(94) 0.0 1837. .
2125(99) 0.0 1833. .
1802(91) 0.0 1829. .
1784(90) 0.0 1825. .
1753(90) 0.0 1821. .
1887(93) 0.0 1817. .
1883(93) 0.0 1813. .
1856(92) 0.0 1810. .
1770(90) 0.0 1806. .
1972(95) 0.0 1802. .
1838(92) 0.0 1798. .
1820(91) 0.0 1795. .
1676(88) 0.0 1791. .
1945(94) 0.0 1787. .
1708(89) 0.0 1784. .
1878(93) 0.0 1780. .
2030(96) 0.0 1776. .
1676(88) 0.0 1773. .
1587(85) 0.0 1769. .
1887(93) 0.0 1766. .
1806(91) 0.0001208 1762. 1778.
1779(90) 0.0001235 1759. 1776.
1865(92) 0.0001181 1756. 1773.
1694(88) 0.0001291 1752. 1770.
1708(89) 0.0001262 1749. 1767.
1811(91) 0.0001208 1746. 1765.
1533(84) 0.0001417 1742. 1762.
1865(92) 0.0001181 1739. 1760.
1708(89) 0.0001262 1736. 1758.
1658(87) 0.0001321 1733. 1755.
1654(87) 0.0001321 1730. 1753.
1860(92) 0.0001181 1726. 1751.
1726(89) 0.0001262 1723. 1749.
1757(90) 0.0001235 1720. 1747.
1676(88) 0.0001291 1717. 1745.
1699(88) 0.0001291 1714. 1743.
1712(89) 0.0001262 1711. 1742.
1838(62) 0.0002601 1708. 1740.
1725(60) 0.0002778 1705. 1739.
1770(61) 0.0002687 1702. 1738.
1769(61) 0.0002687 1699. 1737.
1701(60) 0.0002778 1696. 1737.
1696(60) 0.0002778 1694. 1736.
1742(61) 0.0002687 1691. 1736.
1759(61) 0.0002687 1688. 1736.
1785(61) 0.0002687 1685. 1736.
1809(62) 0.0002601 1682. 1737.
1734(61) 0.0002687 1680. 1738.
1717(60) 0.0002778 1677. 1740.
1656(59) 0.0002873 1674. 1742.
1782(61) 0.0002687 1671. 1745.
1723(60) 0.0002778 1669. 1748.
1801(62) 0.0002601 1666. 1753.
1802(62) 0.0002601 1664. 1759.
1801(62) 0.0002601 1661. 1766.
1902(63) 0.0002520 1658. 1777.
2039(66) 0.0002296 1656. 1792.
1948(64) 0.0002441 1653. 1816.
2154(68) 0.0002163 1651. 1854.
2103(67) 0.0002228 1648. 1914.
2387(71) 0.0001984 1646. 2004.
2292(70) 0.0002041 1643. 2125.
2448(72) 0.0001929 1641. 2279.
2607(74) 0.0001826 1639. 2462.
2731(76) 0.0001731 1636. 2672.
2991(80) 0.0001562 1634. 2906.
3053(81) 0.0001524 1632. 3165.
3308(84) 0.0001417 1629. 3452.
3562(87) 0.0001321 1627. 3771.
3804(90) 0.0001235 1625. 4126.
4192(95) 0.0001108 1622. 4525.
4536(98) 0.0001041 1620. 4977.
5180(110) 0.0000907 1618. 5496.
5860(110) 0.0000797 1616. 6100.
6710(120) 0.0000694 1614. 6818.
7350(130) 0.0000640 1611. 7696.
8320(130) 0.0000565 1609. 8803.
10100(150) 0.0000463 1607. 10234.
12390(160) 0.0000376 1605. 12058.
14870(180) 0.0000316 1603. 14211.
16610(190) 0.0000280 1601. 16337.
18160(200) 0.0000258 1599. 17730.
17850(200) 0.0000263 1597. 17529.
15380(180) 0.0000305 1595. 15315.
12090(160) 0.0000386 1593. 11778.
8420(130) 0.0000557 1591. 8220.
5840(110) 0.0000812 1589. 5486.
4088(93) 0.0001156 1587. 3762.
2720(76) 0.0001731 1585. 2833.
2345(70) 0.0002041 1583. 2378.
2122(67) 0.0002228 1581. 2156.
1932(64) 0.0002441 1579. 2033.
1769(61) 0.0002687 1577. 1952.
1770(61) 0.0002687 1576. 1892.
1702(60) 0.0002778 1574. 1846.
1664(59) 0.0002873 1572. 1808.
1715(60) 0.0002778 1570. 1777.
1644(59) 0.0002873 1568. 1751.
1622(59) 0.0002873 1566. 1730.
1742(61) 0.0002687 1565. 1711.
1647(59) 0.0002873 1563. 1695.
1602(58) 0.0002973 1561. 1681.
1583(58) 0.0002973 1560. 1669.
1680(60) 0.0002778 1558. 1658.
1566(57) 0.0003078 1556. 1648.
1598(58) 0.0002973 1555. 1639.
1536(57) 0.0003078 1553. 1631.
1456(55) 0.0003306 1551. 1624.
1540(57) 0.0003078 1550. 1617.
1655(59) 0.0002873 1548. 1611.
1433(55) 0.0003306 1546. 1606.
1474(56) 0.0003189 1545. 1600.
1557(57) 0.0003078 1543. 1596.
1698(60) 0.0002778 1542. 1591.
1504(56) 0.0003189 1540. 1587.
1498(56) 0.0003189 1539. 1583.
1560(57) 0.0003078 1537. 1579.
1531(57) 0.0003078 1536. 1575.
1553(57) 0.0003078 1534. 1572.
1581(58) 0.0002973 1533. 1569.
1492(56) 0.0003189 1531. 1565.
1514(57) 0.0003078 1530. 1562.
1537(57) 0.0003078 1528. 1560.
1546(57) 0.0003078 1527. 1557.
1507(56) 0.0003189 1525. 1554.
1640(80) 0.0001562 1524. 1552.
1527(77) 0.0001687 1523. 1549.
1601(79) 0.0001602 1521. 1547.
1539(77) 0.0001687 1520. 1545.
1493(76) 0.0001731 1519. 1542.
1419(74) 0.0001826 1517. 1540.
1609(79) 0.0001602 1516. 1538.
1521(77) 0.0001687 1515. 1536.
1557(78) 0.0001644 1513. 1534.
1584(79) 0.0001602 1512. 1532.
1639(80) 0.0001562 1511. 1530.
1558(78) 0.0001644 1509. 1528.
1516(56) 0.0003189 1508. 1527.
1599(58) 0.0002973 1507. 1525.
1533(56) 0.0003189 1506. 1523.
1603(58) 0.0002973 1505. 1521.
1545(57) 0.0003078 1503. 1520.
1533(56) 0.0003189 1502. 1518.
1563(57) 0.0003078 1501. 1517.
1572(57) 0.0003078 1500. 1515.
1491(55) 0.0003306 1499. 1514.
1505(56) 0.0003189 1497. 1512.
1520(56) 0.0003189 1496. 1511.
1490(55) 0.0003306 1495. 1510.
1418(54) 0.0003429 1494. 1508.
1555(57) 0.0003078 1493. 1507.
1560(57) 0.0003078 1492. 1506.
1510(56) 0.0003189 1491. 1504.
1447(55) 0.0003306 1490. 1503.
1496(56) 0.0003189 1488. 1502.
1508(56) 0.0003189 1487. 1500.
1512(56) 0.0003189 1486. 1499.
1538(56) 0.0003189 1485. 1498.
1538(56) 0.0003189 1484. 1497.
1507(56) 0.0003189 1483. 1496.
1531(56) 0.0003189 1482. 1495.
1506(56) 0.0003189 1481. 1494.
1483(55) 0.0003306 1480. 1493.
1605(58) 0.0002973 1479. 1492.
1599(58) 0.0002973 1478. 1491.
1549(57) 0.0003078 1477. 1490.
1645(58) 0.0002973 1476. 1489.
1598(57) 0.0003078 1475. 1488.
1470(55) 0.0003306 1474. 1487.
1559(57) 0.0003078 1473. 1486.
1564(57) 0.0003078 1472. 1485.
1577(57) 0.0003078 1471. 1484.
1523(56) 0.0003189 1470. 1484.
1558(57) 0.0003078 1469. 1483.
1574(57) 0.0003078 1469. 1482.
1553(57) 0.0003078 1468. 1481.
1533(56) 0.0003189 1467. 1481.
1471(55) 0.0003306 1466. 1480.
1435(54) 0.0003429 1465. 1480.
1524(56) 0.0003189 1464. 1479.
1465(55) 0.0003306 1463. 1479.
1473(55) 0.0003306 1462. 1478.
1477(55) 0.0003306 1462. 1478.
1482(55) 0.0003306 1461. 1477.
1491(55) 0.0003306 1460. 1477.
1402(54) 0.0003429 1459. 1477.
1439(54) 0.0003429 1458. 1477.
1405(54) 0.0003429 1457. 1477.
1461(55) 0.0003306 1457. 1477.
1479(55) 0.0003306 1456. 1478.
1539(56) 0.0003189 1455. 1478.
1421(54) 0.0003429 1454. 1479.
1464(55) 0.0003306 1453. 1480.
1448(55) 0.0003306 1453. 1481.
1430(54) 0.0003429 1452. 1482.
1446(55) 0.0003306 1451. 1484.
1518(56) 0.0003189 1450. 1486.
1557(57) 0.0003078 1450. 1488.
1560(57) 0.0003078 1449. 1492.
1488(55) 0.0003306 1448. 1496.
1459(55) 0.0003306 1447. 1501.
1531(56) 0.0003189 1447. 1508.
1588(57) 0.0003078 1446. 1519.
1603(58) 0.0002973 1445. 1536.
1679(59) 0.0002873 1444. 1565.
1779(61) 0.0002687 1444. 1611.
1760(60) 0.0002778 1443. 1682.
1869(62) 0.0002601 1442. 1783.
2024(65) 0.0002367 1442. 1921.
2148(67) 0.0002228 1441. 2097.
2388(71) 0.0001984 1440. 2318.
2659(75) 0.0001778 1440. 2599.
2996(79) 0.0001602 1439. 2961.
3442(85) 0.0001384 1438. 3433.
4101(93) 0.0001156 1438. 4031.
4830(100) 0.0000980 1437. 4717.
5440(110) 0.0000857 1436. 5352.
5610(110) 0.0000842 1436. 5701.
5310(110) 0.0000890 1435. 5523.
4545(98) 0.0001041 1434. 4789.
3558(87) 0.0001321 1434. 3799.
2863(78) 0.0001644 1433. 2903.
2283(69) 0.0002100 1433. 2267.
1784(61) 0.0002687 1432. 1894.
1757(60) 0.0002778 1431. 1704.
1719(87) 0.0001321 1431. 1613.
1563(56) 0.0003189 1430. 1568.
1497(55) 0.0003306 1429. 1541.
1536(56) 0.0003189 1429. 1523.
1589(57) 0.0003078 1428. 1509.
1560(56) 0.0003189 1428. 1498.
1472(54) 0.0003429 1427. 1490.
1455(54) 0.0003429 1427. 1482.
1433(54) 0.0003429 1426. 1476.
1574(56) 0.0003189 1425. 1472.
1533(56) 0.0003189 1425. 1467.
1518(55) 0.0003306 1424. 1464.
1472(54) 0.0003429 1424. 1461.
1477(55) 0.0003306 1423. 1458.
1510(55) 0.0003306 1423. 1456.
1464(54) 0.0003429 1422. 1454.
1489(55) 0.0003306 1422. 1452.
1438(54) 0.0003429 1421. 1451.
1476(55) 0.0003306 1421. 1450.
1458(54) 0.0003429 1420. 1449.
1411(53) 0.000356 1419. 1448.
1443(54) 0.0003429 1419. 1448.
1392(53) 0.000356 1418. 1448.
1380(53) 0.000356 1418. 1448.
1367(52) 0.000370 1417. 1449.
1468(54) 0.0003429 1417. 1450.
1432(54) 0.0003429 1416. 1452.
1436(54) 0.0003429 1416. 1454.
1372(53) 0.000356 1415. 1458.
1456(54) 0.0003429 1415. 1465.
1505(55) 0.0003306 1414. 1476.
1553(56) 0.0003189 1414. 1495.
1531(56) 0.0003189 1414. 1525.
1578(56) 0.0003189 1413. 1572.
1714(59) 0.0002873 1413. 1640.
1829(61) 0.0002687 1412. 1734.
1887(62) 0.0002601 1412. 1858.
2083(65) 0.0002367 1411. 2023.
2228(67) 0.0002228 1411. 2241.
2635(73) 0.0001877 1410. 2513.
2964(78) 0.0001644 1410. 2817.
3231(81) 0.0001524 1409. 3086.
3177(80) 0.0001562 1409. 3215.
2999(78) 0.0001644 1408. 3110.
2654(73) 0.0001877 1408. 2782.
2344(69) 0.0002100 1408. 2365.
1932(63) 0.0002520 1407. 1999.
1685(58) 0.0002973 1407. 1744.
1542(56) 0.0003189 1406. 1597.
1531(56) 0.0003189 1406. 1523.
1499(55) 0.0003306 1405. 1487.
1534(56) 0.0003189 1405. 1469.
1429(54) 0.0003429 1405. 1459.
1399(53) 0.000356 1404. 1451.
1505(55) 0.0003306 1404. 1446.
1441(54) 0.0003429 1403. 1441.
1417(53) 0.000356 1403. 1438.
1410(53) 0.000356 1402. 1435.
1474(55) 0.0003306 1402. 1433.
1491(55) 0.0003306 1402. 1431.
1495(55) 0.0003306 1401. 1430.
1474(55) 0.0003306 1401. 1429.
1478(55) 0.0003306 1400. 1428.
1431(54) 0.0003429 1400. 1428.
1442(54) 0.0003429 1400. 1428.
1431(54) 0.0003429 1399. 1428.
1417(53) 0.000356 1399. 1429.
1476(55) 0.0003306 1399. 1430.
1442(54) 0.0003429 1398. 1432.
1398(53) 0.000356 1398. 1434.
1421(54) 0.0003429 1397. 1436.
1404(53) 0.000356 1397. 1440.
1428(54) 0.0003429 1397. 1446.
1484(55) 0.0003306 1396. 1454.
1461(54) 0.0003429 1396. 1469.
1490(55) 0.0003306 1396. 1493.
1528(56) 0.0003189 1395. 1535.
1590(57) 0.0003078 1395. 1601.
1719(59) 0.0002873 1394. 1700.
1801(60) 0.0002778 1394. 1841.
1975(63) 0.0002520 1394. 2037.
2216(67) 0.0002228 1393. 2301.
2573(72) 0.0001929 1393. 2639.
3051(79) 0.0001602 1393. 3024.
3582(85) 0.0001384 1392. 3378.
3795(88) 0.0001291 1392. 3572.
3564(85) 0.0001384 1392. 3481.
3066(79) 0.0001602 1391. 3101.
2518(71) 0.0001984 1391. 2596.
2035(64) 0.0002441 1391. 2141.
1792(60) 0.0002778 1390. 1819.
1643(58) 0.0002973 1390. 1631.
1482(55) 0.0003306 1390. 1535.
1429(54) 0.0003429 1389. 1489.
1387(53) 0.000356 1389. 1466.
1517(55) 0.0003306 1389. 1453.
1415(53) 0.000356 1388. 1444.
1340(52) 0.000370 1388. 1437.
1478(55) 0.0003306 1388. 1432.
1456(54) 0.0003429 1387. 1429.
1300(49) 0.000416 1387. 1426.
1389(50) 0.000400 1387. 1423.
1431(51) 0.000384 1386. 1421.
1422(51) 0.000384 1386. 1420.
1406(51) 0.000384 1386. 1420.
1436(51) 0.000384 1385. 1419.
1402(51) 0.000384 1385. 1419.
1453(52) 0.000370 1385. 1420.
1420(51) 0.000384 1384. 1421.
1425(51) 0.000384 1384. 1423.
1462(52) 0.000370 1384. 1425.
1433(51) 0.000384 1383. 1428.
1468(52) 0.000370 1383. 1433.
1509(53) 0.000356 1383. 1440.
1478(52) 0.000370 1382. 1451.
1515(53) 0.000356 1382. 1469.
1508(52) 0.000370 1382. 1501.
1547(53) 0.000356 1382. 1556.
1665(55) 0.0003306 1381. 1645.
1770(57) 0.0003078 1381. 1782.
1852(58) 0.0002973 1381. 1981.
2189(63) 0.0002520 1380. 2260.
2570(69) 0.0002100 1380. 2624.
3018(74) 0.0001826 1380. 3047.
3388(79) 0.0001602 1379. 3450.
3766(83) 0.0001452 1379. 3696.
3741(83) 0.0001452 1379. 3645.
3383(79) 0.0001602 1379. 3274.
2716(71) 0.0001984 1378. 2741.
2198(63) 0.0002520 1378. 2242.
1874(59) 0.0002873 1378. 1877.
1596(54) 0.0003429 1377. 1658.
1529(53) 0.000356 1377. 1543.
1439(51) 0.000384 1377. 1489.
1417(51) 0.000384 1377. 1462.
1526(53) 0.000356 1376. 1447.
1462(52) 0.000370 1376. 1437.
1366(50) 0.000400 1376. 1430.
1449(51) 0.000384 1375. 1425.
1362(50) 0.000400 1375. 1421.
1365(50) 0.000400 1375. 1418.
1342(49) 0.000416 1375. 1415.
1397(50) 0.000400 1374. 1414.
1453(51) 0.000384 1374. 1413.
1476(52) 0.000370 1374. 1413.
1382(50) 0.000400 1373. 1413.
1398(51) 0.000384 1373. 1414.
1376(50) 0.000400 1373. 1415.
1354(50) 0.000400 1373. 1417.
1364(50) 0.000400 1372. 1421.
1406(51) 0.000384 1372. 1425.
1330(49) 0.000416 1372. 1432.
1386(50) 0.000400 1372. 1442.
1493(52) 0.000370 1371. 1459.
1496(52) 0.000370 1371. 1490.
1559(53) 0.000356 1371. 1543.
1672(55) 0.0003306 1371. 1633.
1874(59) 0.0002873 1370. 1779.
2066(62) 0.0002601 1370. 2003.
2377(66) 0.0002296 1370. 2323.
2685(70) 0.0002041 1369. 2745.
3127(76) 0.0001731 1369. 3233.
3593(81) 0.0001524 1369. 3689.
3876(84) 0.0001417 1369. 3956.
3846(84) 0.0001417 1368. 3882.
3555(81) 0.0001524 1368. 3455.
2878(73) 0.0001877 1368. 2861.
2360(66) 0.0002296 1368. 2311.
1904(59) 0.0002873 1367. 1911.
1632(55) 0.0003306 1367. 1671.
1564(53) 0.000356 1367. 1545.
1482(52) 0.000370 1367. 1484.
1438(51) 0.000384 1366. 1454.
1398(51) 0.000384 1366. 1438.
1352(50) 0.000400 1366. 1426.
1372(50) 0.000400 1366. 1418.
1394(50) 0.000400 1365. 1411.
1367(50) 0.000400 1365. 1406.
1394(50) 0.000400 1365. 1402.
1375(50) 0.000400 1365. 1399.
1399(51) 0.000384 1364. 1396.
1519(53) 0.000356 1364. 1394.
1451(51) 0.000384 1364. 1392.
1380(50) 0.000400 1364. 1390.
1392(50) 0.000400 1363. 1389.
1386(50) 0.000400 1363. 1388.
1333(49) 0.000416 1363. 1388.
1368(50) 0.000400 1363. 1389.
1317(49) 0.000416 1363. 1391.
1399(51) 0.000384 1362. 1395.
1418(51) 0.000384 1362. 1402.
1411(51) 0.000384 1362. 1416.
1387(50) 0.000400 1362. 1437.
1488(52) 0.000370 1361. 1467.
1468(52) 0.000370 1361. 1505.
1450(51) 0.000384 1361. 1547.
1590(54) 0.0003429 1361. 1581.
1513(53) 0.000356 1360. 1594.
1614(54) 0.0003429 1360. 1576.
1513(53) 0.000356 1360. 1533.
1436(51) 0.000384 1360. 1483.
1444(51) 0.000384 1359. 1442.
1339(49) 0.000416 1359. 1414.
1363(50) 0.000400 1359. 1398.
1345(49) 0.000416 1359. 1390.
1375(50) 0.000400 1359. 1387.
1372(50) 0.000400 1358. 1386.
1369(50) 0.000400 1358. 1386.
1369(50) 0.000400 1358. 1386.
1402(50) 0.000400 1358. 1387.
1443(51) 0.000384 1357. 1389.
1399(50) 0.000400 1357. 1390.
1410(51) 0.000384 1357. 1393.
1424(51) 0.000384 1357. 1396.
1410(51) 0.000384 1357. 1399.
1447(51) 0.000384 1356. 1404.
1412(51) 0.000384 1356. 1410.
1386(50) 0.000400 1356. 1418.
1392(50) 0.000400 1356. 1429.
1410(51) 0.000384 1355. 1445.
1517(52) 0.000370 1355. 1472.
1568(53) 0.000356 1355. 1520.
1711(56) 0.0003189 1355. 1607.
1804(57) 0.0003078 1355. 1760.
1985(60) 0.0002778 1354. 2012.
2353(65) 0.0002367 1354. 2400.
2878(72) 0.0001929 1354. 2937.
3533(80) 0.0001562 1354. 3586.
4204(88) 0.0001291 1353. 4230.
4741(93) 0.0001156 1353. 4669.
4871(94) 0.0001132 1353. 4697.
4337(89) 0.0001262 1353. 4248.
3537(80) 0.0001562 1353. 3513.
2744(71) 0.0001984 1352. 2771.
2127(62) 0.0002601 1352. 2195.
1855(58) 0.0002973 1352. 1824.
1635(54) 0.0003429 1352. 1620.
1534(53) 0.000356 1352. 1519.
1429(51) 0.000384 1351. 1470.
1486(52) 0.000370 1351. 1443.
1440(51) 0.000384 1351. 1426.
1364(50) 0.000400 1351. 1415.
1312(49) 0.000416 1351. 1405.
1374(50) 0.000400 1350. 1398.
1401(50) 0.000400 1350. 1392.
1412(51) 0.000384 1350. 1387.
1415(51) 0.000384 1350. 1383.
1361(50) 0.000400 1349. 1380.
1309(49) 0.000416 1349. 1377.
1373(50) 0.000400 1349. 1374.
1417(51) 0.000384 1349. 1372.
1388(50) 0.000400 1349. 1370.
1343(49) 0.000416 1348. 1369.
1374(50) 0.000400 1348. 1367.
1340(49) 0.000416 1348. 1366.
1388(50) 0.000400 1348. 1365.
1410(51) 0.000384 1348. 1364.
1351(49) 0.000416 1348. 1364.
1354(49) 0.000416 1347. 1363.
1341(49) 0.000416 1347. 1363.
1332(49) 0.000416 1347. 1363.
1388(50) 0.000400 1347. 1362.
1328(49) 0.000416 1347. 1361.
1299(48) 0.000434 1346. 1360.
1380(50) 0.000400 1346. 1358.
1357(50) 0.000400 1346. 1357.
1418(51) 0.000384 1346. 1356.
1352(49) 0.000416 1346. 1356.
1362(50) 0.000400 1345. 1355.
1390(50) 0.000400 1345. 1355.
1336(49) 0.000416 1345. 1354.
1342(49) 0.000416 1345. 1354.
1342(49) 0.000416 1345. 1354.
1380(50) 0.000400 1344. 1353.
1364(50) 0.000400 1344. 1353.
1410(51) 0.000384 1344. 1353.
1426(51) 0.000384 1344. 1353.
1389(50) 0.000400 1344. 1352.
1403(50) 0.000400 1344. 1352.
1351(49) 0.000416 1343. 1352.
1332(49) 0.000416 1343. 1352.
1359(50) 0.000400 1343. 1352.
1361(50) 0.000400 1343. 1352.
1366(50) 0.000400 1343. 1351.
1328(49) 0.000416 1342. 1351.
1288(48) 0.000434 1342. 1351.
1298(48) 0.000434 1342. 1351.
1352(49) 0.000416 1342. 1351.
1370(50) 0.000400 1342. 1351.
1430(51) 0.000384 1342. 1351.
1413(51) 0.000384 1341. 1352.
1315(49) 0.000416 1341. 1352.
1371(50) 0.000400 1341. 1352.
1293(48) 0.000434 1341. 1352.
1264(48) 0.000434 1341. 1353.
1292(48) 0.000434 1341. 1353.
1397(50) 0.000400 1340. 1353.
1409(51) 0.000384 1340. 1354.
1342(49) 0.000416 1340. 1355.
1337(49) 0.000416 1340. 1356.
1346(48) 0.000434 1340. 1357.
1368(48) 0.000434 1340. 1358.
1365(48) 0.000434 1339. 1359.
1371(48) 0.000434 1339. 1361.
1375(48) 0.000434 1339. 1363.
1315(47) 0.000453 1339. 1366.
1394(48) 0.000434 1339. 1370.
1426(49) 0.000416 1339. 1374.
1402(49) 0.000416 1338. 1381.
1423(49) 0.000416 1338. 1391.
1447(49) 0.000416 1338. 1409.
1458(50) 0.000400 1338. 1442.
1577(52) 0.000370 1338. 1503.
1751(54) 0.0003429 1338. 1610.
1854(56) 0.0003189 1337. 1783.
2000(58) 0.0002973 1337. 2034.
2266(62) 0.0002601 1337. 2347.
2686(67) 0.0002228 1337. 2670.
2891(70) 0.0002041 1337. 2909.
2925(70) 0.0002041 1337. 2965.
2715(68) 0.0002163 1337. 2796.
2413(64) 0.0002441 1336. 2472.
2082(59) 0.0002873 1336. 2116.
1796(55) 0.0003306 1336. 1821.
1628(52) 0.000370 1336. 1619.
1545(51) 0.000384 1336. 1501.
1471(50) 0.000400 1336. 1439.
1470(50) 0.000400 1335. 1410.
1470(50) 0.000400 1335. 1395.
1467(50) 0.000400 1335. 1387.
1444(49) 0.000416 1335. 1382.
1363(48) 0.000434 1335. 1380.
1341(47) 0.000453 1335. 1378.
1445(49) 0.000416 1335. 1378.
1434(49) 0.000416 1334. 1379.
1413(49) 0.000416 1334. 1382.
1390(48) 0.000434 1334. 1388.
1462(50) 0.000400 1334. 1399.
1420(49) 0.000416 1334. 1421.
1462(50) 0.000400 1334. 1463.
1602(52) 0.000370 1334. 1539.
1699(54) 0.0003429 1333. 1668.
1898(57) 0.0003078 1333. 1861.
2129(60) 0.0002778 1333. 2114.
2372(63) 0.0002520 1333. 2389.
2574(66) 0.0002296 1333. 2615.
2635(67) 0.0002228 1333. 2706.
2466(65) 0.0002367 1333. 2610.
2332(63) 0.0002520 1333. 2363.
2044(59) 0.0002873 1332. 2065.
1818(55) 0.0003306 1332. 1801.
1622(52) 0.000370 1332. 1611.
1562(51) 0.000384 1332. 1495.
1564(51) 0.000384 1332. 1432.
1419(49) 0.000416 1332. 1401.
1403(49) 0.000416 1332. 1386.
1378(48) 0.000434 1332. 1378.
1387(48) 0.000434 1331. 1373.
1371(48) 0.000434 1331. 1371.
1283(46) 0.000473 1331. 1369.
1326(47) 0.000453 1331. 1369.
1372(48) 0.000434 1331. 1370.
1330(47) 0.000453 1331. 1374.
1400(49) 0.000416 1331. 1382.
1405(49) 0.000416 1331. 1399.
1402(49) 0.000416 1330. 1432.
1494(50) 0.000400 1330. 1492.
1551(51) 0.000384 1330. 1590.
1708(54) 0.0003429 1330. 1733.
1905(57) 0.0003078 1330. 1909.
2106(60) 0.0002778 1330. 2085.
2227(61) 0.0002687 1330. 2211.
2235(62) 0.0002601 1330. 2231.
2127(60) 0.0002778 1330. 2128.
1907(57) 0.0003078 1329. 1946.
1712(54) 0.0003429 1329. 1753.
1598(52) 0.000370 1329. 1594.
1505(50) 0.000400 1329. 1485.
1455(49) 0.000416 1329. 1420.
1431(49) 0.000416 1329. 1386.
1373(48) 0.000434 1329. 1369.
1376(48) 0.000434 1329. 1360.
1356(48) 0.000434 1329. 1355.
1325(47) 0.000453 1328. 1351.
1344(47) 0.000453 1328. 1349.
1316(47) 0.000453 1328. 1347.
1354(48) 0.000434 1328. 1345.
1414(49) 0.000416 1328. 1344.
1374(48) 0.000434 1328. 1344.
1310(47) 0.000453 1328. 1344.
1272(46) 0.000473 1328. 1345.
1338(47) 0.000453 1328. 1348.
1384(48) 0.000434 1328. 1352.
1359(48) 0.000434 1327. 1357.
1330(47) 0.000453 1327. 1361.
1426(49) 0.000416 1327. 1362.
1399(48) 0.000434 1327. 1361.
1342(47) 0.000453 1327. 1356.
1328(47) 0.000453 1327. 1351.
1294(47) 0.000453 1327. 1345.
1361(38) 0.000693 1327. 1341.
1364(45) 0.000494 1327. 1339.
1384(45) 0.000494 1327. 1338.
1371(45) 0.000494 1327. 1337.
1353(44) 0.000517 1326. 1337.
1344(44) 0.000517 1326. 1337.
1389(45) 0.000494 1326. 1337.
1375(45) 0.000494 1326. 1338.
1296(43) 0.000541 1326. 1339.
1327(44) 0.000517 1326. 1340.
1366(45) 0.000494 1326. 1342.
1358(44) 0.000517 1326. 1344.
1320(44) 0.000517 1326. 1349.
1312(44) 0.000517 1326. 1359.
1388(45) 0.000494 1326. 1376.
1410(45) 0.000494 1326. 1406.
1523(47) 0.000453 1325. 1453.
1597(48) 0.000434 1325. 1521.
1691(50) 0.000400 1325. 1605.
1682(49) 0.000416 1325. 1691.
1751(50) 0.000400 1325. 1760.
1843(52) 0.000370 1325. 1789.
1804(51) 0.000384 1325. 1767.
1612(48) 0.000434 1325. 1700.
1520(47) 0.000453 1325. 1610.
1521(47) 0.000453 1325. 1521.
1458(46) 0.000473 1325. 1449.
1381(45) 0.000494 1325. 1400.
1345(44) 0.000517 1325. 1371.
1361(44) 0.000517 1325. 1355.
1373(45) 0.000494 1325. 1347.
1355(44) 0.000517 1324. 1343.
1271(43) 0.000541 1324. 1340.
1368(45) 0.000494 1324. 1339.
1359(44) 0.000517 1324. 1338.
1291(43) 0.000541 1324. 1338.
1320(44) 0.000517 1324. 1340.
1347(44) 0.000517 1324. 1343.
1354(44) 0.000517 1324. 1349.
1322(44) 0.000517 1324. 1361.
1397(45) 0.000494 1324. 1378.
1392(45) 0.000494 1324. 1401.
1486(46) 0.000473 1324. 1425.
1520(47) 0.000453 1324. 1444.
1466(46) 0.000473 1324. 1451.
1461(46) 0.000473 1324. 1442.
1402(45) 0.000494 1324. 1421.
1379(45) 0.000494 1324. 1395.
1353(44) 0.000517 1324. 1372.
1335(44) 0.000517 1323. 1355.
1342(44) 0.000517 1323. 1344.
1354(44) 0.000517 1323. 1338.
1350(44) 0.000517 1323. 1335.
1324(44) 0.000517 1323. 1333.
1354(44) 0.000517 1323. 1332.
1361(44) 0.000517 1323. 1332.
1339(44) 0.000517 1323. 1332.
1359(44) 0.000517 1323. 1332.
1325(44) 0.000517 1323. 1332.
1293(43) 0.000541 1323. 1332.
1330(44) 0.000517 1323. 1333.
1362(44) 0.000517 1323. 1335.
1333(44) 0.000517 1323. 1339.
1326(44) 0.000517 1323. 1346.
1307(44) 0.000517 1323. 1357.
1340(44) 0.000517 1323. 1375.
1374(45) 0.000494 1323. 1398.
1445(46) 0.000473 1323. 1424.
1432(46) 0.000473 1323. 1447.
1421(45) 0.000494 1323. 1460.
1438(46) 0.000473 1323. 1455.
1494(47) 0.000453 1323. 1436.
1436(46) 0.000473 1323. 1410.
1378(45) 0.000494 1323. 1384.
1335(44) 0.000517 1323. 1364.
1405(45) 0.000494 1322. 1351.
1355(44) 0.000517 1322. 1344.
1332(44) 0.000517 1322. 1340.
1361(44) 0.000517 1322. 1339.
1328(44) 0.000517 1322. 1339.
1341(44) 0.000517 1322. 1340.
1338(44) 0.000517 1322. 1342.
1324(44) 0.000517 1322. 1345.
1385(45) 0.000494 1322. 1350.
1381(45) 0.000494 1322. 1360.
1380(45) 0.000494 1322. 1378.
1428(46) 0.000473 1322. 1410.
1425(46) 0.000473 1322. 1464.
1476(46) 0.000473 1322. 1544.
1652(49) 0.000416 1322. 1651.
1780(51) 0.000384 1322. 1773.
1865(52) 0.000370 1322. 1885.
1997(54) 0.0003429 1322. 1957.
2006(54) 0.0003429 1322. 1958.
1838(52) 0.000370 1322. 1886.
1727(50) 0.000400 1322. 1765.
1617(48) 0.000434 1322. 1637.
1478(46) 0.000473 1322. 1528.
1479(46) 0.000473 1322. 1450.
1440(46) 0.000473 1322. 1401.
1407(43) 0.000541 1322. 1374.
1381(42) 0.000567 1322. 1360.
1331(41) 0.000595 1322. 1354.
1335(41) 0.000595 1322. 1351.
1284(41) 0.000595 1322. 1352.
1331(41) 0.000595 1322. 1354.
1385(42) 0.000567 1322. 1361.
1358(42) 0.000567 1322. 1375.
1442(43) 0.000541 1322. 1402.
1440(43) 0.000541 1322. 1446.
1504(44) 0.000517 1322. 1513.
1546(45) 0.000494 1322. 1602.
1602(45) 0.000494 1322. 1700.
1805(48) 0.000434 1322. 1786.
1820(48) 0.000434 1322. 1832.
1794(48) 0.000434 1322. 1819.
1692(47) 0.000453 1322. 1750.
1612(46) 0.000473 1322. 1652.
1486(44) 0.000517 1322. 1553.
1434(43) 0.000541 1322. 1473.
1393(42) 0.000567 1322. 1417.
1415(43) 0.000541 1322. 1383.
1374(42) 0.000567 1322. 1364.
1376(42) 0.000567 1322. 1356.
1381(42) 0.000567 1322. 1353.
1358(42) 0.000567 1322. 1353.
1386(42) 0.000567 1322. 1356.
1406(43) 0.000541 1322. 1365.
1406(43) 0.000541 1322. 1382.
1475(44) 0.000517 1322. 1414.
1477(44) 0.000517 1322. 1466.
1537(45) 0.000494 1322. 1542.
1680(47) 0.000453 1322. 1639.
1751(48) 0.000434 1322. 1747.
1831(49) 0.000416 1322. 1842.
1935(50) 0.000400 1322. 1896.
1868(49) 0.000416 1322. 1891.
1808(48) 0.000434 1322. 1829.
1710(47) 0.000453 1322. 1729.
1654(46) 0.000473 1322. 1618.
1514(44) 0.000517 1322. 1521.
1473(44) 0.000517 1322. 1448.
1475(44) 0.000517 1322. 1399.
1361(42) 0.000567 1322. 1370.
1380(42) 0.000567 1322. 1354.
1365(42) 0.000567 1322. 1346.
1321(41) 0.000595 1322. 1341.
1386(42) 0.000567 1322. 1338.
1366(42) 0.000567 1322. 1336.
1294(41) 0.000595 1322. 1335.
1291(41) 0.000595 1322. 1334.
1306(41) 0.000595 1322. 1333.
1366(42) 0.000567 1322. 1332.
1340(42) 0.000567 1323. 1331.
1326(41) 0.000595 1323. 1331.
1355(42) 0.000567 1323. 1330.
1338(41) 0.000595 1323. 1330.
1321(41) 0.000595 1323. 1330.
1352(42) 0.000567 1323. 1329.
1301(41) 0.000595 1323. 1329.
1335(41) 0.000595 1323. 1329.
1400(42) 0.000567 1323. 1329.
1383(42) 0.000567 1323. 1329.
1395(42) 0.000567 1323. 1329.
1350(42) 0.000567 1323. 1329.
1443(43) 0.000541 1323. 1329.
1391(42) 0.000567 1323. 1329.
1421(43) 0.000541 1323. 1329.
1403(43) 0.000541 1323. 1330.
1374(42) 0.000567 1323. 1331.
1307(41) 0.000595 1323. 1332.
1323(41) 0.000595 1323. 1335.
1317(41) 0.000595 1323. 1340.
1377(42) 0.000567 1323. 1346.
1366(42) 0.000567 1323. 1354.
1364(42) 0.000567 1323. 1363.
1359(42) 0.000567 1323. 1370.
1360(42) 0.000567 1323. 1373.
1388(42) 0.000567 1323. 1371.
1361(42) 0.000567 1323. 1364.
1337(41) 0.000595 1323. 1356.
1328(41) 0.000595 1323. 1348.
1386(42) 0.000567 1323. 1342.
1362(42) 0.000567 1323. 1338.
1341(42) 0.000567 1324. 1335.
1362(42) 0.000567 1324. 1334.
1327(41) 0.000595 1324. 1334.
1285(41) 0.000595 1324. 1335.
1323(41) 0.000595 1324. 1336.
1245(40) 0.000625 1324. 1338.
1316(41) 0.000595 1324. 1342.
1383(42) 0.000567 1324. 1348.
1312(41) 0.000595 1324. 1360.
1374(42) 0.000567 1324. 1380.
1443(43) 0.000541 1324. 1413.
1509(44) 0.000517 1324. 1459.
1489(44) 0.000517 1324. 1517.
1607(46) 0.000473 1324. 1579.
1633(46) 0.000473 1324. 1631.
1680(47) 0.000453 1324. 1658.
1679(44) 0.000517 1324. 1648.
1642(43) 0.000541 1324. 1605.
1523(42) 0.000567 1324. 1545.
1430(40) 0.000625 1324. 1484.
1400(40) 0.000625 1324. 1432.
1386(40) 0.000625 1324. 1395.
1368(39) 0.000657 1325. 1371.
1373(39) 0.000657 1325. 1359.
1354(39) 0.000657 1325. 1353.
1389(40) 0.000625 1325. 1353.
1403(40) 0.000625 1325. 1359.
1422(40) 0.000625 1325. 1371.
1400(40) 0.000625 1325. 1394.
1461(41) 0.000595 1325. 1431.
1494(41) 0.000595 1325. 1484.
1554(42) 0.000567 1325. 1551.
1645(43) 0.000541 1325. 1622.
1709(44) 0.000517 1325. 1683.
1738(44) 0.000517 1325. 1715.
1709(44) 0.000517 1325. 1708.
1692(44) 0.000517 1325. 1663.
1626(43) 0.000541 1325. 1597.
1579(42) 0.000567 1325. 1527.
1449(41) 0.000595 1325. 1464.
1464(41) 0.000595 1325. 1416.
1438(40) 0.000625 1325. 1384.
1348(39) 0.000657 1326. 1364.
1376(40) 0.000625 1326. 1353.
1339(39) 0.000657 1326. 1347.
1294(38) 0.000693 1326. 1344.
1347(39) 0.000657 1326. 1343.
1343(39) 0.000657 1326. 1344.
1348(39) 0.000657 1326. 1347.
1358(39) 0.000657 1326. 1353.
1380(40) 0.000625 1326. 1362.
1363(39) 0.000657 1326. 1377.
1382(40) 0.000625 1326. 1397.
1464(41) 0.000595 1326. 1419.
1426(40) 0.000625 1326. 1440.
1461(41) 0.000595 1326. 1454.
1496(41) 0.000595 1326. 1456.
1449(41) 0.000595 1326. 1445.
1388(40) 0.000625 1326. 1425.
1402(40) 0.000625 1326. 1403.
1389(40) 0.000625 1327. 1383.
1372(39) 0.000657 1327. 1368.
1355(39) 0.000657 1327. 1359.
1342(39) 0.000657 1327. 1354.
1388(40) 0.000625 1327. 1353.
1359(39) 0.000657 1327. 1357.
1354(39) 0.000657 1327. 1366.
1384(40) 0.000625 1327. 1383.
1406(40) 0.000625 1327. 1412.
1447(41) 0.000595 1327. 1456.
1552(42) 0.000567 1327. 1519.
1632(43) 0.000541 1327. 1596.
1643(43) 0.000541 1327. 1678.
1711(44) 0.000517 1327. 1749.
1736(44) 0.000517 1327. 1791.
1764(45) 0.000494 1327. 1792.
1740(45) 0.000494 1327. 1753.
1624(43) 0.000541 1328. 1684.
1534(42) 0.000567 1328. 1604.
1416(40) 0.000625 1328. 1527.
1430(40) 0.000625 1328. 1465.
1431(40) 0.000625 1328. 1420.
1392(40) 0.000625 1328. 1392.
1346(39) 0.000657 1328. 1375.
1415(40) 0.000625 1328. 1368.
1375(40) 0.000625 1328. 1368.
1339(39) 0.000657 1328. 1375.
1399(40) 0.000625 1328. 1392.
1476(41) 0.000595 1328. 1423.
1514(41) 0.000595 1328. 1473.
1541(42) 0.000567 1328. 1547.
1608(43) 0.000541 1328. 1641.
1669(44) 0.000517 1328. 1746.
1793(45) 0.000494 1328. 1843.
1909(47) 0.000453 1329. 1906.
1872(46) 0.000473 1329. 1914.
1771(45) 0.000494 1329. 1862.
1686(44) 0.000517 1329. 1770.
1593(43) 0.000541 1329. 1663.
1537(42) 0.000567 1329. 1564.
1397(40) 0.000625 1329. 1485.
1367(39) 0.000657 1329. 1430.
1384(40) 0.000625 1329. 1395.
1409(40) 0.000625 1329. 1375.
1346(39) 0.000657 1329. 1367.
1301(38) 0.000693 1329. 1365.
1366(39) 0.000657 1329. 1369.
1357(39) 0.000657 1329. 1380.
1392(40) 0.000625 1329. 1399.
1382(40) 0.000625 1329. 1425.
1405(40) 0.000625 1330. 1459.
1425(40) 0.000625 1330. 1495.
1454(41) 0.000595 1330. 1528.
1553(42) 0.000567 1330. 1547.
1518(42) 0.000567 1330. 1547.
1510(41) 0.000595 1330. 1527.
1509(39) 0.000657 1330. 1494.
1460(39) 0.000657 1330. 1456.
1416(38) 0.000693 1330. 1421.
1366(37) 0.000730 1330. 1394.
1387(38) 0.000693 1330. 1374.
1404(38) 0.000693 1330. 1362.
1328(37) 0.000730 1330. 1356.
1367(37) 0.000730 1330. 1353.
1371(37) 0.000730 1330. 1354.
1289(36) 0.000772 1330. 1358.
1334(37) 0.000730 1330. 1366.
1423(38) 0.000693 1330. 1380.
1369(37) 0.000730 1331. 1399.
1421(38) 0.000693 1331. 1422.
1427(38) 0.000693 1331. 1448.
1479(39) 0.000657 1331. 1472.
1507(39) 0.000657 1331. 1487.
1488(39) 0.000657 1331. 1488.
1465(39) 0.000657 1331. 1476.
1415(38) 0.000693 1331. 1455.
1393(38) 0.000693 1331. 1431.
1432(38) 0.000693 1331. 1409.
1358(37) 0.000730 1331. 1393.
1379(38) 0.000693 1331. 1384.
1388(38) 0.000693 1331. 1384.
1410(38) 0.000693 1331. 1394.
1428(38) 0.000693 1331. 1420.
1467(39) 0.000657 1331. 1466.
1514(39) 0.000657 1331. 1539.
1562(40) 0.000625 1331. 1644.
1738(42) 0.000567 1331. 1777.
1905(44) 0.000517 1332. 1924.
2092(46) 0.000473 1332. 2061.
2238(48) 0.000434 1332. 2155.
2132(47) 0.000453 1332. 2175.
2124(47) 0.000453 1332. 2114.
1951(45) 0.000494 1332. 1993.
1776(43) 0.000541 1332. 1845.
1725(42) 0.000567 1332. 1702.
1578(40) 0.000625 1332. 1583.
1476(39) 0.000657 1332. 1494.
1396(38) 0.000693 1332. 1435.
1375(38) 0.000693 1332. 1399.
1377(38) 0.000693 1332. 1378.
1366(37) 0.000730 1332. 1367.
1372(38) 0.000693 1332. 1361.
1398(38) 0.000693 1332. 1358.
1278(36) 0.000772 1332. 1356.
1381(38) 0.000693 1332. 1355.
1348(37) 0.000730 1332. 1355.
1376(38) 0.000693 1332. 1355.
1311(37) 0.000730 1333. 1355.
1318(37) 0.000730 1333. 1356.
1366(37) 0.000730 1333. 1355.
1329(37) 0.000730 1333. 1355.
1275(36) 0.000772 1333. 1355.
1344(37) 0.000730 1333. 1356.
1361(37) 0.000730 1333. 1357.
1399(38) 0.000693 1333. 1361.
1407(38) 0.000693 1333. 1368.
1421(38) 0.000693 1333. 1381.
1365(37) 0.000730 1333. 1404.
1403(38) 0.000693 1333. 1439.
1493(39) 0.000657 1333. 1490.
1515(39) 0.000657 1333. 1554.
1625(41) 0.000595 1333. 1628.
1766(42) 0.000567 1333. 1698.
1786(43) 0.000541 1333. 1751.
1801(43) 0.000541 1333. 1770.
1712(42) 0.000567 1333. 1750.
1654(41) 0.000595 1333. 1696.
1652(41) 0.000595 1333. 1626.
1521(39) 0.000657 1333. 1554.
1494(39) 0.000657 1333. 1492.
1441(38) 0.000693 1333. 1444.
1334(37) 0.000730 1333. 1412.
1372(38) 0.000693 1333. 1395.
1335(37) 0.000730 1334. 1390.
1405(38) 0.000693 1334. 1396.
1420(38) 0.000693 1334. 1414.
1410(38) 0.000693 1334. 1446.
1478(39) 0.000657 1334. 1495.
1640(41) 0.000595 1334. 1562.
1658(41) 0.000595 1334. 1644.
1726(42) 0.000567 1334. 1735.
1794(43) 0.000541 1334. 1823.
1866(44) 0.000517 1334. 1895.
1933(44) 0.000517 1334. 1939.
1901(44) 0.000517 1334. 1951.
1934(44) 0.000517 1334. 1930.
1895(44) 0.000517 1334. 1877.
1811(43) 0.000541 1334. 1799.
1685(42) 0.000567 1334. 1709.
1598(40) 0.000625 1334. 1619.
1496(39) 0.000657 1334. 1540.
1485(39) 0.000657 1334. 1477.
1339(37) 0.000730 1334. 1431.
1356(37) 0.000730 1334. 1401.
1385(38) 0.000693 1334. 1383.
1399(38) 0.000693 1334. 1373.
1354(36) 0.000772 1334. 1370.
1347(36) 0.000772 1334. 1370.
1352(36) 0.000772 1334. 1374.
1361(36) 0.000772 1334. 1379.
1385(36) 0.000772 1334. 1384.
1440(37) 0.000730 1334. 1388.
1401(36) 0.000772 1334. 1390.
1428(37) 0.000730 1334. 1389.
1398(36) 0.000772 1334. 1385.
1377(36) 0.000772 1334. 1379.
1316(35) 0.000816 1334.3 1372.8
1388(36) 0.000772 1334. 1368.
1312(35) 0.000816 1334.4 1364.5
1389(36) 0.000772 1334. 1364.
1328(35) 0.000816 1334.4 1366.2
1366(36) 0.000772 1334. 1372.
1398(36) 0.000772 1334. 1383.
1399(36) 0.000772 1334. 1399.
1444(37) 0.000730 1334. 1420.
1453(37) 0.000730 1334. 1446.
1522(38) 0.000693 1334. 1474.
1524(38) 0.000693 1334. 1502.
1534(38) 0.000693 1334. 1525.
1553(38) 0.000693 1334. 1539.
1578(39) 0.000657 1334. 1541.
1526(38) 0.000693 1334. 1533.
1574(39) 0.000657 1334. 1515.
1506(38) 0.000693 1334. 1491.
1519(38) 0.000693 1334. 1468.
1508(38) 0.000693 1335. 1450.
1543(38) 0.000693 1335. 1442.
1535(38) 0.000693 1335. 1449.
1566(38) 0.000693 1335. 1474.
1681(40) 0.000625 1335. 1525.
1699(40) 0.000625 1335. 1606.
1899(42) 0.000567 1335. 1723.
2003(44) 0.000517 1335. 1876.
2141(45) 0.000494 1335. 2057.
2374(48) 0.000434 1335. 2251.
2512(49) 0.000416 1334. 2432.
2636(50) 0.000400 1334. 2574.
2664(50) 0.000400 1334. 2650.
2555(49) 0.000416 1334. 2645.
2616(50) 0.000400 1334. 2554.
2331(47) 0.000453 1334. 2394.
2203(46) 0.000473 1334. 2198.
1933(43) 0.000541 1334. 1996.
1769(41) 0.000595 1334. 1816.
1625(39) 0.000657 1334. 1671.
1544(38) 0.000693 1334. 1565.
1452(37) 0.000730 1334. 1496.
1495(38) 0.000693 1334. 1457.
1421(37) 0.000730 1334. 1442.
1444(37) 0.000730 1334. 1447.
1469(37) 0.000730 1334. 1470.
1491(38) 0.000693 1334. 1506.
1499(38) 0.000693 1334. 1554.
1656(40) 0.000625 1334. 1608.
1675(40) 0.000625 1334. 1657.
1723(40) 0.000625 1334. 1693.
1718(40) 0.000625 1334. 1704.
1701(40) 0.000625 1334. 1687.
1667(40) 0.000625 1334. 1648.
1630(39) 0.000657 1334. 1596.
1530(38) 0.000693 1334. 1542.
1496(38) 0.000693 1334. 1496.
1437(37) 0.000730 1334. 1462.
1473(37) 0.000730 1334. 1444.
1470(37) 0.000730 1334. 1445.
1459(37) 0.000730 1334. 1465.
1486(37) 0.000730 1334. 1504.
1522(38) 0.000693 1334. 1561.
1585(39) 0.000657 1334. 1631.
1666(40) 0.000625 1334. 1706.
1779(41) 0.000595 1334. 1774.
1795(41) 0.000595 1334. 1821.
1840(42) 0.000567 1334. 1834.
1739(41) 0.000595 1334. 1810.
1679(40) 0.000625 1334. 1756.
1691(40) 0.000625 1334. 1687.
1608(39) 0.000657 1334. 1617.
1512(38) 0.000693 1334. 1557.
1494(38) 0.000693 1334. 1516.
1476(37) 0.000730 1334. 1500.
1429(37) 0.000730 1334. 1511.
1525(38) 0.000693 1334. 1551.
1629(39) 0.000657 1334. 1619.
1694(40) 0.000625 1333. 1710.
1782(41) 0.000595 1333. 1819.
1912(43) 0.000541 1333. 1931.
2026(44) 0.000517 1333. 2029.
2071(44) 0.000517 1333. 2094.
2171(45) 0.000494 1333. 2115.
2133(45) 0.000494 1333. 2085.
1981(43) 0.000541 1333. 2012.
1911(43) 0.000541 1333. 1910.
1838(42) 0.000567 1333. 1796.
1649(40) 0.000625 1333. 1687.
1531(38) 0.000693 1333. 1594.
1501(38) 0.000693 1333. 1523.
1459(35) 0.000816 1332.9 1475.9
1467(36) 0.000772 1333. 1452.
1441(35) 0.000816 1332.8 1449.4
1424(35) 0.000816 1332.7 1467.4
1477(36) 0.000772 1333. 1505.
1494(36) 0.000772 1333. 1559.
1581(37) 0.000730 1333. 1625.
1773(39) 0.000657 1333. 1696.
1784(39) 0.000657 1332. 1761.
1835(40) 0.000625 1332. 1805.
1893(41) 0.000595 1332. 1819.
1899(41) 0.000595 1332. 1798.
1751(39) 0.000657 1332. 1747.
1713(39) 0.000657 1332. 1678.
1661(38) 0.000693 1332. 1604.
1566(37) 0.000730 1332. 1535.
1470(36) 0.000772 1332. 1476.
1460(36) 0.000772 1332. 1432.
1390(35) 0.000816 1331.8 1400.5
1358(34) 0.000865 1331.8 1380.0
1360(34) 0.000865 1331.7 1367.3
1375(34) 0.000865 1331.6 1359.9
1360(34) 0.000865 1331.6 1355.6
1348(34) 0.000865 1331.5 1352.9
1354(34) 0.000865 1331.4 1351.0
1373(34) 0.000865 1331.4 1349.3
1318(34) 0.000865 1331.3 1347.8
1345(34) 0.000865 1331.2 1346.3
1401(35) 0.000816 1331.2 1344.9
1345(34) 0.000865 1331.1 1343.7
1328(34) 0.000865 1331.0 1342.6
1370(34) 0.000865 1330.9 1341.8
1336(34) 0.000865 1330.9 1341.1
1372(34) 0.000865 1330.8 1340.6
1365(34) 0.000865 1330.7 1340.3
1358(34) 0.000865 1330.6 1340.1
1324(34) 0.000865 1330.5 1340.2
1334(34) 0.000865 1330.5 1340.5
1393(35) 0.000816 1330.4 1341.0
1330(34) 0.000865 1330.3 1341.9
1345(34) 0.000865 1330.2 1343.1
1364(34) 0.000865 1330.1 1344.4
1335(34) 0.000865 1330.0 1345.7
1406(35) 0.000816 1330.0 1346.7
1381(34) 0.000865 1329.9 1347.2
1389(35) 0.000816 1329.8 1347.1
1424(35) 0.000816 1329.7 1346.3
1353(34) 0.000865 1329.6 1345.0
1356(34) 0.000865 1329.5 1343.6
1330(34) 0.000865 1329.4 1342.4
1361(34) 0.000865 1329.3 1341.4
1373(34) 0.000865 1329.2 1340.9
1416(35) 0.000816 1329.1 1340.9
1355(34) 0.000865 1329.0 1341.6
1352(34) 0.000865 1329.0 1342.9
1353(34) 0.000865 1328.9 1344.9
1346(34) 0.000865 1328.8 1347.4
1375(34) 0.000865 1328.7 1350.3
1359(34) 0.000865 1328.6 1353.3
1352(34) 0.000865 1328.5 1356.0
1342(34) 0.000865 1328.4 1358.2
1383(35) 0.000816 1328.3 1359.8
1376(34) 0.000865 1328.2 1361.2
1393(35) 0.000816 1328.1 1363.7
1368(34) 0.000865 1328.0 1368.7
1354(34) 0.000865 1327.8 1378.4
1436(35) 0.000816 1327.7 1395.0
1438(35) 0.000816 1327.6 1420.7
1449(35) 0.000816 1327.5 1457.2
1550(37) 0.000730 1327. 1504.
1632(38) 0.000693 1327. 1561.
1604(37) 0.000730 1327. 1621.
1679(38) 0.000693 1327. 1679.
1721(39) 0.000657 1327. 1725.
1741(39) 0.000657 1327. 1750.
1813(40) 0.000625 1327. 1750.
1750(39) 0.000657 1327. 1724.
1726(39) 0.000657 1327. 1678.
1650(38) 0.000693 1326. 1621.
1617(37) 0.000730 1326. 1562.
1478(36) 0.000772 1326. 1508.
1463(36) 0.000772 1326. 1463.
1428(35) 0.000816 1325.9 1431.8
1386(35) 0.000816 1325.8 1412.9
1459(36) 0.000772 1326. 1405.
1418(35) 0.000816 1325.6 1407.3
1435(35) 0.000816 1325.5 1415.7
1446(35) 0.000816 1325.3 1427.7
1419(35) 0.000816 1325.2 1439.9
1432(35) 0.000816 1325.1 1449.3
1480(36) 0.000772 1325. 1453.
1467(36) 0.000772 1325. 1451.
1493(36) 0.000772 1325. 1443.
1435(35) 0.000816 1324.6 1430.5
1420(35) 0.000816 1324.5 1415.9
1458(35) 0.000816 1324.3 1400.9
1384(35) 0.000816 1324.2 1387.5
1368(34) 0.000865 1324.1 1377.0
1339(34) 0.000865 1323.9 1370.4
1362(34) 0.000865 1323.8 1368.4
1351(47) 0.000453 1324. 1371.
1342(33) 0.000918 1323.5 1379.8
1387(33) 0.000918 1323.4 1393.4
1406(34) 0.000865 1323.3 1411.6
1434(34) 0.000865 1323.1 1433.1
1516(35) 0.000816 1323.0 1455.4
1480(35) 0.000816 1322.8 1475.6
1501(35) 0.000816 1322.7 1490.0
1511(35) 0.000816 1322.6 1495.7
1512(35) 0.000816 1322.4 1491.5
1484(35) 0.000816 1322.3 1479.3
1501(35) 0.000816 1322.1 1462.8
1495(35) 0.000816 1322.0 1446.6
1447(34) 0.000865 1321.9 1435.1
1435(34) 0.000865 1321.7 1432.9
1416(34) 0.000865 1321.6 1444.6
1458(34) 0.000865 1321.4 1474.9
1535(35) 0.000816 1321.3 1527.8
1564(35) 0.000816 1321.1 1606.2
1677(37) 0.000730 1321. 1710.
1789(38) 0.000693 1321. 1836.
1911(39) 0.000657 1321. 1974.
2084(41) 0.000595 1321. 2110.
2230(42) 0.000567 1320. 2223.
2344(44) 0.000517 1320. 2294.
2368(44) 0.000517 1320. 2306.
2274(43) 0.000541 1320. 2258.
2135(42) 0.000567 1320. 2160.
2062(41) 0.000595 1320. 2032.
1938(40) 0.000625 1319. 1894.
1789(38) 0.000693 1319. 1764.
1629(36) 0.000772 1319. 1654.
1527(35) 0.000816 1319.0 1570.7
1505(35) 0.000816 1318.8 1515.2
1467(34) 0.000865 1318.6 1485.5
1467(34) 0.000865 1318.5 1477.0
1463(34) 0.000865 1318.3 1484.3
1529(35) 0.000816 1318.2 1501.2
1551(35) 0.000816 1318.0 1521.2
1525(35) 0.000816 1317.8 1538.5
1529(35) 0.000816 1317.7 1547.6
1522(35) 0.000816 1317.5 1545.3
1596(36) 0.000772 1317. 1531.
1559(35) 0.000816 1317.2 1507.8
1522(35) 0.000816 1317.0 1478.7
1489(35) 0.000816 1316.8 1447.9
1427(34) 0.000865 1316.7 1418.9
1411(34) 0.000865 1316.5 1393.7
1399(34) 0.000865 1316.3 1373.5
1373(33) 0.000918 1316.1 1358.3
1388(33) 0.000918 1316.0 1347.6
1407(34) 0.000865 1315.8 1340.4
1365(33) 0.000918 1315.6 1335.8
1319(33) 0.000918 1315.4 1333.1
1302(32) 0.000977 1315.3 1331.4
1355(33) 0.000918 1315.1 1330.3
1355(33) 0.000918 1314.9 1329.5
1329(33) 0.000918 1314.7 1328.8
1358(33) 0.000918 1314.6 1328.0
1314(33) 0.000918 1314.4 1327.1
1340(33) 0.000918 1314.2 1326.2
1374(33) 0.000918 1314.0 1325.3
1356(33) 0.000918 1313.8 1324.5
1333(33) 0.000918 1313.7 1323.9
1346(33) 0.000918 1313.5 1323.4
1333(33) 0.000918 1313.3 1323.2
1314(33) 0.000918 1313.1 1323.2
1290(32) 0.000977 1312.9 1323.4
1315(33) 0.000918 1312.7 1323.7
1321(33) 0.000918 1312.5 1324.1
1330(33) 0.000918 1312.4 1324.5
1288(32) 0.000977 1312.2 1325.0
1298(32) 0.000977 1312.0 1325.4
1308(32) 0.000977 1311.8 1325.9
1353(33) 0.000918 1311.6 1326.8
1364(33) 0.000918 1311.4 1328.5
1322(33) 0.000918 1311.2 1331.6
1311(32) 0.000977 1311.0 1336.7
1297(32) 0.000977 1310.8 1344.4
1297(32) 0.000977 1310.6 1355.2
1333(33) 0.000918 1310.5 1369.6
1354(33) 0.000918 1310.3 1387.2
1356(33) 0.000918 1310.1 1407.4
1380(33) 0.000918 1309.9 1428.7
1440(34) 0.000865 1309.7 1449.1
1437(34) 0.000865 1309.5 1466.0
1438(34) 0.000865 1309.3 1477.2
1405(34) 0.000865 1309.1 1481.2
1449(34) 0.000865 1308.9 1477.5
1459(34) 0.000865 1308.7 1466.7
1442(34) 0.000865 1308.5 1450.3
1424(34) 0.000865 1308.3 1430.4
1352(33) 0.000918 1308.1 1409.5
1352(33) 0.000918 1307.9 1389.9
1343(33) 0.000918 1307.7 1373.2
1333(33) 0.000918 1307.5 1360.5
1304(32) 0.000977 1307.3 1352.2
1321(33) 0.000918 1307.1 1348.2
1383(33) 0.000918 1306.9 1348.3
1366(33) 0.000918 1306.7 1351.8
1345(33) 0.000918 1306.4 1357.6
1395(34) 0.000865 1306.2 1364.7
1388(34) 0.000865 1306.0 1371.8
1380(33) 0.000918 1305.8 1377.5
1352(33) 0.000918 1305.6 1380.7
1376(33) 0.000918 1305.4 1380.8
1317(33) 0.000918 1305.2 1378.3
1365(33) 0.000918 1305.0 1374.3
1354(33) 0.000918 1304.8 1370.4
1351(33) 0.000918 1304.6 1368.3
1386(33) 0.000918 1304.4 1369.2
1312(33) 0.000918 1304.1 1374.1
1376(33) 0.000918 1303.9 1383.1
1396(34) 0.000865 1303.7 1395.8
1348(33) 0.000918 1303.5 1411.0
1399(34) 0.000865 1303.3 1426.9
1476(35) 0.000816 1303.1 1441.2
1522(35) 0.000816 1302.9 1451.8
1490(35) 0.000816 1302.6 1457.0
1441(34) 0.000865 1302.4 1456.0
1470(35) 0.000816 1302.2 1448.8
1435(34) 0.000865 1302.0 1436.5
1406(34) 0.000865 1301.8 1420.7
1384(33) 0.000918 1301.5 1404.0
1378(33) 0.000918 1301.3 1388.4
1354(33) 0.000918 1301.1 1375.9
1295(32) 0.000977 1300.9 1367.7
1337(33) 0.000918 1300.7 1364.4
1332(33) 0.000918 1300.4 1366.1
1350(33) 0.000918 1300.2 1372.1
1319(33) 0.000918 1300.0 1381.3
1366(33) 0.000918 1299.8 1392.0
1405(34) 0.000865 1299.5 1402.3
1413(34) 0.000865 1299.3 1410.1
1395(34) 0.000865 1299.1 1413.9
1427(34) 0.000865 1298.9 1412.6
1409(34) 0.000865 1298.6 1407.1
1394(34) 0.000865 1298.4 1398.9
1391(34) 0.000865 1298.2 1390.5
1380(33) 0.000918 1298.0 1384.3
1360(33) 0.000918 1297.7 1382.8
1396(34) 0.000865 1297.5 1388.0
1400(34) 0.000865 1297.3 1401.2
1414(34) 0.000865 1297.0 1423.1
1413(34) 0.000865 1296.8 1452.9
1456(34) 0.000865 1296.6 1488.8
1538(35) 0.000816 1296.4 1527.4
1593(36) 0.000772 1296. 1564.
1627(36) 0.000772 1296. 1594.
1627(36) 0.000772 1296. 1612.
1618(36) 0.000772 1295. 1614.
1621(36) 0.000772 1295. 1600.
1553(35) 0.000816 1295.0 1571.5
1487(35) 0.000816 1294.7 1534.6
1486(35) 0.000816 1294.5 1494.0
1459(34) 0.000865 1294.3 1454.2
1429(34) 0.000865 1294.0 1418.5
1369(33) 0.000918 1293.8 1388.9
1324(33) 0.000918 1293.5 1366.3
1336(33) 0.000918 1293.3 1350.4
1299(32) 0.000977 1293.1 1340.4
1332(33) 0.000918 1292.8 1334.9
1338(33) 0.000918 1292.6 1332.7
1323(33) 0.000918 1292.4 1332.5
1316(33) 0.000918 1292.1 1333.1
1304(32) 0.000977 1291.9 1334.0
1343(33) 0.000918 1291.6 1334.5
1312(33) 0.000918 1291.4 1334.9
1332(33) 0.000918 1291.2 1335.4
1352(33) 0.000918 1290.9 1336.9
1342(33) 0.000918 1290.7 1340.2
1363(33) 0.000918 1290.4 1346.0
1378(33) 0.000918 1290.2 1355.2
1355(33) 0.000918 1290.0 1367.7
1389(34) 0.000865 1289.7 1383.5
1427(34) 0.000865 1289.5 1401.6
1431(34) 0.000865 1289.2 1420.7
1435(34) 0.000865 1289.0 1438.8
1438(34) 0.000865 1288.7 1453.7
1519(35) 0.000816 1288.5 1463.6
1466(34) 0.000865 1288.3 1467.2
1498(35) 0.000816 1288.0 1464.2
1492(35) 0.000816 1287.8 1455.3
1476(35) 0.000816 1287.5 1441.8
1451(34) 0.000865 1287.3 1426.0
1429(34) 0.000865 1287.0 1410.3
1428(34) 0.000865 1286.8 1396.9
1361(33) 0.000918 1286.5 1387.3
1398(34) 0.000865 1286.3 1382.6
1359(33) 0.000918 1286.0 1382.9
1403(34) 0.000865 1285.8 1387.8
1365(33) 0.000918 1285.5 1396.2
1372(33) 0.000918 1285.3 1406.6
1429(34) 0.000865 1285.0 1417.3
1488(35) 0.000816 1284.8 1426.2
1466(34) 0.000865 1284.6 1432.0
1441(34) 0.000865 1284.3 1433.7
1418(34) 0.000865 1284.1 1431.5
1448(34) 0.000865 1283.8 1426.9
1360(33) 0.000918 1283.6 1422.2
1411(27) 0.001372 1283.3 1419.8
1432(34) 0.000865 1283.0 1421.6
1426(34) 0.000865 1282.8 1429.1
1404(34) 0.000865 1282.5 1442.7
1487(35) 0.000816 1282.3 1462.1
1525(35) 0.000816 1282.0 1485.7
1497(35) 0.000816 1281.8 1511.3
1472(34) 0.000865 1281.5 1536.0
1537(35) 0.000816 1281.3 1557.0
1601(36) 0.000772 1281. 1572.
1604(36) 0.000772 1281. 1578.
1640(36) 0.000772 1281. 1577.
1575(36) 0.000772 1280. 1568.
1559(35) 0.000816 1280.0 1553.9
1588(36) 0.000772 1280. 1538.
1516(35) 0.000816 1279.5 1523.6
1459(34) 0.000865 1279.3 1515.2
1451(34) 0.000865 1279.0 1515.6
1484(35) 0.000816 1278.7 1526.8
1555(35) 0.000816 1278.5 1549.2
1561(35) 0.000816 1278.2 1581.6
1626(36) 0.000772 1278. 1622.
1627(36) 0.000772 1278. 1665.
1742(37) 0.000730 1277. 1707.
1743(37) 0.000730 1277. 1743.
1812(38) 0.000693 1277. 1767.
1832(38) 0.000693 1277. 1775.
1768(38) 0.000693 1276. 1766.
1770(38) 0.000693 1276. 1739.
1698(37) 0.000730 1276. 1696.
1633(36) 0.000772 1276. 1644.
1650(36) 0.000772 1275. 1586.
1500(35) 0.000816 1275.2 1529.6
1455(34) 0.000865 1274.9 1477.2
1425(34) 0.000865 1274.6 1432.0
1351(33) 0.000918 1274.4 1395.1
1348(33) 0.000918 1274.1 1366.7
1362(33) 0.000918 1273.9 1346.2
1348(33) 0.000918 1273.6 1332.1
1312(32) 0.000977 1273.4 1323.1
1305(32) 0.000977 1273.1 1317.6
1345(33) 0.000918 1272.8 1314.2
1319(33) 0.000918 1272.6 1312.0
1341(33) 0.000918 1272.3 1310.1
1278(32) 0.000977 1272.1 1308.2
1292(32) 0.000977 1271.8 1306.2
1351(33) 0.000918 1271.5 1304.2
1345(33) 0.000918 1271.3 1302.3
1292(32) 0.000977 1271.0 1300.6
1306(32) 0.000977 1270.8 1299.1
1289(32) 0.000977 1270.5 1298.0
1314(32) 0.000977 1270.2 1297.2
1309(32) 0.000977 1270.0 1296.7
1294(32) 0.000977 1269.7 1296.6
1312(32) 0.000977 1269.5 1297.1
1342(33) 0.000918 1269.2 1298.6
1372(33) 0.000918 1268.9 1301.4
1322(33) 0.000918 1268.7 1306.2
1340(33) 0.000918 1268.4 1313.6
1361(33) 0.000918 1268.2 1324.2
1287(32) 0.000977 1267.9 1338.7
1382(33) 0.000918 1267.6 1357.6
1357(33) 0.000918 1267.4 1381.0
1410(34) 0.000865 1267.1 1408.5
1453(34) 0.000865 1266.9 1439.3
1465(34) 0.000865 1266.6 1471.8
1544(35) 0.000816 1266.3 1503.8
1559(35) 0.000816 1266.1 1532.9
1569(36) 0.000772 1266. 1556.
1541(35) 0.000816 1265.6 1572.3
1558(35) 0.000816 1265.3 1578.8
1634(36) 0.000772 1265. 1575.
1617(36) 0.000772 1265. 1562.
1556(35) 0.000816 1264.5 1541.6
1434(34) 0.000865 1264.3 1515.1
1458(34) 0.000865 1264.0 1485.8
1440(34) 0.000865 1263.7 1456.5
1448(34) 0.000865 1263.5 1429.3
1420(34) 0.000865 1263.2 1405.7
1358(33) 0.000918 1263.0 1386.3
1360(33) 0.000918 1262.7 1371.2
1330(33) 0.000918 1262.4 1359.7
1339(33) 0.000918 1262.2 1350.9
1371(33) 0.000918 1261.9 1343.9
1359(33) 0.000918 1261.6 1337.8
1363(33) 0.000918 1261.4 1332.0
1361(33) 0.000918 1261.1 1326.0
1334(33) 0.000918 1260.9 1319.7
1325(33) 0.000918 1260.6 1312.9
1276(32) 0.000977 1260.3 1306.0
1261(32) 0.000977 1260.1 1299.1
1234(31) 0.001041 1259.8 1292.6
1267(32) 0.000977 1259.6 1286.8
1292(32) 0.000977 1259.3 1281.7
1264(32) 0.000977 1259.0 1277.4
1267(32) 0.000977 1258.8 1273.9
1297(32) 0.000977 1258.5 1271.2
1275(32) 0.000977 1258.3 1269.2
1248(32) 0.000977 1258.0 1267.6
1278(32) 0.000977 1257.7 1266.5
1286(44) 0.000517 1257. 1266.
1312(32) 0.000977 1257.2 1265.3
1256(31) 0.001041 1257.0 1265.2
1255(31) 0.001041 1256.7 1265.4
1296(31) 0.001041 1256.4 1265.9
1224(30) 0.001111 1256.2 1267.0
1252(31) 0.001041 1255.9 1268.6
1311(32) 0.000977 1255.7 1271.0
1292(31) 0.001041 1255.4 1274.1
1243(31) 0.001041 1255.1 1278.2
1207(30) 0.001111 1254.9 1283.1
1253(31) 0.001041 1254.6 1288.7
1330(32) 0.000977 1254.4 1294.8
1300(31) 0.001041 1254.1 1301.0
1247(31) 0.001041 1253.9 1306.8
1276(31) 0.001041 1253.6 1311.7
1339(32) 0.000977 1253.3 1315.0
1291(31) 0.001041 1253.1 1316.4
1300(31) 0.001041 1252.8 1315.7
1280(31) 0.001041 1252.6 1313.1
1282(31) 0.001041 1252.3 1309.0
1327(32) 0.000977 1252.0 1303.9
1298(31) 0.001041 1251.8 1298.4
1320(32) 0.000977 1251.5 1293.1
1266(31) 0.001041 1251.3 1288.5
1296(31) 0.001041 1251.0 1284.6
1312(32) 0.000977 1250.8 1281.9
1288(31) 0.001041 1250.5 1280.3
1304(31) 0.001041 1250.2 1279.9
1297(31) 0.001041 1250.0 1280.9
1253(31) 0.001041 1249.7 1283.3
1255(31) 0.001041 1249.5 1287.4
1317(32) 0.000977 1249.2 1293.5
1271(31) 0.001041 1249.0 1301.8
1235(31) 0.001041 1248.7 1312.9
1341(32) 0.000977 1248.4 1327.0
1374(32) 0.000977 1248.2 1344.3
1332(32) 0.000977 1247.9 1364.6
1402(33) 0.000918 1247.7 1387.6
1412(33) 0.000918 1247.4 1412.2
1429(33) 0.000918 1247.2 1437.1
1495(34) 0.000865 1246.9 1460.7
1488(34) 0.000865 1246.7 1481.1
1518(34) 0.000865 1246.4 1496.7
1503(34) 0.000865 1246.2 1506.1
1512(34) 0.000865 1245.9 1508.5
1533(34) 0.000865 1245.6 1503.6
1495(34) 0.000865 1245.4 1492.0
1450(33) 0.000918 1245.1 1475.1
1466(33) 0.000918 1244.9 1454.9
1390(33) 0.000918 1244.6 1433.9
1372(32) 0.000977 1244.4 1414.0
1403(33) 0.000918 1244.1 1397.1
1382(32) 0.000977 1243.9 1384.1
1340(32) 0.000977 1243.6 1375.4
1314(32) 0.000977 1243.4 1370.8
1378(32) 0.000977 1243.1 1369.5
1375(32) 0.000977 1242.9 1370.3
1360(32) 0.000977 1242.6 1371.6
1307(32) 0.000977 1242.4 1372.2
1305(31) 0.001041 1242.1 1370.9
1372(32) 0.000977 1241.9 1367.2
1401(33) 0.000918 1241.6 1361.0
1394(33) 0.000918 1241.4 1352.9
1376(32) 0.000977 1241.1 1343.5
1393(33) 0.000918 1240.9 1333.8
1334(32) 0.000977 1240.6 1324.9
1301(31) 0.001041 1240.4 1317.6
1267(31) 0.001041 1240.1 1312.4
1334(32) 0.000977 1239.9 1309.6
1314(32) 0.000977 1239.6 1309.2
1312(32) 0.000977 1239.4 1310.8
1308(32) 0.000977 1239.1 1313.9
1291(31) 0.001041 1238.9 1317.6
1311(32) 0.000977 1238.6 1321.0
1299(31) 0.001041 1238.4 1323.5
1339(32) 0.000977 1238.1 1324.3
1366(32) 0.000977 1237.9 1323.3
1383(32) 0.000977 1237.6 1320.6
1328(32) 0.000977 1237.4 1316.8
1268(31) 0.001041 1237.1 1312.5
1291(31) 0.001041 1236.9 1308.5
1281(31) 0.001041 1236.7 1305.4
1294(31) 0.001041 1236.4 1303.5
1318(32) 0.000977 1236.2 1302.8
1317(32) 0.000977 1235.9 1303.2
1328(32) 0.000977 1235.7 1304.4
1322(32) 0.000977 1235.4 1305.8
1317(32) 0.000977 1235.2 1306.9
1338(32) 0.000977 1234.9 1307.1
1335(32) 0.000977 1234.7 1306.1
1284(31) 0.001041 1234.5 1303.8
1308(32) 0.000977 1234.2 1300.6
1281(31) 0.001041 1234.0 1296.8
1308(32) 0.000977 1233.7 1293.1
1290(31) 0.001041 1233.5 1290.2
1261(31) 0.001041 1233.2 1288.4
1298(31) 0.001041 1233.0 1288.3
1287(31) 0.001041 1232.8 1290.1
1315(32) 0.000977 1232.5 1293.7
1291(31) 0.001041 1232.3 1298.9
1310(32) 0.000977 1232.0 1305.4
1376(32) 0.000977 1231.8 1312.6
1332(32) 0.000977 1231.6 1319.7
1315(32) 0.000977 1231.3 1326.0
1309(32) 0.000977 1231.1 1330.7
1423(33) 0.000918 1230.8 1333.1
1347(32) 0.000977 1230.6 1333.0
1410(33) 0.000918 1230.4 1330.1
1352(32) 0.000977 1230.1 1325.1
1357(32) 0.000977 1229.9 1318.5
1357(32) 0.000977 1229.7 1311.3
1388(33) 0.000918 1229.4 1304.3
1379(32) 0.000977 1229.2 1298.2
1340(32) 0.000977 1229.0 1293.5
1249(31) 0.001041 1228.7 1290.7
1365(32) 0.000977 1228.5 1289.7
1295(31) 0.001041 1228.2 1290.5
1324(32) 0.000977 1228.0 1292.9
1298(31) 0.001041 1227.8 1296.5
1363(32) 0.000977 1227.5 1300.9
1264(31) 0.001041 1227.3 1305.6
1290(31) 0.001041 1227.1 1310.3
1359(32) 0.000977 1226.8 1315.0
1324(32) 0.000977 1226.6 1319.5
1326(32) 0.000977 1226.4 1324.1
1316(32) 0.000977 1226.1 1328.6
1320(32) 0.000977 1225.9 1333.2
1376(32) 0.000977 1225.7 1337.5
1318(32) 0.000977 1225.5 1341.1
1382(32) 0.000977 1225.2 1343.7
1362(32) 0.000977 1225.0 1344.8
1345(32) 0.000977 1224.8 1344.2
1320(32) 0.000977 1224.5 1342.0
1360(32) 0.000977 1224.3 1338.3
1344(32) 0.000977 1224.1 1333.6
1299(31) 0.001041 1223.8 1328.3
1324(32) 0.000977 1223.6 1323.2
1323(32) 0.000977 1223.4 1319.2
1312(32) 0.000977 1223.2 1317.0
1292(31) 0.001041 1222.9 1317.4
1274(31) 0.001041 1222.7 1321.2
1296(31) 0.001041 1222.5 1328.6
1336(32) 0.000977 1222.3 1339.8
1364(32) 0.000977 1222.0 1354.3
1337(32) 0.000977 1221.8 1371.4
1399(33) 0.000918 1221.6 1390.2
1427(33) 0.000918 1221.4 1409.0
1446(33) 0.000918 1221.1 1426.3
1454(33) 0.000918 1220.9 1440.3
1434(33) 0.000918 1220.7 1449.3
1411(33) 0.000918 1220.5 1452.1
1473(34) 0.000865 1220.2 1448.1
1498(34) 0.000865 1220.0 1437.5
1384(32) 0.000977 1219.8 1421.3
1429(33) 0.000918 1219.6 1401.2
1410(33) 0.000918 1219.3 1378.6
1325(32) 0.000977 1219.1 1355.3
1403(33) 0.000918 1218.9 1332.6
1355(32) 0.000977 1218.7 1311.6
1323(32) 0.000977 1218.5 1293.0
1301(31) 0.001041 1218.2 1277.1
1231(31) 0.001041 1218.0 1264.1
1261(31) 0.001041 1217.8 1253.9
1269(31) 0.001041 1217.6 1246.2
1210(30) 0.001111 1217.4 1240.6
1242(31) 0.001041 1217.2 1236.9
1220(30) 0.001111 1216.9 1234.7
1218(30) 0.001111 1216.7 1233.7
1266(31) 0.001041 1216.5 1233.9
1233(31) 0.001041 1216.3 1235.0
1244(31) 0.001041 1216.1 1237.0
1191(30) 0.001111 1215.9 1239.9
1196(30) 0.001111 1215.6 1243.5
1258(31) 0.001041 1215.4 1247.7
1250(31) 0.001041 1215.2 1252.5
1235(31) 0.001041 1215.0 1257.7
1273(31) 0.001041 1214.8 1263.0
1299(31) 0.001041 1214.6 1268.1
1216(30) 0.001111 1214.4 1272.9
1285(31) 0.001041 1214.1 1277.1
1276(31) 0.001041 1213.9 1280.4
1286(31) 0.001041 1213.7 1283.1
1255(31) 0.001041 1213.5 1285.0
1240(31) 0.001041 1213.3 1286.5
1310(32) 0.000977 1213.1 1287.8
1323(32) 0.000977 1212.9 1289.1
1318(32) 0.000977 1212.7 1290.6
1320(32) 0.000977 1212.5 1292.1
1268(31) 0.001041 1212.2 1293.8
1218(30) 0.001111 1212.0 1295.4
1314(32) 0.000977 1211.8 1296.7
1275(31) 0.001041 1211.6 1297.7
1277(31) 0.001041 1211.4 1298.4
1278(31) 0.001041 1211.2 1298.6
1345(32) 0.000977 1211.0 1298.7
1351(32) 0.000977 1210.8 1298.8
1352(32) 0.000977 1210.6 1299.5
1307(32) 0.000977 1210.4 1301.3
1285(31) 0.001041 1210.2 1304.8
1332(32) 0.000977 1210.0 1310.5
1289(32) 0.000977 1209.8 1318.8
1326(33) 0.000918 1209.6 1329.7
1357(33) 0.000918 1209.4 1343.1
1398(34) 0.000865 1209.2 1358.4
1441(34) 0.000865 1208.9 1375.0
1409(34) 0.000865 1208.7 1391.8
1435(34) 0.000865 1208.5 1407.7
1402(34) 0.000865 1208.3 1421.4
1401(34) 0.000865 1208.1 1431.8
1481(35) 0.000816 1207.9 1438.2
1390(34) 0.000865 1207.7 1440.4
1408(34) 0.000865 1207.5 1438.7
1434(34) 0.000865 1207.3 1434.1
1434(34) 0.000865 1207.1 1427.7
1422(34) 0.000865 1206.9 1420.7
1404(34) 0.000865 1206.7 1414.3
1371(33) 0.000918 1206.5 1409.0
1389(34) 0.000865 1206.3 1405.2
1403(34) 0.000865 1206.1 1402.9
1395(34) 0.000865 1205.9 1401.7
1341(33) 0.000918 1205.7 1401.0
1420(34) 0.000865 1205.5 1399.9
1371(33) 0.000918 1205.4 1398.0
1353(33) 0.000918 1205.2 1394.7
1333(33) 0.000918 1205.0 1389.9
1372(33) 0.000918 1204.8 1383.8
1355(33) 0.000918 1204.6 1377.1
1365(33) 0.000918 1204.4 1370.4
1316(33) 0.000918 1204.2 1364.3
1350(33) 0.000918 1204.0 1359.4
1336(33) 0.000918 1203.8 1355.9
1342(33) 0.000918 1203.6 1353.9
1374(33) 0.000918 1203.4 1353.2
1355(33) 0.000918 1203.2 1353.2
1370(33) 0.000918 1203.0 1353.3
1308(33) 0.000918 1202.8 1352.9
1399(34) 0.000865 1202.6 1351.2
1341(33) 0.000918 1202.4 1348.1
1332(33) 0.000918 1202.2 1343.3
1364(33) 0.000918 1202.1 1337.2
1372(33) 0.000918 1201.9 1330.3
1347(33) 0.000918 1201.7 1322.9
1348(33) 0.000918 1201.5 1315.5
1343(33) 0.000918 1201.3 1308.6
1281(32) 0.000977 1201.1 1302.2
1308(33) 0.000918 1200.9 1296.5
1198(31) 0.001041 1200.7 1291.3
1315(33) 0.000918 1200.5 1286.6
1311(33) 0.000918 1200.4 1282.2
1301(33) 0.000918 1200.2 1277.9
1233(32) 0.000977 1200.0 1273.7
1312(33) 0.000918 1199.8 1269.8
1296(33) 0.000918 1199.6 1266.4
1259(32) 0.000977 1199.4 1263.8
1306(33) 0.000918 1199.2 1262.5
1238(32) 0.000977 1199.1 1262.7
1239(32) 0.000977 1198.9 1264.9
1247(32) 0.000977 1198.7 1269.3
1233(32) 0.000977 1198.5 1276.1
1270(32) 0.000977 1198.3 1285.4
1284(32) 0.000977 1198.1 1297.0
1300(33) 0.000918 1197.9 1310.8
1309(33) 0.000918 1197.8 1326.4
1305(33) 0.000918 1197.6 1343.4
1307(33) 0.000918 1197.4 1361.0
1389(34) 0.000865 1197.2 1378.8
1361(33) 0.000918 1197.0 1396.1
1377(34) 0.000865 1196.9 1412.4
1388(34) 0.000865 1196.7 1427.2
1399(34) 0.000865 1196.5 1440.2
1458(35) 0.000816 1196.3 1451.6
1477(35) 0.000816 1196.1 1461.6
1430(34) 0.000865 1195.9 1470.7
1513(35) 0.000816 1195.8 1479.2
1439(34) 0.000865 1195.6 1487.2
1526(35) 0.000816 1195.4 1494.7
1477(35) 0.000816 1195.2 1501.4
1558(36) 0.000772 1195. 1507.
1518(35) 0.000816 1194.9 1509.4
1471(35) 0.000816 1194.7 1509.2
1503(35) 0.000816 1194.5 1505.4
1485(35) 0.000816 1194.3 1497.7
1525(35) 0.000816 1194.2 1486.0
1481(35) 0.000816 1194.0 1470.8
1458(35) 0.000816 1193.8 1452.8
1452(34) 0.000865 1193.6 1433.1
1354(33) 0.000918 1193.5 1412.7
1336(33) 0.000918 1193.3 1392.9
1377(34) 0.000865 1193.1 1374.8
1383(34) 0.000865 1192.9 1359.1
1354(33) 0.000918 1192.8 1346.5
1348(33) 0.000918 1192.6 1337.2
1332(33) 0.000918 1192.4 1331.1
1291(32) 0.000977 1192.2 1328.0
1297(33) 0.000918 1192.1 1327.1
1275(32) 0.000977 1191.9 1327.8
1297(33) 0.000918 1191.7 1329.2
1319(33) 0.000918 1191.5 1330.5
1316(33) 0.000918 1191.4 1330.9
1313(33) 0.000918 1191.2 1329.9
1317(33) 0.000918 1191.0 1327.2
1305(33) 0.000918 1190.9 1323.0
1277(33) 0.000918 1190.7 1317.4
1342(33) 0.000918 1190.5 1311.0
1275(33) 0.000918 1190.3 1304.3
1291(33) 0.000918 1190.2 1297.6
1301(33) 0.000918 1190.0 1291.3
1285(33) 0.000918 1189.8 1285.7
1265(33) 0.000918 1189.7 1280.7
1230(32) 0.000977 1189.5 1276.4
1287(33) 0.000918 1189.3 1272.5
1321(33) 0.000918 1189.2 1268.9
1210(32) 0.000977 1189.0 1265.2
1271(33) 0.000918 1188.8 1261.2
1236(32) 0.000977 1188.7 1256.9
1287(33) 0.000918 1188.5 1252.2
1276(33) 0.000918 1188.3 1247.2
1254(32) 0.000977 1188.1 1242.1
1199(32) 0.000977 1188.0 1237.1
1242(32) 0.000977 1187.8 1232.3
1239(32) 0.000977 1187.6 1228.1
1258(32) 0.000977 1187.5 1224.7
1204(32) 0.000977 1187.3 1222.2
1194(32) 0.000977 1187.1 1220.7
1281(33) 0.000918 1187.0 1220.5
1196(32) 0.000977 1186.8 1221.6
1229(32) 0.000977 1186.7 1224.1
1259(32) 0.000977 1186.5 1228.0
1205(32) 0.000977 1186.3 1233.2
1219(32) 0.000977 1186.2 1239.6
1207(32) 0.000977 1186.0 1247.0
1271(33) 0.000918 1185.8 1255.2
1245(32) 0.000977 1185.7 1263.8
1310(33) 0.000918 1185.5 1272.4
1298(33) 0.000918 1185.3 1280.7
1305(33) 0.000918 1185.2 1288.1
1305(33) 0.000918 1185.0 1294.3
1295(33) 0.000918 1184.8 1298.9
1319(33) 0.000918 1184.7 1301.8
1362(34) 0.000865 1184.5 1303.0
1347(34) 0.000865 1184.4 1302.7
1359(34) 0.000865 1184.2 1301.4
1376(34) 0.000865 1184.0 1299.6
1289(33) 0.000918 1183.9 1297.9
1337(33) 0.000918 1183.7 1296.9
1271(33) 0.000918 1183.5 1297.3
1289(33) 0.000918 1183.4 1299.5
1279(33) 0.000918 1183.2 1303.8
1292(33) 0.000918 1183.1 1310.6
1330(33) 0.000918 1182.9 1319.7
1321(33) 0.000918 1182.7 1331.0
1341(33) 0.000918 1182.6 1344.1
1351(34) 0.000865 1182.4 1358.2
1378(34) 0.000865 1182.3 1372.7
1405(34) 0.000865 1182.1 1386.8
1444(35) 0.000816 1181.9 1399.5
1448(35) 0.000816 1181.8 1410.1
1436(35) 0.000816 1181.6 1417.9
1460(35) 0.000816 1181.5 1422.6
1441(35) 0.000816 1181.3 1424.0
1393(34) 0.000865 1181.1 1422.6
1449(35) 0.000816 1181.0 1418.8
1372(34) 0.000865 1180.8 1413.4
1399(34) 0.000865 1180.7 1407.3
1376(34) 0.000865 1180.5 1401.4
1432(35) 0.000816 1180.4 1396.6
1350(34) 0.000865 1180.2 1393.5
1341(33) 0.000918 1180.0 1392.7
1378(34) 0.000865 1179.9 1394.8
1404(34) 0.000865 1179.7 1400.0
1371(34) 0.000865 1179.6 1408.6
1403(34) 0.000865 1179.4 1420.6
1400(34) 0.000865 1179.3 1435.9
1431(35) 0.000816 1179.1 1454.1
1497(35) 0.000816 1178.9 1474.9
1510(36) 0.000772 1179. 1498.
1586(36) 0.000772 1179. 1521.
1621(37) 0.000730 1178. 1546.
1642(37) 0.000730 1178. 1569.
1599(37) 0.000730 1178. 1591.
1642(37) 0.000730 1178. 1610.
1667(37) 0.000730 1178. 1625.
1661(37) 0.000730 1178. 1635.
1659(37) 0.000730 1178. 1642.
1731(38) 0.000693 1177. 1643.
1657(37) 0.000730 1177. 1642.
1623(37) 0.000730 1177. 1638.
1657(37) 0.000730 1177. 1634.
1681(37) 0.000730 1177. 1630.
1694(38) 0.000693 1177. 1628.
1657(37) 0.000730 1176. 1628.
1611(37) 0.000730 1176. 1631.
1627(37) 0.000730 1176. 1636.
1567(36) 0.000772 1176. 1642.
1669(37) 0.000730 1176. 1648.
1628(37) 0.000730 1176. 1652.
1687(38) 0.000693 1176. 1653.
1686(38) 0.000693 1175. 1650.
1639(37) 0.000730 1175. 1641.
1705(38) 0.000693 1175. 1627.
1633(35) 0.000816 1174.9 1606.1
1626(35) 0.000816 1174.8 1580.7
1632(35) 0.000816 1174.6 1551.5
1548(35) 0.000816 1174.4 1520.0
1447(33) 0.000918 1174.3 1487.7
1429(33) 0.000918 1174.1 1455.8
1461(34) 0.000865 1174.0 1425.7
1386(33) 0.000918 1173.8 1398.2
1347(32) 0.000977 1173.7 1374.2
1366(32) 0.000977 1173.5 1354.0
1376(33) 0.000918 1173.4 1337.7
1377(33) 0.000918 1173.2 1325.4
1355(32) 0.000977 1173.1 1316.7
1301(32) 0.000977 1172.9 1311.3
1298(32) 0.000977 1172.8 1308.6
1321(32) 0.000977 1172.6 1308.1
1345(32) 0.000977 1172.4 1309.2
1325(32) 0.000977 1172.3 1311.3
1261(31) 0.001041 1172.1 1314.2
1285(31) 0.001041 1172.0 1317.4
1326(32) 0.000977 1171.8 1320.8
1314(32) 0.000977 1171.7 1324.2
1341(32) 0.000977 1171.5 1327.7
1302(32) 0.000977 1171.4 1331.3
1280(31) 0.001041 1171.2 1335.1
1298(32) 0.000977 1171.1 1339.0
1340(32) 0.000977 1170.9 1343.1
1387(33) 0.000918 1170.8 1347.4
1366(32) 0.000977 1170.6 1351.9
1394(33) 0.000918 1170.5 1356.6
1388(33) 0.000918 1170.3 1361.5
1377(33) 0.000918 1170.2 1366.8
1368(32) 0.000977 1170.0 1372.4
1393(33) 0.000918 1169.8 1378.5
1340(32) 0.000977 1169.7 1385.0
1379(33) 0.000918 1169.5 1392.2
1395(33) 0.000918 1169.4 1399.8
1415(33) 0.000918 1169.2 1407.7
1398(33) 0.000918 1169.1 1415.9
1478(34) 0.000865 1168.9 1423.8
1394(33) 0.000918 1168.8 1431.1
1460(33) 0.000918 1168.6 1437.3
1427(33) 0.000918 1168.5 1441.9
1393(33) 0.000918 1168.3 1444.4
1375(33) 0.000918 1168.2 1444.6
1400(33) 0.000918 1168.0 1442.2
1418(33) 0.000918 1167.9 1437.3
1466(34) 0.000865 1167.7 1430.2
1475(34) 0.000865 1167.6 1421.3
1437(33) 0.000918 1167.4 1410.9
1409(33) 0.000918 1167.3 1399.7
1429(33) 0.000918 1167.1 1388.2
1379(33) 0.000918 1166.9 1376.7
1346(32) 0.000977 1166.8 1365.7
1370(32) 0.000977 1166.6 1355.4
1285(31) 0.001041 1166.5 1346.0
1299(32) 0.000977 1166.3 1337.4
1318(32) 0.000977 1166.2 1329.8
1349(32) 0.000977 1166.0 1322.8
1344(32) 0.000977 1165.9 1316.3
1291(31) 0.001041 1165.7 1310.1
1275(31) 0.001041 1165.6 1304.0
1281(31) 0.001041 1165.4 1297.7
1323(32) 0.000977 1165.3 1291.1
1337(32) 0.000977 1165.1 1284.1
1269(31) 0.001041 1165.0 1276.7
1286(31) 0.001041 1164.8 1269.1
1257(31) 0.001041 1164.6 1261.3
1245(31) 0.001041 1164.5 1253.5
1231(31) 0.001041 1164.3 1245.8
1235(31) 0.001041 1164.2 1238.3
1252(31) 0.001041 1164.0 1231.2
1219(31) 0.001041 1163.9 1224.6
1216(31) 0.001041 1163.7 1218.6
1230(31) 0.001041 1163.6 1213.1
1196(30) 0.001111 1163.4 1208.3
1126(29) 0.001189 1163.3 1204.1
1227(31) 0.001041 1163.1 1200.4
1221(31) 0.001041 1163.0 1197.3
1241(31) 0.001041 1162.8 1194.7
1154(30) 0.001111 1162.6 1192.6
1172(30) 0.001111 1162.5 1190.8
1227(31) 0.001041 1162.3 1189.4
1176(30) 0.001111 1162.2 1188.4
1173(30) 0.001111 1162.0 1187.7
1169(30) 0.001111 1161.9 1187.4
1198(30) 0.001111 1161.7 1187.5
1182(30) 0.001111 1161.6 1188.1
1136(30) 0.001111 1161.4 1189.2
1196(30) 0.001111 1161.3 1190.9
1196(30) 0.001111 1161.1 1193.3
1175(30) 0.001111 1160.9 1196.7
1139(30) 0.001111 1160.8 1200.9
1165(30) 0.001111 1160.6 1206.3
1166(30) 0.001111 1160.5 1212.9
1277(31) 0.001041 1160.3 1220.8
1233(31) 0.001041 1160.2 1230.0
1256(31) 0.001041 1160.0 1240.6
1230(31) 0.001041 1159.9 1252.4
1192(42) 0.000567 1160. 1265.
1280(31) 0.001041 1159.5 1279.4
1285(31) 0.001041 1159.4 1294.0
1327(32) 0.000977 1159.2 1309.1
1292(31) 0.001041 1159.1 1324.1
1319(32) 0.000977 1158.9 1338.6
1323(32) 0.000977 1158.8 1352.2
1373(32) 0.000977 1158.6 1364.5
1383(33) 0.000918 1158.4 1374.9
1376(32) 0.000977 1158.3 1383.2
1392(33) 0.000918 1158.1 1389.0
1398(33) 0.000918 1158.0 1392.3
1380(32) 0.000977 1157.8 1393.2
1405(33) 0.000918 1157.7 1391.7
1405(33) 0.000918 1157.5 1388.2
1417(33) 0.000918 1157.3 1382.9
1363(32) 0.000977 1157.2 1376.4
1384(33) 0.000918 1157.0 1368.9
1361(32) 0.000977 1156.9 1360.7
1371(32) 0.000977 1156.7 1352.1
1347(32) 0.000977 1156.6 1343.3
1376(32) 0.000977 1156.4 1334.5
1346(32) 0.000977 1156.2 1325.7
1342(32) 0.000977 1156.1 1317.0
1304(32) 0.000977 1155.9 1308.5
1304(32) 0.000977 1155.8 1300.2
1287(31) 0.001041 1155.6 1292.0
1279(31) 0.001041 1155.4 1284.0
1309(32) 0.000977 1155.3 1276.2
1240(31) 0.001041 1155.1 1268.6
1255(31) 0.001041 1155.0 1261.3
1290(31) 0.001041 1154.8 1254.4
1247(31) 0.001041 1154.6 1247.8
1208(30) 0.001111 1154.5 1241.9
1209(30) 0.001111 1154.3 1236.6
1207(30) 0.001111 1154.2 1232.1
1187(30) 0.001111 1154.0 1228.7
1206(30) 0.001111 1153.8 1226.3
1246(31) 0.001041 1153.7 1225.2
1167(30) 0.001111 1153.5 1225.5
1176(30) 0.001111 1153.4 1227.2
1204(30) 0.001111 1153.2 1230.5
1224(31) 0.001041 1153.0 1235.2
1267(31) 0.001041 1152.9 1241.5
1273(31) 0.001041 1152.7 1249.1
1262(31) 0.001041 1152.5 1258.0
1220(31) 0.001041 1152.4 1267.9
1263(31) 0.001041 1152.2 1278.6
1254(31) 0.001041 1152.1 1289.8
1274(31) 0.001041 1151.9 1301.2
1311(32) 0.000977 1151.7 1312.3
1344(32) 0.000977 1151.6 1322.9
1325(32) 0.000977 1151.4 1332.6
1321(32) 0.000977 1151.2 1341.1
1345(32) 0.000977 1151.1 1348.2
1369(32) 0.000977 1150.9 1353.8
1367(32) 0.000977 1150.7 1357.7
1381(33) 0.000918 1150.6 1360.0
1392(33) 0.000918 1150.4 1360.8
1378(32) 0.000977 1150.3 1360.0
1361(32) 0.000977 1150.1 1358.0
1324(32) 0.000977 1149.9 1354.9
1312(32) 0.000977 1149.8 1350.9
1364(32) 0.000977 1149.6 1346.4
1314(32) 0.000977 1149.4 1341.7
1326(32) 0.000977 1149.3 1336.9
1376(32) 0.000977 1149.1 1332.3
1359(32) 0.000977 1148.9 1328.0
1356(32) 0.000977 1148.8 1324.1
1353(32) 0.000977 1148.6 1320.7
1324(32) 0.000977 1148.4 1317.6
1327(32) 0.000977 1148.3 1314.9
1268(31) 0.001041 1148.1 1312.4
1309(32) 0.000977 1147.9 1310.0
1304(32) 0.000977 1147.8 1307.6
1299(32) 0.000977 1147.6 1305.1
1299(32) 0.000977 1147.4 1302.4
1301(32) 0.000977 1147.3 1299.6
1286(31) 0.001041 1147.1 1296.7
1305(32) 0.000977 1146.9 1293.6
1319(32) 0.000977 1146.8 1290.6
1318(32) 0.000977 1146.6 1287.5
1304(32) 0.000977 1146.4 1284.5
1272(31) 0.001041 1146.3 1281.5
1327(32) 0.000977 1146.1 1278.6
1300(32) 0.000977 1145.9 1275.8
1288(31) 0.001041 1145.7 1273.2
1289(31) 0.001041 1145.6 1270.7
1305(32) 0.000977 1145.4 1268.5
1298(31) 0.001041 1145.2 1266.6
1259(31) 0.001041 1145.1 1265.0
1254(31) 0.001041 1144.9 1263.7
1217(30) 0.001111 1144.7 1262.7
1225(31) 0.001041 1144.6 1262.2
1242(31) 0.001041 1144.4 1261.9
1251(31) 0.001041 1144.2 1262.1
1225(31) 0.001041 1144.0 1262.5
1207(30) 0.001111 1143.9 1263.0
1231(31) 0.001041 1143.7 1263.6
1278(31) 0.001041 1143.5 1264.2
1264(31) 0.001041 1143.4 1264.5
1242(31) 0.001041 1143.2 1264.4
1208(30) 0.001111 1143.0 1263.8
1247(31) 0.001041 1142.8 1262.5
1287(31) 0.001041 1142.7 1260.6
1257(31) 0.001041 1142.5 1257.9
1263(31) 0.001041 1142.3 1254.6
1228(31) 0.001041 1142.1 1250.8
1228(31) 0.001041 1142.0 1246.6
1246(31) 0.001041 1141.8 1242.2
1216(31) 0.001041 1141.6 1237.8
1207(30) 0.001111 1141.5 1233.5
1217(31) 0.001041 1141.3 1229.6
1230(31) 0.001041 1141.1 1226.2
1207(30) 0.001111 1140.9 1223.5
1202(30) 0.001111 1140.8 1221.5
1208(30) 0.001111 1140.6 1220.2
1262(31) 0.001041 1140.4 1219.8
1238(31) 0.001041 1140.2 1220.1
1220(31) 0.001041 1140.1 1221.2
1221(31) 0.001041 1139.9 1222.8
1220(31) 0.001041 1139.7 1225.0
1207(30) 0.001111 1139.5 1227.6
1218(31) 0.001041 1139.4 1230.5
1241(31) 0.001041 1139.2 1233.6
1265(31) 0.001041 1139.0 1236.7
1272(31) 0.001041 1138.8 1239.9
1262(31) 0.001041 1138.6 1242.9
1205(30) 0.001111 1138.5 1245.9
1225(31) 0.001041 1138.3 1248.8
1230(31) 0.001041 1138.1 1251.7
1240(31) 0.001041 1137.9 1254.8
1219(31) 0.001041 1137.8 1258.1
1256(31) 0.001041 1137.6 1261.8
1265(31) 0.001041 1137.4 1266.0
1258(31) 0.001041 1137.2 1270.8
1245(31) 0.001041 1137.0 1276.3
1298(32) 0.000977 1136.9 1282.7
1287(31) 0.001041 1136.7 1289.8
1304(32) 0.000977 1136.5 1297.7
1301(32) 0.000977 1136.3 1306.2
1343(32) 0.000977 1136.2 1315.2
1327(32) 0.000977 1136.0 1324.5
1304(32) 0.000977 1135.8 1333.8
1296(32) 0.000977 1135.6 1342.8
1343(32) 0.000977 1135.4 1351.3
1388(33) 0.000918 1135.3 1358.7
1403(33) 0.000918 1135.1 1364.9
1380(33) 0.000918 1134.9 1369.5
1357(32) 0.000977 1134.7 1372.3
1349(32) 0.000977 1134.5 1373.0
1328(32) 0.000977 1134.3 1371.7
1364(32) 0.000977 1134.2 1368.1
1374(32) 0.000977 1134.0 1362.5
1370(32) 0.000977 1133.8 1354.8
1373(32) 0.000977 1133.6 1345.4
1322(32) 0.000977 1133.4 1334.6
1366(32) 0.000977 1133.3 1322.5
1396(33) 0.000918 1133.1 1309.7
1389(33) 0.000918 1132.9 1296.5
1361(32) 0.000977 1132.7 1283.3
1339(32) 0.000977 1132.5 1270.4
1354(32) 0.000977 1132.3 1258.2
1318(32) 0.000977 1132.2 1247.1
1302(32) 0.000977 1132.0 1237.2
1329(32) 0.000977 1131.8 1228.8
1353(32) 0.000977 1131.6 1222.2
1325(32) 0.000977 1131.4 1217.3
1338(32) 0.000977 1131.2 1214.5
1335(32) 0.000977 1131.1 1213.7
1275(31) 0.001041 1130.9 1215.0
1276(31) 0.001041 1130.7 1218.5
1311(32) 0.000977 1130.5 1224.1
1276(31) 0.001041 1130.3 1231.8
1259(31) 0.001041 1130.1 1241.6
1249(31) 0.001041 1130.0 1253.2
1280(31) 0.001041 1129.8 1266.6
1304(32) 0.000977 1129.6 1281.6
1318(32) 0.000977 1129.4 1297.9
1326(32) 0.000977 1129.2 1315.3
1282(31) 0.001041 1129.0 1333.5
1342(32) 0.000977 1128.8 1352.1
1344(32) 0.000977 1128.7 1370.9
1351(32) 0.000977 1128.5 1389.4
1374(32) 0.000977 1128.3 1407.4
1424(33) 0.000918 1128.1 1424.3
1447(33) 0.000918 1127.9 1439.9
1439(33) 0.000918 1127.7 1454.0
1449(33) 0.000918 1127.5 1466.3
1408(33) 0.000918 1127.4 1476.7
1462(33) 0.000918 1127.2 1485.2
1490(34) 0.000865 1127.0 1491.8
1442(33) 0.000918 1126.8 1496.6
1454(33) 0.000918 1126.6 1499.5
1470(34) 0.000865 1126.4 1500.7
1491(34) 0.000865 1126.2 1500.3
1498(34) 0.000865 1126.0 1498.3
1491(34) 0.000865 1125.9 1494.7
1483(34) 0.000865 1125.7 1489.6
1498(34) 0.000865 1125.5 1482.9
1487(34) 0.000865 1125.3 1474.8
1448(34) 0.000865 1125.1 1465.3
1411(34) 0.000865 1124.9 1454.4
1435(34) 0.000865 1124.7 1442.4
1398(34) 0.000865 1124.5 1429.3
1422(34) 0.000865 1124.4 1415.4
1413(34) 0.000865 1124.2 1401.1
1391(34) 0.000865 1124.0 1386.5
1387(34) 0.000865 1123.8 1372.2
1418(34) 0.000865 1123.6 1358.3
1348(33) 0.000918 1123.4 1345.1
1314(33) 0.000918 1123.2 1333.1
1327(33) 0.000918 1123.0 1322.4
1296(33) 0.000918 1122.8 1313.3
1300(33) 0.000918 1122.7 1306.0
1320(33) 0.000918 1122.5 1300.6
1317(33) 0.000918 1122.3 1297.1
1314(33) 0.000918 1122.1 1295.7
1281(32) 0.000977 1121.9 1296.2
1308(33) 0.000918 1121.7 1298.6
1328(33) 0.000918 1121.5 1302.8
1304(33) 0.000918 1121.3 1308.6
1318(33) 0.000918 1121.1 1315.7
1335(33) 0.000918 1120.9 1323.9
1379(34) 0.000865 1120.8 1332.8
1339(33) 0.000918 1120.6 1342.2
1310(33) 0.000918 1120.4 1351.8
1319(33) 0.000918 1120.2 1361.3
1381(34) 0.000865 1120.0 1370.4
1354(33) 0.000918 1119.8 1378.9
1303(33) 0.000918 1119.6 1386.6
1362(33) 0.000918 1119.4 1393.3
1398(34) 0.000865 1119.2 1398.9
1370(33) 0.000918 1119.0 1403.3
1387(34) 0.000865 1118.8 1406.4
1340(33) 0.000918 1118.7 1408.3
1389(34) 0.000865 1118.5 1409.1
1417(34) 0.000865 1118.3 1408.8
1403(34) 0.000865 1118.1 1407.7
1404(34) 0.000865 1117.9 1405.9
1389(34) 0.000865 1117.7 1403.6
1407(34) 0.000865 1117.5 1401.0
1353(33) 0.000918 1117.3 1398.3
1404(34) 0.000865 1117.1 1395.7
1440(34) 0.000865 1116.9 1393.2
1397(34) 0.000865 1116.7 1391.0
1392(34) 0.000865 1116.6 1389.2
1358(33) 0.000918 1116.4 1388.0
1365(33) 0.000918 1116.2 1387.3
1393(34) 0.000865 1116.0 1387.3
1393(34) 0.000865 1115.8 1388.0
1363(33) 0.000918 1115.6 1389.5
1387(34) 0.000865 1115.4 1391.8
1401(34) 0.000865 1115.2 1395.0
1414(34) 0.000865 1115.0 1399.0
1448(34) 0.000865 1114.8 1403.9
1438(34) 0.000865 1114.6 1409.5
1428(34) 0.000865 1114.4 1415.8
1387(34) 0.000865 1114.3 1422.6
1433(34) 0.000865 1114.1 1429.8
1382(34) 0.000865 1113.9 1437.2
1430(34) 0.000865 1113.7 1444.7
1460(35) 0.000816 1113.5 1452.1
1453(34) 0.000865 1113.3 1459.2
1450(34) 0.000865 1113.1 1465.9
1472(35) 0.000816 1112.9 1472.2
1456(34) 0.000865 1112.7 1477.9
1489(35) 0.000816 1112.5 1483.2
1479(35) 0.000816 1112.3 1488.1
1519(35) 0.000816 1112.1 1492.6
1476(35) 0.000816 1112.0 1496.7
1497(35) 0.000816 1111.8 1500.7
1498(35) 0.000816 1111.6 1504.4
1489(35) 0.000816 1111.4 1508.0
1527(35) 0.000816 1111.2 1511.5
1548(36) 0.000772 1111. 1515.
1549(36) 0.000772 1111. 1518.
1534(35) 0.000816 1110.6 1521.2
1592(36) 0.000772 1110. 1524.
1565(36) 0.000772 1110. 1527.
1517(35) 0.000816 1110.0 1528.6
1558(36) 0.000772 1110. 1530.
1539(35) 0.000816 1109.7 1531.3
1564(36) 0.000772 1109. 1532.
1559(36) 0.000772 1109. 1531.
1525(35) 0.000816 1109.1 1529.5
1501(35) 0.000816 1108.9 1526.9
1551(36) 0.000772 1109. 1523.
1517(35) 0.000816 1108.5 1518.0
1526(35) 0.000816 1108.3 1511.7
1542(35) 0.000816 1108.1 1504.2
1539(35) 0.000816 1107.9 1495.5
1527(35) 0.000816 1107.7 1485.7
1518(35) 0.000816 1107.5 1475.0
1520(35) 0.000816 1107.4 1463.5
1450(34) 0.000865 1107.2 1451.4
1449(34) 0.000865 1107.0 1438.8
1412(34) 0.000865 1106.8 1426.0
1374(33) 0.000918 1106.6 1413.2
1458(34) 0.000865 1106.4 1400.4
1376(27) 0.001372 1106.2 1388.0
1319(34) 0.000865 1106.0 1375.9
1390(35) 0.000816 1105.8 1364.3
1325(34) 0.000865 1105.6 1353.3
1289(33) 0.000918 1105.5 1342.9
1326(34) 0.000865 1105.3 1333.1
1315(34) 0.000865 1105.1 1323.8
1280(33) 0.000918 1104.9 1315.2
1263(33) 0.000918 1104.7 1307.0
1355(34) 0.000865 1104.5 1299.4
1269(33) 0.000918 1104.3 1292.3
1296(34) 0.000865 1104.1 1285.5
1248(33) 0.000918 1103.9 1279.0
1260(33) 0.000918 1103.7 1272.8
1245(33) 0.000918 1103.6 1266.7
1283(33) 0.000918 1103.4 1260.8
1338(34) 0.000865 1103.2 1255.0
1279(33) 0.000918 1103.0 1249.2
1276(33) 0.000918 1102.8 1243.4
1229(33) 0.000918 1102.6 1237.7
1197(32) 0.000977 1102.4 1232.1
1283(33) 0.000918 1102.2 1226.6
1261(33) 0.000918 1102.0 1221.3
1249(33) 0.000918 1101.9 1216.1
1224(33) 0.000918 1101.7 1211.3
1169(32) 0.000977 1101.5 1206.7
1202(32) 0.000977 1101.3 1202.5
1236(33) 0.000918 1101.1 1198.7
1150(32) 0.000977 1100.9 1195.3
1187(32) 0.000977 1100.7 1192.3
1164(32) 0.000977 1100.5 1189.8
1163(32) 0.000977 1100.3 1187.6
1207(32) 0.000977 1100.2 1185.9
1157(32) 0.000977 1100.0 1184.6
1168(32) 0.000977 1099.8 1183.7
1175(32) 0.000977 1099.6 1183.1
1247(33) 0.000918 1099.4 1182.9
1126(31) 0.001041 1099.2 1182.9
1173(32) 0.000977 1099.0 1183.2
1197(32) 0.000977 1098.9 1183.7
1155(32) 0.000977 1098.7 1184.6
1171(32) 0.000977 1098.5 1185.7
1209(32) 0.000977 1098.3 1187.1
1210(32) 0.000977 1098.1 1188.8
1216(33) 0.000918 1097.9 1190.9
1155(32) 0.000977 1097.7 1193.4
1131(31) 0.001041 1097.6 1196.4
1207(32) 0.000977 1097.4 1199.7
1216(33) 0.000918 1097.2 1203.6
1176(32) 0.000977 1097.0 1207.8
1191(32) 0.000977 1096.8 1212.5
1255(33) 0.000918 1096.6 1217.5
1189(32) 0.000977 1096.4 1222.8
1235(33) 0.000918 1096.3 1228.3
1200(32) 0.000977 1096.1 1233.9
1212(32) 0.000977 1095.9 1239.5
1223(33) 0.000918 1095.7 1245.0
1253(33) 0.000918 1095.5 1250.1
1214(32) 0.000977 1095.3 1254.8
1237(33) 0.000918 1095.2 1258.9
1240(33) 0.000918 1095.0 1262.3
1265(33) 0.000918 1094.8 1264.8
1276(33) 0.000918 1094.6 1266.4
1274(33) 0.000918 1094.4 1266.9
1265(33) 0.000918 1094.2 1266.3
1278(33) 0.000918 1094.1 1264.7
1260(33) 0.000918 1093.9 1262.0
1218(33) 0.000918 1093.7 1258.4
1257(33) 0.000918 1093.5 1253.9
1247(33) 0.000918 1093.3 1248.6
1270(33) 0.000918 1093.1 1242.8
1213(32) 0.000977 1093.0 1236.6
1200(32) 0.000977 1092.8 1230.2
1183(32) 0.000977 1092.6 1223.8
1210(32) 0.000977 1092.4 1217.6
1202(32) 0.000977 1092.2 1211.8
1207(32) 0.000977 1092.1 1206.4
1210(32) 0.000977 1091.9 1201.8
1156(32) 0.000977 1091.7 1198.1
1234(33) 0.000918 1091.5 1195.4
1172(32) 0.000977 1091.3 1193.8
1189(32) 0.000977 1091.2 1193.5
1180(32) 0.000977 1091.0 1194.6
1206(32) 0.000977 1090.8 1197.2
1177(32) 0.000977 1090.6 1201.2
1222(33) 0.000918 1090.5 1206.9
1208(32) 0.000977 1090.3 1214.2
1157(32) 0.000977 1090.1 1223.1
1213(32) 0.000977 1089.9 1233.8
1201(32) 0.000977 1089.7 1246.0
1298(34) 0.000865 1089.6 1259.9
1234(33) 0.000918 1089.4 1275.3
1247(33) 0.000918 1089.2 1292.1
1289(33) 0.000918 1089.0 1310.3
1308(34) 0.000865 1088.9 1329.7
1359(34) 0.000865 1088.7 1350.2
1446(35) 0.000816 1088.5 1371.6
1408(35) 0.000816 1088.3 1393.5
1410(35) 0.000816 1088.2 1415.9
1422(35) 0.000816 1088.0 1438.4
1465(36) 0.000772 1088. 1461.
1479(35) 0.000816 1087.6 1482.8
1397(34) 0.000865 1087.5 1504.0
1467(35) 0.000816 1087.3 1524.2
1540(36) 0.000772 1087. 1543.
1538(36) 0.000772 1087. 1561.
1597(36) 0.000772 1087. 1576.
1576(36) 0.000772 1087. 1590.
1642(37) 0.000730 1086. 1602.
1539(36) 0.000772 1086. 1611.
1587(36) 0.000772 1086. 1618.
1632(37) 0.000730 1086. 1623.
1592(36) 0.000772 1086. 1625.
1611(36) 0.000772 1086. 1625.
1646(37) 0.000730 1085. 1624.
1690(37) 0.000730 1085. 1620.
1580(36) 0.000772 1085. 1614.
1687(37) 0.000730 1085. 1607.
1629(37) 0.000730 1085. 1599.
1587(36) 0.000772 1085. 1589.
1529(35) 0.000816 1084.4 1579.1
1516(35) 0.000816 1084.2 1568.5
1472(35) 0.000816 1084.0 1557.6
1592(36) 0.000772 1084. 1547.
1464(35) 0.000816 1083.7 1535.8
1530(35) 0.000816 1083.5 1525.3
1504(35) 0.000816 1083.3 1515.1
1553(36) 0.000772 1083. 1505.
1465(35) 0.000816 1083.0 1496.1
1495(35) 0.000816 1082.8 1487.2
1525(35) 0.000816 1082.7 1478.7
1466(35) 0.000816 1082.5 1470.6
1441(34) 0.000865 1082.3 1462.7
1451(35) 0.000816 1082.2 1454.8
1427(34) 0.000865 1082.0 1446.9
1412(34) 0.000865 1081.8 1438.8
1415(34) 0.000865 1081.7 1430.5
1403(34) 0.000865 1081.5 1421.7
1416(34) 0.000865 1081.3 1412.4
1429(34) 0.000865 1081.2 1402.7
1432(34) 0.000865 1081.0 1392.4
1405(34) 0.000865 1080.8 1381.6
1354(33) 0.000918 1080.7 1370.3
1374(34) 0.000865 1080.5 1358.6
1369(34) 0.000865 1080.3 1346.6
1370(34) 0.000865 1080.2 1334.4
1327(33) 0.000918 1080.0 1322.2
1287(33) 0.000918 1079.9 1310.0
1367(34) 0.000865 1079.7 1298.0
1273(33) 0.000918 1079.5 1286.3
1264(32) 0.000977 1079.4 1275.0
1228(32) 0.000977 1079.2 1264.3
1227(32) 0.000977 1079.0 1254.2
1247(32) 0.000977 1078.9 1244.7
1215(32) 0.000977 1078.7 1236.1
1258(32) 0.000977 1078.6 1228.3
1217(32) 0.000977 1078.4 1221.3
1208(32) 0.000977 1078.2 1215.2
1261(32) 0.000977 1078.1 1209.9
1222(32) 0.000977 1077.9 1205.5
1177(31) 0.001041 1077.8 1201.8
1164(31) 0.001041 1077.6 1199.0
1153(31) 0.001041 1077.4 1196.8
1186(31) 0.001041 1077.3 1195.3
1162(31) 0.001041 1077.1 1194.3
1181(31) 0.001041 1077.0 1193.9
1152(31) 0.001041 1076.8 1193.9
1201(32) 0.000977 1076.6 1194.3
1208(32) 0.000977 1076.5 1195.0
1177(31) 0.001041 1076.3 1195.9
1199(32) 0.000977 1076.2 1197.1
1213(32) 0.000977 1076.0 1198.5
1206(32) 0.000977 1075.9 1200.0
1253(32) 0.000977 1075.7 1201.8
1198(32) 0.000977 1075.5 1203.6
1155(31) 0.001041 1075.4 1205.7
1121(31) 0.001041 1075.2 1207.9
1203(32) 0.000977 1075.1 1210.3
1240(32) 0.000977 1074.9 1212.9
1239(32) 0.000977 1074.8 1215.7
1194(32) 0.000977 1074.6 1218.7
1201(32) 0.000977 1074.5 1222.0
1193(32) 0.000977 1074.3 1225.6
1221(32) 0.000977 1074.1 1229.5
1262(32) 0.000977 1074.0 1233.6
1229(32) 0.000977 1073.8 1238.0
1291(33) 0.000918 1073.7 1242.6
1247(32) 0.000977 1073.5 1247.5
1320(33) 0.000918 1073.4 1252.5
1229(32) 0.000977 1073.2 1257.7
1264(32) 0.000977 1073.1 1262.9
1190(31) 0.001041 1072.9 1268.1
1282(33) 0.000918 1072.8 1273.3
1250(32) 0.000977 1072.6 1278.3
1288(33) 0.000918 1072.5 1283.0
1249(32) 0.000977 1072.3 1287.5
1343(33) 0.000918 1072.2 1291.6
1305(33) 0.000918 1072.0 1295.4
1332(33) 0.000918 1071.9 1298.6
1375(34) 0.000865 1071.7 1301.4
1254(46) 0.000473 1072. 1304.
1310(32) 0.000977 1071.4 1305.4
1337(33) 0.000918 1071.3 1306.6
1337(33) 0.000918 1071.1 1307.2
1335(33) 0.000918 1071.0 1307.3
1328(33) 0.000918 1070.8 1306.9
1300(32) 0.000977 1070.7 1306.1
1281(32) 0.000977 1070.5 1304.9
1303(32) 0.000977 1070.4 1303.3
1306(32) 0.000977 1070.2 1301.4
1337(33) 0.000918 1070.1 1299.2
1315(32) 0.000977 1069.9 1297.0
1309(32) 0.000977 1069.8 1294.6
1360(33) 0.000918 1069.6 1292.3
1303(32) 0.000977 1069.5 1290.0
1321(32) 0.000977 1069.4 1287.9
1280(32) 0.000977 1069.2 1286.0
1254(32) 0.000977 1069.1 1284.3
1263(32) 0.000977 1068.9 1283.0
1289(32) 0.000977 1068.8 1281.9
1285(32) 0.000977 1068.6 1281.2
1270(32) 0.000977 1068.5 1280.9
1254(32) 0.000977 1068.3 1280.9
1242(31) 0.001041 1068.2 1281.2
1266(32) 0.000977 1068.0 1281.8
1281(32) 0.000977 1067.9 1282.7
1308(32) 0.000977 1067.8 1283.9
1311(32) 0.000977 1067.6 1285.3
1294(32) 0.000977 1067.5 1286.9
1305(32) 0.000977 1067.3 1288.7
1290(32) 0.000977 1067.2 1290.6
1286(32) 0.000977 1067.1 1292.6
1293(32) 0.000977 1066.9 1294.6
1303(32) 0.000977 1066.8 1296.6
1338(33) 0.000918 1066.6 1298.7
1290(32) 0.000977 1066.5 1300.6
1285(32) 0.000977 1066.3 1302.4
1329(33) 0.000918 1066.2 1304.1
1327(33) 0.000918 1066.1 1305.6
1298(32) 0.000977 1065.9 1306.9
1337(33) 0.000918 1065.8 1308.0
1356(33) 0.000918 1065.6 1308.8
1305(32) 0.000977 1065.5 1309.4
1305(32) 0.000977 1065.4 1309.8
1364(33) 0.000918 1065.2 1310.0
1312(32) 0.000977 1065.1 1310.0
1380(33) 0.000918 1065.0 1310.0
1364(33) 0.000918 1064.8 1309.8
1288(32) 0.000977 1064.7 1309.7
1266(32) 0.000977 1064.5 1309.6
1294(32) 0.000977 1064.4 1309.6
1306(32) 0.000977 1064.3 1309.7
1292(32) 0.000977 1064.1 1310.1
1281(32) 0.000977 1064.0 1310.7
1337(33) 0.000918 1063.9 1311.6
1319(32) 0.000977 1063.7 1312.9
1328(33) 0.000918 1063.6 1314.5
1335(33) 0.000918 1063.4 1316.6
1363(33) 0.000918 1063.3 1319.3
1350(33) 0.000918 1063.2 1322.4
1359(33) 0.000918 1063.0 1326.1
1358(33) 0.000918 1062.9 1330.4
1322(32) 0.000977 1062.8 1335.2
1356(33) 0.000918 1062.6 1340.7
1373(33) 0.000918 1062.5 1346.8
1371(33) 0.000918 1062.4 1353.4
1384(33) 0.000918 1062.2 1360.5
1383(33) 0.000918 1062.1 1368.1
1381(33) 0.000918 1062.0 1376.1
1373(33) 0.000918 1061.8 1384.4
1397(33) 0.000918 1061.7 1393.0
1412(34) 0.000865 1061.6 1401.6
1439(34) 0.000865 1061.4 1410.3
1389(33) 0.000918 1061.3 1418.8
1417(34) 0.000865 1061.2 1427.1
1403(33) 0.000918 1061.0 1434.9
1392(33) 0.000918 1060.9 1442.3
1412(34) 0.000865 1060.8 1449.1
1430(34) 0.000865 1060.6 1455.2
1460(34) 0.000865 1060.5 1460.5
1462(34) 0.000865 1060.4 1464.8
1440(34) 0.000865 1060.3 1468.2
1478(34) 0.000865 1060.1 1470.5
1465(34) 0.000865 1060.0 1471.8
1508(35) 0.000816 1059.9 1471.9
1462(34) 0.000865 1059.7 1470.9
1477(34) 0.000865 1059.6 1468.8
1475(34) 0.000865 1059.5 1465.5
1461(34) 0.000865 1059.4 1461.2
1479(34) 0.000865 1059.2 1455.8
1503(35) 0.000816 1059.1 1449.4
1414(34) 0.000865 1059.0 1442.0
1485(34) 0.000865 1058.8 1433.9
1455(34) 0.000865 1058.7 1425.0
1407(33) 0.000918 1058.6 1415.4
1377(33) 0.000918 1058.5 1405.4
1395(33) 0.000918 1058.3 1395.0
1379(33) 0.000918 1058.2 1384.3
1386(33) 0.000918 1058.1 1373.4
1385(33) 0.000918 1058.0 1362.5
1359(27) 0.001372 1057.8 1351.7
1372(33) 0.000918 1057.7 1341.1
1362(33) 0.000918 1057.6 1330.9
1366(33) 0.000918 1057.5 1321.0
1323(32) 0.000977 1057.3 1311.7
1322(32) 0.000977 1057.2 1302.9
1305(32) 0.000977 1057.1 1294.7
1260(32) 0.000977 1057.0 1287.3
1329(32) 0.000977 1056.8 1280.6
1290(32) 0.000977 1056.7 1274.7
1275(32) 0.000977 1056.6 1269.6
1287(32) 0.000977 1056.5 1265.3
1291(32) 0.000977 1056.4 1261.8
1251(32) 0.000977 1056.2 1259.2
1247(32) 0.000977 1056.1 1257.3
1264(32) 0.000977 1056.0 1256.2
1293(32) 0.000977 1055.9 1255.8
1217(31) 0.001041 1055.8 1256.1
1234(31) 0.001041 1055.6 1257.1
1285(32) 0.000977 1055.5 1258.7
1302(32) 0.000977 1055.4 1260.9
1307(32) 0.000977 1055.3 1263.5
1297(32) 0.000977 1055.2 1266.7
1245(32) 0.000977 1055.0 1270.2
1249(32) 0.000977 1054.9 1274.0
1279(32) 0.000977 1054.8 1278.1
1274(32) 0.000977 1054.7 1282.5
1305(32) 0.000977 1054.6 1287.0
1263(32) 0.000977 1054.5 1291.6
1291(32) 0.000977 1054.3 1296.2
1307(32) 0.000977 1054.2 1300.9
1328(33) 0.000918 1054.1 1305.5
1337(33) 0.000918 1054.0 1310.0
1296(32) 0.000977 1053.9 1314.4
1297(32) 0.000977 1053.8 1318.7
1311(32) 0.000977 1053.7 1322.7
1293(32) 0.000977 1053.5 1326.5
1351(33) 0.000918 1053.4 1330.0
1370(33) 0.000918 1053.3 1333.2
1364(33) 0.000918 1053.2 1336.1
1351(33) 0.000918 1053.1 1338.7
1317(32) 0.000977 1053.0 1340.9
1343(33) 0.000918 1052.9 1342.8
1385(33) 0.000918 1052.8 1344.3
1357(33) 0.000918 1052.6 1345.4
1314(32) 0.000977 1052.5 1346.0
1348(33) 0.000918 1052.4 1346.3
1335(33) 0.000918 1052.3 1346.2
1349(33) 0.000918 1052.2 1345.7
1323(32) 0.000977 1052.1 1344.8
1321(32) 0.000977 1052.0 1343.6
1350(33) 0.000918 1051.9 1341.9
1365(33) 0.000918 1051.8 1339.9
1352(33) 0.000918 1051.7 1337.5
1305(32) 0.000977 1051.6 1334.8
1301(32) 0.000977 1051.5 1331.8
1319(32) 0.000977 1051.4 1328.6
1319(32) 0.000977 1051.3 1325.1
1306(32) 0.000977 1051.2 1321.4
1351(33) 0.000918 1051.1 1317.6
1374(33) 0.000918 1051.0 1313.7
1316(32) 0.000977 1050.9 1309.7
1318(32) 0.000977 1050.8 1305.6
1336(33) 0.000918 1050.7 1301.6
1305(32) 0.000977 1050.6 1297.6
1288(32) 0.000977 1050.5 1293.7
1290(32) 0.000977 1050.4 1289.8
1297(32) 0.000977 1050.3 1286.1
1255(32) 0.000977 1050.2 1282.5
1309(32) 0.000977 1050.1 1279.0
1330(33) 0.000918 1050.0 1275.7
1267(32) 0.000977 1049.9 1272.4
1268(32) 0.000977 1049.8 1269.4
1256(32) 0.000977 1049.7 1266.4
1248(32) 0.000977 1049.6 1263.5
1225(31) 0.001041 1049.5 1260.7
1262(32) 0.000977 1049.4 1258.1
1212(31) 0.001041 1049.3 1255.4
1208(31) 0.001041 1049.2 1252.9
1236(31) 0.001041 1049.1 1250.3
1273(32) 0.000977 1049.0 1247.8
1235(31) 0.001041 1049.0 1245.3
1209(31) 0.001041 1048.9 1242.8
1217(31) 0.001041 1048.8 1240.4
1241(31) 0.001041 1048.7 1237.9
1228(31) 0.001041 1048.6 1235.5
1226(31) 0.001041 1048.5 1233.1
1215(31) 0.001041 1048.5 1230.7
1217(31) 0.001041 1048.4 1228.3
1231(31) 0.001041 1048.3 1225.9
1216(31) 0.001041 1048.2 1223.5
1255(32) 0.000977 1048.1 1221.2
1223(31) 0.001041 1048.1 1218.9
1212(31) 0.001041 1048.0 1216.6
1231(31) 0.001041 1047.9 1214.4
1203(31) 0.001041 1047.8 1212.2
1240(31) 0.001041 1047.7 1210.0
1219(31) 0.001041 1047.7 1207.8
1180(31) 0.001041 1047.6 1205.6
1202(31) 0.001041 1047.5 1203.4
1202(31) 0.001041 1047.5 1201.2
1237(32) 0.000977 1047.4 1199.1
1187(31) 0.001041 1047.3 1196.9
1162(31) 0.001041 1047.3 1194.7
1207(32) 0.000977 1047.2 1192.6
1185(31) 0.001041 1047.1 1190.4
1193(32) 0.000977 1047.1 1188.2
1135(31) 0.001041 1047.0 1186.1
1171(31) 0.001041 1046.9 1184.0
1187(31) 0.001041 1046.9 1182.0
1181(31) 0.001041 1046.8 1180.0
1175(31) 0.001041 1046.8 1178.0
1170(31) 0.001041 1046.7 1176.2
1183(31) 0.001041 1046.7 1174.4
1162(31) 0.001041 1046.6 1172.8
1167(31) 0.001041 1046.6 1171.2
1152(31) 0.001041 1046.5 1169.8
1151(31) 0.001041 1046.5 1168.6
1167(31) 0.001041 1046.4 1167.5
1158(31) 0.001041 1046.4 1166.6
1183(31) 0.001041 1046.3 1165.8
1151(31) 0.001041 1046.3 1165.3
1172(31) 0.001041 1046.2 1164.9
1164(31) 0.001041 1046.2 1164.8
1173(31) 0.001041 1046.2 1164.9
1189(31) 0.001041 1046.1 1165.2
1227(32) 0.000977 1046.1 1165.7
1146(31) 0.001041 1046.1 1166.5
1182(31) 0.001041 1046.0 1167.5
1180(31) 0.001041 1046.0 1168.8
1169(31) 0.001041 1046.0 1170.4
1176(31) 0.001041 1045.9 1172.2
1174(31) 0.001041 1045.9 1174.3
1151(31) 0.001041 1045.9 1176.7
1150(31) 0.001041 1045.9 1179.3
1178(31) 0.001041 1045.8 1182.3
1192(32) 0.000977 1045.8 1185.5
1190(31) 0.001041 1045.8 1189.0
1200(32) 0.000977 1045.8 1192.7
1200(32) 0.000977 1045.8 1196.8
1238(32) 0.000977 1045.8 1201.1
1218(32) 0.000977 1045.8 1205.6
1223(32) 0.000977 1045.8 1210.3
1228(32) 0.000977 1045.8 1215.3
1223(32) 0.000977 1045.8 1220.5
1208(32) 0.000977 1045.8 1225.8
1274(33) 0.000918 1045.8 1231.3
1246(32) 0.000977 1045.8 1237.0
1235(32) 0.000977 1045.8 1242.7
1329(33) 0.000918 1045.8 1248.5
1281(33) 0.000918 1045.8 1254.4
1233(32) 0.000977 1045.8 1260.3
1260(32) 0.000977 1045.8 1266.1
1255(32) 0.000977 1045.9 1271.9
1262(32) 0.000977 1045.9 1277.6
1260(32) 0.000977 1045.9 1283.2
1315(33) 0.000918 1045.9 1288.6
1284(33) 0.000918 1046.0 1293.8
1293(33) 0.000918 1046.0 1298.7
1308(33) 0.000918 1046.0 1303.4
1339(33) 0.000918 1046.1 1307.7
1332(33) 0.000918 1046.1 1311.7
1335(33) 0.000918 1046.2 1315.2
1307(33) 0.000918 1046.2 1318.4
1266(32) 0.000977 1046.3 1321.0
1337(33) 0.000918 1046.3 1323.2
1288(33) 0.000918 1046.4 1324.9
1291(33) 0.000918 1046.4 1326.0
1366(34) 0.000865 1046.5 1326.6
1339(33) 0.000918 1046.6 1326.6
1337(33) 0.000918 1046.6 1326.1
1308(33) 0.000918 1046.7 1325.0
1278(33) 0.000918 1046.8 1323.3
1343(33) 0.000918 1046.9 1321.1
1329(33) 0.000918 1046.9 1318.3
1297(33) 0.000918 1047.0 1315.0
1287(33) 0.000918 1047.1 1311.3
1277(33) 0.000918 1047.2 1307.0
1310(33) 0.000918 1047.3 1302.4
1271(32) 0.000977 1047.4 1297.3
1324(33) 0.000918 1047.5 1291.9
1278(33) 0.000918 1047.6 1286.2
1267(32) 0.000977 1047.7 1280.2
1293(33) 0.000918 1047.8 1273.9
1225(32) 0.000977 1048.0 1267.5
1211(32) 0.000977 1048.1 1261.0
1259(32) 0.000977 1048.2 1254.4
1231(32) 0.000977 1048.3 1247.7
1257(32) 0.000977 1048.5 1241.1
1246(32) 0.000977 1048.6 1234.5
1247(32) 0.000977 1048.8 1228.0
1191(31) 0.001041 1048.9 1221.6
1178(31) 0.001041 1049.1 1215.4
1197(32) 0.000977 1049.2 1209.4
1214(32) 0.000977 1049.4 1203.7
1247(32) 0.000977 1049.5 1198.2
1240(32) 0.000977 1049.7 1193.0
1216(32) 0.000977 1049.9 1188.2
1173(31) 0.001041 1050.1 1183.6
1185(31) 0.001041 1050.3 1179.5
1164(32) 0.000977 1050.4 1175.7
1151(31) 0.001041 1050.6 1172.3
1175(32) 0.000977 1050.8 1169.3
1146(31) 0.001041 1051.0 1166.8
1120(31) 0.001041 1051.3 1164.6
1128(31) 0.001041 1051.5 1162.9
1166(32) 0.000977 1051.7 1161.7
1141(31) 0.001041 1051.9 1160.8
1154(31) 0.001041 1052.1 1160.4
1178(32) 0.000977 1052.4 1160.4
1150(31) 0.001041 1052.6 1160.8
1135(31) 0.001041 1052.9 1161.6
1110(31) 0.001041 1053.1 1162.8
1167(32) 0.000977 1053.4 1164.5
1179(32) 0.000977 1053.6 1166.5
1147(31) 0.001041 1053.9 1168.8
1155(31) 0.001041 1054.2 1171.5
1158(31) 0.001041 1054.5 1174.6
1143(31) 0.001041 1054.8 1177.9
1138(31) 0.001041 1055.1 1181.6
1175(32) 0.000977 1055.4 1185.5
1157(31) 0.001041 1055.7 1189.7
1182(32) 0.000977 1056.0 1194.2
1198(32) 0.000977 1056.3 1198.8
1175(32) 0.000977 1056.6 1203.7
1222(32) 0.000977 1057.0 1208.7
1241(32) 0.000977 1057.3 1213.9
1215(32) 0.000977 1057.7 1219.2
1231(32) 0.000977 1058.0 1224.7
1243(32) 0.000977 1058.4 1230.2
1235(32) 0.000977 1058.7 1235.7
1202(32) 0.000977 1059.1 1241.3
1235(32) 0.000977 1059.5 1246.9
1221(32) 0.000977 1059.9 1252.5
1252(33) 0.000918 1060.3 1258.1
1232(32) 0.000977 1060.7 1263.6
1259(33) 0.000918 1061.1 1269.1
1274(33) 0.000918 1061.5 1274.4
1289(33) 0.000918 1062.0 1279.7
1296(33) 0.000918 1062.4 1284.8
1258(33) 0.000918 1062.8 1289.8
1266(33) 0.000918 1063.3 1294.6
1302(33) 0.000918 1063.8 1299.3
1321(33) 0.000918 1064.2 1303.7
1327(33) 0.000918 1064.7 1308.0
1302(33) 0.000918 1065.2 1312.0
1319(33) 0.000918 1065.7 1315.8
1350(34) 0.000865 1066.2 1319.4
1329(33) 0.000918 1066.7 1322.6
1325(33) 0.000918 1067.2 1325.7
1304(33) 0.000918 1067.8 1328.4
1323(33) 0.000918 1068.3 1330.8
1324(33) 0.000918 1068.9 1333.0
1353(34) 0.000865 1069.4 1334.8
1305(33) 0.000918 1070.0 1336.4
1327(33) 0.000918 1070.6 1337.6
1351(34) 0.000865 1071.2 1338.6
1359(34) 0.000865 1071.8 1339.2
1350(34) 0.000865 1072.4 1339.6
1336(34) 0.000865 1073.0 1339.7
1319(33) 0.000918 1073.6 1339.5
1353(34) 0.000865 1074.3 1339.1
1309(33) 0.000918 1074.9 1338.4
1291(33) 0.000918 1075.6 1337.5
1367(34) 0.000865 1076.3 1336.3
1375(34) 0.000865 1077.0 1335.0
1330(33) 0.000918 1077.7 1333.5
1355(34) 0.000865 1078.4 1331.8
1337(34) 0.000865 1079.1 1330.0
1354(34) 0.000865 1079.8 1328.0
1339(34) 0.000865 1080.6 1325.9
1306(33) 0.000918 1081.3 1323.7
1304(33) 0.000918 1082.1 1321.4
1299(33) 0.000918 1082.9 1319.0
1321(33) 0.000918 1083.7 1316.6
1317(33) 0.000918 1084.5 1314.1
1326(33) 0.000918 1085.3 1311.5
1327(33) 0.000918 1086.1 1309.0
1286(33) 0.000918 1086.9 1306.4
1270(33) 0.000918 1087.8 1303.8
1302(33) 0.000918 1088.7 1301.2
1304(33) 0.000918 1089.5 1298.6
1276(33) 0.000918 1090.4 1296.0
1290(33) 0.000918 1091.3 1293.5
1273(33) 0.000918 1092.3 1291.0
1279(33) 0.000918 1093.2 1288.5
1266(33) 0.000918 1094.1 1286.1
1280(33) 0.000918 1095.1 1283.8
1273(33) 0.000918 1096.1 1281.5
1256(33) 0.000918 1097.1 1279.3
1248(33) 0.000918 1098.1 1277.2
1287(33) 0.000918 1099.1 1275.2
1295(33) 0.000918 1100.1 1273.2
1305(33) 0.000918 1101.2 1271.4
1269(33) 0.000918 1102.2 1269.6
1253(33) 0.000918 1103.3 1268.0
1266(33) 0.000918 1104.4 1266.4
1255(33) 0.000918 1105.5 1265.0
1292(33) 0.000918 1106.7 1263.7
1335(34) 0.000865 1107.8 1262.5
1288(27) 0.001372 1109.0 1261.4
1274(33) 0.000918 1110.1 1260.4
1268(33) 0.000918 1111.3 1259.6
1290(33) 0.000918 1112.6 1258.8
1296(33) 0.000918 1113.8 1258.2
1267(33) 0.000918 1115.0 1257.8
1262(33) 0.000918 1116.3 1257.4
1265(33) 0.000918 1117.6 1257.2
1272(33) 0.000918 1118.9 1257.2
1280(33) 0.000918 1120.2 1257.2
1289(33) 0.000918 1121.5 1257.4
1286(33) 0.000918 1122.9 1257.8
1294(33) 0.000918 1124.2 1258.3
1270(33) 0.000918 1125.6 1258.9
1272(33) 0.000918 1127.0 1259.7
1269(33) 0.000918 1128.5 1260.7
1279(33) 0.000918 1129.9 1261.8
1277(33) 0.000918 1131.4 1263.0
1322(34) 0.000865 1132.9 1264.5
1310(34) 0.000865 1134.4 1266.0
1258(33) 0.000918 1135.9 1267.8
1259(33) 0.000918 1137.4 1269.7
1269(33) 0.000918 1139.0 1271.7
1303(34) 0.000865 1140.6 1274.0
1287(33) 0.000918 1142.2 1276.4
1269(33) 0.000918 1143.8 1279.0
1251(33) 0.000918 1145.5 1281.8
1265(33) 0.000918 1147.2 1284.7
1259(33) 0.000918 1148.9 1287.9
1307(34) 0.000865 1150.6 1291.2
1360(34) 0.000865 1152.3 1294.7
1333(34) 0.000865 1154.1 1298.4
1355(34) 0.000865 1155.9 1302.3
1382(34) 0.000865 1157.7 1306.4
1318(34) 0.000865 1159.5 1310.6
1290(33) 0.000918 1161.4 1315.1
1296(33) 0.000918 1163.3 1319.7
1301(33) 0.000918 1165.2 1324.5
1323(34) 0.000865 1167.1 1329.6
1334(34) 0.000865 1169.0 1334.8
1341(34) 0.000865 1171.0 1340.1
1398(35) 0.000816 1173.0 1345.7
1378(34) 0.000865 1175.1 1351.4
1327(34) 0.000865 1177.1 1357.3
1362(34) 0.000865 1179.2 1363.3
1383(34) 0.000865 1181.3 1369.5
1396(35) 0.000816 1183.4 1375.9
1385(34) 0.000865 1185.6 1382.3
1383(34) 0.000865 1187.8 1389.0
1399(35) 0.000816 1190.0 1395.7
1358(34) 0.000865 1192.2 1402.6
1408(35) 0.000816 1194.5 1409.6
1463(35) 0.000816 1196.8 1416.6
1448(35) 0.000816 1199.1 1423.8
1411(35) 0.000816 1201.5 1431.0
1442(35) 0.000816 1203.9 1438.3
1473(35) 0.000816 1206.3 1445.7
1442(35) 0.000816 1208.7 1453.1
1420(35) 0.000816 1211.2 1460.6
1458(35) 0.000816 1213.7 1468.1
1485(36) 0.000772 1216. 1476.
1501(36) 0.000772 1219. 1483.
1532(36) 0.000772 1221. 1491.
1578(37) 0.000730 1224. 1498.
1553(36) 0.000772 1227. 1506.
1494(36) 0.000772 1229. 1513.
1534(36) 0.000772 1232. 1520.
1505(36) 0.000772 1235. 1528.
1531(36) 0.000772 1238. 1535.
1548(36) 0.000772 1240. 1542.
1561(36) 0.000772 1243. 1549.
1538(36) 0.000772 1246. 1556.
1526(36) 0.000772 1249. 1562.
1553(36) 0.000772 1252. 1569.
1566(36) 0.000772 1255. 1576.
1616(37) 0.000730 1258. 1582.
1596(37) 0.000730 1261. 1588.
1594(37) 0.000730 1264. 1594.
1592(37) 0.000730 1267. 1600.
1554(36) 0.000772 1270. 1605.
1576(37) 0.000730 1274. 1610.
1591(37) 0.000730 1277. 1615.
1589(37) 0.000730 1280. 1620.
1621(37) 0.000730 1283. 1625.
1609(37) 0.000730 1287. 1629.
1596(37) 0.000730 1290. 1634.
1623(37) 0.000730 1294. 1637.
1595(37) 0.000730 1297. 1641.
1598(37) 0.000730 1301. 1645.
1601(37) 0.000730 1304. 1648.
1607(37) 0.000730 1308. 1651.
1632(37) 0.000730 1311. 1653.
1622(37) 0.000730 1315. 1656.
1612(37) 0.000730 1319. 1658.
1653(37) 0.000730 1323. 1660.
1657(37) 0.000730 1326. 1662.
1611(37) 0.000730 1330. 1664.
1634(37) 0.000730 1334. 1665.
1665(37) 0.000730 1338. 1667.
1631(37) 0.000730 1342. 1668.
1596(37) 0.000730 1346. 1669.
1670(38) 0.000693 1350. 1670.
1708(39) 0.000657 1354. 1670.
1710(39) 0.000657 1358. 1671.
1701(39) 0.000657 1362. 1671.
1694(38) 0.000693 1367. 1672.
1681(38) 0.000693 1371. 1672.
1738(39) 0.000657 1375. 1672.
1709(39) 0.000657 1380. 1673.
1620(38) 0.000693 1384. 1673.
1660(38) 0.000693 1389. 1673.
1746(39) 0.000657 1393. 1673.
1741(39) 0.000657 1398. 1673.
1730(39) 0.000657 1402. 1673.
1661(38) 0.000693 1407. 1673.
1708(39) . . .
1706(39) . . .
1707(39) . . .
1707(39) . . .
1705(39) . . .
1689(38) . . .
1696(38) . . .
1658(38) . . .
1697(39) . . .
1715(39) . . .
1753(39) . . .
1730(39) . . .
1677(38) . . .
1706(39) . . .
1672(38) . . .
1700(39) . . .
1699(39) . . .
1694(38) . . .
1716(39) . . .
1653(38) . . .
1706(39) . . .
1700(39) . . .
1758(39) . . .
1760(39) . . .
1699(39) . . .
1721(39) . . .
1667(38) . . .
1680(38) . . .
1708(39) . . .
1696(38) . . .
1761(39) . . .
1737(39) . . .
1776(39) . . .
1725(39) . . .
1766(39) . . .
1721(39) . . .
1720(39) . . .
1740(39) . . .
1748(39) . . .
1787(39) . . .
1786(39) . . .
1803(40) . . .
1792(39) . . .
1805(40) . . .
1852(40) . . .
1776(39) . . .
1789(39) . . .
1812(40) . . .
1837(40) . . .
1798(40) . . .
1841(40) . . .
1813(40) . . .
1817(40) . . .
1779(39) . . .
1823(40) . . .
1854(40) . . .
1897(40) . . .
1844(40) . . .
1892(40) . . .
1917(41) . . .
1905(41) . . .
1903(41) . . .
1889(40) . . .
1967(41) . . .
1956(41) . . .
1916(41) . . .
1922(41) . . .
1964(41) . . .
1983(41) . . .
1972(41) . . .
1926(41) . . .
1922(41) . . .
1965(41) . . .
2042(42) . . .
2017(42) . . .
1974(41) . . .
2022(42) . . .
2008(42) . . .
2005(41) . . .
2007(42) . . .
1983(41) . . .
2021(42) . . .
2063(42) . . .
2018(42) . . .
2018(42) . . .
2017(60) . . .
2047(60) . . .
2046(60) . . .
2008(60) . . .
2095(61) . . .
2083(61) . . .
1988(59) . . .
2016(60) . . .
2146(61) . . .
2109(61) . . .
2153(62) . . .
2146(61) . . .
2095(61) . . .
2091(61) . . .
2211(62) . . .
2194(62) . . .
2148(61) . . .
2123(61) . . .
2181(62) . . .
2170(62) . . .
2208(62) . . .
2300(63) . . .
2184(62) . . .
2259(63) . . .
2276(63) . . .
2195(62) . . .
2197(62) . . .
2280(63) . . .
2218(62) . . .
2227(62) . . .
2290(63) . . .
2326(64) . . .
2253(63) . . .
2387(64) . . .
2447(65) . . .
2401(65) . . .
2391(64) . . .
2463(65) . . .
2459(65) . . .
2400(65) . . .
2288(63) . . .
2270(63) . . .
2310(63) . . .
2446(65) . . .
2436(65) . . .
2370(64) . . .
2477(65) . . .
2389(64) . . .
2414(65) . . .
2529(66) . . .
2415(65) . . .
2420(65) . . .
2489(66) . . .
2525(66) . . .
2407(65) . . .
2376(64) . . .
2439(65) . . .
2492(66) . . .
2558(66) . . .
2586(67) . . .
2450(65) . . .
2465(65) . . .
2487(66) . . .
2481(66) . . .
2476(65) . . .
2454(65) . . .
2488(66) . . .
2456(65) . . .
2464(65) . . .
2488(66) . . .
2657(68) . . .
2653(68) . . .
2593(67) . . .
2597(67) . . .
2612(67) . . .
2552(66) . . .
2624(67) . . .
2614(67) . . .
2584(67) . . .
2568(67) . . .
2736(68) . . .
2729(68) . . .
2665(68) . . .
2655(68) . . .
2531(66) . . .
2516(66) . . .
2591(67) . . .
2603(67) . . .
2667(68) . . .
2620(67) . . .
2696(68) . . .
2741(69) . . .
2752(69) . . .
2797(69) . . .
2704(68) . . .
2779(69) . . .
2776(69) . . .
2833(70) . . .
2687(68) . . .
2713(68) . . .
loop_
_refln_index_h
_refln_index_k
_refln_index_l
_refln_observed_status
_refln_F_squared_meas
_refln_F_squared_calc
_refln_phase_calc
_refln_d_spacing
_gsas_i100_meas
1 1 0 o 835.170 832.245 -180.00 12.92975 100.00
3 0 0 o 545.286 531.246 -27.67 7.46500 21.91
1 0 1 o 17.387 16.649 115.18 6.48618 0.53
2 2 0 o 274.643 269.433 0.00 6.46488 8.30
2 0 -1 o 413.387 415.803 128.57 5.79759 10.08
2 1 1 o 257.415 260.853 29.83 5.29013 10.49
4 1 0 o 328.898 335.401 143.46 4.88699 11.48
3 1 -1 o 25.092 31.564 -65.84 4.57887 0.77
4 0 1 o 1045.418 1035.491 -147.09 4.31621 14.32
3 3 0 o 67.634 67.041 180.00 4.30992 0.92
3 2 1 o 0.251 0.563 152.00 4.09412 0.01
5 0 -1 o 170.046 163.718 101.56 3.73658 1.76
6 0 0 o 555.584 538.962 -89.32 3.73250 5.75
4 2 -1 o 52.276 51.170 -146.39 3.58969 1.00
5 2 0 o 271.404 266.647 0.99 3.58607 5.21
5 1 1 o 224.410 225.005 31.45 3.45886 4.02
1 0 -2 o 15.426 13.697 -162.22 3.35019 0.13
2 0 2 o 121.664 112.885 -65.24 3.24309 0.96
4 3 1 o 76.459 76.073 -30.00 3.23509 1.21
4 4 0 o 16.472 16.763 180.00 3.23244 0.13
2 1 -2 o 40.574 37.000 -83.43 3.14565 0.61
6 1 -1 o 40.628 42.589 -48.08 3.04980 0.57
3 1 2 o 20.555 20.786 104.65 2.97451 0.28
7 1 0 o 205.315 206.354 108.16 2.96629 2.75
4 0 -2 o 18.118 19.273 43.44 2.89879 0.12
7 0 1 o 267.758 286.323 170.98 2.89308 1.71
5 3 -1 o 31.120 33.278 93.42 2.89308 0.40
3 2 -2 o 122.605 111.236 91.20 2.82858 1.51
6 2 1 o 120.122 109.399 -143.05 2.82327 1.47
6 3 0 o 13.293 12.021 -141.37 2.82150 0.16
5 0 2 o 47.318 37.509 -133.22 2.70221 0.27
4 2 2 o 11.654 11.427 76.33 2.64506 0.13
5 4 1 o 140.807 137.944 126.76 2.64072 1.52
5 1 -2 o 173.731 155.788 -139.21 2.59139 1.82
8 0 -1 o 24.937 22.262 36.70 2.58731 0.13
5 5 0 o 44.670 39.660 -180.00 2.58595 0.23
7 2 -1 o 61.777 59.425 -165.50 2.53701 0.62
4 3 -2 o 141.455 151.372 -18.93 2.49318 1.38
9 0 0 o 178.293 200.417 -81.34 2.48833 0.87
8 1 1 o 249.967 281.157 -16.25 2.44464 2.36
8 2 0 o 29.066 33.205 -65.95 2.44349 0.27
6 1 2 o 12.274 15.666 -6.47 2.40535 0.11
6 4 -1 o 87.526 103.375 0.15 2.40208 0.80
7 3 1 o 76.782 84.376 34.58 2.36167 0.68
5 3 2 o 187.881 195.370 -160.01 2.32619 1.62
7 0 -2 o 597.903 621.737 59.56 2.32619 2.58
7 4 0 o 5.938 6.253 -18.86 2.32225 0.05
6 2 -2 o 1.179 3.196 -26.73 2.28944 0.01
0 0 3 o 1617.615 1671.635 120.15 2.25888 2.21
1 1 3 o 236.980 244.109 -62.57 2.22517 1.89
9 1 -1 o 3.105 3.298 149.57 2.21829 0.02
6 5 1 o 227.014 241.165 -129.37 2.21829 1.81
5 4 -2 o 27.977 27.299 -153.44 2.18881 0.22
3 0 -3 o 71.530 63.278 -154.63 2.16206 0.27
3 0 3 o 40.987 36.258 64.06 2.16206 0.16
8 0 2 o 124.757 105.743 -107.77 2.15811 0.47
2 2 3 o 339.535 299.182 111.50 2.13245 2.52
8 3 -1 o 32.867 26.773 38.32 2.15574 0.25
6 6 0 o 53.028 42.514 0.00 2.15496 0.20
7 2 2 o 305.151 289.753 66.92 2.12866 2.26
10 0 1 o 894.098 877.861 135.90 2.12639 3.31
10 1 0 o 73.315 72.674 111.61 2.12564 0.54
9 2 1 o 277.695 270.345 -148.82 2.09821 2.01
8 1 -2 o 336.860 362.740 -111.42 2.07321 2.39
9 3 0 o 26.061 28.382 82.04 2.07042 0.18
4 1 -3 o 155.668 159.349 47.74 2.05043 1.08
4 1 3 o 132.813 135.953 -90.23 2.05043 0.92
6 4 2 o 300.545 304.910 -42.52 2.04706 2.09
7 5 -1 o 84.888 86.503 -112.32 2.04504 0.59
7 3 -2 o 212.265 200.562 93.74 2.02188 1.44
8 4 1 o 232.218 214.930 43.03 2.01993 1.58
3 3 3 o 4.156 3.264 -31.75 2.00073 0.03
8 5 0 o 22.949 8.945 171.84 1.97177 0.15
11 0 -1 o 43.567 31.639 -64.12 1.94982 0.14
6 0 -3 o 319.354 290.972 -131.30 1.93253 1.01
6 0 3 o 120.715 109.987 123.16 1.93253 0.38
5 2 -3 o 34.212 30.870 152.64 1.91130 0.21
5 2 3 o 69.881 63.055 64.19 1.91130 0.43
9 1 2 o 47.385 43.595 -123.09 1.92970 0.30
6 5 -2 o 194.490 178.932 -116.42 1.92970 1.23
10 2 -1 o 3.728 3.442 143.18 1.92802 0.02
7 6 1 o 30.136 27.958 -45.88 1.90693 0.19
8 3 2 o 170.262 158.386 171.20 1.88811 1.04
10 0 -2 o 989.300 991.625 91.10 1.86829 2.97
11 1 1 o 468.560 466.747 -27.43 1.86676 2.81
9 4 -1 o 36.311 36.171 -139.72 1.86676 0.22
12 0 0 o 124.059 123.423 -117.71 1.86625 0.37
4 4 3 o 3.119 2.973 159.95 1.85157 0.02
9 2 -2 o 169.973 153.979 -38.46 1.84909 1.00
11 2 0 o 91.216 78.368 -15.68 1.84711 0.54
7 7 0 o 2.904 2.495 180.00 1.84711 0.01
10 3 1 o 7.467 3.902 159.81 1.82902 0.04
7 5 2 o 2.367 4.734 -105.90 1.81239 0.01
7 1 3 o 41.192 60.458 -80.99 1.79712 0.23
7 1 -3 o 28.089 41.227 3.34 1.79712 0.16
8 4 -2 o 24.022 33.399 29.03 1.79485 0.14
10 4 0 o 58.466 80.407 -134.95 1.79303 0.33
6 3 3 o 10.572 11.308 -52.63 1.76338 0.06
6 3 -3 o 75.998 81.285 15.20 1.76338 0.42
8 6 -1 o 68.420 78.695 48.50 1.77648 0.38
9 5 1 o 95.860 105.036 -150.99 1.75994 0.53
11 0 2 o 225.891 261.901 111.91 1.74511 0.61
10 2 2 o 393.426 408.090 -19.19 1.72943 2.10
12 1 -1 o 2.771 2.909 161.05 1.72822 0.01
7 6 -2 o 17.687 20.985 -64.25 1.71417 0.09
9 6 0 o 13.834 15.527 6.36 1.71259 0.07
5 5 3 o 134.437 122.855 148.79 1.70123 0.70
11 3 -1 o 137.197 124.737 31.14 1.69814 0.71
1 0 4 o 36.753 36.097 -125.47 1.68933 0.09
9 4 2 o 32.903 32.628 84.03 1.68481 0.17
11 1 -2 o 137.919 136.764 -118.82 1.68481 0.71
2 0 -4 o 122.638 123.231 -5.30 1.67509 0.31
9 0 3 o 87.162 86.686 101.85 1.67252 0.22
9 0 -3 o 279.936 278.407 115.46 1.67252 0.71
8 7 1 o 116.731 116.612 91.63 1.66959 0.59
13 0 1 o 164.301 164.133 -178.91 1.66959 0.42
2 1 4 o 77.376 78.652 121.41 1.66121 0.39
8 2 -3 o 140.523 139.966 -107.32 1.65870 0.71
8 2 3 o 39.959 39.800 95.42 1.65870 0.20
10 3 -2 o 68.386 67.581 176.28 1.65691 0.34
10 5 -1 o 35.485 29.896 178.56 1.64243 0.18
12 2 1 o 431.120 425.803 121.04 1.65584 2.17
13 1 0 o 34.275 33.869 84.40 1.65549 0.17
3 1 -4 o 19.358 13.495 142.63 1.63445 0.10
12 3 0 o 6.941 4.945 165.16 1.62900 0.03
4 0 4 o 233.807 219.164 -77.95 1.62154 0.57
7 4 -3 o 88.209 85.455 110.76 1.61921 0.43
7 4 3 o 113.048 109.518 -81.26 1.61921 0.55
8 6 2 o 78.318 77.192 -87.83 1.61755 0.38
11 4 1 o 135.718 134.993 -28.55 1.61655 0.66
8 8 0 o 31.420 31.339 180.00 1.61622 0.08
3 2 4 o 54.750 54.525 -15.52 1.60894 0.26
9 5 -2 o 44.206 47.227 126.66 1.60503 0.21
5 0 -4 o 2.198 3.176 153.37 1.58459 0.01
12 1 2 o 37.595 49.319 -145.94 1.58086 0.18
11 5 0 o 38.443 46.738 89.20 1.57962 0.18
5 1 4 o 139.567 142.729 122.83 1.56131 0.65
4 2 -4 o 8.458 8.034 -149.87 1.57282 0.04
6 6 3 o 75.145 76.452 35.44 1.55923 0.35
11 3 2 o 230.075 236.667 172.21 1.55774 1.07
14 0 -1 o 16.062 16.702 30.99 1.55686 0.04
10 6 1 o 21.258 22.105 -168.19 1.55686 0.10
9 7 -1 o 14.579 15.637 -156.50 1.56827 0.07
10 1 3 o 122.366 127.479 -86.58 1.54801 0.56
10 1 -3 o 14.544 15.152 -41.06 1.54801 0.07
13 2 -1 o 68.199 67.499 -142.40 1.54569 0.31
4 3 4 o 0.001 0.001 121.17 1.53903 0.00
13 0 -2 o 253.274 248.211 13.18 1.53561 0.58
8 7 -2 o 10.507 10.297 -25.18 1.53561 0.05
9 3 -3 o 0.523 0.480 47.76 1.52629 0.00
9 3 3 o 87.029 79.797 103.24 1.52629 0.40
12 2 -2 o 35.333 32.569 65.18 1.52490 0.16
6 1 -4 o 18.616 15.876 13.32 1.51768 0.08
10 5 2 o 51.049 38.934 23.94 1.51440 0.23
12 4 -1 o 110.734 82.297 -116.94 1.51359 0.50
10 7 0 o 67.821 50.006 -6.19 1.51331 0.30
14 1 1 o 114.711 97.374 -45.72 1.50332 0.51
6 2 4 o 8.809 9.148 -61.84 1.48726 0.04
5 3 -4 o 18.743 18.174 -95.20 1.49719 0.08
7 0 4 o 246.494 239.019 -67.96 1.49719 0.55
8 5 3 o 24.293 24.357 52.58 1.48545 0.11
8 5 -3 o 13.921 13.957 -5.81 1.48545 0.06
13 3 1 o 257.982 248.428 -77.51 1.48340 1.14
9 8 1 o 146.290 140.873 -45.53 1.48340 0.64
14 2 0 o 27.347 26.215 -81.65 1.48314 0.12
11 4 -2 o 64.993 66.638 -3.42 1.49404 0.29
15 0 0 o 29.692 31.011 -147.28 1.49300 0.07
11 6 -1 o 86.244 98.611 47.53 1.46425 0.37
5 4 4 o 58.129 59.105 -65.98 1.45859 0.25
9 7 2 o 71.890 69.230 130.20 1.45568 0.31
13 4 0 o 31.666 30.024 52.57 1.45471 0.14
8 0 -4 o 21.316 20.176 -115.70 1.44940 0.05
14 0 2 o 149.343 147.697 -41.01 1.44654 0.32
10 6 -2 o 101.851 100.729 -124.09 1.44654 0.44
12 5 1 o 261.953 262.351 110.47 1.44583 1.12
7 2 -4 o 26.431 28.697 112.18 1.44038 0.11
12 0 3 o 99.581 109.505 57.81 1.43874 0.21
12 0 -3 o 98.695 108.530 -114.60 1.43874 0.21
13 2 2 o 180.305 198.744 42.07 1.43757 0.77
9 9 0 o 24.317 26.715 -180.00 1.43664 0.05
8 1 4 o 118.357 114.488 70.04 1.42283 0.50
11 2 -3 o 173.507 169.196 71.63 1.42991 0.74
11 2 3 o 33.034 32.214 130.04 1.42991 0.14
7 7 3 o 62.960 61.396 178.37 1.42991 0.27
6 4 -4 o 29.318 33.562 -155.37 1.41429 0.12
12 4 2 o 137.053 151.789 -61.56 1.41163 0.58
15 1 -1 o 2.052 2.244 15.37 1.41097 0.01
12 6 0 o 208.791 227.435 -109.35 1.41075 0.88
7 3 4 o 235.242 240.585 159.20 1.40590 0.99
10 4 -3 o 91.709 93.693 -108.77 1.40438 0.38
10 4 3 o 104.497 106.757 -85.43 1.40438 0.44
14 1 -2 o 172.074 176.620 -178.41 1.40330 0.72
10 8 -1 o 48.887 50.417 -148.24 1.40265 0.20
14 3 -1 o 199.038 221.255 59.45 1.39446 0.83
11 7 1 o 50.852 56.529 -49.92 1.39446 0.21
9 8 -2 o 108.149 106.959 62.40 1.38705 0.45
13 3 -2 o 20.817 20.588 -71.04 1.38705 0.09
6 5 4 o 242.995 217.472 1.87 1.37379 1.00
9 1 -4 o 7.068 6.326 -127.37 1.37379 0.03
11 6 2 o 42.949 38.552 -164.44 1.37136 0.18
16 0 1 o 6.659 6.028 157.91 1.37075 0.01
9 6 -3 o 73.163 71.267 109.82 1.36471 0.30
9 6 3 o 76.358 74.380 -124.10 1.36471 0.31
13 5 -1 o 39.351 38.848 -108.31 1.36311 0.16
15 2 1 o 355.846 351.299 107.21 1.36311 1.46
8 3 -4 o 103.870 106.130 7.81 1.35854 0.42
12 5 -2 o 46.996 46.961 119.67 1.35619 0.19
11 8 0 o 115.226 113.780 117.10 1.35541 0.47
16 1 0 o 18.931 18.693 64.31 1.35541 0.08
1 0 -5 o 40.618 38.827 162.29 1.35285 0.08
10 0 4 o 2025.495 1922.559 -151.05 1.35111 4.13
2 1 -5 o 23.179 22.220 30.78 1.33828 0.09
2 0 5 o 93.966 90.500 35.31 1.34550 0.19
13 1 3 o 46.261 45.687 -131.76 1.33528 0.19
13 1 -3 o 0.961 0.949 -175.92 1.33528 0.00
9 2 4 o 1104.897 1061.406 -3.41 1.34379 4.49
10 9 1 o 177.444 178.481 107.94 1.33379 0.72
14 4 1 o 18.190 17.373 -59.99 1.34094 0.07
15 3 0 o 2.710 2.588 -96.54 1.34075 0.01
7 5 -4 o 168.598 170.568 -162.83 1.32950 0.68
15 1 2 o 171.430 172.840 171.04 1.32730 0.69
3 1 5 o 39.842 40.473 -172.38 1.32417 0.16
8 4 4 o 370.651 376.843 -175.43 1.32253 1.50
12 3 3 o 149.850 152.007 5.13 1.32126 0.60
12 3 -3 o 27.677 28.075 -126.05 1.32126 0.11
10 8 2 o 8.195 8.296 55.80 1.32036 0.03
12 7 -1 o 66.222 66.964 -29.58 1.31982 0.27
4 0 -5 o 165.952 167.318 -167.15 1.31728 0.33
8 8 3 o 151.461 151.911 46.47 1.31442 0.61
11 7 -2 o 20.783 20.848 -16.54 1.31353 0.08
14 3 2 o 49.285 49.441 177.53 1.31353 0.20
14 5 0 o 8.834 8.879 164.23 1.31282 0.04
3 2 -5 o 29.689 30.451 -30.03 1.31049 0.12
11 0 -4 o 15.049 20.794 44.62 1.30225 0.03
13 6 1 o 18.759 21.642 -53.76 1.30628 0.08
5 0 5 o 48.277 56.372 28.65 1.29724 0.10
10 2 -4 o 14.210 15.517 158.24 1.29570 0.06
11 5 3 o 173.551 182.005 128.27 1.29450 0.70
11 5 -3 o 18.668 19.578 46.26 1.29450 0.07
16 0 -2 o 356.242 365.213 -13.64 1.29365 0.71
17 0 -1 o 122.371 124.046 -169.75 1.29315 0.25
10 10 0 o 222.262 224.548 0.00 1.29298 0.45
4 2 5 o 49.078 48.329 -101.41 1.29076 0.20
7 6 4 o 129.893 128.537 -46.64 1.28924 0.52
15 2 -2 o 18.678 19.213 81.99 1.28723 0.07
13 5 2 o 60.896 62.642 64.58 1.28723 0.24
16 2 -1 o 50.497 52.720 -80.00 1.28673 0.20
5 1 -5 o 55.008 62.148 38.26 1.28437 0.22
13 7 0 o 303.857 304.630 42.92 1.27401 1.22
4 3 -5 o 88.247 86.773 -121.41 1.27188 0.35
11 1 4 o 270.461 283.871 76.78 1.27661 1.08
9 4 -4 o 1.085 1.139 -57.99 1.27661 0.00
14 4 -2 o 59.149 57.138 -64.81 1.26851 0.24
15 4 -1 o 32.527 31.344 -143.49 1.26803 0.13
11 9 -1 o 207.789 200.233 111.30 1.26803 0.83
10 3 4 o 130.259 126.136 -126.19 1.26434 0.52
10 9 -2 o 25.801 26.060 -130.68 1.26245 0.10
12 8 1 o 97.431 99.803 -165.02 1.26197 0.39
6 1 5 o 8.899 9.689 154.71 1.25975 0.04
10 7 -3 o 15.893 17.643 0.21 1.25725 0.06
10 7 3 o 157.676 175.035 10.63 1.25725 0.63
17 1 1 o 101.855 112.039 -69.00 1.25600 0.41
7 0 -5 o 201.663 208.790 -151.22 1.24796 0.40
5 3 5 o 78.552 81.328 10.58 1.24796 0.32
8 6 -4 o 14.461 15.016 -37.73 1.24659 0.06
15 0 3 o 4.437 4.592 28.31 1.24553 0.01
15 0 -3 o 54.605 56.515 136.98 1.24553 0.11
16 3 1 o 27.843 28.477 -97.10 1.24432 0.11
18 0 0 o 14.480 14.778 15.72 1.24417 0.03
12 7 2 o 41.030 42.335 6.52 1.25058 0.16
6 2 -5 o 62.919 61.386 38.78 1.24219 0.25
9 5 4 o 301.202 278.250 53.65 1.24084 1.21
14 2 -3 o 129.892 113.183 -26.78 1.23979 0.52
14 2 3 o 8.620 7.511 106.67 1.23979 0.03
13 6 -2 o 47.272 39.219 130.04 1.23904 0.19
14 6 -1 o 307.098 246.935 130.16 1.23859 1.24
17 2 0 o 76.376 60.767 -128.48 1.23845 0.31
5 4 -5 o 220.431 223.915 144.33 1.22534 0.89
13 4 -3 o 83.629 84.754 112.20 1.22304 0.34
13 4 3 o 162.352 164.537 -161.05 1.22304 0.66
12 1 -4 o 11.184 9.542 -121.02 1.22956 0.05
16 2 2 o 311.850 314.380 -7.71 1.22232 1.26
15 5 1 o 21.526 21.627 -179.72 1.22189 0.09
16 4 0 o 158.419 158.980 58.52 1.22175 0.64
17 0 2 o 144.740 137.693 -40.11 1.22782 0.29
12 9 0 o 638.461 622.554 -134.42 1.22724 2.58
8 0 5 o 149.976 148.700 20.09 1.21987 0.30
11 3 -4 o 10.083 9.975 -33.88 1.21859 0.04
7 2 5 o 253.365 259.354 -154.46 1.21448 1.03
13 0 4 o 572.978 582.713 -11.77 1.20791 1.17
8 7 4 o 53.237 54.141 177.43 1.20791 0.22
15 4 2 o 50.579 51.041 -178.34 1.20626 0.21
11 9 2 o 86.323 87.113 -106.83 1.20626 0.35
9 9 3 o 387.835 403.288 -158.60 1.21224 1.58
11 10 1 o 224.732 233.356 -3.79 1.21112 0.92
8 1 -5 o 2.625 2.636 -160.19 1.20391 0.01
12 2 4 o 679.130 679.492 -144.19 1.20268 2.78
12 8 -2 o 1.667 1.653 -57.69 1.20104 0.01
13 8 -1 o 201.295 199.110 -56.83 1.20063 0.83
6 4 5 o 415.364 405.576 43.74 1.19872 1.71
10 5 -4 o 74.382 72.240 113.25 1.19751 0.31
14 7 1 o 93.849 93.695 54.17 1.19041 0.39
18 1 -1 o 156.046 155.790 32.93 1.19041 0.65
12 6 3 o 102.795 99.704 -37.84 1.19656 0.42
12 6 -3 o 122.733 119.043 -105.52 1.19656 0.51
17 1 -2 o 34.757 33.741 -172.00 1.19589 0.14
15 6 0 o 521.428 507.072 -136.71 1.19536 2.15
7 3 -5 o 413.430 406.686 -39.74 1.19360 1.71
11 4 4 o 257.125 252.391 53.39 1.18736 1.07
10 9 4 o 136.264 137.043 -93.47 1.06074 1.08
16 3 -2 o 75.433 74.360 124.96 1.18579 0.31
11 11 0 o 204.354 219.955 0.00 1.17543 0.43
14 6 2 o 105.697 111.989 -114.06 1.18084 0.44
17 3 -1 o 65.310 69.464 171.82 1.18045 0.27
6 5 -5 o 460.599 493.523 141.71 1.17376 1.95
9 1 5 o 28.506 30.543 42.47 1.17376 0.12
12 2 -5 o 493.226 497.540 45.36 1.06159 3.85
10 6 4 o 516.573 533.644 -117.80 1.16310 2.22
14 0 -4 o 62.038 64.088 62.18 1.16310 0.13
20 0 2 o 1033.017 1040.912 -35.82 1.06320 3.91
16 1 3 o 1.059 1.088 106.76 1.16223 0.00
11 8 3 o 81.954 84.167 -158.30 1.16223 0.35
11 8 -3 o 37.146 38.148 39.33 1.16223 0.16
16 1 -3 o 8.260 8.483 156.74 1.16223 0.04
13 11 -1 o 61.085 61.614 55.83 1.06291 0.46
9 7 -4 o 19.339 20.731 -41.96 1.16783 0.08
20 2 0 o 346.540 349.630 77.48 1.06282 2.64
19 0 1 o 52.534 53.662 143.61 1.16125 0.11
16 5 -1 o 439.153 448.579 -15.60 1.16125 1.89
14 8 0 o 482.305 492.374 27.70 1.16113 2.08
15 5 -2 o 10.673 11.334 -41.90 1.16633 0.05
10 0 -5 o 853.135 865.663 26.11 1.15952 1.84
8 7 -5 o 51.574 51.100 108.52 1.06518 0.38
13 0 -5 o 144.967 143.635 179.92 1.06518 0.53
8 3 5 o 194.758 203.001 -109.83 1.16421 0.83
13 2 -4 o 9.386 9.491 -99.66 1.15842 0.04
14 4 4 o 116.460 116.448 -163.05 1.06433 0.86
13 9 1 o 40.619 41.255 -85.14 1.15199 0.18
11 10 -2 o 17.837 17.946 -123.98 1.15696 0.08
12 10 -1 o 92.604 93.060 171.23 1.15659 0.40
18 2 1 o 109.991 110.533 85.27 1.15659 0.48
12 11 -2 o 46.091 44.688 -23.00 1.06681 0.33
9 2 -5 o 827.980 829.176 176.18 1.15488 3.61
15 9 0 o 28.463 27.743 -49.96 1.06643 0.20
21 0 0 o 339.425 330.833 -92.29 1.06643 1.22
4 4 6 o 22.676 22.164 -10.37 1.06623 0.16
13 8 2 o 161.120 168.838 105.03 1.14780 0.71
15 3 3 o 46.451 46.803 -28.00 1.15295 0.20
15 3 -3 o 12.899 12.997 -161.32 1.15295 0.06
19 1 0 o 13.776 14.424 83.95 1.14733 0.06
8 4 -5 o 400.491 394.505 5.84 1.14131 1.80
7 5 5 o 167.551 173.781 35.78 1.14578 0.74
14 1 4 o 77.281 75.505 143.74 1.14026 0.35
12 4 -4 o 1.325 1.359 -17.76 1.14472 0.01
18 1 2 o 349.382 339.765 145.02 1.13886 1.58
14 7 -2 o 23.351 22.708 -56.15 1.13886 0.11
18 3 0 o 102.205 99.386 -119.94 1.13840 0.46
17 4 1 o 29.274 29.375 16.39 1.14296 0.13
17 6 -1 o 137.084 128.635 -13.36 1.07017 0.93
19 3 1 o 68.846 64.603 -104.94 1.07017 0.47
13 3 4 o 465.589 450.422 35.69 1.13149 2.15
9 8 4 o 92.691 89.672 51.77 1.13149 0.43
1 1 6 o 26.601 26.172 -106.86 1.12515 0.13
17 3 2 o 23.301 22.501 -97.55 1.13013 0.11
14 5 3 o 209.647 204.934 26.40 1.13505 0.96
14 5 -3 o 23.063 22.545 0.74 1.13505 0.11
11 3 5 o 190.984 181.071 -49.87 1.07249 1.26
0 0 6 o 260.061 251.243 56.66 1.12944 0.20
15 7 -1 o 139.444 136.095 170.32 1.13413 0.64
10 2 5 o 760.439 750.598 84.27 1.12393 3.59
13 5 -4 o 13.207 13.027 -58.27 1.07531 0.08
15 2 4 o 94.308 93.023 -119.47 1.07531 0.60
11 0 5 o 749.430 726.168 -104.00 1.12820 1.75
11 6 -4 o 31.692 31.245 -101.77 1.12292 0.15
16 4 -3 o 2.223 2.173 49.13 1.07463 0.01
16 4 3 o 299.775 292.994 175.26 1.07463 1.93
12 9 -3 o 209.639 213.071 99.43 1.07836 1.30
12 9 3 o 344.632 350.275 -9.78 1.07836 2.13
10 10 3 o 455.056 447.271 47.90 1.12215 2.16
3 0 6 o 71.171 68.931 -129.47 1.11673 0.17
3 0 -6 o 168.856 163.542 -151.14 1.11673 0.41
16 6 -2 o 44.547 45.073 127.63 1.07787 0.28
16 6 1 o 16.825 16.456 -111.26 1.12126 0.08
13 10 0 o 307.790 300.844 155.27 1.12115 1.47
17 5 0 o 248.267 242.665 29.20 1.12115 1.18
20 1 1 o 24.516 24.741 -80.35 1.07758 0.15
9 4 5 o 181.896 180.337 -128.81 1.11140 0.90
11 1 -5 o 114.492 113.511 -87.44 1.11140 0.57
12 12 0 o 297.931 300.402 0.00 1.07748 0.93
5 2 6 o 55.404 55.761 76.30 1.07727 0.35
5 2 -6 o 59.447 59.830 -51.28 1.07727 0.37
6 0 6 o 313.445 328.210 -91.68 1.08103 0.94
6 0 -6 o 335.551 351.358 -152.05 1.08103 1.01
7 6 -5 o 192.880 187.026 -146.73 1.11970 0.92
12 5 4 o 227.434 222.711 -108.01 1.11455 1.11
14 9 -1 o 85.874 86.902 4.29 1.10076 0.45
19 2 -1 o 177.083 179.203 13.01 1.10076 0.93
13 7 3 o 274.926 273.400 172.34 1.10968 1.37
13 7 -3 o 8.770 8.722 -179.90 1.10968 0.04
13 9 -2 o 26.301 26.633 87.16 1.10509 0.13
12 1 5 o 3.082 3.186 -94.64 1.07994 0.02
4 1 6 o 27.379 27.678 81.76 1.10043 0.14
4 1 -6 o 100.014 101.106 47.12 1.10043 0.52
20 0 -1 o 1031.615 1045.729 -151.52 1.10477 2.64
9 5 -5 o 10.972 11.328 15.30 1.08755 0.06
18 2 -2 o 205.859 204.937 -13.86 1.10915 1.03
12 10 2 o 29.503 29.371 -33.20 1.10915 0.15
8 6 5 o 50.006 49.933 -2.67 1.09142 0.28
12 11 1 o 228.324 227.480 122.32 1.10882 1.15
19 0 -2 o 125.447 123.645 -176.77 1.11325 0.31
16 5 2 o 149.349 147.204 68.93 1.11325 0.73
16 0 4 o 82.651 84.582 -16.78 1.07905 0.25
2 2 6 o 139.611 137.962 35.86 1.11259 0.69
11 7 4 o 532.610 535.879 74.32 1.09051 2.97
14 3 -4 o 32.268 32.466 110.64 1.09051 0.18
10 3 -5 o 0.142 0.144 107.97 1.10328 0.00
10 8 -4 o 96.918 95.230 115.37 1.09441 0.53
17 2 3 o 11.037 11.590 122.55 1.08594 0.06
17 2 -3 o 47.420 49.798 -85.68 1.08594 0.27
15 1 -4 o 3.846 3.845 -158.35 1.09835 0.02
18 0 -3 o 54.173 54.829 39.82 1.08979 0.15
18 0 3 o 27.408 27.740 -82.14 1.08979 0.08
15 7 2 o 132.229 134.399 -56.48 1.08929 0.74
18 4 -1 o 419.750 427.740 169.37 1.08898 2.37
17 4 -2 o 17.052 16.903 -113.90 1.09710 0.09
15 8 1 o 19.408 19.177 148.79 1.09287 0.11
3 3 6 o 177.934 176.176 -147.59 1.09255 0.98
16 7 0 o 152.508 150.787 -163.13 1.09669 0.82
