#------------------------------------------------------------------------------
#$Date: 2016-03-22 21:51:41 +0200 (Tue, 22 Mar 2016) $
#$Revision: 179026 $
#$URL: svn://www.crystallography.net/cod/cif/4/12/24/4122449.cif $
#------------------------------------------------------------------------------
#
# This file is available in the Crystallography Open Database (COD),
# http://www.crystallography.net/
#
# All data on this site have been placed in the public domain by the
# contributors.
#
data_4122449
loop_
_publ_author_name
'Kapelewski, Matthew T.'
'Geier, Stephen J.'
'Hudson, Matthew R.'
'St\"uck, David'
'Mason, Jarad A.'
'Nelson, Jocienne N.'
'Xiao, Dianne J.'
'Hulvey, Zeric'
'Gilmour, Elizabeth'
'FitzGerald, Stephen A.'
'Head-Gordon, Martin'
'Brown, Craig M.'
'Long, Jeffrey R.'
_publ_section_title
;
 M2(m-dobdc) (M = Mg, Mn, Fe, Co, Ni) Metal-Organic Frameworks Exhibiting
 Increased Charge Density and Enhanced H2 Binding at the Open Metal Sites.
;
_journal_issue                   34
_journal_name_full               'Journal of the American Chemical Society'
_journal_page_first              12119
_journal_paper_doi               10.1021/ja506230r
_journal_volume                  136
_journal_year                    2014
_chemical_formula_sum            'C4 H Co O3'
_chemical_formula_weight         155.98
_chemical_name_systematic        ' ?'
_space_group_IT_number           160
_symmetry_cell_setting           trigonal
_symmetry_space_group_name_Hall  'R 3 -2"'
_symmetry_space_group_name_H-M   'R 3 m :H'
_audit_creation_date             2013-03-28T12:23
_audit_creation_method           'from EXP file using GSAS2CIF'
_audit_update_record
' 2013-03-28T12:23  Initial CIF as created by GSAS2CIF'
_cell_angle_alpha                90.0
_cell_angle_beta                 90.0
_cell_angle_gamma                120.0
_cell_formula_units_Z            18
_cell_length_a                   25.8902(7)
_cell_length_b                   25.8902
_cell_length_c                   6.79046(29)
_cell_volume                     3941.9(2)
_computing_structure_refinement  GSAS
_diffrn_radiation_polarisn_ratio 0.95
_diffrn_radiation_probe          x-ray
_diffrn_radiation_wavelength     0.7291
_exptl_absorpt_correction_T_max  1.00000
_exptl_absorpt_correction_T_min  1.00000
_exptl_absorpt_process_details
;   GSAS Absorption/surface roughness correction: function number 0
 No correction is applied.
;
_pd_block_id                     2013-03-28T12:23|CO_PRIME_R_STARTING||17-bm
_pd_calc_method                  'Rietveld Refinement'
_pd_instr_location               ' ?'
_pd_meas_2theta_range_inc        0.008
_pd_meas_2theta_range_max        39.996
_pd_meas_2theta_range_min        0.012
_pd_meas_number_of_points        4999
_pd_phase_name                   Co_dobdc_prime_RT
_pd_proc_2theta_range_inc        0.008
_pd_proc_2theta_range_max        39.98532
_pd_proc_2theta_range_min        0.00132
_pd_proc_info_datetime           2013-03-28T12:23:27
_pd_proc_info_excluded_regions   ' ?'
_pd_proc_ls_background_function
;   GSAS Background function number 1 with 18 terms.
 Shifted Chebyshev function of 1st kind
      1:    2293.14     2:   -1706.73     3:    680.568     4:   -44.9926    
      5:   -80.9772     6:   -92.0167     7:    156.983     8:   -136.709    
      9:    85.2546    10:    32.8550    11:   -41.2308    12:   -1.09773    
     13:    29.8845    14:   -78.3517    15:    10.4167    16:    36.0206    
     17:   -39.2423    18:    35.6147    
;
_pd_proc_ls_peak_cutoff          0.00005
_pd_proc_ls_profile_function
;
 CW Profile function number 3 with  19 terms
 Pseudovoigt profile coefficients as parameterized in
 P. Thompson, D.E. Cox & J.B. Hastings (1987). J. Appl. Cryst.,20,79-83.
 Asymmetry correction of L.W. Finger, D.E. Cox & A. P. Jephcoat (1994).
 J. Appl. Cryst.,27,892-900.
 Peak tails are ignored  where the intensity is below 0.0000 times the peak
   Aniso. broadening axis   0.0   0.0   1.0
;
_pd_proc_ls_prof_R_factor        0.0294
_pd_proc_ls_prof_wR_expected     0.0176
_pd_proc_ls_prof_wR_factor       0.0371
_pd_proc_number_of_points        4999
_pd_spec_mounting                ' ?'
_refine_ls_goodness_of_fit_all   2.12
_refine_ls_matrix_type           full
_refine_ls_number_parameters     43
_refine_ls_number_restraints     1
_refine_ls_R_Fsqd_factor         0.15510
_refine_ls_shift/su_max          25.75
_refine_ls_shift/su_mean         5.43
_reflns_d_resolution_high        1.100
_reflns_d_resolution_low         12.945
_reflns_limit_h_max              25
_reflns_limit_h_min              0
_reflns_limit_k_max              14
_reflns_limit_k_min              0
_reflns_limit_l_max              7
_reflns_limit_l_min              -7
_reflns_number_total             383
_cod_data_source_file            CO_PRIME_RT_APS_R.cif
_cod_data_source_block           CO_PRIME_R_STARTING_publ
_cod_depositor_comments
;
The following automatic conversions were performed:

'_geom_bond_publ_flag' value 'N' changed to 'n' according to
/usr/data/users/saulius/crontab/automatic-downloads/rss-feeds/ACS/lib/dictionaries/cif_core.dic
dictionary named 'cif_core.dic' version 2.4.2 from 2011-04-26 (30
times).

'_geom_angle_publ_flag' value 'N' changed to 'n' according
to
/usr/data/users/saulius/crontab/automatic-downloads/rss-feeds/ACS/lib/dictionaries/cif_core.dic
dictionary named 'cif_core.dic' version 2.4.2 from 2011-04-26 (26
times).

Automatic conversion script
Id: cif_fix_values 2281 2013-09-26 08:29:07Z andrius 

 Adding full bibliography for 4122440--4122455.cif.
;
_cod_original_cell_volume        3941.86(19)
_cod_original_sg_symbol_H-M      'R 3 m'
_cod_database_code               4122449
#BEGIN Tags that were not found in dictionaries:
_gsas_exptl_extinct_corr_t_min   1.00000
_gsas_exptl_extinct_corr_t_max   1.00000
#END Tags that were not found in dictionaries
loop_
_symmetry_equiv_pos_site_id
_symmetry_equiv_pos_as_xyz
1 +x,+y,+z
2 -y,x-y,+z
3 y-x,-x,+z
4 y-x,+y,+z
5 -y,-x,+z
6 +x,x-y,+z
101 +x+1/3,+y+2/3,+z+2/3
102 -y+1/3,x-y+2/3,+z+2/3
103 y-x+1/3,-x+2/3,+z+2/3
104 y-x+1/3,+y+2/3,+z+2/3
105 -y+1/3,-x+2/3,+z+2/3
106 +x+1/3,x-y+2/3,+z+2/3
201 +x+2/3,+y+1/3,+z+1/3
202 -y+2/3,x-y+1/3,+z+1/3
203 y-x+2/3,-x+1/3,+z+1/3
204 y-x+2/3,+y+1/3,+z+1/3
205 -y+2/3,-x+1/3,+z+1/3
206 +x+2/3,x-y+1/3,+z+1/3
loop_
_atom_site_type_symbol
_atom_site_label
_atom_site_fract_x
_atom_site_fract_y
_atom_site_fract_z
_atom_site_occupancy
_atom_site_thermal_displace_type
_atom_site_U_iso_or_equiv
_atom_site_symmetry_multiplicity
C C1 0.6577(22) 0.8767(19) 0.837(9) 1.0 Uiso 0.171(21) 18
C C2 0.6692(34) 0.8347(17) 0.739(10) 1.0 Uiso 0.106(19) 9
C C6 0.6391(13) 0.8663(11) 0.036(7) 1.0 Uiso 0.026(8) 18
C C11 0.6315(11) 0.9083(11) 0.163(8) 1.0 Uiso 0.022(9) 18
Co Co2 0.32763(28) 0.37509(20) 0.557(6) 1.0 Uiso 0.0213(6) 18
H H7 0.691(12) 0.845(6) 0.58(4) 1.0 Uiso 0.17(13) 9
O O9 0.6704(9) 0.9263(6) 0.747(8) 1.0 Uiso 0.022(5) 18
O O12 0.6516(7) 0.9614(8) 0.098(7) 1.0 Uiso 0.067(8) 18
O O15 0.6103(6) 0.8919(7) 0.339(6) 1.0 Uiso 0.052(7) 18
C C2m 0.6266(23) 0.8134(12) 0.127(7) 1.0 Uiso 0.090(21) 9
H H7m 0.626(11) 0.813(5) 0.29(4) 1.0 Uiso 0.06(9) 9
loop_
_atom_type_symbol
_atom_type_number_in_cell
_atom_type_scat_dispersion_real
_atom_type_scat_dispersion_imag
_atom_type_scat_Cromer_Mann_a1
_atom_type_scat_Cromer_Mann_a2
_atom_type_scat_Cromer_Mann_a3
_atom_type_scat_Cromer_Mann_a4
_atom_type_scat_Cromer_Mann_b1
_atom_type_scat_Cromer_Mann_b2
_atom_type_scat_Cromer_Mann_b3
_atom_type_scat_Cromer_Mann_b4
_atom_type_scat_Cromer_Mann_c
_atom_type_scat_source
C 72.0 0.000 0.000 2.31000 20.8439 1.02000 10.2075 1.58860 0.56870 0.86500
51.6512 0.21560 International_Tables_Vol_C
Co 18.0 0.000 0.000 12.2841 4.27910 7.34090 0.27840 4.00340 13.5359 2.34880
71.1692 1.01180 International_Tables_Vol_C
H 18.0 0.000 0.000 0.49300 10.5109 0.32291 26.1257 0.14019 3.14236 0.04081
57.7997 0.00304 International_Tables_Vol_C
O 54.0 0.000 0.000 3.04850 13.2771 2.28680 5.70110 1.54630 0.32390 0.86700
32.9089 0.25080 International_Tables_Vol_C
loop_
_geom_angle_atom_site_label_1
_geom_angle_atom_site_label_2
_geom_angle_atom_site_label_3
_geom_angle
_geom_angle_site_symmetry_1
_geom_angle_site_symmetry_3
_geom_angle_publ_flag
C2 C1 C6 119(5) 1_555 1_556 n
C2 C1 O9 119(5) 1_555 1_555 n
C6 C1 O9 122(4) 1_556 1_555 n
C1 C2 C1 120(7) 1_555 6_565 n
C1 C2 H7 120(4) 1_555 1_555 n
C1 C2 H7 120(4) 6_565 1_555 n
C1 C6 C11 125.3(27) 1_554 1_555 n
C1 C6 C2m 120(4) 1_554 1_555 n
C11 C6 C2m 114(4) 1_555 1_555 n
C6 C11 O12 117.2(25) 1_555 1_555 n
C6 C11 O15 119.4(25) 1_555 1_555 n
O12 C11 O15 123.1(31) 1_555 1_555 n
O9 Co2 O9 165.9(9) 3_565 102_654 n
O9 Co2 O12 83.3(6) 3_565 102_655 n
O9 Co2 O15 96.6(8) 3_565 3_565 n
O9 Co2 O12 82.9(8) 102_654 102_655 n
O9 Co2 O15 97.0(8) 102_654 3_565 n
O12 Co2 O15 177.2(7) 102_655 3_565 n
C1 O9 Co2 135.0(32) 1_555 2_665 n
C1 O9 Co2 120.7(28) 1_555 203_565 n
Co2 O9 Co2 94.9(6) 2_665 203_565 n
C11 O12 Co2 129.0(19) 1_555 203_564 n
C11 O15 Co2 122.0(18) 1_555 2_665 n
C6 C2m C6 121(6) 1_555 6_565 n
C6 C2m H7m 117(4) 1_555 1_555 n
C6 C2m H7m 117(4) 6_565 1_555 n
loop_
_geom_bond_atom_site_label_1
_geom_bond_atom_site_label_2
_geom_bond_distance
_geom_bond_site_symmetry_2
_geom_bond_publ_flag
C1 C2 1.43(5) 1_555 n
C1 C6 1.41(4) 1_556 n
C1 O9 1.31(4) 1_555 n
C2 C1 1.43(5) 1_555 n
C2 C1 1.43(5) 6_565 n
C2 H7 1.17(27) 1_555 n
C6 C1 1.41(4) 1_554 n
C6 C11 1.476(32) 1_555 n
C6 C2m 1.390(31) 1_555 n
C11 C6 1.476(32) 1_555 n
C11 O12 1.281(24) 1_555 n
C11 O15 1.295(28) 1_555 n
Co2 O9 2.079(20) 3_565 n
Co2 O9 2.031(18) 102_654 n
Co2 O12 2.021(21) 102_655 n
Co2 O12 2.145(17) 201_445 n
Co2 O15 2.047(20) 3_565 n
H7 C2 1.17(27) 1_555 n
O9 C1 1.31(4) 1_555 n
O9 Co2 2.079(20) 2_665 n
O9 Co2 2.031(18) 203_565 n
O12 C11 1.281(24) 1_555 n
O12 Co2 2.145(17) 101_554 n
O12 Co2 2.021(21) 203_564 n
O15 C11 1.295(28) 1_555 n
O15 Co2 2.047(20) 2_665 n
C2m C6 1.390(31) 1_555 n
C2m C6 1.392(31) 6_565 n
C2m H7m 1.10(27) 1_555 n
H7m C2m 1.10(27) 1_555 n
loop_
_pd_meas_counts_total
_pd_proc_ls_weight
_pd_proc_intensity_bkg_calc
_pd_calc_intensity_total
0.0 0.0 -101525.18750 .
0.0 0.0 -99912.00781 .
0.0 0.0 -98319.66406 .
0.0 0.0 -96747.85156 .
0.0 0.0 -95196.37500 .
0.0 0.0 -93665.06250 .
0.0 0.0 -92153.58594 .
0.0 0.0 -90661.82812 .
0.0 0.0 -89189.55469 .
0.0 0.0 -87736.48438 .
0.0 0.0 -86302.46875 .
0.0 0.0 -84887.27344 .
0.0 0.0 -83490.64062 .
0.0 0.0 -82112.45312 .
0.0 0.0 -80752.45312 .
0.0 0.0 -79410.42188 .
0.0 0.0 -78086.19531 .
0.0 0.0 -76779.54688 .
0.0 0.0 -75490.33594 .
0.0 0.0 -74218.25781 .
0.0 0.0 -72963.17969 .
0.0 0.0 -71724.91406 .
0.0 0.0 -70503.31250 .
0.0 0.0 -69298.05469 .
0.0 0.0 -68109.09375 .
0.0 0.0 -66936.17188 .
0.0 0.0 -65779.09375 .
0.0 0.0 -64637.73828 .
0.0 0.0 -63511.86719 .
0.0 0.0 -62401.34766 .
0.0 0.0 -61305.96484 .
0.0 0.0 -60225.54297 .
0.0 0.0 -59159.95312 .
0.0 0.0 -58108.99609 .
0.0 0.0 -57072.48047 .
0.0 0.0 -56050.29297 .
0.0 0.0 -55042.23047 .
0.0 0.0 -54048.13672 .
0.0 0.0 -53067.80469 .
0.0 0.0 -52101.15234 .
0.0 0.0 -51147.96484 .
0.0 0.0 -50208.13672 .
0.0 0.0 -49281.44922 .
0.0 0.0 -48367.76562 .
0.0 0.0 -47466.92969 .
0.0 0.0 -46578.81641 .
0.0 0.0 -45703.27734 .
0.0 0.0 -44840.12500 .
0.0 0.0 -43989.24609 .
0.0 0.0 -43150.46875 .
0.0 0.0 -42323.67969 .
0.0 0.0 -41508.69141 .
0.0 0.0 -40705.39453 .
0.0 0.0 -39913.64844 .
0.0 0.0 -39133.30469 .
0.0 0.0 -38364.23828 .
0.0 0.0 -37606.29688 .
0.0 0.0 -36859.35547 .
0.0 0.0 -36123.28125 .
0.0 0.0 -35397.94141 .
0.0 0.0 -34683.20312 .
0.0 0.0 -33978.92969 .
0.0 0.0 -33285.01562 .
0.0 0.0 -32601.33008 .
0.0 0.0 -31927.69727 .
0.0 0.0 -31264.06836 .
0.0 0.0 -30610.28516 .
0.0 0.0 -29966.22656 .
0.0 0.0 -29331.76172 .
0.0 0.0 -28706.80273 .
0.0 0.0 -28091.19336 .
0.0 0.0 -27484.86523 .
0.0 0.0 -26887.65820 .
0.0 0.0 -26299.49023 .
0.0 0.0 -25720.21094 .
0.0 0.0 -25149.74023 .
0.0 0.0 -24587.97656 .
0.0 0.0 -24034.77344 .
0.0 0.0 -23490.06250 .
0.0 0.0 -22953.69922 .
0.0 0.0 -22425.60938 .
0.0 0.0 -21905.65625 .
0.0 0.0 -21393.77734 .
0.0 0.0 -20889.83594 .
0.0 0.0 -20393.75000 .
0.0 0.0 -19905.40625 .
0.0 0.0 -19424.71484 .
0.0 0.0 -18951.56445 .
0.0 0.0 -18485.87695 .
0.0 0.0 -18027.55664 .
0.0 0.0 -17576.46875 .
0.0 0.0 -17132.56250 .
0.0 0.0 -16695.73438 .
0.0 0.0 -16265.89355 .
0.0 0.0 -15842.95215 .
0.0 0.0 -15426.79785 .
0.0 0.0 -15017.36133 .
0.0 0.0 -14614.53809 .
0.0 0.0 -14218.27344 .
0.0 0.0 -13828.44824 .
0.0 0.0 -13444.99023 .
0.0 0.0 -13067.81348 .
0.0 0.0 -12696.84082 .
0.0 0.0 -12331.98730 .
0.0 0.0 -11973.16211 .
0.0 0.0 -11620.28125 .
0.0 0.0 -11273.28223 .
0.0 0.0 -10932.08887 .
0.0 0.0 -10596.61133 .
0.0 0.0 -10266.77539 .
0.0 0.0 -9942.49121 .
0.0 0.0 -9623.70703 .
0.0 0.0 -9310.32812 .
0.0 0.0 -9002.29297 .
0.0 0.0 -8699.53223 .
0.0 0.0 -8401.96875 .
0.0 0.0 -8109.51904 .
0.0 0.0 -7822.12354 .
0.0 0.0 -7539.72070 .
0.0 0.0 -7262.23193 .
0.0 0.0 -6989.58789 .
0.0 0.0 -6721.71924 .
0.0 0.0 -6458.57178 .
0.0 0.0 -6200.06885 .
0.0 0.0 -5946.14893 .
0.0 0.0 -5696.75146 .
0.0 0.0 -5451.79639 .
0.0 0.0 -5211.24023 .
0.0 0.0 -4975.01953 .
0.0 0.0 -4743.06299 .
0.0 0.0 -4515.31738 .
0.0 0.0 -4291.71289 .
0.0 0.0 -4072.19482 .
0.0 0.0 -3856.71729 .
0.0 0.0 -3645.20166 .
0.0 0.0 -3437.60742 .
0.0 0.0 -3233.87427 .
0.0 0.0 -3033.93213 .
0.0 0.0 -2837.75098 .
0.0 0.0 -2645.25244 .
0.0 0.0 -2456.39917 .
0.0 0.0 -2271.12500 .
0.0 0.0 -2089.38721 .
0.0 0.0 -1911.12463 .
0.0 0.0 -1736.29749 .
0.0 0.0 -1564.84497 .
0.0 0.0 -1396.72632 .
0.0 0.0 -1231.87891 .
0.0 0.0 -1070.26599 .
0.0 0.0 -911.83197 .
0.0 0.0 -756.53467 .
0.0 0.0 -604.32385 .
0.0 0.0 -455.14587 .
0.0 0.0 -308.96411 .
0.0 0.0 -165.73351 .
6326.0 0.0 -25.40023 .
6208.0 0.0 112.06689 .
6632.0 0.0 246.72713 .
6857.0 0.0 378.61148 .
7237.0 0.0 507.77036 .
7295.0 0.0 634.23926 .
7598.0 0.0 758.06879 .
7949.0 0.0 879.29468 .
8228.0 0.0 997.95862 .
8292.0 0.0 1114.09680 .
8400.0 0.0 1227.75525 .
8446.0 0.0 1338.97021 .
8642.0 0.0 1447.78015 .
8673.0 0.0 1554.22681 .
8729.0 0.0 1658.34412 .
8659.0 0.0 1760.16565 .
8627.0 0.0 1859.73962 .
8591.0 0.0 1957.09229 .
8551.0 0.0 2052.26514 .
8490.0 0.0 2145.29053 .
8445.0 0.0 2236.20215 .
8411.0 0.0 2325.04126 .
8348.0 0.0 2411.83545 .
8277.0 0.0 2496.62402 .
8231.0 0.0 2579.43140 .
8186.0 0.0 2660.29639 .
8123.0 0.0 2739.25317 .
8028.0 0.0 2816.32861 .
7958.0 0.0 2891.56104 .
7904.0 0.0 2964.97339 .
7840.0 0.0 3036.60156 .
7796.0 0.0 3106.47437 .
7734.0 0.0 3174.62085 .
7679.0 0.0 3241.07544 .
7640.0 0.0 3305.85889 .
7567.0 0.0 3369.00635 .
7530.0 0.0 3430.54517 .
7458.0 0.0 3490.50195 .
7407.0 0.0 3548.90576 .
7368.0 0.0 3605.78076 .
7303.0 0.0 3661.15747 .
7253.0 0.0 3715.06079 .
7201.0 0.0 3767.51611 .
7136.0 0.0 3818.55078 .
7080.0 0.0 3868.18799 .
7038.0 0.0 3916.45630 .
6989.0 0.0 3963.37793 .
6956.0 0.0 4008.97778 .
6910.0 0.0 4053.28003 .
6840.0 0.0 4096.30664 .
6792.0 0.0 4138.08447 .
6737.0 0.0 4178.63574 .
6679.0 0.0 4217.98242 .
6656.0 0.0 4256.14697 .
6616.0 0.0 4293.14941 .
6563.0 0.0 4329.01514 .
6533.0 0.0 4363.76514 .
6494.0 0.0 4397.41748 .
6449.0 0.0 4429.99756 .
6421.0 0.0 4461.52100 .
6378.0 0.0 4492.01221 .
6334.0 0.0 4521.49023 .
6315.0 0.0 4549.97412 .
6281.0 0.0 4577.48389 .
6265.0 0.0 4604.03857 .
6244.0 0.0 4629.65723 .
6229.0 0.0 4654.35645 .
6206.0 0.0 4678.15674 .
6178.0 0.0 4701.07666 .
6145.0 0.0 4723.13379 .
6126.0 0.0 4744.34375 .
6085.0 0.0 4764.72607 .
6050.0 0.0 4784.29541 .
6013.0 0.0 4803.07227 .
5990.0 0.0 4821.06885 .
5967.0 0.0 4838.30420 .
5942.0 0.0 4854.79443 .
5908.0 0.0 4870.55371 .
5880.0 0.0 4885.59961 .
5851.0 0.0 4899.94629 .
5822.0 0.0 4913.60742 .
5793.0 0.0 4926.60156 .
5767.0 0.0 4938.94043 .
5733.0 0.0 4950.63721 .
5711.0 0.0 4961.71094 .
5681.0 0.0 4972.16992 .
5649.0 0.0 4982.03369 .
5617.0 0.0 4991.31006 .
5593.0 0.0 5000.01758 .
5573.0 0.0 5008.16406 .
5553.0 0.0 5015.76807 .
5529.0 0.0 5022.83887 .
5503.0 0.0 5029.38867 .
5478.0 0.0 5035.42969 .
5462.0 0.0 5040.97705 .
5431.0 0.0 5046.04053 .
5414.0 0.0 5050.63184 .
5395.0 0.0 5054.76221 .
5374.0 0.0 5058.44385 .
5352.0 0.0 5061.68701 .
5332.0 0.0 5064.50244 .
5313.0 0.0 5066.90234 .
5303.0 0.0 5068.89795 .
5285.0 0.0 5070.49805 .
5270.0 0.0 5071.71143 .
5253.0 0.0 5072.55127 .
5229.0 0.0 5073.02637 .
5210.0 0.0 5073.14551 .
5195.0 0.0 5072.91846 .
5188.0 0.0 5072.35791 .
5173.0 0.0 5071.46777 .
5163.0 0.0 5070.26074 .
5147.0 0.0 5068.74609 .
5136.0 0.0 5066.92969 .
5120.0 0.0 5064.82275 .
5113.0 0.0 5062.43311 .
5109.0 0.0 5059.76709 .
5118.0 0.0 5056.83740 .
5118.0 0.0 5053.64795 .
5114.0 0.0001955 5050.20752 5204.73389
5101.0 0.0001960 5046.52539 5203.41162
5092.0 0.0001964 5042.60693 5201.90771
5087.0 0.0001966 5038.46094 5200.23340
5076.0 0.0001970 5034.09619 5198.39990
5063.0 0.0001975 5029.51758 5196.41309
5054.0 0.0001979 5024.73438 5194.28418
5042.0 0.0001983 5019.74902 5192.01758
5028.0 0.0001989 5014.57373 5189.62939
5010.0 0.0001996 5009.21191 5187.12354
5003.0 0.0001999 5003.67139 5184.50928
4993.0 0.0002003 4997.95801 5181.79688
4990.0 0.0002004 4992.07861 5178.99561
4980.0 0.0002008 4986.03809 5176.11230
4974.0 0.0002010 4979.84570 5173.15820
4965.0 0.0002014 4973.50342 5170.13916
4956.0 0.0002018 4967.02002 5167.06689
4950.0 0.0002020 4960.39990 5163.94873
4945.0 0.0002022 4953.64795 5160.79346
4934.0 0.0002027 4946.77197 5157.61084
4927.0 0.0002030 4939.77441 5154.40820
4921.0 0.0002032 4932.66406 5151.19727
4923.0 0.0002031 4925.44336 5147.98584
4919.0 0.0002033 4918.11719 5144.78076
4912.0 0.0002036 4910.69189 5141.59424
4905.0 0.0002039 4903.17236 5138.43457
4895.0 0.0002043 4895.56396 5135.31250
4887.0 0.0002046 4887.86768 5132.23486
4883.0 0.0002048 4880.09277 5129.21387
4881.0 0.0002049 4872.24170 5126.25928
4883.0 0.0002048 4864.31494 5123.37646
4879.0 0.0002050 4856.32617 5120.71924
4877.0 0.0002050 4848.27051 5118.02197
4873.0 0.0002052 4840.15625 5115.43311
4874.0 0.0002052 4831.98730 5112.96289
4874.0 0.0002052 4823.76660 5110.62207
4878.0 0.0002050 4815.49902 5108.42383
4881.0 0.0002049 4807.18604 5106.37695
4883.0 0.0002048 4798.83301 5104.49561
4881.0 0.0002049 4790.44434 5102.79346
4887.0 0.0002046 4782.02051 5101.28076
4889.0 0.0002045 4773.56934 5099.97559
4894.0 0.0002043 4765.09131 5098.88867
4894.0 0.0002043 4756.59033 5098.03564
4897.0 0.0002042 4748.06689 5097.42920
4898.0 0.0002042 4739.52979 5097.09082
4899.0 0.0002041 4730.97705 5097.03174
4899.0 0.0002041 4722.41211 5097.27002
4900.0 0.0002041 4713.84229 5097.82910
4901.0 0.0002040 4705.26562 5098.72217
4907.0 0.0002038 4696.68604 5099.97021
4911.0 0.0002036 4688.10645 5101.59473
4922.0 0.0002032 4679.53027 5103.62012
4932.0 0.0002028 4670.95996 5106.06738
4946.0 0.0002022 4662.39453 5108.95898
4959.0 0.0002017 4653.84180 5112.32617
4967.0 0.0002013 4645.30078 5116.19287
4976.0 0.0002010 4636.77441 5120.58936
4985.0 0.0002006 4628.26416 5125.54590
4998.0 0.0002001 4619.77393 5131.09814
5015.0 0.0001994 4611.30371 5137.27930
5032.0 0.0001987 4602.85742 5144.12744
5051.0 0.0001980 4594.43457 5151.68115
5065.0 0.0001974 4586.04150 5159.98926
5085.0 0.0001967 4577.67529 5169.09277
5102.0 0.0001960 4569.33936 5179.04199
5126.0 0.0001951 4561.03613 5189.89062
5144.0 0.0001944 4552.76758 5201.69824
5163.0 0.0001937 4544.53418 5214.52344
5181.0 0.0001930 4536.33740 5228.43457
5204.0 0.0001922 4528.18115 5243.50684
5230.0 0.0001912 4520.06348 5259.81250
5260.0 0.0001901 4511.98682 5277.43896
5286.0 0.0001892 4503.95557 5296.48291
5318.0 0.0001880 4495.96729 5317.04053
5352.0 0.0001868 4488.02393 5339.22168
5387.0 0.0001856 4480.12695 5363.14502
5426.0 0.0001843 4472.27930 5388.94482
5464.0 0.0001830 4464.48145 5416.76270
5509.0 0.0001815 4456.73242 5446.75684
5565.0 0.0001797 4449.03564 5479.10205
5626.0 0.0001777 4441.39111 5513.98486
5695.0 0.0001756 4433.80029 5551.61914
5757.0 0.0001737 4426.26318 5592.23828
5819.0 0.0001719 4418.78076 5636.10303
5872.0 0.0001703 4411.35547 5683.50098
5923.0 0.0001688 4403.98682 5734.75000
5975.0 0.0001674 4396.67578 5790.21094
6043.0 0.0001655 4389.42334 5850.28516
6118.0 0.0001635 4382.22949 5915.42627
6203.0 0.0001612 4375.09473 5986.13965
6289.0 0.0001590 4368.02148 6062.99512
6388.0 0.0001565 4361.00879 6146.64551
6491.0 0.0001541 4354.05859 6237.82959
6611.0 0.0001513 4347.16992 6337.38770
6739.0 0.0001484 4340.34229 6446.27930
6876.0 0.0001454 4333.58105 6565.60889
7018.0 0.0001425 4326.88135 6696.64355
7175.0 0.0001394 4320.24414 6840.85742
7340.0 0.0001362 4313.67432 6999.97168
7528.0 0.0001328 4307.16748 7175.96875
7727.0 0.0001294 4300.72607 7371.18262
7948.0 0.0001258 4294.35059 7588.37695
8188.0 0.0001221 4288.03906 7830.81396
8463.0 0.0001182 4281.79492 8102.40039
8766.0 0.0001141 4275.61621 8407.78711
9112.0 0.0001097 4269.50488 8752.59082
9490.0 0.0001054 4263.45850 9143.65137
9933.0 0.0001007 4257.47900 9589.33496
10424.0 0.0000959 4251.56543 10099.97559
11011.0 0.0000908 4245.71826 10688.40332
11670.0 0.0000857 4239.94092 11370.77734
12480.0 0.0000801 4234.22705 12167.84570
13392.0 0.0000747 4228.58154 13106.92285
14533.0 0.0000688 4223.00391 14225.63086
15915.0 0.0000628 4217.49170 15579.01953
17676.0 0.0000566 4212.04834 17253.79102
19866.0 0.0000503 4206.66943 19394.84180
22895.0 0.0000437 4201.35791 22248.59375
26818.0 0.0000373 4196.11230 26227.38672
32492.0 0.0000308 4190.93457 31980.43164
40571.0 0.0000246 4185.82324 40442.48828
52716.0 0.0000190 4180.77686 52806.35547
69798.0 0.0000143 4175.79688 70358.17188
94910.0 0.0000105 4170.88428 94145.89844
127511.0 7.84e-6 4166.03662 124477.96875
167145.0 5.98e-6 4161.25342 160233.78125
206118.0 4.85e-6 4156.53516 197842.04688
238576.0 4.19e-6 4151.88330 230072.90625
252525.0 3.96e-6 4147.29590 246766.23438
246437.0 4.06e-6 4142.77197 240828.45312
221257.0 4.52e-6 4138.31348 214939.03125
184027.0 5.43e-6 4133.91797 178810.87500
145594.0 6.87e-6 4129.58594 141485.96875
109821.0 9.11e-6 4125.31689 108216.11719
82048.0 0.0000122 4121.11133 81172.73438
61491.0 0.0000163 4116.96826 60646.75781
47141.0 0.0000212 4112.88672 45880.31641
37127.0 0.0000269 4108.86719 35652.60938
30308.0 0.0000330 4104.90918 28694.14844
25276.0 0.0000396 4101.01074 23932.93164
21643.0 0.0000462 4097.17578 20582.06445
18878.0 0.0000530 4093.39795 18121.32031
16738.0 0.0000597 4089.68140 16231.67383
15019.0 0.0000666 4086.02393 14724.98926
13640.0 0.0000733 4082.42456 13490.37988
12501.0 0.0000800 4078.88477 12459.60938
11568.0 0.0000864 4075.40259 11587.68359
10768.0 0.0000929 4071.97754 10842.86914
10093.0 0.0000991 4068.60742 10201.50488
9516.0 0.0001051 4065.29541 9645.39160
9021.0 0.0001109 4062.03931 9160.17773
8585.0 0.0001165 4058.83887 8734.37012
8222.0 0.0001216 4055.69360 8358.70703
7886.0 0.0001268 4052.60156 8025.63232
7599.0 0.0001316 4049.56445 7728.97998
7339.0 0.0001363 4046.58008 7463.64746
7114.0 0.0001406 4043.64893 7225.37305
6902.0 0.0001449 4040.77002 7010.60107
6715.0 0.0001489 4037.94214 6816.32812
6539.0 0.0001529 4035.16602 6640.03027
6388.0 0.0001565 4032.44092 6479.55664
6246.0 0.0001601 4029.76392 6333.05566
6116.0 0.0001635 4027.13867 6198.94873
5988.0 0.0001670 4024.56250 6075.86328
5876.0 0.0001702 4022.03271 5962.61963
5771.0 0.0001733 4019.55078 5858.19482
5677.0 0.0001761 4017.11768 5761.68848
5586.0 0.0001790 4014.72974 5672.31201
5503.0 0.0001817 4012.38940 5589.37451
5424.0 0.0001844 4010.09302 5512.26660
5351.0 0.0001869 4007.84180 5440.45410
5283.0 0.0001893 4005.63550 5373.45898
5221.0 0.0001915 4003.47241 5310.85156
5160.0 0.0001938 4001.35254 5252.25342
5103.0 0.0001960 3999.27515 5197.32861
5047.0 0.0001981 3997.23975 5145.77490
4997.0 0.0002001 3995.24463 5097.31738
4949.0 0.0002021 3993.29150 5051.71240
4905.0 0.0002039 3991.37793 5008.73340
4862.0 0.0002057 3989.50293 4968.18506
4828.0 0.0002071 3987.66772 4929.88574
4796.0 0.0002085 3985.87158 4893.67139
4767.0 0.0002098 3984.11230 4859.39062
4737.0 0.0002111 3982.38965 4826.90527
4700.0 0.0002128 3980.70361 4796.09326
4672.0 0.0002140 3979.05469 4766.84326
4644.0 0.0002153 3977.43872 4739.04688
4616.0 0.0002166 3975.85962 4712.61133
4588.0 0.0002180 3974.31250 4687.44531
4565.0 0.0002191 3972.80078 4663.47363
4542.0 0.0002202 3971.32153 4640.61963
4523.0 0.0002211 3969.87427 4618.81250
4499.0 0.0002223 3968.45801 4597.99170
4479.0 0.0002233 3967.07324 4578.09717
4461.0 0.0002242 3965.71899 4559.07520
4446.0 0.0002249 3964.39551 4540.87842
4432.0 0.0002256 3963.09985 4523.45508
4410.0 0.0002268 3961.83374 4506.76660
4391.0 0.0002277 3960.59570 4490.76855
4370.0 0.0002288 3959.38477 4475.87549
4354.0 0.0002297 3958.20117 4461.15625
4341.0 0.0002304 3957.04419 4447.02344
4326.0 0.0002312 3955.91211 4433.44678
4312.0 0.0002319 3954.80518 4420.39795
4299.0 0.0002326 3953.72339 4407.85156
4285.0 0.0002334 3952.66504 4395.78223
4275.0 0.0002339 3951.63135 4384.16748
4263.0 0.0002346 3950.62036 4372.98389
4252.0 0.0002352 3949.63135 4362.20947
4240.0 0.0002358 3948.66357 4351.82666
4224.0 0.0002367 3947.71729 4341.81689
4214.0 0.0002373 3946.79248 4332.16455
4207.0 0.0002377 3945.88770 4322.85156
4199.0 0.0002382 3945.00317 4313.86279
4188.0 0.0002388 3944.13550 4305.18213
4172.0 0.0002397 3943.28687 4296.79834
4162.0 0.0002403 3942.45752 4288.69922
4149.0 0.0002410 3941.64526 4280.87109
4140.0 0.0002415 3940.85010 4273.30225
4136.0 0.0002418 3940.07104 4265.98340
4132.0 0.0002420 3939.30762 4258.90088
4129.0 0.0002422 3938.55981 4252.04834
4125.0 0.0002424 3937.82617 4245.41309
4120.0 0.0002427 3937.10815 4238.99023
4116.0 0.0002430 3936.40283 4232.76758
4111.0 0.0002432 3935.71143 4226.74072
4104.0 0.0002437 3935.03296 4220.89990
4102.0 0.0002438 3934.36694 4215.23926
4104.0 0.0002437 3933.71240 4209.74854
4097.0 0.0002441 3933.06909 4204.42383
4092.0 0.0002444 3932.43701 4199.25879
4079.0 0.0002452 3931.81641 4194.24854
4069.0 0.0002458 3931.20410 4189.38477
4060.0 0.0002463 3930.60181 4184.66309
4051.0 0.0002469 3930.00879 4180.07812
4045.0 0.0002472 3929.42456 4175.62695
4040.0 0.0002475 3928.84766 4171.30127
4032.0 0.0002480 3928.27832 4167.09912
4023.0 0.0002486 3927.71729 4163.01562
4018.0 0.0002489 3927.16211 4159.04590
4013.0 0.0002492 3926.61475 4155.18799
4009.0 0.0002494 3926.07178 4151.43457
4005.0 0.0002497 3925.53516 4147.78564
4001.0 0.0002499 3925.00293 4144.23486
3996.0 0.0002503 3924.47632 4140.78076
3988.0 0.0002508 3923.95312 4137.41992
3983.0 0.0002511 3923.43408 4134.14795
3981.0 0.0002512 3922.91919 4130.96240
3979.0 0.0002513 3922.40698 4127.86182
3974.0 0.0002516 3921.89795 4124.84229
3968.0 0.0002520 3921.38989 4121.89990
3966.0 0.0002521 3920.88574 4119.03564
3960.0 0.0002525 3920.38159 4116.24365
3959.0 0.0002526 3919.87866 4113.52246
3958.0 0.0002527 3919.37695 4110.87061
3955.0 0.0002528 3918.87671 4108.28857
3951.0 0.0002531 3918.37598 4105.76904
3947.0 0.0002534 3917.87500 4103.31348
3945.0 0.0002535 3917.37329 4100.91748
3947.0 0.0002534 3916.87036 4098.58105
3947.0 0.0002534 3916.36597 4096.30225
3946.0 0.0002534 3915.86035 4094.07935
3944.0 0.0002535 3915.35449 4091.91260
3941.0 0.0002537 3914.84497 4089.79663
3934.0 0.0002542 3914.33228 4087.73145
3930.0 0.0002545 3913.81763 4085.71680
3927.0 0.0002546 3913.30054 4083.75220
3925.0 0.0002548 3912.77905 4081.83276
3922.0 0.0002550 3912.25366 4079.95923
3917.0 0.0002553 3911.72510 4078.13110
3916.0 0.0002554 3911.19238 4076.46997
3919.0 0.0002552 3910.65405 4074.72754
3924.0 0.0002548 3910.11206 4073.02759
3922.0 0.0002550 3909.56421 4071.36816
3916.0 0.0002554 3909.01172 4069.74902
3913.0 0.0002556 3908.45312 4068.16748
3913.0 0.0002556 3907.88892 4066.62402
3913.0 0.0002556 3907.31909 4065.35962
3913.0 0.0002556 3906.74219 4063.89038
3912.0 0.0002556 3906.15942 4062.47119
3914.0 0.0002555 3905.56934 4061.07251
3913.0 0.0002556 3904.97192 4059.70825
3911.0 0.0002557 3904.36743 4058.37793
3912.0 0.0002556 3903.75708 4057.08179
3910.0 0.0002558 3903.13623 4055.81641
3913.0 0.0002556 3902.50952 4054.58496
3913.0 0.0002556 3901.87451 4053.38525
3915.0 0.0002554 3901.23169 4052.21753
3916.0 0.0002554 3900.57959 4051.07983
3916.0 0.0002554 3899.91797 4049.97241
3919.0 0.0002552 3899.24902 4048.89722
3918.0 0.0002552 3898.57007 4047.85132
3917.0 0.0002553 3897.88281 4046.83667
3917.0 0.0002553 3897.18628 4045.85181
3915.0 0.0002554 3896.47974 4044.89697
3913.0 0.0002556 3895.76416 4043.97217
3909.0 0.0002558 3895.03857 4043.07788
3907.0 0.0002560 3894.30249 4042.21265
3901.0 0.0002563 3893.55713 4041.37817
3899.0 0.0002565 3892.79980 4040.57251
3893.0 0.0002569 3892.03345 4039.79858
3893.0 0.0002569 3891.25684 4039.05566
3891.0 0.0002570 3890.46826 4038.34253
3891.0 0.0002570 3889.67065 4037.66187
3896.0 0.0002567 3888.86182 4037.01221
3899.0 0.0002565 3888.04150 4036.39502
3901.0 0.0002563 3887.20923 4035.80908
3903.0 0.0002562 3886.36670 4035.25684
3905.0 0.0002561 3885.51318 4034.73779
3908.0 0.0002559 3884.64819 4034.25439
3910.0 0.0002558 3883.77148 4033.80444
3912.0 0.0002556 3882.88257 4033.39014
3913.0 0.0002556 3881.98364 4033.01392
3914.0 0.0002555 3881.07202 4032.67358
3917.0 0.0002553 3880.14795 4032.37109
3916.0 0.0002554 3879.21289 4032.10962
3912.0 0.0002556 3878.26587 4031.88794
3908.0 0.0002559 3877.30615 4031.70679
3908.0 0.0002559 3876.33521 4031.57007
3913.0 0.0002556 3875.35181 4031.47656
3919.0 0.0002552 3874.35620 4031.42944
3919.0 0.0002552 3873.34888 4031.43018
3916.0 0.0002554 3872.32861 4031.47852
3914.0 0.0002555 3871.29639 4031.57739
3913.0 0.0002556 3870.25171 4031.72900
3915.0 0.0002554 3869.19458 4031.93530
3916.0 0.0002554 3868.12549 4032.19775
3919.0 0.0002552 3867.04346 4032.51904
3919.0 0.0002552 3865.94971 4032.90137
3920.0 0.0002551 3864.84302 4033.34717
3924.0 0.0002548 3863.72363 4033.85889
3931.0 0.0002544 3862.59277 4034.44043
3936.0 0.0002541 3861.44897 4035.09351
3939.0 0.0002539 3860.29272 4035.82104
3939.0 0.0002539 3859.12427 4036.62793
3944.0 0.0002535 3857.94238 4037.51611
3948.0 0.0002533 3856.74878 4038.49023
3949.0 0.0002532 3855.54297 4039.55493
3952.0 0.0002530 3854.32471 4040.71265
3957.0 0.0002527 3853.09326 4041.96899
3963.0 0.0002523 3851.85010 4043.32935
3965.0 0.0002522 3850.59521 4044.79810
3968.0 0.0002520 3849.32642 4046.37988
3971.0 0.0002518 3848.04639 4048.20850
3974.0 0.0002516 3846.75439 4050.03735
3977.0 0.0002514 3845.44971 4051.99780
3978.0 0.0002514 3844.13281 4054.09814
3985.0 0.0002509 3842.80420 4056.34546
3991.0 0.0002506 3841.46289 4058.74658
3999.0 0.0002501 3840.10962 4061.31201
4006.0 0.0002496 3838.74512 4064.05005
4016.0 0.0002490 3837.36816 4066.96948
4020.0 0.0002488 3835.97974 4070.08252
4026.0 0.0002484 3834.57837 4073.39795
4029.0 0.0002482 3833.16650 4076.92993
4036.0 0.0002478 3831.74292 4080.69141
4044.0 0.0002473 3830.30713 4084.69336
4054.0 0.0002467 3828.86011 4088.95361
4065.0 0.0002460 3827.40161 4093.48682
4073.0 0.0002455 3825.93140 4098.30957
4078.0 0.0002452 3824.45068 4103.44238
4086.0 0.0002447 3822.95801 4108.90332
4098.0 0.0002440 3821.45459 4114.71533
4108.0 0.0002434 3819.94019 4120.90234
4117.0 0.0002429 3818.41431 4127.48730
4129.0 0.0002422 3816.87817 4134.49951
4136.0 0.0002418 3815.33105 4141.96826
4149.0 0.0002410 3813.77295 4149.92725
4159.0 0.0002404 3812.20532 4158.40918
4174.0 0.0002396 3810.62622 4167.45703
4190.0 0.0002387 3809.03687 4177.11084
4208.0 0.0002376 3807.43848 4187.41602
4224.0 0.0002367 3805.82812 4198.42334
4241.0 0.0002358 3804.20850 4210.18848
4252.0 0.0002352 3802.57886 4222.77441
4270.0 0.0002342 3800.94019 4236.24805
4287.0 0.0002333 3799.29053 4250.68018
4310.0 0.0002320 3797.63232 4266.15869
4334.0 0.0002307 3795.96387 4282.76953
4362.0 0.0002293 3794.28613 4300.61816
4385.0 0.0002281 3792.59937 4319.81689
4415.0 0.0002265 3790.90430 4340.48779
4440.0 0.0002252 3789.19897 4362.77637
4473.0 0.0002236 3787.48657 4386.83545
4504.0 0.0002220 3785.76318 4412.84619
4539.0 0.0002203 3784.03271 4441.00879
4574.0 0.0002186 3782.29297 4471.54199
4615.0 0.0002167 3780.54590 4504.71191
4657.0 0.0002147 3778.78906 4540.79688
4704.0 0.0002126 3777.02515 4580.14453
4750.0 0.0002105 3775.25317 4623.12549
4803.0 0.0002082 3773.47363 4670.17090
4856.0 0.0002059 3771.68628 4721.80029
4920.0 0.0002033 3769.89136 4778.57861
4988.0 0.0002005 3768.08936 4841.20312
5067.0 0.0001974 3766.28027 4910.45801
5148.0 0.0001943 3764.46387 4987.26172
5235.0 0.0001910 3762.64014 5072.73584
5327.0 0.0001877 3760.81006 5168.15430
5431.0 0.0001841 3758.97339 5275.10254
5548.0 0.0001802 3757.13013 5395.42725
5687.0 0.0001758 3755.28052 5531.35596
5837.0 0.0001713 3753.42529 5685.67090
6012.0 0.0001663 3751.56323 5861.67725
6204.0 0.0001612 3749.69604 6063.59082
6428.0 0.0001556 3747.82178 6296.61719
6685.0 0.0001496 3745.94336 6567.44141
7002.0 0.0001428 3744.05908 6885.10059
7370.0 0.0001357 3742.16992 7262.00391
7821.0 0.0001279 3740.27490 7716.75635
8367.0 0.0001195 3738.37549 8278.07812
9051.0 0.0001105 3736.47119 8991.95312
9908.0 0.0001009 3734.56226 9932.41211
11069.0 0.0000903 3732.64966 11213.64746
12579.0 0.0000795 3730.73218 13003.66895
14768.0 0.0000677 3728.80957 15528.48828
17769.0 0.0000563 3726.88403 19061.77344
22128.0 0.0000452 3724.95508 23892.20508
28158.0 0.0000355 3723.02197 30255.93750
36233.0 0.0000276 3721.08521 38249.91406
46016.0 0.0000217 3719.14551 47694.48047
56667.0 0.0000176 3717.20264 57934.01172
65926.0 0.0000152 3715.25610 67567.25000
72178.0 0.0000139 3713.30762 74353.67969
73307.0 0.0000136 3711.35620 76019.21094
69356.0 0.0000144 3709.40234 71900.34375
61500.0 0.0000163 3707.44580 63557.07812
51437.0 0.0000194 3705.48804 53423.63281
41716.0 0.0000240 3703.52759 43405.43359
32826.0 0.0000305 3701.56543 34542.89062
25898.0 0.0000386 3699.60181 27253.41992
20624.0 0.0000485 3697.63672 21577.44141
16841.0 0.0000594 3695.67041 17342.54688
14073.0 0.0000711 3693.70288 14280.98438
12122.0 0.0000825 3691.73413 12103.96484
10646.0 0.0000939 3689.76465 10556.05469
9556.0 0.0001046 3687.79468 9436.63184
8689.0 0.0001151 3685.82397 8602.18066
8017.0 0.0001247 3683.85352 7957.89746
7466.0 0.0001339 3681.88208 7443.34717
7014.0 0.0001426 3679.91113 7021.17236
6630.0 0.0001508 3677.94092 6667.82373
6321.0 0.0001582 3675.97021 6367.71143
6046.0 0.0001654 3674.00073 6110.18945
5819.0 0.0001719 3672.03174 5887.31689
5620.0 0.0001779 3670.06348 5693.12646
5449.0 0.0001835 3668.09570 5522.92041
5294.0 0.0001889 3666.12988 5372.86426
5159.0 0.0001938 3664.16577 5239.93652
5042.0 0.0001983 3662.20264 5121.58984
4941.0 0.0002024 3660.24121 5015.77100
4849.0 0.0002062 3658.28149 4920.77637
4763.0 0.0002100 3656.32397 4835.14014
4685.0 0.0002134 3654.36890 4757.68262
4615.0 0.0002167 3652.41650 4687.35840
4554.0 0.0002196 3650.46533 4623.31250
4501.0 0.0002222 3648.51782 4564.81396
4450.0 0.0002247 3646.57275 4511.21191
4402.0 0.0002272 3644.63135 4461.97363
4352.0 0.0002298 3642.69214 4416.61328
4307.0 0.0002322 3640.75684 4374.72705
4265.0 0.0002345 3638.82495 4335.96240
4230.0 0.0002364 3636.89648 4299.99463
4197.0 0.0002383 3634.97290 4266.56250
4163.0 0.0002402 3633.05200 4235.41113
4131.0 0.0002421 3631.13525 4206.34229
4104.0 0.0002437 3629.22388 4179.15234
4083.0 0.0002449 3627.31567 4153.82422
4062.0 0.0002462 3625.41235 4129.91699
4041.0 0.0002475 3623.51465 4107.44189
4017.0 0.0002489 3621.62061 4086.27881
3997.0 0.0002502 3619.73267 4066.32642
3974.0 0.0002516 3617.84888 4047.48145
3955.0 0.0002528 3615.97095 4029.66357
3936.0 0.0002541 3614.09888 4012.78906
3920.0 0.0002551 3612.23193 3996.78955
3905.0 0.0002561 3610.37134 3981.60327
3892.0 0.0002569 3608.51611 3967.16772
3880.0 0.0002577 3606.66699 3953.43433
3867.0 0.0002586 3604.82422 3940.35229
3854.0 0.0002595 3602.98804 3927.87891
3843.0 0.0002602 3601.15869 3915.97632
3834.0 0.0002608 3599.33496 3904.60327
3825.0 0.0002614 3597.51880 3893.73267
3815.0 0.0002621 3595.70947 3883.32861
3805.0 0.0002628 3593.90747 3873.36670
3795.0 0.0002635 3592.11328 3863.82251
3785.0 0.0002642 3590.32544 3854.66919
3776.0 0.0002648 3588.54492 3845.88843
3770.0 0.0002653 3586.77222 3837.45874
3763.0 0.0002657 3585.00781 3829.36572
3754.0 0.0002664 3583.25122 3821.59155
3746.0 0.0002670 3581.50244 3814.12158
3735.0 0.0002677 3579.76147 3806.94482
3729.0 0.0002682 3578.02930 3800.04736
3719.0 0.0002689 3576.30566 3793.42139
3711.0 0.0002695 3574.59009 3787.05713
3705.0 0.0002699 3572.88379 3780.94824
3699.0 0.0002703 3571.18628 3775.08838
3694.0 0.0002707 3569.49683 3769.47192
3690.0 0.0002710 3567.81763 3764.09961
3686.0 0.0002713 3566.14722 3758.96802
3685.0 0.0002714 3564.48584 3754.07910
3681.0 0.0002717 3562.83447 3749.43628
3678.0 0.0002719 3561.19165 3745.04395
3670.0 0.0002725 3559.55957 3740.91357
3664.0 0.0002729 3557.93726 3737.05688
3656.0 0.0002735 3556.32324 3733.48755
3653.0 0.0002737 3554.72119 3730.23340
3651.0 0.0002739 3553.12793 3727.31934
3650.0 0.0002740 3551.54565 3724.78662
3649.0 0.0002740 3549.97388 3722.68604
3649.0 0.0002740 3548.41211 3721.08862
3653.0 0.0002737 3546.86133 3720.17383
3659.0 0.0002733 3545.32056 3719.94019
3663.0 0.0002730 3543.79126 3720.70337
3666.0 0.0002728 3542.27246 3722.83911
3667.0 0.0002727 3540.76416 3726.93237
3673.0 0.0002723 3539.26758 3733.86060
3687.0 0.0002712 3537.78223 3744.87256
3708.0 0.0002697 3536.30835 3761.59570
3740.0 0.0002674 3534.84521 3785.95557
3787.0 0.0002641 3533.39380 3819.96240
3857.0 0.0002593 3531.95410 3865.32983
3948.0 0.0002533 3530.52612 3922.67407
4067.0 0.0002459 3529.10938 3990.94067
4194.0 0.0002384 3527.70532 4065.74316
4309.0 0.0002321 3526.31250 4137.67529
4380.0 0.0002283 3524.93237 4191.99219
4396.0 0.0002275 3523.56372 4214.04834
4352.0 0.0002298 3522.20752 4198.78857
4263.0 0.0002346 3520.86328 4153.23047
4149.0 0.0002410 3519.53149 4088.83130
4034.0 0.0002479 3518.21240 4015.64209
3928.0 0.0002546 3516.90552 3941.93433
3840.0 0.0002604 3515.61108 3874.20044
3769.0 0.0002653 3514.33008 3816.21753
3714.0 0.0002693 3513.06152 3769.07007
3673.0 0.0002723 3511.80518 3732.10400
3640.0 0.0002747 3510.56177 3703.77075
3615.0 0.0002766 3509.33203 3682.28906
3599.0 0.0002779 3508.11548 3665.97046
3586.0 0.0002789 3506.91187 3653.39258
3579.0 0.0002794 3505.72046 3643.46387
3568.0 0.0002803 3504.54297 3635.39038
3558.0 0.0002811 3503.37866 3628.62524
3547.0 0.0002819 3502.22778 3622.80322
3541.0 0.0002824 3501.09009 3617.68213
3536.0 0.0002828 3499.96606 3613.10327
3532.0 0.0002831 3498.85522 3608.95776
3532.0 0.0002831 3497.75781 3605.16968
3530.0 0.0002833 3496.67456 3601.68384
3525.0 0.0002837 3495.60498 3598.45557
3519.0 0.0002842 3494.54932 3595.45264
3516.0 0.0002844 3493.50659 3592.64429
3515.0 0.0002845 3492.47827 3590.01245
3512.0 0.0002847 3491.46387 3587.53687
3512.0 0.0002847 3490.46313 3585.20312
3511.0 0.0002848 3489.47656 3582.99976
3508.0 0.0002851 3488.50342 3580.91455
3504.0 0.0002854 3487.54541 3578.93994
3499.0 0.0002858 3486.60059 3577.07007
3501.0 0.0002856 3485.66992 3575.29663
3499.0 0.0002858 3484.75342 3573.61670
3500.0 0.0002857 3483.85156 3572.02490
3498.0 0.0002859 3482.96362 3570.51880
3499.0 0.0002858 3482.08984 3569.09497
3496.0 0.0002860 3481.23047 3567.75269
3493.0 0.0002863 3480.38525 3566.48926
3489.0 0.0002866 3479.55444 3565.30493
3489.0 0.0002866 3478.73877 3564.19922
3489.0 0.0002866 3477.93628 3563.17041
3486.0 0.0002869 3477.14844 3562.22046
3486.0 0.0002869 3476.37500 3561.35010
3484.0 0.0002870 3475.61670 3560.56104
3485.0 0.0002869 3474.87256 3559.85327
3485.0 0.0002869 3474.14282 3559.23096
3484.0 0.0002870 3473.42725 3558.69507
3483.0 0.0002871 3472.72656 3558.24927
3483.0 0.0002871 3472.04028 3557.89893
3481.0 0.0002873 3471.36841 3557.64575
3483.0 0.0002871 3470.71143 3557.49658
3482.0 0.0002872 3470.06909 3557.45654
3482.0 0.0002872 3469.44067 3557.53198
3481.0 0.0002873 3468.82690 3557.72974
3483.0 0.0002871 3468.22876 3558.06177
3482.0 0.0002872 3467.64355 3558.53345
3484.0 0.0002870 3467.07373 3559.15845
3484.0 0.0002870 3466.51831 3559.94775
3488.0 0.0002867 3465.97876 3560.92114
3487.0 0.0002868 3465.45190 3562.08765
3486.0 0.0002869 3464.94067 3563.47241
3485.0 0.0002869 3464.44336 3565.09570
3489.0 0.0002866 3463.96118 3566.98364
3491.0 0.0002865 3463.49316 3569.16699
3491.0 0.0002865 3463.03955 3571.67993
3492.0 0.0002864 3462.60083 3574.56396
3493.0 0.0002863 3462.17651 3577.86792
3497.0 0.0002860 3461.76660 3581.64844
3501.0 0.0002856 3461.37085 3585.97241
3505.0 0.0002853 3460.99048 3590.92334
3509.0 0.0002850 3460.62427 3596.59668
3512.0 0.0002847 3460.27173 3603.10962
3520.0 0.0002841 3459.93433 3610.60669
3525.0 0.0002837 3459.61084 3619.26660
3532.0 0.0002831 3459.30200 3629.31104
3539.0 0.0002826 3459.00781 3641.01978
3550.0 0.0002817 3458.72632 3643.88330
3562.0 0.0002807 3458.46094 3660.24829
3578.0 0.0002795 3458.20898 3679.93896
3594.0 0.0002782 3457.97046 3704.10474
3616.0 0.0002765 3457.74780 3734.53027
3640.0 0.0002747 3457.53833 3773.98755
3676.0 0.0002720 3457.34302 3826.62988
3726.0 0.0002684 3457.16187 3898.43042
3799.0 0.0002632 3456.99487 3997.33911
3898.0 0.0002565 3456.84082 4133.03223
4042.0 0.0002474 3456.70215 4316.32129
4240.0 0.0002358 3456.57764 4556.10498
4524.0 0.0002210 3456.46606 4858.54639
4870.0 0.0002053 3456.36865 5221.93555
5280.0 0.0001894 3456.28491 5631.28223
5670.0 0.0001764 3456.21436 6049.71240
5973.0 0.0001674 3456.15845 6409.28711
6108.0 0.0001637 3456.11572 6619.04492
6056.0 0.0001651 3456.08643 6608.45947
5830.0 0.0001715 3456.07104 6381.46143
5500.0 0.0001818 3456.06982 6012.85840
5134.0 0.0001948 3456.08032 5592.93652
4791.0 0.0002087 3456.10547 5186.49951
4498.0 0.0002223 3456.14404 4828.18994
4270.0 0.0002342 3456.19556 4531.46289
4092.0 0.0002444 3456.26001 4297.02637
3957.0 0.0002527 3456.33716 4118.66650
3859.0 0.0002591 3456.42847 3986.64551
3787.0 0.0002641 3456.53271 3890.50635
3730.0 0.0002681 3456.64966 3820.68750
3685.0 0.0002714 3456.78027 3769.39453
3648.0 0.0002741 3456.92236 3730.85596
3617.0 0.0002765 3457.07837 3701.04590
3593.0 0.0002783 3457.24658 3677.30566
3573.0 0.0002799 3457.42725 3657.92432
3557.0 0.0002811 3457.62085 3641.78906
3544.0 0.0002822 3457.82715 3628.17334
3532.0 0.0002831 3458.04614 3616.56763
3522.0 0.0002839 3458.27686 3606.60840
3514.0 0.0002846 3458.52002 3598.01978
3509.0 0.0002850 3458.77563 3590.58398
3503.0 0.0002855 3459.04321 3584.12915
3497.0 0.0002860 3459.32227 3578.51294
3490.0 0.0002865 3459.61450 3573.62354
3487.0 0.0002868 3459.91846 3569.36499
3484.0 0.0002870 3460.23340 3565.65796
3484.0 0.0002870 3460.56079 3562.43896
3482.0 0.0002872 3460.89941 3559.65088
3481.0 0.0002873 3461.25098 3557.25098
3476.0 0.0002877 3461.61279 3555.19653
3475.0 0.0002878 3461.98633 3553.45728
3469.0 0.0002883 3462.37134 3552.00562
3467.0 0.0002884 3462.76758 3550.81787
3465.0 0.0002886 3463.17529 3549.87500
3466.0 0.0002885 3463.59351 3549.16040
3466.0 0.0002885 3464.02344 3548.66138
3467.0 0.0002884 3464.46387 3548.38159
3464.0 0.0002887 3464.91528 3548.28149
3466.0 0.0002885 3465.37744 3548.37012
3462.0 0.0002889 3465.85010 3548.64282
3461.0 0.0002889 3466.33350 3549.09595
3460.0 0.0002890 3466.82690 3549.72803
3463.0 0.0002888 3467.33154 3550.54150
3466.0 0.0002885 3467.84619 3551.53662
3468.0 0.0002884 3468.37085 3552.71680
3466.0 0.0002885 3468.90552 3554.08911
3468.0 0.0002884 3469.45020 3555.65942
3466.0 0.0002885 3470.00488 3557.43823
3470.0 0.0002882 3470.56982 3559.43799
3470.0 0.0002882 3471.14429 3561.67212
3472.0 0.0002880 3471.72803 3564.15796
3477.0 0.0002876 3472.32153 3566.91553
3478.0 0.0002875 3472.92432 3569.96973
3481.0 0.0002873 3473.53662 3573.35059
3481.0 0.0002873 3474.15796 3577.08887
3482.0 0.0002872 3474.78882 3581.22607
3486.0 0.0002869 3475.42822 3585.81006
3489.0 0.0002866 3476.07642 3590.89697
3492.0 0.0002864 3476.73340 3596.55371
3495.0 0.0002861 3477.39917 3602.85889
3502.0 0.0002856 3478.07422 3609.91162
3510.0 0.0002849 3478.75684 3617.82422
3519.0 0.0002842 3479.44897 3626.74121
3525.0 0.0002837 3480.14819 3636.83423
3537.0 0.0002827 3480.85571 3648.31689
3548.0 0.0002818 3481.57178 3661.46948
3561.0 0.0002808 3482.29517 3676.64575
3573.0 0.0002799 3483.02686 3694.34277
3587.0 0.0002788 3483.76660 3715.26245
3605.0 0.0002774 3484.51367 3740.44409
3629.0 0.0002756 3485.26709 3771.49487
3656.0 0.0002735 3486.03003 3810.86084
3691.0 0.0002709 3486.79907 3862.22485
3733.0 0.0002679 3487.57520 3930.87207
3789.0 0.0002639 3488.35889 4023.93799
3870.0 0.0002584 3489.14893 4150.38232
3991.0 0.0002506 3489.94531 4320.23535
4164.0 0.0002402 3490.75024 4543.38330
4402.0 0.0002272 3491.56006 4827.23730
4728.0 0.0002115 3492.37695 5173.70557
5106.0 0.0001958 3493.20020 5574.87012
5520.0 0.0001812 3494.03003 6005.49365
5884.0 0.0001700 3494.86523 6414.07617
6120.0 0.0001634 3495.70654 6719.28760
6176.0 0.0001619 3496.55444 6833.96143
6042.0 0.0001655 3497.40820 6718.80762
5770.0 0.0001733 3498.26660 6414.15039
5416.0 0.0001846 3499.13110 6007.29541
5066.0 0.0001974 3500.00098 5579.22852
4745.0 0.0002107 3500.87671 5181.26514
4480.0 0.0002232 3501.75635 4838.06250
4272.0 0.0002341 3502.64209 4557.60547
4115.0 0.0002430 3503.53223 4337.74756
3999.0 0.0002501 3504.42798 4171.05371
3912.0 0.0002556 3505.32739 4047.68799
3847.0 0.0002599 3506.23218 3957.55640
3797.0 0.0002634 3507.14087 3891.77539
3754.0 0.0002664 3508.05444 3843.20190
3721.0 0.0002687 3508.97168 3806.58423
3695.0 0.0002706 3509.89331 3778.27197
3675.0 0.0002721 3510.81812 3755.81885
3662.0 0.0002731 3511.74780 3737.64648
3649.0 0.0002740 3512.68091 3722.71021
3642.0 0.0002746 3513.61792 3710.31592
3631.0 0.0002754 3514.55762 3699.97876
3623.0 0.0002760 3515.50146 3691.34106
3616.0 0.0002765 3516.44775 3684.13428
3612.0 0.0002769 3517.39795 3678.14380
3608.0 0.0002772 3518.35059 3673.20312
3603.0 0.0002775 3519.30640 3669.17529
3597.0 0.0002780 3520.26489 3665.94897
3592.0 0.0002784 3521.22510 3663.43237
3589.0 0.0002786 3522.18872 3661.55371
3588.0 0.0002787 3523.15454 3660.24854
3589.0 0.0002786 3524.12256 3659.51880
3593.0 0.0002783 3525.09302 3659.22681
3594.0 0.0002782 3526.06519 3659.38940
3596.0 0.0002781 3527.03931 3659.98022
3597.0 0.0002780 3528.01538 3660.98145
3600.0 0.0002778 3528.99243 3662.37842
3602.0 0.0002776 3529.97070 3664.16284
3607.0 0.0002772 3530.95117 3666.33203
3610.0 0.0002770 3531.93286 3668.88550
3614.0 0.0002767 3532.91504 3671.82764
3618.0 0.0002764 3533.89844 3675.16772
3623.0 0.0002760 3534.88306 3678.91870
3630.0 0.0002755 3535.86792 3683.09790
3635.0 0.0002751 3536.85376 3687.72974
3641.0 0.0002746 3537.83960 3692.83936
3646.0 0.0002743 3538.82617 3698.46118
3655.0 0.0002736 3539.81348 3704.63745
3666.0 0.0002728 3540.80005 3711.40918
3677.0 0.0002720 3541.78711 3718.84668
3689.0 0.0002711 3542.77393 3726.99243
3698.0 0.0002704 3543.76050 3735.93115
3712.0 0.0002694 3544.74634 3745.75293
3725.0 0.0002685 3545.73169 3756.55859
3740.0 0.0002674 3546.71655 3768.47241
3752.0 0.0002665 3547.70068 3781.67773
3766.0 0.0002655 3548.68433 3796.25903
3780.0 0.0002646 3549.66626 3812.46069
3803.0 0.0002630 3550.64722 3830.51807
3825.0 0.0002614 3551.62720 3850.72095
3852.0 0.0002596 3552.60547 3873.41309
3880.0 0.0002577 3553.58154 3899.00757
3909.0 0.0002558 3554.55811 3928.03027
3943.0 0.0002536 3555.53125 3961.10913
3980.0 0.0002513 3556.50293 3999.07544
4026.0 0.0002484 3557.47266 4043.00171
4082.0 0.0002450 3558.44043 4094.36206
4144.0 0.0002413 3559.40625 4155.29004
4217.0 0.0002371 3560.36890 4228.92041
4303.0 0.0002324 3561.32935 4320.04492
4407.0 0.0002269 3562.28711 4435.86230
4540.0 0.0002203 3563.24194 4586.98340
4709.0 0.0002124 3564.19409 4788.42676
4927.0 0.0002030 3565.14380 5060.03564
5223.0 0.0001915 3566.09058 5426.31055
5621.0 0.0001779 3567.03345 5914.30273
6152.0 0.0001625 3567.97290 6550.03369
6861.0 0.0001458 3568.90942 7352.95557
7754.0 0.0001290 3569.84180 8327.43457
8812.0 0.0001135 3570.77075 9451.63965
9932.0 0.0001007 3571.69653 10657.70410
10922.0 0.0000916 3572.61743 11807.20508
11611.0 0.0000861 3573.53467 12682.61328
11829.0 0.0000845 3574.44775 13045.06055
11546.0 0.0000866 3575.35742 12774.40820
10826.0 0.0000924 3576.26099 11962.17285
9856.0 0.0001015 3577.16089 10839.55859
8828.0 0.0001133 3578.05640 9633.12695
7846.0 0.0001275 3578.94702 8493.48633
7003.0 0.0001428 3579.83252 7496.75000
6335.0 0.0001579 3580.71313 6670.53857
5799.0 0.0001724 3581.58838 6013.38672
5399.0 0.0001852 3582.45923 5507.32959
5093.0 0.0001963 3583.32471 5127.03125
4860.0 0.0002058 3584.18384 4845.16406
4682.0 0.0002136 3585.03809 4636.90576
4537.0 0.0002204 3585.88647 4481.50684
4417.0 0.0002264 3586.72925 4363.30518
4322.0 0.0002314 3587.56592 4271.13232
4242.0 0.0002357 3588.39673 4197.31689
4179.0 0.0002393 3589.22144 4136.79932
4122.0 0.0002426 3590.04028 4086.24390
4074.0 0.0002455 3590.85278 4043.39282
4028.0 0.0002483 3591.65771 4006.70312
3996.0 0.0002503 3592.45728 3975.04102
3964.0 0.0002523 3593.25049 3947.56250
3941.0 0.0002537 3594.03589 3923.60718
3918.0 0.0002552 3594.81494 3902.64014
3897.0 0.0002566 3595.58667 3884.23877
3882.0 0.0002576 3596.35181 3868.04517
3869.0 0.0002585 3597.10962 3853.77051
3859.0 0.0002591 3597.85962 3841.17529
3846.0 0.0002600 3598.60303 3830.05151
3833.0 0.0002609 3599.33862 3820.23486
3821.0 0.0002617 3600.06665 3811.58032
3812.0 0.0002623 3600.78638 3803.96851
3805.0 0.0002628 3601.49902 3797.30249
3797.0 0.0002634 3602.20361 3791.49512
3788.0 0.0002640 3602.89966 3786.47656
3783.0 0.0002643 3603.58838 3782.19092
3782.0 0.0002644 3604.26855 3778.59106
3782.0 0.0002644 3604.93994 3775.63843
3780.0 0.0002646 3605.60425 3773.31177
3775.0 0.0002649 3606.25830 3771.58594
3773.0 0.0002650 3606.90479 3770.45581
3771.0 0.0002652 3607.54321 3769.91675
3771.0 0.0002652 3608.17163 3769.97681
3774.0 0.0002650 3608.79150 3770.65430
3776.0 0.0002648 3609.40259 3771.97534
3778.0 0.0002647 3610.00391 3773.97876
3781.0 0.0002645 3610.59644 3776.71777
3784.0 0.0002643 3611.17993 3780.26025
3788.0 0.0002640 3611.75391 3784.69385
3794.0 0.0002636 3612.31836 3790.12988
3802.0 0.0002630 3612.87329 3796.71118
3812.0 0.0002623 3613.41846 3804.62231
3821.0 0.0002617 3613.95361 3814.10449
3832.0 0.0002610 3614.47974 3825.49585
3845.0 0.0002601 3614.99536 3839.26514
3863.0 0.0002589 3615.50098 3856.11084
3883.0 0.0002575 3615.99634 3877.07568
3906.0 0.0002560 3616.48169 3903.72559
3935.0 0.0002541 3616.95679 3938.38574
3973.0 0.0002517 3617.42139 3984.34595
4027.0 0.0002483 3617.87598 4046.07959
4100.0 0.0002439 3618.32031 4129.19531
4197.0 0.0002383 3618.75269 4240.15381
4333.0 0.0002308 3619.17578 4385.65186
4507.0 0.0002219 3619.58740 4571.34180
4740.0 0.0002110 3619.98804 4800.36768
5023.0 0.0001991 3620.37769 5070.83105
5329.0 0.0001877 3620.75635 5372.15918
5622.0 0.0001779 3621.12427 5679.71729
5850.0 0.0001709 3621.48022 5949.12402
5957.0 0.0001679 3621.82617 6120.55957
5931.0 0.0001686 3622.15967 6143.20801
5773.0 0.0001732 3622.48169 6009.60742
5531.0 0.0001808 3622.79297 5761.37598
5248.0 0.0001905 3623.09204 5459.36621
4981.0 0.0002008 3623.37988 5153.25977
4744.0 0.0002108 3623.65601 4872.88574
4546.0 0.0002200 3623.91943 4632.12207
4388.0 0.0002279 3624.17212 4434.73047
4265.0 0.0002345 3624.41235 4278.77734
4166.0 0.0002400 3624.64038 4159.05518
4094.0 0.0002443 3624.85718 4069.06079
4035.0 0.0002478 3625.06079 4002.18091
3992.0 0.0002505 3625.25244 3952.49634
3958.0 0.0002527 3625.43140 3915.23120
3931.0 0.0002544 3625.59839 3886.76147
3908.0 0.0002559 3625.75366 3864.52612
3889.0 0.0002571 3625.89526 3846.76636
3873.0 0.0002582 3626.02466 3832.31055
3860.0 0.0002591 3626.14160 3820.38281
3850.0 0.0002597 3626.24585 3810.45117
3840.0 0.0002604 3626.33765 3802.15259
3831.0 0.0002610 3626.41577 3795.21875
3824.0 0.0002615 3626.48145 3789.44800
3817.0 0.0002620 3626.53442 3784.68652
3816.0 0.0002621 3626.57397 3780.81030
3815.0 0.0002621 3626.60010 3777.72510
3810.0 0.0002625 3626.61450 3775.35620
3807.0 0.0002627 3626.61401 3773.64087
3802.0 0.0002630 3626.60132 3772.53540
3803.0 0.0002630 3626.57495 3772.00562
3806.0 0.0002627 3626.53540 3772.02832
3808.0 0.0002626 3626.48242 3772.58936
3812.0 0.0002623 3626.41602 3773.68335
3811.0 0.0002624 3626.33569 3775.31250
3813.0 0.0002623 3626.24194 3777.48901
3815.0 0.0002621 3626.13452 3780.23193
3820.0 0.0002618 3626.01367 3783.56738
3827.0 0.0002613 3625.87891 3787.53418
3832.0 0.0002610 3625.72998 3792.17749
3837.0 0.0002606 3625.56763 3797.55981
3843.0 0.0002602 3625.39136 3803.75098
3847.0 0.0002599 3625.20166 3810.83496
3858.0 0.0002592 3624.99731 3818.91895
3868.0 0.0002585 3624.77905 3828.12744
3879.0 0.0002578 3624.54712 3838.61475
3893.0 0.0002569 3624.30103 3850.57373
3910.0 0.0002558 3624.04004 3864.19971
3926.0 0.0002547 3623.76562 3879.77954
3944.0 0.0002535 3623.47583 3897.64111
3958.0 0.0002527 3623.17310 3918.20850
3980.0 0.0002513 3622.85596 3942.07886
4004.0 0.0002498 3622.52319 3969.83911
4033.0 0.0002480 3622.17773 4002.54565
4068.0 0.0002458 3621.81665 4041.59937
4107.0 0.0002435 3621.44165 4089.09351
4155.0 0.0002407 3621.05151 4148.11377
4219.0 0.0002370 3620.64697 4223.20654
4298.0 0.0002327 3620.22803 4320.92822
4395.0 0.0002275 3619.79443 4450.20459
4528.0 0.0002208 3619.34644 4622.65381
4706.0 0.0002125 3618.88330 4852.15234
4964.0 0.0002015 3618.40601 5153.77441
5331.0 0.0001876 3617.91333 5542.01953
5821.0 0.0001718 3617.40601 6027.45117
6476.0 0.0001544 3616.88403 6612.91895
7259.0 0.0001378 3616.34717 7286.66846
8095.0 0.0001235 3615.79590 8012.38721
8873.0 0.0001127 3615.22925 8716.26953
9425.0 0.0001061 3614.64771 9280.18945
9640.0 0.0001037 3614.05103 9568.94434
9485.0 0.0001054 3613.43945 9498.71680
9027.0 0.0001108 3612.81299 9094.75098
8363.0 0.0001196 3612.17188 8469.63086
7627.0 0.0001311 3611.51489 7753.14551
6929.0 0.0001443 3610.84375 7043.66162
6313.0 0.0001584 3610.15723 6399.68408
5799.0 0.0001724 3609.45532 5848.32324
5401.0 0.0001852 3608.73853 5396.04297
5083.0 0.0001967 3608.00684 5037.44580
4836.0 0.0002068 3607.25903 4760.33447
4647.0 0.0002152 3606.49658 4550.02393
4502.0 0.0002221 3605.71924 4391.79785
4387.0 0.0002279 3604.92627 4272.53125
4296.0 0.0002328 3604.11865 4181.64160
4221.0 0.0002369 3603.29492 4111.02637
4159.0 0.0002404 3602.45654 4054.89624
4107.0 0.0002435 3601.60254 4009.23071
4061.0 0.0002462 3600.73389 3971.36060
4021.0 0.0002487 3599.84888 3939.31152
3989.0 0.0002507 3598.94971 3911.88599
3964.0 0.0002523 3598.03442 3888.19727
3943.0 0.0002536 3597.10522 3867.59790
3923.0 0.0002549 3596.15918 3849.58838
3902.0 0.0002563 3595.19751 3833.77930
3887.0 0.0002573 3594.22168 3816.58716
3875.0 0.0002581 3593.22998 3804.33252
3864.0 0.0002588 3592.22314 3793.52441
3852.0 0.0002596 3591.20093 3783.99268
3840.0 0.0002604 3590.16333 3775.60400
3832.0 0.0002610 3589.11035 3768.24634
3826.0 0.0002614 3588.04175 3761.83105
3822.0 0.0002616 3586.95752 3756.28735
3818.0 0.0002619 3585.85938 3751.56128
3816.0 0.0002621 3584.74463 3747.61035
3814.0 0.0002622 3583.61450 3744.40820
3810.0 0.0002625 3582.46973 3741.94141
3808.0 0.0002626 3581.30908 3740.20703
3809.0 0.0002625 3580.13330 3739.21704
3809.0 0.0002625 3578.94214 3738.99561
3810.0 0.0002625 3577.73584 3739.58276
3810.0 0.0002625 3576.51392 3741.03223
3814.0 0.0002622 3575.27612 3743.41846
3821.0 0.0002617 3574.02344 3746.84033
3830.0 0.0002611 3572.75586 3751.42236
3843.0 0.0002602 3571.47290 3757.32544
3858.0 0.0002592 3570.17432 3764.75830
3874.0 0.0002581 3568.86035 3773.99634
3897.0 0.0002566 3567.53198 3785.42285
3916.0 0.0002554 3566.18701 3799.56812
3935.0 0.0002541 3564.82812 3817.21606
3953.0 0.0002530 3563.45288 3839.51367
3971.0 0.0002518 3562.06323 3868.15918
3997.0 0.0002502 3560.65796 3905.62744
4032.0 0.0002480 3559.23706 3955.36084
4075.0 0.0002454 3557.80176 4021.98560
4141.0 0.0002415 3556.35059 4111.25732
4235.0 0.0002361 3554.88501 4229.81494
4365.0 0.0002291 3553.40405 4384.62256
4549.0 0.0002198 3551.90771 4581.78613
4787.0 0.0002089 3550.39673 4825.25537
5087.0 0.0001966 3548.86963 5114.45947
5441.0 0.0001838 3547.32959 5441.09473
5785.0 0.0001729 3545.77197 5783.99512
6079.0 0.0001645 3544.20093 6102.94873
6252.0 0.0001599 3542.61475 6338.60449
6274.0 0.0001594 3541.01367 6429.54541
6138.0 0.0001629 3539.39697 6347.10254
5882.0 0.0001700 3537.76611 6116.04834
5571.0 0.0001795 3536.11963 5796.55908
5239.0 0.0001909 3534.45874 5449.12061
4940.0 0.0002024 3532.78223 5115.46582
4682.0 0.0002136 3531.09180 4818.12207
4473.0 0.0002236 3529.38696 4566.17529
4307.0 0.0002322 3527.66626 4360.65283
4182.0 0.0002391 3525.93164 4197.88525
4077.0 0.0002453 3524.18188 4071.81006
3995.0 0.0002503 3522.41699 3975.53882
3925.0 0.0002548 3520.63916 3902.36133
3870.0 0.0002584 3518.84546 3846.42700
3827.0 0.0002613 3517.03735 3803.01929
3793.0 0.0002636 3515.21460 3768.58252
3766.0 0.0002655 3513.37695 3740.58105
3741.0 0.0002673 3511.52588 3717.25610
3718.0 0.0002690 3509.65967 3697.40942
3695.0 0.0002706 3507.77930 3680.22729
3672.0 0.0002723 3505.88354 3665.14795
3653.0 0.0002737 3503.97510 3651.77026
3638.0 0.0002749 3502.05127 3639.79663
3628.0 0.0002756 3500.11353 3629.00195
3616.0 0.0002765 3498.16187 3619.20239
3604.0 0.0002775 3496.19580 3610.25269
3591.0 0.0002785 3494.21606 3602.03076
3583.0 0.0002791 3492.22095 3594.44043
3574.0 0.0002798 3490.21289 3587.39771
3570.0 0.0002801 3488.19043 3580.83228
3563.0 0.0002807 3486.15405 3574.68311
3558.0 0.0002811 3484.10352 3568.90088
3550.0 0.0002817 3482.03955 3563.56348
3542.0 0.0002823 3479.96118 3558.39282
3535.0 0.0002829 3477.86914 3553.47949
3531.0 0.0002832 3475.76367 3548.79102
3525.0 0.0002837 3473.64380 3544.30835
3520.0 0.0002841 3471.51123 3540.03931
3516.0 0.0002844 3469.36450 3535.90283
3511.0 0.0002848 3467.20459 3531.91553
3506.0 0.0002852 3465.03027 3528.06274
3500.0 0.0002857 3462.84277 3524.38257
3494.0 0.0002862 3460.64233 3520.76392
3490.0 0.0002865 3458.42773 3517.24707
3485.0 0.0002869 3456.20068 3513.82349
3478.0 0.0002875 3453.96021 3510.48608
3475.0 0.0002878 3451.70581 3507.22754
3470.0 0.0002882 3449.43872 3504.04175
3469.0 0.0002883 3447.15845 3500.92529
3466.0 0.0002885 3444.86572 3497.87305
3465.0 0.0002886 3442.55859 3494.87842
3464.0 0.0002887 3440.23877 3491.93970
3460.0 0.0002890 3437.90674 3489.05469
3454.0 0.0002895 3435.56152 3486.21924
3448.0 0.0002900 3433.20435 3483.43311
3445.0 0.0002903 3430.83252 3480.68994
3444.0 0.0002904 3428.44922 3477.99268
3442.0 0.0002905 3426.05273 3475.33740
3439.0 0.0002908 3423.64404 3472.72363
3435.0 0.0002911 3421.22314 3470.15088
3432.0 0.0002914 3418.78955 3467.61914
3428.0 0.0002917 3416.34351 3465.12622
3427.0 0.0002918 3413.88477 3462.67261
3427.0 0.0002918 3411.41309 3460.25879
3425.0 0.0002920 3408.93066 3457.86255
3422.0 0.0002922 3406.43530 3455.53101
3417.0 0.0002927 3403.92773 3453.24072
3414.0 0.0002929 3401.40771 3450.98730
3411.0 0.0002932 3398.87646 3448.78564
3408.0 0.0002934 3396.33276 3446.62988
3406.0 0.0002936 3393.77710 3444.52148
3407.0 0.0002935 3391.21021 3442.46582
3408.0 0.0002934 3388.63062 3440.46265
3407.0 0.0002935 3386.03979 3438.51562
3406.0 0.0002936 3383.43823 3436.63110
3404.0 0.0002938 3380.82422 3434.81323
3403.0 0.0002939 3378.19824 3433.06250
3401.0 0.0002940 3375.56128 3431.38257
3401.0 0.0002940 3372.91284 3429.78296
3402.0 0.0002939 3370.25366 3428.33252
3402.0 0.0002939 3367.58252 3426.91260
3401.0 0.0002940 3364.90015 3425.59302
3403.0 0.0002939 3362.20728 3424.38599
3403.0 0.0002939 3359.50293 3423.29663
3405.0 0.0002937 3356.78784 3422.34204
3405.0 0.0002937 3354.06128 3421.53003
3406.0 0.0002936 3351.32397 3420.88013
3406.0 0.0002936 3348.57593 3420.40552
3406.0 0.0002936 3345.81763 3420.12646
3404.0 0.0002938 3343.04810 3420.06323
3403.0 0.0002939 3340.26855 3420.24341
3403.0 0.0002939 3337.47803 3420.69312
3404.0 0.0002938 3334.67700 3421.44458
3411.0 0.0002932 3331.86621 3422.53491
3415.0 0.0002928 3329.04443 3424.00879
3422.0 0.0002922 3326.21265 3425.91602
3429.0 0.0002916 3323.37036 3428.31519
3437.0 0.0002910 3320.51855 3431.27710
3441.0 0.0002906 3317.65649 3434.87964
3448.0 0.0002900 3314.78418 3439.22192
3454.0 0.0002895 3311.90210 3444.41821
3468.0 0.0002884 3309.01074 3450.60840
3480.0 0.0002874 3306.10864 3457.96069
3494.0 0.0002862 3303.19824 3466.68213
3506.0 0.0002852 3300.27759 3477.04077
3521.0 0.0002840 3297.34741 3489.38306
3538.0 0.0002826 3294.40674 3504.17383
3561.0 0.0002808 3291.45752 3522.06689
3584.0 0.0002790 3288.49927 3543.98950
3616.0 0.0002765 3285.53247 3571.29297
3655.0 0.0002736 3282.55542 3605.92896
3702.0 0.0002701 3279.56860 3650.64990
3766.0 0.0002655 3276.57349 3709.38184
3840.0 0.0002604 3273.56982 3786.71631
3934.0 0.0002542 3270.55786 3888.85474
4058.0 0.0002464 3267.53589 4022.70044
4215.0 0.0002372 3264.50537 4195.35205
4420.0 0.0002262 3261.46655 4413.15430
4676.0 0.0002139 3258.41919 4680.03418
4969.0 0.0002012 3255.36401 4995.65283
5296.0 0.0001888 3252.30005 5352.00098
5615.0 0.0001781 3249.22705 5728.57910
5878.0 0.0001701 3246.14551 6087.20410
6053.0 0.0001652 3243.05664 6370.72900
6097.0 0.0001640 3239.96021 6515.37793
6006.0 0.0001665 3236.85425 6479.85596
5798.0 0.0001725 3233.74023 6272.40576
5521.0 0.0001811 3230.62012 5946.08350
5213.0 0.0001918 3227.49121 5566.88037
4903.0 0.0002040 3224.35547 5186.92480
4632.0 0.0002159 3221.21118 4837.58154
4390.0 0.0002278 3218.05884 4533.83984
4193.0 0.0002385 3214.89966 4280.12500
4035.0 0.0002478 3211.73389 4074.69482
3907.0 0.0002560 3208.56006 3912.30957
3805.0 0.0002628 3205.37891 3786.13354
3723.0 0.0002686 3202.19019 3689.03320
3652.0 0.0002738 3198.99536 3614.36108
3595.0 0.0002782 3195.79224 3556.47363
3547.0 0.0002819 3192.58350 3510.88184
3507.0 0.0002851 3189.36743 3474.22314
3470.0 0.0002882 3186.14404 3444.09009
3438.0 0.0002909 3182.91528 3418.80371
3407.0 0.0002935 3179.67871 3397.20728
3383.0 0.0002956 3176.43652 3378.50391
3361.0 0.0002975 3173.18750 3362.13306
3341.0 0.0002993 3169.93164 3347.69678
3322.0 0.0003010 3166.66943 3334.90063
3306.0 0.0003025 3163.40186 3323.55933
3293.0 0.0003037 3160.12817 3313.41479
3281.0 0.0003048 3156.84814 3304.37036
3271.0 0.0003057 3153.56201 3296.31909
3261.0 0.0003067 3150.26929 3289.18311
3254.0 0.0003073 3146.97192 3282.90161
3244.0 0.0003083 3143.66919 3277.43188
3236.0 0.0003090 3140.35962 3272.75342
3227.0 0.0003099 3137.04443 3268.85913
3222.0 0.0003104 3133.72412 3265.76489
3218.0 0.0003108 3130.39917 3263.50513
3217.0 0.0003108 3127.06885 3262.13428
3214.0 0.0003111 3123.73193 3261.74390
3215.0 0.0003110 3120.39087 3262.46265
3215.0 0.0003110 3117.04419 3264.48267
3217.0 0.0003108 3113.69336 3268.08496
3220.0 0.0003106 3110.33716 3273.68384
3223.0 0.0003103 3106.97607 3281.89307
3232.0 0.0003094 3103.61011 3293.58911
3244.0 0.0003083 3100.23950 3310.00122
3263.0 0.0003065 3096.86401 3332.77539
3284.0 0.0003045 3093.48535 3364.01538
3314.0 0.0003018 3090.10083 3406.22656
3356.0 0.0002980 3086.71240 3462.15845
3420.0 0.0002924 3083.31982 3534.51709
3507.0 0.0002851 3079.92334 3625.51147
3613.0 0.0002768 3076.52271 3736.25781
3742.0 0.0002672 3073.11768 3865.84570
3884.0 0.0002575 3069.70801 4009.80420
4019.0 0.0002488 3066.29541 4158.01123
4132.0 0.0002420 3062.87939 4292.52832
4193.0 0.0002385 3059.45947 4388.54736
4198.0 0.0002382 3056.03491 4422.13086
4144.0 0.0002413 3052.60791 4383.15479
4049.0 0.0002470 3049.17700 4281.85059
3924.0 0.0002548 3045.74365 4141.74609
3791.0 0.0002638 3042.30640 3987.17358
3667.0 0.0002727 3038.86523 3835.95288
3558.0 0.0002811 3035.42139 3698.48584
3470.0 0.0002882 3031.97437 3579.51709
3400.0 0.0002941 3028.52466 3480.20264
3340.0 0.0002994 3025.07202 3399.53638
3290.0 0.0003040 3021.61597 3335.34644
3248.0 0.0003079 3018.15820 3284.96875
3213.0 0.0003112 3014.69751 3245.65601
3184.0 0.0003141 3011.23413 3214.89819
3160.0 0.0003165 3007.76904 3190.57202
3141.0 0.0003184 3004.30005 3171.00366
3124.0 0.0003201 3000.82910 3154.94409
3109.0 0.0003216 2997.35620 3141.49072
3097.0 0.0003229 2993.88062 3130.01782
3087.0 0.0003239 2990.40381 3120.09009
3078.0 0.0003249 2986.92407 3111.40967
3069.0 0.0003258 2983.44360 3103.77515
3060.0 0.0003268 2979.95996 3097.03784
3051.0 0.0003278 2976.47607 3091.10205
3044.0 0.0003285 2972.98975 3085.89038
3037.0 0.0003293 2969.50146 3081.35376
3032.0 0.0003298 2966.01172 3077.46167
3026.0 0.0003305 2962.52026 3074.19678
3021.0 0.0003310 2959.02856 3071.56104
3018.0 0.0003313 2955.53491 3069.56348
3016.0 0.0003316 2952.03931 3068.23193
3013.0 0.0003319 2948.54395 3067.61206
3008.0 0.0003324 2945.04590 3067.75928
3008.0 0.0003324 2941.54761 3068.76001
3011.0 0.0003321 2938.04956 3070.73340
3014.0 0.0003318 2934.54956 3073.80933
3016.0 0.0003316 2931.04907 3078.19580
3019.0 0.0003312 2927.54614 3084.17261
3024.0 0.0003307 2924.04517 3092.13647
3031.0 0.0003299 2920.54297 3102.52905
3038.0 0.0003292 2917.03979 3116.44238
3049.0 0.0003280 2913.53638 3134.92383
3067.0 0.0003261 2910.03223 3159.60571
3087.0 0.0003239 2906.52856 3192.67847
3115.0 0.0003210 2903.02490 3236.90527
3153.0 0.0003172 2899.52100 3295.61523
3208.0 0.0003117 2896.01660 3372.46118
3284.0 0.0003045 2892.51221 3471.08447
3390.0 0.0002950 2889.00903 3594.53613
3526.0 0.0002836 2885.50586 3744.54346
3707.0 0.0002698 2882.00220 3920.34131
3906.0 0.0002560 2878.49878 4116.80566
4112.0 0.0002432 2874.99609 4321.77881
4286.0 0.0002333 2871.49463 4512.97803
4398.0 0.0002274 2867.99365 4657.98730
4423.0 0.0002261 2864.49365 4722.57617
4360.0 0.0002294 2860.99194 4687.83447
4231.0 0.0002364 2857.49268 4562.61768
4055.0 0.0002466 2853.99561 4377.51318
3870.0 0.0002584 2850.49927 4167.22949
3695.0 0.0002706 2847.00171 3958.21826
3538.0 0.0002826 2843.50659 3766.22021
3410.0 0.0002933 2840.01196 3598.66382
3307.0 0.0003024 2836.52002 3457.74829
3225.0 0.0003101 2833.02954 3342.52515
3162.0 0.0003163 2829.53882 3250.31909
3108.0 0.0003218 2826.05005 3177.64771
3063.0 0.0003265 2822.56274 3120.80396
3026.0 0.0003305 2819.07739 3076.31177
2996.0 0.0003338 2815.59497 3041.16406
2971.0 0.0003366 2812.11182 3012.93945
2951.0 0.0003389 2808.63184 2989.80542
2935.0 0.0003407 2805.15332 2970.41406
2917.0 0.0003428 2801.67773 2953.81128
2902.0 0.0003446 2798.20288 2939.32568
2888.0 0.0003463 2794.73120 2926.52734
2876.0 0.0003477 2791.26099 2915.02148
2864.0 0.0003492 2787.79272 2904.60522
2854.0 0.0003504 2784.32812 2895.10132
2848.0 0.000351 2780.86499 2886.36938
2844.0 0.000352 2777.40381 2878.30078
2837.0 0.000352 2773.94531 2870.80933
2828.0 0.000354 2770.48999 2863.82324
2820.0 0.000355 2767.03735 2857.28320
2815.0 0.000355 2763.58716 2851.13940
2809.0 0.000356 2760.13965 2845.35156
2805.0 0.000357 2756.69458 2839.88892
2800.0 0.000357 2753.25244 2834.72559
2798.0 0.000357 2749.81396 2829.84253
2794.0 0.000358 2746.37842 2825.22852
2790.0 0.000358 2742.94556 2820.87939
2787.0 0.000359 2739.51562 2816.79907
2784.0 0.000359 2736.08960 2812.99780
2782.0 0.000359 2732.66650 2809.49268
2780.0 0.000360 2729.24780 2806.30859
2778.0 0.000360 2725.83105 2803.46997
2774.0 0.000360 2722.41797 2800.99609
2774.0 0.000360 2719.00854 2798.90112
2774.0 0.000360 2715.60229 2797.17627
2776.0 0.000360 2712.20142 2795.78125
2774.0 0.000360 2708.80249 2794.61060
2776.0 0.000360 2705.40771 2793.48242
2776.0 0.000360 2702.01660 2792.11475
2778.0 0.000360 2698.63037 2790.19580
2774.0 0.000360 2695.24805 2787.56372
2773.0 0.000361 2691.86890 2784.16553
2770.0 0.000361 2688.49341 2780.29541
2766.0 0.000362 2685.12329 2776.27686
2761.0 0.000362 2681.75684 2772.37012
2757.0 0.000363 2678.39526 2768.75098
2757.0 0.000363 2675.03711 2765.48950
2755.0 0.000363 2671.68335 2762.63281
2753.0 0.000363 2668.33447 2760.20190
2753.0 0.000363 2664.98975 2758.15796
2758.0 0.000363 2661.64990 2756.49512
2760.0 0.000362 2658.31494 2755.19678
2762.0 0.000362 2654.98389 2754.24146
2761.0 0.000362 2651.65747 2753.62158
2762.0 0.000362 2648.33643 2753.33203
2763.0 0.000362 2645.02002 2753.37622
2767.0 0.000361 2641.70776 2753.76562
2772.0 0.000361 2638.40161 2754.51904
2775.0 0.000360 2635.10034 2755.65991
2777.0 0.000360 2631.80322 2757.21899
2781.0 0.000360 2628.51221 2759.23462
2785.0 0.000359 2625.22559 2761.59961
2792.0 0.000358 2621.94409 2764.66870
2800.0 0.000357 2618.66724 2768.34448
2807.0 0.000356 2615.39771 2772.70142
2816.0 0.000355 2612.13281 2777.81567
2822.0 0.000354 2608.87256 2783.78174
2829.0 0.000353 2605.61816 2790.70776
2839.0 0.000352 2602.36841 2798.71948
2847.0 0.000351 2599.12500 2807.96265
2862.0 0.0003494 2595.88794 2818.61572
2877.0 0.0003476 2592.65552 2830.94336
2893.0 0.0003457 2589.42871 2845.08545
2911.0 0.0003435 2586.20898 2861.39795
2929.0 0.0003414 2582.99390 2880.27734
2955.0 0.0003384 2579.78491 2902.15894
2982.0 0.0003353 2576.58130 2927.66138
3015.0 0.0003317 2573.38428 2957.60352
3050.0 0.0003279 2570.19287 2993.09473
3093.0 0.0003233 2567.00781 3035.70044
3140.0 0.0003185 2563.82935 3087.57983
3196.0 0.0003129 2560.65625 3151.85376
3265.0 0.0003063 2557.48853 3232.80933
3348.0 0.0002987 2554.32812 3336.24780
3453.0 0.0002896 2551.17383 3469.63184
3585.0 0.0002789 2548.02661 3642.23535
3753.0 0.0002665 2544.88452 3864.79297
3983.0 0.0002511 2541.74927 4148.70312
4280.0 0.0002336 2538.62012 4504.84619
4667.0 0.0002143 2535.49829 4941.66162
5177.0 0.0001932 2532.38232 5462.82959
5765.0 0.0001735 2529.27319 6063.58105
6439.0 0.0001553 2526.17065 6724.84961
7101.0 0.0001408 2523.07373 7404.97217
7639.0 0.0001309 2519.98511 8030.56738
7973.0 0.0001254 2516.90259 8498.29199
8037.0 0.0001244 2513.82715 8702.66797
7824.0 0.0001278 2510.75830 8588.22559
7384.0 0.0001354 2507.69556 8184.78027
6829.0 0.0001464 2504.64014 7587.86377
6224.0 0.0001607 2501.59302 6906.28613
5644.0 0.0001772 2498.55078 6224.53516
5140.0 0.0001946 2495.51660 5594.29150
4710.0 0.0002123 2492.48804 5040.91455
4358.0 0.0002295 2489.46851 4572.73047
4085.0 0.0002448 2486.45630 4187.79150
3858.0 0.0002592 2483.44897 3878.38501
3675.0 0.0002721 2480.44995 3633.90088
3526.0 0.0002836 2477.45874 3442.80273
3402.0 0.0002939 2474.47437 3294.00830
3301.0 0.0003029 2471.49805 3177.70825
3212.0 0.0003113 2468.52759 3085.83447
3136.0 0.0003189 2465.56519 3012.12134
3071.0 0.0003256 2462.60962 2951.87036
3017.0 0.0003315 2459.66235 2901.69824
2968.0 0.0003369 2456.72266 2859.19043
2927.0 0.0003416 2453.79028 2822.67407
2889.0 0.0003461 2450.86401 2790.91943
2854.0 0.0003504 2447.94604 2763.09033
2824.0 0.000354 2445.03662 2738.56055
2798.0 0.000357 2442.13501 2716.84668
2776.0 0.000360 2439.23999 2697.58691
2756.0 0.000363 2436.35229 2680.50635
2738.0 0.000365 2433.47266 2665.40796
2723.0 0.000367 2430.60156 2652.15039
2710.0 0.000369 2427.73730 2640.67163
2696.0 0.000371 2424.88135 2630.97729
2684.0 0.000373 2422.03296 2623.16626
2673.0 0.000374 2419.19189 2617.44141
2663.0 0.000376 2416.36035 2614.10571
2655.0 0.000377 2413.53564 2613.57495
2650.0 0.000377 2410.71875 2616.36011
2650.0 0.000377 2407.90918 2623.02856
2656.0 0.000377 2405.10840 2634.13770
2667.0 0.000375 2402.31592 2650.14282
2684.0 0.000373 2399.53198 2671.37354
2708.0 0.000369 2396.75464 2697.42236
2737.0 0.000365 2393.98535 2727.45435
2770.0 0.000361 2391.22388 2759.33789
2798.0 0.000357 2388.47217 2789.25537
2809.0 0.000356 2385.72778 2811.62280
2808.0 0.000356 2382.99170 2820.42334
2795.0 0.000358 2380.26343 2811.89307
2771.0 0.000361 2377.54370 2786.38892
2735.0 0.000366 2374.83252 2749.64575
2694.0 0.000371 2372.12891 2707.30151
2657.0 0.000376 2369.43384 2664.35327
2623.0 0.000381 2366.74634 2623.98047
2598.0 0.000385 2364.06836 2587.81519
2576.0 0.000388 2361.39868 2556.46411
2558.0 0.000391 2358.73608 2529.90771
2539.0 0.000394 2356.08301 2507.77539
2524.0 0.000396 2353.43799 2489.50879
2512.0 0.000398 2350.80151 2474.47729
2502.0 0.000400 2348.17310 2462.05737
2495.0 0.000401 2345.55371 2451.68994
2487.0 0.000402 2342.94214 2442.90088
2479.0 0.000403 2340.33936 2435.32031
2471.0 0.000405 2337.74512 2428.66260
2462.0 0.000406 2335.15869 2422.72314
2458.0 0.000407 2332.58203 2417.35645
2452.0 0.000408 2330.01294 2412.45703
2447.0 0.000409 2327.45264 2407.97021
2442.0 0.000410 2324.90039 2403.81494
2439.0 0.000410 2322.35791 2399.97607
2438.0 0.000410 2319.82324 2396.42554
2437.0 0.000410 2317.29810 2393.14819
2437.0 0.000410 2314.78003 2390.13599
2435.0 0.000411 2312.27100 2387.38721
2430.0 0.000412 2309.77124 2384.90283
2425.0 0.000412 2307.27979 2382.69165
2422.0 0.000413 2304.79688 2380.76489
2421.0 0.000413 2302.32275 2379.14526
2420.0 0.000413 2299.85718 2377.85815
2420.0 0.000413 2297.40063 2376.94482
2420.0 0.000413 2294.95337 2376.46313
2420.0 0.000413 2292.51318 2376.48755
2423.0 0.000413 2290.08301 2377.12695
2426.0 0.000412 2287.66138 2378.53882
2432.0 0.000411 2285.24805 2380.94214
2434.0 0.000411 2282.84448 2384.64331
2434.0 0.000411 2280.44824 2390.06104
2437.0 0.000410 2278.06079 2397.74609
2444.0 0.000409 2275.68262 2408.38965
2458.0 0.000407 2273.31323 2422.80322
2474.0 0.000404 2270.95312 2441.89600
2493.0 0.000401 2268.60132 2466.58667
2518.0 0.000397 2266.25830 2497.68774
2552.0 0.000392 2263.92358 2535.74390
2591.0 0.000386 2261.59863 2580.78467
2640.0 0.000379 2259.28198 2631.97192
2687.0 0.000372 2256.97388 2687.01831
2731.0 0.000366 2254.67529 2741.41357
2764.0 0.000362 2252.38477 2787.97485
2778.0 0.000360 2250.10400 2817.75513
2771.0 0.000361 2247.83130 2823.26001
2745.0 0.000364 2245.56763 2802.51147
2707.0 0.000369 2243.31250 2760.31885
2659.0 0.000376 2241.06641 2705.35254
2611.0 0.000383 2238.82910 2646.04907
2568.0 0.000389 2236.60107 2588.40576
2533.0 0.000395 2234.38135 2535.86035
2503.0 0.000400 2232.17065 2490.00171
2475.0 0.000404 2229.96802 2451.24854
2451.0 0.000408 2227.77515 2419.28613
2435.0 0.000411 2225.59058 2393.44263
2426.0 0.000412 2223.41528 2372.84644
2418.0 0.000414 2221.24878 2356.58594
2410.0 0.000415 2219.09106 2343.79614
2402.0 0.000416 2216.94165 2333.72412
2396.0 0.000417 2214.80225 2325.75244
2392.0 0.000418 2212.67065 2319.40356
2387.0 0.000419 2210.54761 2314.32788
2383.0 0.000420 2208.43286 2310.27954
2380.0 0.000420 2206.32910 2307.09106
2378.0 0.000421 2204.23242 2304.53125
2375.0 0.000421 2202.14551 2302.78369
2374.0 0.000421 2200.06665 2301.69995
2375.0 0.000421 2197.99658 2301.27954
2378.0 0.000421 2195.93530 2301.55396
2381.0 0.000420 2193.88330 2302.57886
2382.0 0.000420 2191.83960 2304.44995
2386.0 0.000419 2189.80444 2307.30859
2390.0 0.000418 2187.77783 2311.34692
2396.0 0.000417 2185.76123 2316.84009
2404.0 0.000416 2183.75293 2324.14844
2412.0 0.000415 2181.75293 2333.73779
2425.0 0.000412 2179.76172 2346.21021
2441.0 0.000410 2177.77881 2362.28833
2458.0 0.000407 2175.80566 2382.83789
2483.0 0.000403 2173.84082 2408.84546
2516.0 0.000397 2171.88477 2441.38452
2555.0 0.000391 2169.93628 2481.49585
2603.0 0.000384 2167.99707 2530.03320
2658.0 0.000376 2166.06738 2587.25610
2721.0 0.000368 2164.14551 2652.55859
2793.0 0.000358 2162.23242 2724.13525
2859.0 0.0003498 2160.32788 2799.30322
2927.0 0.0003416 2158.43164 2875.51514
2988.0 0.0003347 2156.54492 2951.06445
3039.0 0.0003291 2154.66626 3024.10547
3075.0 0.0003252 2152.79639 3090.13110
3091.0 0.0003235 2150.93457 3140.13867
3084.0 0.0003243 2149.08154 3162.19531
3053.0 0.0003275 2147.23682 3147.02051
2998.0 0.0003336 2145.40137 3094.08228
2930.0 0.0003413 2143.57446 3012.44580
2852.0 0.0003506 2141.75488 2915.74121
2779.0 0.000360 2139.94458 2816.28979
2708.0 0.000369 2138.14233 2722.44336
2645.0 0.000378 2136.34937 2638.70679
2596.0 0.000385 2134.56421 2566.91187
2555.0 0.000391 2132.78735 2507.27197
2526.0 0.000396 2131.01929 2459.04614
2504.0 0.000399 2129.25928 2421.00024
2485.0 0.000402 2127.50854 2391.67017
2471.0 0.000405 2125.76489 2369.58813
2461.0 0.000406 2124.03003 2353.40186
2467.0 0.000405 2122.30371 2341.96826
2470.0 0.000405 2120.58521 2334.37524
2473.0 0.000404 2118.87598 2329.94775
2469.0 0.000405 2117.17432 2328.23218
2464.0 0.000406 2115.48120 2328.92603
2466.0 0.000406 2113.79590 2331.92139
2456.0 0.000407 2112.11890 2337.26733
2453.0 0.000408 2110.45093 2345.08984
2450.0 0.000408 2108.79028 2355.74121
2453.0 0.000408 2107.13721 2369.73975
2463.0 0.000406 2105.49365 2387.86426
2477.0 0.000404 2103.85742 2411.19922
2498.0 0.000400 2102.22974 2441.24072
2528.0 0.000396 2100.61011 2479.94800
2563.0 0.000390 2098.99854 2529.77930
2611.0 0.000383 2097.39429 2593.68604
2675.0 0.000374 2095.79932 2675.01929
2757.0 0.000363 2094.21167 2777.35327
2875.0 0.0003478 2092.63184 2904.16821
3020.0 0.0003311 2091.05981 3058.30420
3202.0 0.0003123 2089.49585 3241.21362
3419.0 0.0002925 2087.94043 3451.67358
3650.0 0.0002740 2086.39258 3683.97925
3881.0 0.0002577 2084.85254 3925.55933
4092.0 0.0002444 2083.32056 4155.59033
4250.0 0.0002353 2081.79590 4347.84375
4353.0 0.0002297 2080.27905 4479.08252
4388.0 0.0002279 2078.76978 4538.28174
4353.0 0.0002297 2077.26953 4527.32275
4258.0 0.0002349 2075.77637 4452.93213
4116.0 0.0002430 2074.29102 4320.96143
3934.0 0.0002542 2072.81299 4139.06152
3730.0 0.0002681 2071.34277 3921.66162
3526.0 0.0002836 2069.88037 3688.77612
3332.0 0.0003001 2068.42529 3459.82788
3158.0 0.0003167 2066.97803 3248.62671
3013.0 0.0003319 2065.53784 3062.54590
2889.0 0.0003461 2064.10547 2903.89429
2787.0 0.000359 2062.68091 2771.91284
2706.0 0.000370 2061.26392 2664.19824
2637.0 0.000379 2059.85400 2577.55469
2582.0 0.000387 2058.45142 2508.59985
2536.0 0.000394 2057.05688 2454.06885
2501.0 0.000400 2055.66943 2411.05078
2473.0 0.000404 2054.28955 2377.09473
2451.0 0.000408 2052.91626 2350.20630
2432.0 0.000411 2051.55103 2328.84399
2416.0 0.000414 2050.19263 2311.84155
2398.0 0.000417 2048.84180 2298.35693
2385.0 0.000419 2047.49768 2287.80054
2377.0 0.000421 2046.16138 2279.77490
2373.0 0.000421 2044.83203 2274.02539
2368.0 0.000422 2043.50964 2270.41846
2363.0 0.000423 2042.19470 2268.92139
2360.0 0.000424 2040.88684 2269.59204
2361.0 0.000424 2039.58582 2272.60327
2367.0 0.000422 2038.29187 2278.24634
2374.0 0.000421 2037.00549 2286.97388
2385.0 0.000419 2035.72534 2299.43677
2399.0 0.000417 2034.45276 2316.52856
2418.0 0.000414 2033.18591 2339.43652
2443.0 0.000409 2031.92700 2369.67334
2475.0 0.000404 2030.67468 2409.10938
2517.0 0.000397 2029.42896 2459.94238
2576.0 0.000388 2028.19080 2524.59473
2649.0 0.000378 2026.95874 2605.49170
2741.0 0.000365 2025.73376 2704.75195
2853.0 0.0003505 2024.51526 2823.65356
2978.0 0.0003358 2023.30383 2961.91821
3126.0 0.0003199 2022.09839 3116.93848
3281.0 0.0003048 2020.89978 3283.43750
3435.0 0.0002911 2019.70813 3453.47266
3572.0 0.0002800 2018.52283 3616.28540
3671.0 0.0002724 2017.34412 3756.94360
3718.0 0.0002690 2016.17200 3855.72217
3709.0 0.0002696 2015.00598 3892.25610
3636.0 0.0002750 2013.84668 3854.73438
3511.0 0.0002848 2012.69421 3747.31934
3355.0 0.0002981 2011.54797 3588.63452
3191.0 0.0003134 2010.40686 3403.10181
3027.0 0.0003304 2009.27319 3212.33838
2882.0 0.0003470 2008.14587 3031.29224
2755.0 0.000363 2007.02466 2868.29053
2647.0 0.000378 2005.90918 2726.86255
2561.0 0.000390 2004.80005 2607.52832
2488.0 0.000402 2003.69763 2508.97803
2428.0 0.000412 2002.60095 2428.93433
2381.0 0.000420 2001.51025 2364.65771
2340.0 0.000427 2000.42529 2313.35498
2305.0 0.000434 1999.34680 2272.19287
2276.0 0.000439 1998.27441 2239.38159
2250.0 0.000444 1997.20813 2212.78369
2229.0 0.000449 1996.14758 2190.93359
2210.0 0.000452 1995.09277 2172.74048
2194.0 0.000456 1994.04370 2157.23511
2180.0 0.000459 1993.00085 2143.86401
2167.0 0.000461 1991.96460 2132.18872
2156.0 0.000464 1990.93262 2121.87109
2145.0 0.000466 1989.90747 2112.66699
2134.0 0.000469 1988.88623 2104.39941
2125.0 0.000471 1987.87195 2096.92969
2118.0 0.000472 1986.86401 2090.14429
2109.0 0.000474 1985.86047 2083.94800
2101.0 0.000476 1984.86292 2078.27417
2094.0 0.000478 1983.87122 2073.05078
2090.0 0.000478 1982.88428 2068.22705
2085.0 0.000480 1981.90308 2063.75708
2081.0 0.000481 1980.92834 2059.60669
2072.0 0.000483 1979.95752 2055.73682
2068.0 0.000484 1978.99268 2052.12036
2062.0 0.000485 1978.03320 2048.73364
2061.0 0.000485 1977.07922 2045.55542
2059.0 0.000486 1976.13025 2042.56360
2058.0 0.000486 1975.18640 2039.74341
2056.0 0.000486 1974.24756 2037.08008
2054.0 0.000487 1973.31372 2034.56091
2056.0 0.000486 1972.38574 2032.17603
2058.0 0.000486 1971.46301 2029.91309
2060.0 0.000485 1970.54468 2027.77283
2062.0 0.000485 1969.63135 2025.72986
2068.0 0.000484 1968.72314 2023.78625
2074.0 0.000482 1967.81995 2021.93726
2085.0 0.000480 1966.92249 2020.17749
2094.0 0.000478 1966.02844 2018.52258
2110.0 0.000474 1965.13989 2016.92517
2127.0 0.000470 1964.25659 2015.40356
2146.0 0.000466 1963.37769 2013.95581
2162.0 0.000463 1962.50305 2012.61121
2174.0 0.000460 1961.63440 2011.30432
2176.0 0.000460 1960.76880 2010.06335
2170.0 0.000461 1959.90918 2008.89148
2155.0 0.000464 1959.05371 2007.78528
2135.0 0.000468 1958.20264 2006.74963
2112.0 0.000473 1957.35632 2005.77771
2089.0 0.000479 1956.51453 2004.87561
2069.0 0.000483 1955.67700 2004.04431
2050.0 0.000488 1954.84351 2003.31396
2034.0 0.000492 1954.01538 2002.63928
2022.0 0.000495 1953.19067 2002.05200
2014.0 0.000497 1952.37097 2001.56323
2011.0 0.000497 1951.55505 2001.18506
2008.0 0.000498 1950.74353 2000.93921
2005.0 0.000499 1949.93665 2000.85364
2003.0 0.000499 1949.13428 2000.96423
2000.0 0.000500 1948.33459 2001.31738
1999.0 0.000500 1947.54016 2001.97717
1999.0 0.000500 1946.75000 2003.01306
2000.0 0.000500 1945.96350 2004.50854
2000.0 0.000500 1945.18115 2006.55042
2004.0 0.000499 1944.40222 2009.22253
2011.0 0.000497 1943.62781 2012.59595
2022.0 0.000495 1942.85681 2016.70837
2034.0 0.000492 1942.08984 2021.54517
2049.0 0.000488 1941.32727 2026.99963
2065.0 0.000484 1940.56799 2032.81421
2078.0 0.000481 1939.81238 2038.39758
2088.0 0.000479 1939.06067 2043.27246
2095.0 0.000477 1938.31262 2046.47058
2094.0 0.000478 1937.56897 2047.30640
2086.0 0.000479 1936.82825 2045.61450
2075.0 0.000482 1936.09070 2041.84509
2062.0 0.000485 1935.35693 2036.82275
2049.0 0.000488 1934.62756 2031.36877
2036.0 0.000491 1933.90112 2026.10303
2028.0 0.000493 1933.17798 2021.38879
2020.0 0.000495 1932.45850 2017.42444
2011.0 0.000497 1931.74219 2014.28076
2004.0 0.000499 1931.02942 2011.95886
1999.0 0.000500 1930.32007 2010.41809
1996.0 0.000501 1929.61401 2009.60059
1996.0 0.000501 1928.91101 2009.43579
1995.0 0.000501 1928.21106 2009.86157
1993.0 0.000502 1927.51440 2010.82690
1994.0 0.000502 1926.82117 2012.29224
1994.0 0.000502 1926.13110 2014.23877
1997.0 0.000501 1925.44299 2016.65881
1998.0 0.000501 1924.75940 2019.56934
1999.0 0.000500 1924.07800 2023.00061
2002.0 0.000500 1923.39990 2027.00024
2005.0 0.000499 1922.72559 2031.63684
2008.0 0.000498 1922.05273 2036.99756
2014.0 0.000497 1921.38330 2043.20398
2019.0 0.000495 1920.71704 2050.41455
2029.0 0.000493 1920.05322 2058.84424
2040.0 0.000490 1919.39172 2068.77881
2051.0 0.000488 1918.73389 2080.59912
2062.0 0.000485 1918.07849 2094.82275
2073.0 0.000482 1917.42554 2112.13696
2085.0 0.000480 1916.77539 2133.44165
2104.0 0.000475 1916.12781 2159.86572
2128.0 0.000470 1915.48267 2192.80322
2158.0 0.000463 1914.84045 2233.90186
2194.0 0.000456 1914.20056 2285.00806
2243.0 0.000446 1913.56323 2348.07739
2305.0 0.000434 1912.92810 2424.94995
2382.0 0.000420 1912.29578 2517.05029
2469.0 0.000405 1911.66553 2624.90796
2587.0 0.000387 1911.03748 2747.59326
2716.0 0.000368 1910.41211 2882.06348
2863.0 0.0003493 1909.78870 3022.70435
3013.0 0.0003319 1909.16748 3161.39087
3145.0 0.0003180 1908.54907 3287.46411
3248.0 0.0003079 1907.93250 3387.51562
3303.0 0.0003028 1907.31812 3446.07910
3301.0 0.0003029 1906.70581 3449.97998
3245.0 0.0003082 1906.09558 3395.36768
3147.0 0.0003178 1905.48718 3291.23901
3023.0 0.0003308 1904.88110 3155.43945
2886.0 0.0003465 1904.27710 3006.93896
2761.0 0.000362 1903.67480 2860.49854
2646.0 0.000378 1903.07495 2725.28223
2551.0 0.000392 1902.47656 2605.93384
2474.0 0.000404 1901.88000 2504.03784
2410.0 0.000415 1901.28540 2419.35693
2358.0 0.000424 1900.69275 2350.63159
2315.0 0.000432 1900.10132 2296.04443
2279.0 0.000439 1899.51257 2253.57104
2249.0 0.000445 1898.92505 2221.20898
2228.0 0.000449 1898.33911 2197.12964
2209.0 0.000453 1897.75476 2179.81104
2198.0 0.000455 1897.17224 2168.04370
2189.0 0.000457 1896.59131 2160.94995
2182.0 0.000458 1896.01208 2157.97681
2176.0 0.000460 1895.43396 2158.87451
2174.0 0.000460 1894.85754 2163.69507
2177.0 0.000459 1894.28235 2172.78882
2185.0 0.000458 1893.70935 2186.82178
2195.0 0.000456 1893.13721 2206.79492
2210.0 0.000452 1892.56641 2234.06152
2234.0 0.000448 1891.99719 2270.31177
2264.0 0.000442 1891.42932 2317.51807
2309.0 0.000433 1890.86230 2377.82739
2368.0 0.000422 1890.29688 2453.40967
2444.0 0.000409 1889.73291 2546.19800
2547.0 0.000393 1889.16943 2657.48730
2670.0 0.000375 1888.60803 2787.43677
2815.0 0.000355 1888.04736 2934.21313
2971.0 0.0003366 1887.48804 3092.76978
3118.0 0.0003207 1886.92957 3253.17236
3246.0 0.0003081 1886.37219 3399.33008
3332.0 0.0003001 1885.81543 3510.27905
3361.0 0.0002975 1885.26025 3565.90527
3332.0 0.0003001 1884.70581 3555.78247
3256.0 0.0003071 1884.15247 3484.44897
3146.0 0.0003179 1883.59985 3368.18164
3019.0 0.0003312 1883.04834 3226.40674
2895.0 0.0003454 1882.49768 3075.21265
2773.0 0.000361 1881.94751 2925.56128
2664.0 0.000375 1881.39856 2784.45581
2567.0 0.000390 1880.85071 2656.37598
2481.0 0.000403 1880.30249 2543.80615
2411.0 0.000415 1879.75598 2447.58057
2351.0 0.000425 1879.20959 2367.16187
2302.0 0.000434 1878.66455 2301.14355
2262.0 0.000442 1878.11963 2247.68091
2228.0 0.000449 1877.57556 2204.78882
2199.0 0.000455 1877.03235 2170.57642
2176.0 0.000460 1876.48950 2143.35327
2156.0 0.000464 1875.94641 2121.69678
2139.0 0.000468 1875.40515 2104.46436
2126.0 0.000470 1874.86328 2090.75488
2114.0 0.000473 1874.32239 2079.89160
2105.0 0.000475 1873.78223 2071.36890
2098.0 0.000477 1873.24182 2064.82837
2092.0 0.000478 1872.70215 2060.03223
2088.0 0.000479 1872.16272 2056.83569
2085.0 0.000480 1871.62390 2055.18384
2083.0 0.000480 1871.08582 2055.09790
2083.0 0.000480 1870.54712 2056.68750
2085.0 0.000480 1870.00940 2060.16724
2091.0 0.000478 1869.47144 2065.85571
2097.0 0.000477 1868.93408 2074.21216
2105.0 0.000475 1868.39661 2085.83594
2116.0 0.000473 1867.85901 2101.47607
2133.0 0.000469 1867.32202 2122.00610
2153.0 0.000464 1866.78528 2148.40112
2181.0 0.000459 1866.24866 2181.61914
2217.0 0.000451 1865.71204 2222.55591
2264.0 0.000442 1865.17468 2271.89453
2324.0 0.000430 1864.63831 2329.67700
2390.0 0.000418 1864.10168 2395.62012
2466.0 0.000406 1863.56519 2467.69312
2540.0 0.000394 1863.02795 2542.03223
2604.0 0.000384 1862.49158 2612.07983
2649.0 0.000378 1861.95483 2668.60962
2669.0 0.000375 1861.41772 2701.65210
2662.0 0.000376 1860.88086 2704.34570
2627.0 0.000381 1860.34351 2676.51025
2576.0 0.000388 1859.80615 2624.72729
2515.0 0.000398 1859.26831 2558.95361
2452.0 0.000408 1858.73071 2488.57178
2393.0 0.000418 1858.19287 2420.37769
2339.0 0.000428 1857.65503 2358.43066
2297.0 0.000435 1857.11633 2304.75220
2263.0 0.000442 1856.57739 2260.05933
2237.0 0.000447 1856.03845 2224.27808
2216.0 0.000451 1855.49915 2196.84985
2202.0 0.000454 1854.95947 2177.01172
2193.0 0.000456 1854.41895 2163.92017
2190.0 0.000457 1853.87866 2156.79517
2192.0 0.000456 1853.33740 2154.98120
2193.0 0.000456 1852.79614 2158.02515
2198.0 0.000455 1852.25439 2165.76465
2206.0 0.000453 1851.71216 2178.22754
2220.0 0.000450 1851.16931 2195.87891
2240.0 0.000446 1850.62598 2219.53687
2264.0 0.000442 1850.08215 2250.45093
2291.0 0.000436 1849.53809 2290.36353
2330.0 0.000429 1848.99304 2341.54224
2377.0 0.000421 1848.44714 2406.74829
2442.0 0.000410 1847.90137 2489.19019
2520.0 0.000397 1847.35425 2592.34033
2618.0 0.000382 1846.80713 2719.73706
2749.0 0.000364 1846.25879 2874.58936
2913.0 0.0003433 1845.71033 3059.18945
3120.0 0.0003205 1845.16077 3274.17017
3370.0 0.0002967 1844.61060 3517.20605
3635.0 0.0002751 1844.05969 3781.21509
3911.0 0.0002557 1843.50830 4051.80493
4148.0 0.0002411 1842.95605 4305.15234
4320.0 0.0002315 1842.40259 4509.38965
4409.0 0.0002268 1841.84900 4632.31934
4410.0 0.0002268 1841.29407 4654.47168
4326.0 0.0002312 1840.73853 4578.22803
4175.0 0.0002395 1840.18225 4424.70410
3991.0 0.0002506 1839.62524 4221.33594
3783.0 0.0002643 1839.06677 3991.39062
3575.0 0.0002797 1838.50793 3751.19995
3375.0 0.0002963 1837.94800 3512.70630
3182.0 0.0003143 1837.38708 3285.70630
3017.0 0.0003315 1836.82556 3077.82080
2869.0 0.0003486 1836.26282 2893.80396
2741.0 0.000365 1835.69922 2735.33789
2634.0 0.000380 1835.13440 2601.75635
2541.0 0.000394 1834.56921 2490.94141
2464.0 0.000406 1834.00220 2400.03101
2400.0 0.000417 1833.43457 2325.97192
2344.0 0.000427 1832.86572 2265.81250
2297.0 0.000435 1832.29626 2216.91016
2255.0 0.000443 1831.72522 2177.01807
2218.0 0.000451 1831.15344 2144.26514
2190.0 0.000457 1830.58057 2117.15649
2166.0 0.000462 1830.00684 2094.50708
2145.0 0.000466 1829.43176 2075.41382
2124.0 0.000471 1828.85510 2059.18384
2104.0 0.000475 1828.27759 2045.31116
2091.0 0.000478 1827.69922 2033.42493
2078.0 0.000481 1827.11975 2023.25220
2065.0 0.000484 1826.53857 2014.60803
2052.0 0.000487 1825.95618 2007.38501
2043.0 0.000489 1825.37317 2001.51648
2035.0 0.000491 1824.78882 1996.99878
2030.0 0.000493 1824.20312 1993.86292
2024.0 0.000494 1823.61572 1992.17554
2020.0 0.000495 1823.02795 1992.02380
2019.0 0.000495 1822.43835 1993.49841
2018.0 0.000496 1821.84741 1996.67065
2020.0 0.000495 1821.25574 2001.57214
2023.0 0.000494 1820.66248 2008.15210
2029.0 0.000493 1820.06763 2016.20874
2034.0 0.000492 1819.47205 2025.30225
2041.0 0.000490 1818.87488 2034.63586
2045.0 0.000489 1818.27649 2043.00122
2050.0 0.000488 1817.67639 2048.87866
2050.0 0.000488 1817.07507 2050.85669
2045.0 0.000489 1816.47266 2048.24243
2036.0 0.000491 1815.86865 2041.40576
2026.0 0.000494 1815.26355 2031.58752
2017.0 0.000496 1814.65698 2020.31213
2007.0 0.000498 1814.04883 2008.90747
1999.0 0.000500 1813.43933 1998.29053
1991.0 0.000502 1812.82837 1989.00623
1987.0 0.000503 1812.21594 1981.31982
1984.0 0.000504 1811.60242 1975.32214
1982.0 0.000505 1810.98730 1971.00574
1980.0 0.000505 1810.37073 1968.31006
1978.0 0.000506 1809.75256 1967.13440
1979.0 0.000505 1809.13354 1967.39880
1982.0 0.000505 1808.51221 1969.03870
1988.0 0.000503 1807.88977 1972.02783
1994.0 0.000502 1807.26611 1976.39441
2000.0 0.000500 1806.64087 1982.21094
2008.0 0.000498 1806.01404 1989.67432
2019.0 0.000495 1805.38538 1999.02344
2030.0 0.000493 1804.75562 2010.66345
2043.0 0.000489 1804.12439 2025.13843
2059.0 0.000486 1803.49146 2043.16382
2080.0 0.000481 1802.85693 2065.66064
2102.0 0.000476 1802.22119 2093.76025
2133.0 0.000469 1801.58398 2128.79175
2170.0 0.000461 1800.94470 2172.25732
2220.0 0.000450 1800.30444 2225.73584
2281.0 0.000438 1799.66223 2290.77051
2356.0 0.000424 1799.01868 2368.66187
2455.0 0.000407 1798.37317 2460.11353
2565.0 0.000390 1797.72632 2564.84937
2690.0 0.000372 1797.07812 2681.02515
2822.0 0.000354 1796.42810 2804.75684
2946.0 0.0003394 1795.77686 2929.69873
3055.0 0.0003273 1795.12390 3046.87744
3134.0 0.0003191 1794.46899 3144.85986
3170.0 0.0003155 1793.81323 3210.53467
3167.0 0.0003158 1793.15552 3231.99561
3122.0 0.0003203 1792.49609 3203.43262
3045.0 0.0003284 1791.83533 3128.88330
2941.0 0.0003400 1791.17200 3020.99805
2825.0 0.000354 1790.50830 2895.64575
2705.0 0.000370 1789.84229 2766.68115
2590.0 0.000386 1789.17493 2643.72144
2490.0 0.000402 1788.50574 2532.30591
2400.0 0.000417 1787.83521 2434.98413
2334.0 0.000428 1787.16321 2352.38867
2279.0 0.000439 1786.48950 2283.96631
2237.0 0.000447 1785.81409 2228.52734
2202.0 0.000454 1785.13647 2184.57397
2175.0 0.000460 1784.45776 2150.49512
2152.0 0.000465 1783.77747 2124.74487
2135.0 0.000468 1783.09570 2105.93433
2124.0 0.000471 1782.41187 2092.90503
2118.0 0.000472 1781.72668 2084.77124
2115.0 0.000473 1781.03992 2080.91113
2112.0 0.000473 1780.35107 2080.97974
2113.0 0.000473 1779.66138 2084.89941
2118.0 0.000472 1778.96948 2092.84766
2128.0 0.000470 1778.27588 2105.29102
2142.0 0.000467 1777.58093 2122.96924
2159.0 0.000463 1776.88464 2146.90381
2183.0 0.000458 1776.18640 2178.39404
2212.0 0.000452 1775.48608 2218.98535
2250.0 0.000444 1774.78455 2270.37329
2302.0 0.000434 1774.08105 2334.29614
2373.0 0.000421 1773.37622 2412.35742
2459.0 0.000407 1772.67053 2505.79858
2573.0 0.000389 1771.96179 2615.14868
2707.0 0.000369 1771.25208 2739.65259
2861.0 0.0003495 1770.54102 2876.50000
3024.0 0.0003307 1769.82800 3019.59619
3164.0 0.0003161 1769.11340 3158.40308
3279.0 0.0003050 1768.39685 3277.45093
3346.0 0.0002989 1767.67932 3358.51978
3353.0 0.0002982 1766.95947 3386.47339
3303.0 0.0003028 1766.23840 3356.18994
3210.0 0.0003115 1765.51562 3275.29321
3089.0 0.0003237 1764.79150 3160.17236
2954.0 0.0003385 1764.06555 3028.96899
2826.0 0.000354 1763.33777 2896.38306
2709.0 0.000369 1762.60864 2772.17017
2612.0 0.000383 1761.87793 2661.77100
2534.0 0.000395 1761.14514 2567.67505
2471.0 0.000405 1760.41150 2490.51758
2426.0 0.000412 1759.67603 2429.85840
2395.0 0.000418 1758.93835 2384.66675
2372.0 0.000422 1758.19971 2353.66162
2359.0 0.000424 1757.45923 2335.59082
2354.0 0.000425 1756.71729 2329.49658
2361.0 0.000424 1755.97388 2334.68066
2373.0 0.000421 1755.22876 2350.99585
2396.0 0.000417 1754.48193 2379.29248
2426.0 0.000412 1753.73364 2420.76465
2468.0 0.000405 1752.98352 2477.52271
2522.0 0.000397 1752.23193 2552.46362
2593.0 0.000386 1751.47937 2649.20776
2690.0 0.000372 1750.72449 2771.94702
2809.0 0.000356 1749.96875 2925.26489
2974.0 0.0003362 1749.21069 3113.65894
3178.0 0.0003147 1748.45178 3341.09106
3441.0 0.0002906 1747.69080 3610.16309
3771.0 0.0002652 1746.92871 3921.12817
4139.0 0.0002416 1746.16455 4270.08301
4544.0 0.0002201 1745.39941 4646.25732
4937.0 0.0002026 1744.63257 5028.93750
5261.0 0.0001901 1743.86401 5385.11768
5498.0 0.0001819 1743.09473 5671.93799
5603.0 0.0001785 1742.32300 5846.87646
5575.0 0.0001794 1741.54993 5883.95557
5426.0 0.0001843 1740.77576 5785.00684
5191.0 0.0001926 1740.00024 5575.86279
4888.0 0.0002046 1739.22266 5291.45068
4567.0 0.0002190 1738.44385 4963.20996
4252.0 0.0002352 1737.66321 4615.64746
3945.0 0.0002535 1736.88135 4268.07129
3677.0 0.0002720 1736.09827 3936.20679
3429.0 0.0002916 1735.31384 3631.61963
3216.0 0.0003109 1734.52771 3361.22021
3036.0 0.0003294 1733.74011 3127.63159
2879.0 0.0003473 1732.95093 2930.12964
2751.0 0.000364 1732.16064 2765.95654
2640.0 0.000379 1731.36902 2631.26709
2547.0 0.000393 1730.57556 2521.89697
2470.0 0.000405 1729.78125 2433.85767
2403.0 0.000416 1728.98462 2363.53174
2348.0 0.000426 1728.18750 2307.85645
2302.0 0.000434 1727.38867 2264.34375
2263.0 0.000442 1726.58862 2231.11816
2231.0 0.000448 1725.78711 2206.89404
2209.0 0.000453 1724.98413 2190.88062
2193.0 0.000456 1724.18030 2182.77612
2183.0 0.000458 1723.37439 2182.65527
2177.0 0.000459 1722.56750 2190.91528
2180.0 0.000459 1721.75879 2208.16089
2195.0 0.000456 1720.94946 2235.10815
2220.0 0.000450 1720.13843 2272.40674
2256.0 0.000443 1719.32629 2320.51001
2307.0 0.000433 1718.51270 2379.40649
2372.0 0.000422 1717.69775 2448.24756
2444.0 0.000409 1716.88184 2524.77686
2524.0 0.000396 1716.06445 2604.63599
2587.0 0.000387 1715.24622 2680.59106
2634.0 0.000380 1714.42578 2742.56152
2648.0 0.000378 1713.60498 2779.26709
2632.0 0.000380 1712.78259 2782.04077
2584.0 0.000387 1711.95911 2748.80957
2517.0 0.000397 1711.13403 2685.14209
2433.0 0.000411 1710.30811 2601.40234
2346.0 0.000426 1709.48071 2508.55811
2264.0 0.000442 1708.65271 2415.28027
2187.0 0.000457 1707.82288 2327.22974
2121.0 0.000471 1706.99219 2247.48560
2063.0 0.000485 1706.16028 2177.36572
2014.0 0.000497 1705.32727 2117.10254
1976.0 0.000506 1704.49280 2066.24512
1944.0 0.000514 1703.65747 2023.97473
1916.0 0.000522 1702.82092 1989.26770
1888.0 0.000530 1701.98328 1961.06177
1865.0 0.000536 1701.14478 1938.34814
1847.0 0.000541 1700.30493 1920.23596
1835.0 0.000545 1699.46399 1905.95984
1824.0 0.000548 1698.62219 1894.93872
1817.0 0.000550 1697.77869 1886.73621
1810.0 0.000552 1696.93494 1881.05713
1807.0 0.000553 1696.08948 1877.70508
1809.0 0.000553 1695.24365 1876.55676
1816.0 0.000551 1694.39624 1877.49976
1827.0 0.000547 1693.54810 1880.42212
1842.0 0.000543 1692.69861 1885.12720
1861.0 0.000537 1691.84827 1891.26428
1881.0 0.000532 1690.99719 1898.22400
1900.0 0.000526 1690.14502 1905.03467
1913.0 0.000523 1689.29138 1910.35754
1921.0 0.000521 1688.43762 1912.68335
1918.0 0.000521 1687.58252 1910.80737
1905.0 0.000525 1686.72632 1904.36572
1884.0 0.000531 1685.86951 1894.00195
1861.0 0.000537 1685.01196 1881.03467
1834.0 0.000545 1684.15295 1866.91980
1807.0 0.000553 1683.29297 1852.80078
1781.0 0.000561 1682.43286 1839.46863
1759.0 0.000569 1681.57141 1827.35217
1742.0 0.000574 1680.70935 1816.64465
1726.0 0.000579 1679.84631 1807.39087
1715.0 0.000583 1678.98242 1799.54077
1704.0 0.000587 1678.11743 1792.99463
1694.0 0.000590 1677.25171 1787.62671
1683.0 0.000594 1676.38550 1783.30847
1675.0 0.000597 1675.51807 1779.92175
1670.0 0.000599 1674.65002 1777.35669
1667.0 0.000600 1673.78125 1775.54126
1667.0 0.000600 1672.91248 1774.43640
1666.0 0.000600 1672.04211 1774.03186
1666.0 0.000600 1671.17114 1774.35840
1665.0 0.000601 1670.29932 1775.49011
1666.0 0.000600 1669.42688 1777.26257
1668.0 0.000600 1668.55396 1780.36865
1672.0 0.000598 1667.68030 1784.72974
1680.0 0.000595 1666.80603 1790.55188
1691.0 0.000591 1665.93030 1798.06287
1706.0 0.000586 1665.05481 1807.49341
1723.0 0.000580 1664.17847 1819.04871
1747.0 0.000572 1663.30151 1832.88428
1776.0 0.000563 1662.42371 1849.04370
1813.0 0.000552 1661.54529 1867.37988
1849.0 0.000541 1660.66650 1887.43945
1886.0 0.000530 1659.78748 1908.31177
1921.0 0.000521 1658.90723 1928.53076
1946.0 0.000514 1658.02698 1946.20972
1958.0 0.000511 1657.14563 1959.49817
1957.0 0.000511 1656.26428 1967.42322
1943.0 0.000515 1655.38220 1970.37158
1923.0 0.000520 1654.49939 1969.89746
1899.0 0.000527 1653.61597 1967.94019
1876.0 0.000533 1652.73254 1965.99170
1855.0 0.000539 1651.84851 1964.60718
1834.0 0.000545 1650.96399 1963.27808
1814.0 0.000551 1650.07861 1960.63232
1793.0 0.000558 1649.19336 1954.96655
1773.0 0.000564 1648.30750 1945.04309
1754.0 0.000570 1647.42151 1930.75537
1740.0 0.000575 1646.53455 1913.16394
1724.0 0.000580 1645.64746 1893.95825
1710.0 0.000585 1644.76001 1874.79260
1698.0 0.000589 1643.87231 1856.89172
1689.0 0.000592 1642.98401 1840.99939
1682.0 0.000595 1642.09546 1827.47949
1676.0 0.000597 1641.20654 1816.45032
1673.0 0.000598 1640.31738 1807.90051
1671.0 0.000598 1639.42810 1801.75549
1672.0 0.000598 1638.53833 1797.92676
1673.0 0.000598 1637.64807 1796.34839
1674.0 0.000597 1636.75793 1797.01074
1678.0 0.000596 1635.86755 1799.98181
1685.0 0.000593 1634.97644 1805.42847
1697.0 0.000589 1634.08557 1813.63464
1710.0 0.000585 1633.19482 1825.00769
1725.0 0.000580 1632.30286 1840.07776
1744.0 0.000573 1631.41125 1859.45837
1765.0 0.000567 1630.51941 1883.84497
1795.0 0.000557 1629.62756 1913.91516
1834.0 0.000545 1628.73547 1950.28784
1887.0 0.000530 1627.84314 1993.42480
1954.0 0.000512 1626.95056 2043.43848
2032.0 0.000492 1626.05835 2099.88843
2122.0 0.000471 1625.16541 2161.40796
2208.0 0.000453 1624.27283 2225.25415
2293.0 0.000436 1623.38025 2286.79590
2362.0 0.000423 1622.48730 2339.39575
2405.0 0.000416 1621.59424 2375.41162
2417.0 0.000414 1620.70154 2388.49976
2399.0 0.000417 1619.80847 2376.37329
2355.0 0.000425 1618.91565 2341.93848
2295.0 0.000436 1618.02209 2291.88794
2226.0 0.000449 1617.12927 2233.91846
2154.0 0.000464 1616.23608 2174.54297
2088.0 0.000479 1615.34314 2118.26196
2031.0 0.000492 1614.45032 2067.74707
1984.0 0.000504 1613.55750 2024.38257
1948.0 0.000513 1612.66455 1988.70813
1921.0 0.000521 1611.77185 1960.79419
1898.0 0.000527 1610.87939 1940.45752
1885.0 0.000531 1609.98669 1927.44507
1877.0 0.000533 1609.09436 1921.54675
1877.0 0.000533 1608.20178 1922.67517
1884.0 0.000531 1607.30981 1930.92822
1895.0 0.000528 1606.41772 1946.61292
1914.0 0.000522 1605.52600 1970.24805
1942.0 0.000515 1604.63428 2002.51562
1985.0 0.000504 1603.74255 2044.19604
2044.0 0.000489 1602.85144 2096.05151
2121.0 0.000471 1601.96057 2158.69824
2219.0 0.000451 1601.06946 2232.37891
2341.0 0.000427 1600.17883 2316.58252
2477.0 0.000404 1599.28833 2409.56934
2621.0 0.000382 1598.39856 2507.67065
2763.0 0.000362 1597.50903 2604.73218
2875.0 0.0003478 1596.61914 2692.06372
2961.0 0.0003377 1595.72986 2760.05371
3004.0 0.0003329 1594.84070 2801.28149
3006.0 0.0003327 1593.95215 2813.69531
2974.0 0.0003362 1593.06372 2801.24780
2917.0 0.0003428 1592.17639 2771.31958
2845.0 0.000351 1591.28845 2731.07715
2763.0 0.000362 1590.40100 2685.18530
2675.0 0.000374 1589.51453 2635.52783
2582.0 0.000387 1588.62817 2582.05908
2494.0 0.000401 1587.74207 2523.89966
2408.0 0.000415 1586.85620 2460.46240
2325.0 0.000430 1585.97070 2392.38623
2246.0 0.000445 1585.08594 2321.89014
2171.0 0.000461 1584.20190 2252.17456
2110.0 0.000474 1583.31799 2186.42041
2058.0 0.000486 1582.43445 2127.00513
2012.0 0.000497 1581.55139 2075.39038
1972.0 0.000507 1580.66919 2032.14465
1940.0 0.000515 1579.78723 1997.32581
1915.0 0.000522 1578.90576 1970.74194
1897.0 0.000527 1578.02490 1952.13660
1885.0 0.000531 1577.14441 1941.29175
1882.0 0.000531 1576.26465 1938.10400
1886.0 0.000530 1575.38550 1942.59155
1895.0 0.000528 1574.50708 1954.93640
1910.0 0.000524 1573.62891 1975.44189
1932.0 0.000518 1572.75110 2004.48364
1968.0 0.000508 1571.87415 2042.44373
2019.0 0.000495 1570.99829 2089.53687
2081.0 0.000481 1570.12244 2145.67456
2153.0 0.000464 1569.24731 2210.07666
2232.0 0.000448 1568.37292 2280.87744
2313.0 0.000432 1567.49927 2354.73291
2396.0 0.000417 1566.62634 2426.81250
2473.0 0.000404 1565.75366 2491.53394
2539.0 0.000394 1564.88232 2544.17847
2594.0 0.000386 1564.01111 2582.48975
2635.0 0.000380 1563.14075 2606.79688
2663.0 0.000376 1562.27173 2618.48755
2675.0 0.000374 1561.40295 2618.19458
2667.0 0.000375 1560.53491 2605.35889
2639.0 0.000379 1559.66760 2579.25269
2596.0 0.000385 1558.80103 2540.16382
2536.0 0.000394 1557.93530 2489.53979
2467.0 0.000405 1557.07056 2429.40576
2391.0 0.000418 1556.20605 2362.05688
2308.0 0.000433 1555.34265 2290.22217
2231.0 0.000448 1554.48010 2217.15747
2157.0 0.000464 1553.61865 2146.14893
2092.0 0.000478 1552.75781 2079.89111
2034.0 0.000492 1551.89746 2020.13940
1983.0 0.000504 1551.03870 1967.69678
1939.0 0.000516 1550.18005 1922.65295
1904.0 0.000525 1549.32300 1884.63831
1875.0 0.000533 1548.46631 1853.04834
1853.0 0.000540 1547.61084 1827.19446
1832.0 0.000546 1546.75574 1806.37292
1815.0 0.000551 1545.90247 1789.94312
1802.0 0.000555 1545.04919 1777.33850
1792.0 0.000558 1544.19727 1768.11951
1785.0 0.000560 1543.34631 1761.96582
1782.0 0.000561 1542.49622 1758.69531
1781.0 0.000561 1541.64746 1758.25598
1784.0 0.000561 1540.79919 1760.71729
1792.0 0.000558 1539.95178 1766.26465
1807.0 0.000553 1539.10547 1775.16907
1825.0 0.000548 1538.26074 1787.76562
1845.0 0.000542 1537.41663 1804.39966
1868.0 0.000535 1536.57361 1825.39404
1895.0 0.000528 1535.73145 1850.97681
1925.0 0.000519 1534.89038 1881.16846
1958.0 0.000511 1534.05017 1915.66235
1992.0 0.000502 1533.21143 1953.59021
2026.0 0.000494 1532.37341 1993.25366
2055.0 0.000487 1531.53687 2031.82629
2074.0 0.000482 1530.70105 2065.27295
2082.0 0.000480 1529.86621 2088.91089
2080.0 0.000481 1529.03308 2098.74438
2066.0 0.000484 1528.20032 2093.10864
2041.0 0.000490 1527.36951 2073.47217
2008.0 0.000498 1526.53894 2043.74829
1973.0 0.000507 1525.71021 2008.69775
1939.0 0.000516 1524.88245 1972.49683
1910.0 0.000524 1524.05566 1938.17175
1883.0 0.000531 1523.22998 1907.62817
1862.0 0.000537 1522.40576 1881.88806
1850.0 0.000541 1521.58191 1861.48474
1840.0 0.000543 1520.76025 1846.63330
1837.0 0.000544 1519.93945 1837.40784
1835.0 0.000545 1519.11963 1833.86230
1839.0 0.000544 1518.30127 1836.12646
1849.0 0.000541 1517.48389 1844.46167
1863.0 0.000537 1516.66785 1859.31250
1880.0 0.000532 1515.85291 1881.34375
1903.0 0.000525 1515.03931 1911.43140
1933.0 0.000517 1514.22693 1950.62854
1970.0 0.000508 1513.41577 2000.11560
2017.0 0.000496 1512.60620 2061.07935
2080.0 0.000481 1511.79749 2134.60400
2166.0 0.000462 1510.99072 2221.45044
2265.0 0.000442 1510.18433 2321.72925
2385.0 0.000419 1509.37988 2434.48145
2519.0 0.000397 1508.57629 2556.98828
2650.0 0.000377 1507.77454 2683.90991
2774.0 0.000360 1506.97339 2806.53149
2871.0 0.0003483 1506.17432 2912.72559
2939.0 0.0003403 1505.37585 2988.89209
2969.0 0.0003368 1504.57898 3023.95972
2962.0 0.0003376 1503.78357 3013.63232
2917.0 0.0003428 1502.98975 2961.80005
2850.0 0.000351 1502.19666 2878.11475
2761.0 0.000362 1501.40527 2773.94702
2661.0 0.000376 1500.61548 2659.57397
2560.0 0.000391 1499.82666 2543.23364
2463.0 0.000406 1499.03943 2431.18799
2378.0 0.000421 1498.25330 2327.89355
2302.0 0.000434 1497.46863 2236.08789
2233.0 0.000448 1496.68530 2157.09375
2179.0 0.000459 1495.90393 2091.15210
2136.0 0.000468 1495.12329 2037.83740
2103.0 0.000476 1494.34460 1996.38391
2079.0 0.000481 1493.56702 1965.89111
2067.0 0.000484 1492.79077 1945.51355
2063.0 0.000485 1492.01599 1934.55261
2062.0 0.000485 1491.24292 1932.54309
2069.0 0.000483 1490.47156 1939.28784
2088.0 0.000479 1489.70068 1954.81128
2124.0 0.000471 1488.93213 1979.38220
2169.0 0.000461 1488.16455 2013.41101
2228.0 0.000449 1487.39893 2057.30444
2296.0 0.000436 1486.63440 2111.33398
2379.0 0.000420 1485.87085 2175.40503
2475.0 0.000404 1485.10962 2248.85864
2575.0 0.000388 1484.34985 2330.42310
2684.0 0.000373 1483.59131 2418.24023
2795.0 0.000358 1482.83411 2509.88159
2902.0 0.0003446 1482.07849 2602.10303
2999.0 0.0003334 1481.32495 2690.19238
3073.0 0.0003254 1480.57190 2767.66406
3117.0 0.0003208 1479.82104 2826.71118
3128.0 0.0003197 1479.07141 2860.20288
3102.0 0.0003224 1478.32349 2863.53809
3044.0 0.0003285 1477.57703 2835.87842
2961.0 0.0003377 1476.83203 2780.09375
2855.0 0.0003503 1476.08887 2702.15845
2745.0 0.000364 1475.34656 2610.06470
2636.0 0.000379 1474.60669 2512.42871
2532.0 0.000395 1473.86719 2416.52075
2444.0 0.000409 1473.13037 2327.77441
2367.0 0.000422 1472.39514 2249.44287
2303.0 0.000434 1471.66052 2183.17163
2251.0 0.000444 1470.92859 2129.68579
2212.0 0.000452 1470.19714 2088.97900
2184.0 0.000458 1469.46814 2060.84155
2164.0 0.000462 1468.74023 2045.04578
2154.0 0.000464 1468.01379 2041.53760
2157.0 0.000464 1467.28943 2050.55786
2168.0 0.000461 1466.56592 2072.72168
2185.0 0.000458 1465.84485 2109.01904
2216.0 0.000451 1465.12512 2160.85938
2262.0 0.000442 1464.40674 2230.01123
2323.0 0.000430 1463.69031 2318.29858
2405.0 0.000416 1462.97461 2427.72314
2509.0 0.000399 1462.26135 2559.76001
2651.0 0.000377 1461.55005 2715.41089
2822.0 0.000354 1460.83960 2894.48022
3025.0 0.0003306 1460.13098 3094.35352
3253.0 0.0003074 1459.42371 3309.52808
3480.0 0.0002874 1458.71875 3529.09644
3693.0 0.0002708 1458.01514 3736.38330
3857.0 0.0002593 1457.31250 3908.90820
3954.0 0.0002529 1456.61218 4021.96313
3978.0 0.0002514 1455.91321 4056.68164
3923.0 0.0002549 1455.21594 4007.05835
3799.0 0.0002632 1454.52063 3882.50684
3627.0 0.0002757 1453.82666 3703.02637
3431.0 0.0002915 1453.13440 3492.12524
3218.0 0.0003108 1452.44360 3270.04321
3018.0 0.0003313 1451.75452 3052.55615
2830.0 0.000353 1451.06763 2849.44531
2666.0 0.000375 1450.38147 2666.25537
2529.0 0.000395 1449.69800 2505.75000
2413.0 0.000414 1449.01514 2368.11987
2319.0 0.000431 1448.33459 2252.67676
2238.0 0.000447 1447.65552 2157.71069
2170.0 0.000461 1446.97778 2081.19287
2118.0 0.000472 1446.30249 2021.13794
2075.0 0.000482 1445.62817 1975.46204
2044.0 0.000489 1444.95593 1942.39539
2024.0 0.000494 1444.28540 1920.30176
2014.0 0.000497 1443.61584 1907.79102
2017.0 0.000496 1442.94873 1903.63928
2031.0 0.000492 1442.28271 1906.64539
2055.0 0.000487 1441.61877 1915.48242
2083.0 0.000480 1440.95667 1928.46680
2113.0 0.000473 1440.29553 1943.31055
2140.0 0.000467 1439.63660 1956.92822
2159.0 0.000463 1438.97913 1965.67542
2162.0 0.000463 1438.32336 1966.01892
2146.0 0.000466 1437.66980 1955.72510
2115.0 0.000473 1437.01721 1934.71277
2073.0 0.000482 1436.36633 1905.07007
2022.0 0.000495 1435.71777 1869.99487
1969.0 0.000508 1435.07019 1832.78674
1916.0 0.000522 1434.42493 1795.98889
1866.0 0.000536 1433.78052 1761.26672
1823.0 0.000549 1433.13843 1729.60510
1782.0 0.000561 1432.49780 1701.38513
1746.0 0.000573 1431.85913 1676.71667
1715.0 0.000583 1431.22229 1655.45361
1690.0 0.000592 1430.58655 1637.33496
1671.0 0.000598 1429.95276 1622.06824
1651.0 0.000606 1429.32043 1609.29541
1633.0 0.000612 1428.69006 1598.69946
1617.0 0.000618 1428.06165 1589.96313
1602.0 0.000624 1427.43408 1582.81140
1590.0 0.000629 1426.80896 1577.03174
1579.0 0.000633 1426.18506 1572.44092
1574.0 0.000635 1425.56311 1568.91174
1569.0 0.000637 1424.94275 1566.38940
1565.0 0.000639 1424.32361 1564.84119
1561.0 0.000641 1423.70703 1564.29297
1556.0 0.000643 1423.09167 1564.76294
1552.0 0.000644 1422.47827 1566.48975
1549.0 0.000646 1421.86633 1569.51758
1549.0 0.000646 1421.25574 1574.21863
1549.0 0.000646 1420.64722 1580.77515
1547.0 0.000646 1420.04016 1589.49646
1551.0 0.000645 1419.43518 1600.68298
1557.0 0.000642 1418.83179 1614.64624
1568.0 0.000638 1418.22986 1631.66870
1579.0 0.000633 1417.62939 1651.91614
1591.0 0.000629 1417.03088 1675.45728
1608.0 0.000622 1416.43420 1702.05505
1627.0 0.000615 1415.83948 1731.13049
1649.0 0.000606 1415.24585 1761.50879
1671.0 0.000598 1414.65393 1791.16748
1692.0 0.000591 1414.06360 1817.28223
1709.0 0.000585 1413.47510 1836.39294
1716.0 0.000583 1412.88806 1845.38855
1715.0 0.000583 1412.30261 1842.57703
1708.0 0.000585 1411.71985 1828.47461
1696.0 0.000590 1411.13782 1805.54480
1678.0 0.000596 1410.55762 1777.23560
1658.0 0.000603 1409.97888 1746.80493
1637.0 0.000611 1409.40210 1716.74658
1621.0 0.000617 1408.82715 1688.74976
1604.0 0.000623 1408.25317 1663.71667
1589.0 0.000629 1407.68140 1642.14160
1577.0 0.000634 1407.11145 1624.15759
1570.0 0.000637 1406.54260 1609.73291
1563.0 0.000640 1405.97571 1598.77490
1558.0 0.000642 1405.41052 1591.13208
1554.0 0.000644 1404.84668 1586.68909
1552.0 0.000644 1404.28455 1585.36389
1552.0 0.000644 1403.72449 1587.14978
1553.0 0.000644 1403.16565 1592.10425
1556.0 0.000643 1402.60815 1600.37305
1560.0 0.000641 1402.05310 1612.13147
1566.0 0.000639 1401.49915 1627.60608
1575.0 0.000635 1400.94727 1647.01880
1587.0 0.000630 1400.39624 1670.49158
1600.0 0.000625 1399.84717 1698.05493
1616.0 0.000619 1399.29993 1729.42542
1631.0 0.000613 1398.75439 1763.94312
1651.0 0.000606 1398.21008 1800.29175
1671.0 0.000598 1397.66748 1836.20251
1691.0 0.000591 1397.12646 1868.48157
1704.0 0.000587 1396.58728 1893.15967
1713.0 0.000584 1396.04980 1906.54578
1715.0 0.000583 1395.51355 1906.46863
1712.0 0.000584 1394.97900 1893.24817
1704.0 0.000587 1394.44604 1869.56995
1695.0 0.000590 1393.91467 1839.41113
1682.0 0.000595 1393.38525 1806.67871
1674.0 0.000597 1392.85681 1774.47131
1665.0 0.000601 1392.33032 1744.96582
1660.0 0.000602 1391.80505 1719.43738
1656.0 0.000604 1391.28210 1698.66333
1659.0 0.000603 1390.76025 1683.01965
1665.0 0.000601 1390.23950 1672.70483
1674.0 0.000597 1389.72095 1667.84802
1688.0 0.000592 1389.20361 1668.53955
1705.0 0.000587 1388.68823 1674.89624
1731.0 0.000578 1388.17456 1687.07434
1758.0 0.000569 1387.66199 1705.28320
1796.0 0.000557 1387.15149 1729.69958
1839.0 0.000544 1386.64136 1760.49121
1889.0 0.000529 1386.13379 1797.59253
1945.0 0.000514 1385.62744 1840.70996
2002.0 0.000500 1385.12256 1889.17371
2064.0 0.000484 1384.61987 1941.82947
2125.0 0.000471 1384.11768 1997.33252
2185.0 0.000458 1383.61755 2054.00684
2243.0 0.000446 1383.11890 2109.96021
2289.0 0.000437 1382.62158 2162.66382
2323.0 0.000430 1382.12622 2208.59082
2339.0 0.000428 1381.63220 2243.61865
2338.0 0.000428 1381.13953 2263.57349
2317.0 0.000432 1380.64856 2265.39136
2280.0 0.000439 1380.15906 2247.86328
2225.0 0.000449 1379.67090 2212.28662
2165.0 0.000462 1379.18420 2162.34082
2098.0 0.000477 1378.69897 2103.42163
2032.0 0.000492 1378.21545 2041.09546
1968.0 0.000508 1377.73328 1980.11194
1911.0 0.000523 1377.25269 1924.00989
1864.0 0.000536 1376.77344 1874.90137
1825.0 0.000548 1376.29565 1834.06580
1793.0 0.000558 1375.81934 1802.04834
1769.0 0.000565 1375.34473 1779.03394
1753.0 0.000570 1374.87134 1765.02686
1747.0 0.000572 1374.39905 1759.86279
1747.0 0.000572 1373.92920 1763.32678
1755.0 0.000570 1373.46033 1775.11279
1773.0 0.000564 1372.99207 1794.82800
1800.0 0.000556 1372.52625 1821.83606
1835.0 0.000545 1372.06128 1855.19556
1876.0 0.000533 1371.59778 1893.29187
1922.0 0.000520 1371.13635 1933.68042
1966.0 0.000509 1370.67578 1972.81848
2002.0 0.000500 1370.21692 2006.16711
2028.0 0.000493 1369.75903 2029.15405
2037.0 0.000491 1369.30286 2038.41968
2034.0 0.000492 1368.84802 2033.21521
2017.0 0.000496 1368.39441 2015.54639
1993.0 0.000502 1367.94275 1989.14709
1965.0 0.000509 1367.49158 1957.83875
1931.0 0.000518 1367.04260 1924.44360
1897.0 0.000527 1366.59497 1890.29834
1863.0 0.000537 1366.14807 1855.64917
1829.0 0.000547 1365.70288 1820.42749
1795.0 0.000557 1365.25903 1784.75037
1763.0 0.000567 1364.81653 1749.35730
1735.0 0.000576 1364.37561 1715.27588
1703.0 0.000587 1363.93579 1683.52026
1670.0 0.000599 1363.49731 1654.89392
1646.0 0.000608 1363.06030 1629.74133
1629.0 0.000614 1362.62427 1608.19910
1617.0 0.000618 1362.19055 1590.15771
1602.0 0.000624 1361.75708 1575.41187
1590.0 0.000629 1361.32520 1563.75366
1582.0 0.000632 1360.89441 1554.95007
1577.0 0.000634 1360.46570 1548.82849
1573.0 0.000636 1360.03796 1545.24072
1572.0 0.000636 1359.61096 1544.09412
1572.0 0.000636 1359.18616 1545.33533
1579.0 0.000633 1358.76196 1548.93640
1589.0 0.000629 1358.33911 1554.91479
1601.0 0.000625 1357.91797 1563.25415
1619.0 0.000618 1357.49768 1573.92383
1643.0 0.000609 1357.07910 1586.73633
1678.0 0.000596 1356.66125 1601.56750
1713.0 0.000584 1356.24463 1617.84338
1747.0 0.000572 1355.83020 1634.73853
1781.0 0.000561 1355.41602 1651.00244
1813.0 0.000552 1355.00378 1664.97876
1833.0 0.000546 1354.59216 1674.94653
1842.0 0.000543 1354.18201 1679.57178
1843.0 0.000543 1353.77319 1678.49316
1833.0 0.000546 1353.36548 1672.46277
1814.0 0.000551 1352.95935 1663.06409
1790.0 0.000559 1352.55408 1652.11877
1765.0 0.000567 1352.15039 1641.27148
1744.0 0.000573 1351.74695 1631.75427
1726.0 0.000579 1351.34558 1624.41089
1715.0 0.000583 1350.94519 1619.81982
1705.0 0.000587 1350.54565 1618.38245
1702.0 0.000588 1350.14807 1620.44031
1703.0 0.000587 1349.75098 1626.33667
1708.0 0.000585 1349.35535 1636.49146
1718.0 0.000582 1348.96106 1651.40894
1729.0 0.000578 1348.56750 1671.76038
1747.0 0.000572 1348.17529 1698.33118
1768.0 0.000566 1347.78442 1732.09509
1798.0 0.000556 1347.39429 1774.18176
1836.0 0.000545 1347.00586 1825.73291
1885.0 0.000531 1346.61829 1888.03528
1945.0 0.000514 1346.23181 1962.14136
2016.0 0.000496 1345.84644 2048.99731
2104.0 0.000475 1345.46216 2149.13623
2210.0 0.000452 1345.07910 2262.13770
2334.0 0.000428 1344.69690 2386.58936
2471.0 0.000405 1344.31641 2518.87817
2608.0 0.000383 1343.93677 2652.92090
2742.0 0.000365 1343.55798 2779.39478
2851.0 0.000351 1343.18042 2885.94360
2931.0 0.0003412 1342.80371 2959.77686
2971.0 0.0003366 1342.42822 2990.75659
2968.0 0.0003369 1342.05444 2975.53296
2929.0 0.0003414 1341.68091 2917.89771
2853.0 0.0003505 1341.30872 2827.32056
2752.0 0.000363 1340.93738 2715.27222
2639.0 0.000379 1340.56738 2592.92993
2519.0 0.000397 1340.19849 2469.34229
2402.0 0.000416 1339.83032 2351.21777
2298.0 0.000435 1339.46362 2243.22412
2204.0 0.000454 1339.09729 2147.89209
2128.0 0.000470 1338.73267 2066.62378
2062.0 0.000485 1338.36890 1999.68420
2009.0 0.000498 1338.00598 1946.82861
1967.0 0.000508 1337.64429 1907.58423
1937.0 0.000516 1337.28333 1881.27283
1921.0 0.000521 1336.92358 1867.30408
1918.0 0.000521 1336.56494 1865.12537
1927.0 0.000519 1336.20703 1874.32593
1940.0 0.000515 1335.85022 1894.53796
1959.0 0.000510 1335.49438 1925.43921
1980.0 0.000505 1335.13940 1966.50146
2004.0 0.000499 1334.78589 2016.93555
2023.0 0.000494 1334.43311 2075.48975
2049.0 0.000488 1334.08093 2140.25708
2086.0 0.000479 1333.72998 2209.02051
2133.0 0.000469 1333.38000 2279.09814
2183.0 0.000458 1333.03101 2347.66626
2232.0 0.000448 1332.68274 2411.39673
2275.0 0.000440 1332.33569 2466.13794
2303.0 0.000434 1331.98926 2507.40649
2321.0 0.000431 1331.64417 2530.93237
2321.0 0.000431 1331.29980 2533.64429
2305.0 0.000434 1330.95605 2513.94019
2267.0 0.000441 1330.61365 2471.94995
2218.0 0.000451 1330.27185 2409.84009
2155.0 0.000464 1329.93115 2332.09180
2085.0 0.000480 1329.59180 2244.62402
2015.0 0.000496 1329.25269 2153.58374
1945.0 0.000514 1328.91467 2064.32910
1882.0 0.000531 1328.57727 1980.46338
1823.0 0.000549 1328.24121 1904.26929
1772.0 0.000564 1327.90588 1836.69666
1729.0 0.000578 1327.57153 1777.90491
1689.0 0.000592 1327.23779 1727.65540
1657.0 0.000604 1326.90466 1685.30383
1625.0 0.000615 1326.57288 1650.14587
1600.0 0.000625 1326.24158 1621.46838
1581.0 0.000633 1325.91138 1598.49536
1565.0 0.000639 1325.58191 1580.59241
1552.0 0.000644 1325.25317 1567.16125
1537.0 0.000651 1324.92590 1557.73486
1528.0 0.000654 1324.59888 1551.90808
1524.0 0.000656 1324.27271 1549.35767
1522.0 0.000657 1323.94775 1549.80347
1523.0 0.000657 1323.62317 1552.96899
1527.0 0.000655 1323.29932 1558.52380
1539.0 0.000650 1322.97668 1566.01245
1551.0 0.000645 1322.65466 1574.77271
1562.0 0.000640 1322.33337 1583.80469
1571.0 0.000637 1322.01270 1591.79041
1576.0 0.000635 1321.69336 1597.15625
1577.0 0.000634 1321.37415 1598.44470
1571.0 0.000637 1321.05603 1594.76392
1561.0 0.000641 1320.73889 1586.13403
1547.0 0.000646 1320.42224 1573.46606
1529.0 0.000654 1320.10645 1558.20435
1515.0 0.000660 1319.79163 1541.81812
1496.0 0.000668 1319.47693 1525.50391
1479.0 0.000676 1319.16357 1510.13037
1463.0 0.000684 1318.85083 1496.20361
1447.0 0.000691 1318.53882 1484.02197
1436.0 0.000696 1318.22766 1473.71289
1428.0 0.000700 1317.91699 1465.30872
1424.0 0.000702 1317.60693 1458.80859
1421.0 0.000704 1317.29785 1454.16199
1419.0 0.000705 1316.98938 1451.32861
1418.0 0.000705 1316.68152 1450.25037
1417.0 0.000706 1316.37476 1450.88867
1420.0 0.000704 1316.06873 1453.17761
1427.0 0.000701 1315.76282 1457.06604
1439.0 0.000695 1315.45789 1462.46460
1453.0 0.000688 1315.15417 1469.12292
1467.0 0.000682 1314.85034 1477.04785
1483.0 0.000674 1314.54761 1485.73511
1500.0 0.000667 1314.24512 1494.60449
1518.0 0.000659 1313.94385 1502.82520
1531.0 0.000653 1313.64307 1509.38367
1538.0 0.000650 1313.34302 1513.35669
1539.0 0.000650 1313.04395 1514.08789
1532.0 0.000653 1312.74475 1511.53442
1523.0 0.000657 1312.44666 1506.26843
1508.0 0.000663 1312.14917 1499.25610
1491.0 0.000671 1311.85254 1491.53052
1473.0 0.000679 1311.55640 1484.00549
1457.0 0.000686 1311.26062 1477.33899
1445.0 0.000692 1310.96582 1472.00183
1434.0 0.000697 1310.67175 1468.30078
1425.0 0.000702 1310.37793 1466.45105
1418.0 0.000705 1310.08521 1466.62842
1414.0 0.000707 1309.79272 1468.99097
1414.0 0.000707 1309.50073 1473.70618
1418.0 0.000705 1309.20972 1480.96570
1423.0 0.000703 1308.91931 1490.99878
1429.0 0.000700 1308.62927 1504.04773
1435.0 0.000697 1308.33972 1520.41101
1450.0 0.000690 1308.05139 1540.33655
1468.0 0.000681 1307.76306 1564.07166
1489.0 0.000672 1307.47546 1591.76343
1510.0 0.000662 1307.18884 1623.32471
1536.0 0.000651 1306.90234 1658.49670
1569.0 0.000637 1306.61658 1696.68921
1605.0 0.000623 1306.33142 1737.22534
1642.0 0.000609 1306.04688 1779.44312
1678.0 0.000596 1305.76257 1822.69385
1714.0 0.000583 1305.47913 1866.40222
1748.0 0.000572 1305.19617 1909.48462
1780.0 0.000562 1304.91370 1950.14380
1809.0 0.000553 1304.63208 1985.54492
1830.0 0.000546 1304.35083 2011.86572
1838.0 0.000544 1304.07019 2025.07056
1831.0 0.000546 1303.79004 2021.95862
1814.0 0.000551 1303.51001 2001.54907
1788.0 0.000559 1303.23132 1965.62866
1752.0 0.000571 1302.95264 1918.29810
1708.0 0.000585 1302.67456 1864.45203
1658.0 0.000603 1302.39734 1808.68872
1613.0 0.000620 1302.12061 1754.40735
1574.0 0.000635 1301.84399 1703.80212
1538.0 0.000650 1301.56799 1658.17419
1509.0 0.000663 1301.29285 1618.02490
1480.0 0.000676 1301.01807 1583.48804
1457.0 0.000686 1300.74377 1554.38538
1437.0 0.000696 1300.46973 1530.38440
1421.0 0.000704 1300.19653 1511.13525
1407.0 0.000711 1299.92334 1496.20691
1397.0 0.000716 1299.65112 1485.22205
1389.0 0.000720 1299.37939 1477.80774
1383.0 0.000723 1299.10803 1473.64282
1381.0 0.000724 1298.83740 1472.44666
1380.0 0.000725 1298.56677 1473.95642
1378.0 0.000726 1298.29700 1477.90662
1379.0 0.000725 1298.02771 1483.99365
1381.0 0.000724 1297.75867 1491.81262
1386.0 0.000722 1297.49036 1500.76660
1391.0 0.000719 1297.22241 1510.01794
1396.0 0.000716 1296.95483 1518.41028
1399.0 0.000715 1296.68799 1524.59802
1401.0 0.000714 1296.42126 1527.29114
1400.0 0.000714 1296.15552 1525.64380
1395.0 0.000717 1295.88965 1519.57922
1390.0 0.000719 1295.62451 1509.82263
1384.0 0.000723 1295.35986 1497.59436
1375.0 0.000727 1295.09583 1484.20569
1365.0 0.000733 1294.83191 1470.80811
1353.0 0.000739 1294.56860 1458.20996
1345.0 0.000743 1294.30579 1446.96497
1340.0 0.000746 1294.04321 1437.37830
1337.0 0.000748 1293.78113 1429.60901
1332.0 0.000751 1293.51953 1423.73389
1325.0 0.000755 1293.25867 1419.75500
1323.0 0.000756 1292.99829 1417.62476
1322.0 0.000756 1292.73767 1417.26917
1321.0 0.000757 1292.47778 1418.57361
1320.0 0.000758 1292.21851 1421.36475
1321.0 0.000757 1291.95935 1425.40210
1324.0 0.000755 1291.70129 1430.32861
1327.0 0.000754 1291.44287 1435.68884
1328.0 0.000753 1291.18518 1440.95593
1329.0 0.000752 1290.92810 1445.62036
1329.0 0.000752 1290.67126 1449.34326
1328.0 0.000753 1290.41479 1452.01233
1322.0 0.000756 1290.15894 1453.71277
1318.0 0.000759 1289.90295 1454.56445
1316.0 0.000760 1289.64771 1454.55505
1312.0 0.000762 1289.39282 1453.47412
1308.0 0.000765 1289.13855 1450.99304
1302.0 0.000768 1288.88464 1446.84656
1299.0 0.000770 1288.63098 1441.01758
1295.0 0.000772 1288.37756 1433.82971
1292.0 0.000774 1288.12488 1425.82227
1287.0 0.000777 1287.87219 1417.61621
1284.0 0.000779 1287.62048 1409.73877
1283.0 0.000779 1287.36902 1402.57568
1277.0 0.000783 1287.11768 1396.39172
1276.0 0.000784 1286.86609 1391.32996
1274.0 0.000785 1286.61609 1387.48438
1274.0 0.000785 1286.36633 1384.89526
1272.0 0.000786 1286.11646 1383.59192
1274.0 0.000785 1285.86719 1383.59863
1275.0 0.000784 1285.61804 1384.93555
1276.0 0.000784 1285.36938 1387.62146
1281.0 0.000781 1285.12146 1391.66382
1286.0 0.000778 1284.87341 1397.06372
1291.0 0.000775 1284.62622 1403.78369
1296.0 0.000772 1284.37878 1411.74121
1304.0 0.000767 1284.13220 1420.75342
1316.0 0.000760 1283.88623 1430.51172
1328.0 0.000753 1283.63989 1440.51074
1340.0 0.000746 1283.39429 1449.99463
1349.0 0.000741 1283.14905 1458.02686
1358.0 0.000736 1282.90430 1463.59253
1362.0 0.000734 1282.65967 1465.91492
1364.0 0.000733 1282.41541 1464.71094
1360.0 0.000735 1282.17151 1460.32312
1353.0 0.000739 1281.92810 1453.57727
1346.0 0.000743 1281.68494 1445.51367
1339.0 0.000747 1281.44226 1437.08789
1330.0 0.000752 1281.19983 1429.05762
1324.0 0.000755 1280.95776 1421.96228
1321.0 0.000757 1280.71594 1416.14368
1321.0 0.000757 1280.47485 1411.83594
1318.0 0.000759 1280.23376 1409.18884
1317.0 0.000759 1279.99329 1408.33337
1319.0 0.000758 1279.75293 1409.38489
1322.0 0.000756 1279.51282 1412.48083
1325.0 0.000755 1279.27356 1417.76404
1329.0 0.000752 1279.03418 1425.41113
1333.0 0.000750 1278.79504 1435.62146
1339.0 0.000747 1278.55640 1448.58508
1350.0 0.000741 1278.31824 1464.51453
1368.0 0.000731 1278.08032 1483.54883
1386.0 0.000722 1277.84302 1505.78064
1411.0 0.000709 1277.60547 1531.16638
1436.0 0.000696 1277.36890 1559.38940
1469.0 0.000681 1277.13196 1589.84241
1504.0 0.000665 1276.89587 1621.34888
1536.0 0.000651 1276.65991 1652.19299
1565.0 0.000639 1276.42432 1680.07690
1588.0 0.000630 1276.18909 1702.34741
1609.0 0.000622 1275.95422 1716.60632
1619.0 0.000618 1275.71960 1721.17908
1613.0 0.000620 1275.48560 1715.63354
1590.0 0.000629 1275.25159 1700.77087
1566.0 0.000639 1275.01782 1678.43384
1542.0 0.000649 1274.78430 1651.18677
1512.0 0.000661 1274.55164 1621.54126
1483.0 0.000674 1274.31909 1591.67175
1458.0 0.000686 1274.08691 1563.17761
1439.0 0.000695 1273.85486 1537.15344
1424.0 0.000702 1273.62317 1514.16541
1410.0 0.000709 1273.39172 1494.51855
1398.0 0.000715 1273.16101 1478.26465
1390.0 0.000719 1272.93018 1465.34436
1384.0 0.000723 1272.70007 1455.65820
1377.0 0.000726 1272.46948 1449.05115
1371.0 0.000729 1272.24011 1445.39954
1374.0 0.000728 1272.01074 1444.57458
1375.0 0.000727 1271.78137 1446.47827
1379.0 0.000725 1271.55298 1451.03308
1385.0 0.000722 1271.32410 1458.17480
1395.0 0.000717 1271.09644 1467.82678
1406.0 0.000711 1270.86853 1479.86536
1418.0 0.000705 1270.64099 1494.10913
1430.0 0.000699 1270.41357 1510.20911
1444.0 0.000693 1270.18689 1527.66638
1460.0 0.000685 1269.96033 1545.69543
1476.0 0.000678 1269.73401 1563.29211
1488.0 0.000672 1269.50830 1579.22107
1498.0 0.000668 1269.28247 1592.11670
1503.0 0.000665 1269.05750 1600.80127
1506.0 0.000664 1268.83191 1604.57336
1506.0 0.000664 1268.60754 1603.57751
1500.0 0.000667 1268.38330 1598.82202
1491.0 0.000671 1268.15930 1591.93933
1482.0 0.000675 1267.93555 1584.73914
1472.0 0.000679 1267.71204 1578.89343
1465.0 0.000683 1267.48865 1575.75159
1463.0 0.000684 1267.26587 1576.34644
1464.0 0.000683 1267.04370 1581.47070
1470.0 0.000680 1266.82166 1591.75403
1478.0 0.000677 1266.59949 1607.68481
1492.0 0.000670 1266.37817 1629.60669
1515.0 0.000660 1266.15662 1657.94641
1546.0 0.000647 1265.93591 1692.70264
1582.0 0.000632 1265.71533 1733.73096
1620.0 0.000617 1265.49500 1780.38440
1663.0 0.000601 1265.27490 1831.57056
1706.0 0.000586 1265.05505 1885.70044
1748.0 0.000572 1264.83569 1940.78235
1791.0 0.000558 1264.61658 1995.03979
1830.0 0.000546 1264.39795 2046.98853
1860.0 0.000538 1264.17969 2095.61914
1883.0 0.000531 1263.96130 2139.72485
1902.0 0.000526 1263.74353 2177.07642
1916.0 0.000522 1263.52600 2204.19727
1916.0 0.000522 1263.30847 2216.70483
1910.0 0.000524 1263.09180 2210.86035
1890.0 0.000529 1262.87512 2185.16821
1866.0 0.000536 1262.65857 2141.39819
1832.0 0.000546 1262.44250 2083.97583
1795.0 0.000557 1262.22668 2018.68909
1758.0 0.000569 1262.01160 1950.94629
1718.0 0.000582 1261.79639 1884.97388
1681.0 0.000595 1261.58154 1823.72058
1646.0 0.000608 1261.36694 1768.78162
1616.0 0.000619 1261.15271 1721.00159
1589.0 0.000629 1260.93909 1680.50745
1564.0 0.000639 1260.72534 1647.05396
1543.0 0.000648 1260.51208 1620.20898
1528.0 0.000654 1260.29871 1599.34375
1518.0 0.000659 1260.08618 1583.87146
1511.0 0.000662 1259.87415 1573.23425
1508.0 0.000663 1259.66199 1566.97754
1508.0 0.000663 1259.45032 1564.70825
1512.0 0.000661 1259.23865 1565.83728
1519.0 0.000658 1259.02759 1570.10107
1526.0 0.000655 1258.81689 1576.51721
1534.0 0.000652 1258.60608 1583.92688
1544.0 0.000648 1258.39624 1590.82568
1549.0 0.000646 1258.18604 1595.49792
1552.0 0.000644 1257.97644 1596.46484
1551.0 0.000645 1257.76733 1592.76147
1548.0 0.000646 1257.55823 1584.38257
1538.0 0.000650 1257.34949 1572.24915
1526.0 0.000655 1257.14099 1557.82434
1512.0 0.000661 1256.93286 1542.71167
1500.0 0.000667 1256.72510 1528.27051
1491.0 0.000671 1256.51758 1515.50000
1482.0 0.000675 1256.31055 1505.07520
1480.0 0.000676 1256.10352 1497.36462
1478.0 0.000677 1255.89685 1492.53833
1483.0 0.000674 1255.69080 1490.57031
1492.0 0.000670 1255.48474 1491.28455
1504.0 0.000665 1255.27893 1494.33704
1520.0 0.000658 1255.07373 1499.21118
1533.0 0.000652 1254.86853 1505.25049
1549.0 0.000646 1254.66394 1511.75659
1562.0 0.000640 1254.45947 1518.11975
1576.0 0.000635 1254.25525 1523.90894
1587.0 0.000630 1254.05127 1528.89514
1596.0 0.000627 1253.84778 1532.90552
1605.0 0.000623 1253.64490 1535.71338
1607.0 0.000622 1253.44165 1537.01270
1607.0 0.000622 1253.23901 1536.55188
1609.0 0.000622 1253.03674 1534.30115
1611.0 0.000621 1252.83472 1530.54626
1609.0 0.000622 1252.63306 1525.77319
1604.0 0.000623 1252.43164 1520.46570
1600.0 0.000625 1252.23047 1514.96216
1593.0 0.000628 1252.02966 1509.40808
1584.0 0.000631 1251.82922 1503.89868
1573.0 0.000636 1251.62866 1498.56372
1562.0 0.000640 1251.42908 1493.84265
1551.0 0.000645 1251.22937 1490.21143
1539.0 0.000650 1251.03015 1488.24744
1530.0 0.000654 1250.83093 1488.49744
1525.0 0.000656 1250.63269 1491.42065
1521.0 0.000657 1250.43384 1497.38306
1520.0 0.000658 1250.23584 1506.64844
1524.0 0.000656 1250.03809 1519.41589
1531.0 0.000653 1249.84094 1535.76782
1540.0 0.000649 1249.64355 1555.72522
1556.0 0.000643 1249.44666 1579.24585
1578.0 0.000634 1249.25000 1606.20935
1605.0 0.000623 1249.05383 1636.56335
1635.0 0.000612 1248.85767 1670.17969
1670.0 0.000599 1248.66235 1706.89026
1708.0 0.000585 1248.46667 1746.29431
1743.0 0.000574 1248.27173 1787.57190
1784.0 0.000561 1248.07690 1829.66211
1825.0 0.000548 1247.88220 1871.14453
1869.0 0.000535 1247.68799 1910.47827
1909.0 0.000524 1247.49426 1945.81958
1942.0 0.000515 1247.30054 1974.82495
1965.0 0.000509 1247.10706 1994.83167
1977.0 0.000506 1246.91443 2003.08850
1979.0 0.000505 1246.72180 1997.55164
1964.0 0.000509 1246.52930 1977.56128
1936.0 0.000517 1246.33716 1944.35120
1896.0 0.000527 1246.14526 1900.78149
1848.0 0.000541 1245.95374 1850.74158
1800.0 0.000556 1245.76270 1798.06079
1748.0 0.000572 1245.57153 1745.92407
1699.0 0.000589 1245.38135 1696.68689
1650.0 0.000606 1245.19080 1651.72253
1611.0 0.000621 1245.00073 1611.82751
1576.0 0.000635 1244.81116 1577.26721
1548.0 0.000646 1244.62183 1548.01782
1521.0 0.000657 1244.43262 1523.93042
1500.0 0.000667 1244.24341 1504.69604
1487.0 0.000672 1244.05505 1490.01672
1477.0 0.000677 1243.86694 1479.54395
1471.0 0.000680 1243.67859 1472.94519
1466.0 0.000682 1243.49097 1469.92114
1464.0 0.000683 1243.30347 1470.16748
1466.0 0.000682 1243.11633 1473.37891
1466.0 0.000682 1242.92969 1479.21985
1473.0 0.000679 1242.74316 1487.27747
1482.0 0.000675 1242.55688 1496.98425
1493.0 0.000670 1242.37085 1507.58081
1504.0 0.000665 1242.18530 1518.04187
1511.0 0.000662 1242.00012 1527.16748
1518.0 0.000659 1241.81519 1533.77563
1519.0 0.000658 1241.63025 1536.99512
1520.0 0.000658 1241.44556 1536.61133
1521.0 0.000657 1241.26135 1533.11755
1520.0 0.000658 1241.07739 1527.56494
1516.0 0.000660 1240.89392 1521.19775
1512.0 0.000661 1240.71045 1515.16418
1512.0 0.000661 1240.52759 1510.31396
1511.0 0.000662 1240.34448 1507.15662
1513.0 0.000661 1240.16223 1505.86230
1520.0 0.000658 1239.97986 1506.28979
1531.0 0.000653 1239.79785 1508.01929
1542.0 0.000649 1239.61609 1510.40369
1549.0 0.000646 1239.43494 1512.69324
1556.0 0.000643 1239.25378 1514.24463
1560.0 0.000641 1239.07263 1514.73608
1568.0 0.000638 1238.89185 1514.31787
1570.0 0.000637 1238.71155 1513.53113
1572.0 0.000636 1238.53162 1513.13342
1569.0 0.000637 1238.35205 1513.90405
1569.0 0.000637 1238.17224 1516.48022
1575.0 0.000635 1237.99316 1521.30273
1587.0 0.000630 1237.81421 1528.61487
1603.0 0.000624 1237.63562 1538.43750
1618.0 0.000618 1237.45740 1550.60535
1637.0 0.000611 1237.27917 1564.78809
1654.0 0.000605 1237.10144 1580.50061
1668.0 0.000600 1236.92346 1597.31689
1679.0 0.000596 1236.74609 1615.03870
1688.0 0.000592 1236.56958 1633.94995
1698.0 0.000589 1236.39233 1654.85889
1706.0 0.000586 1236.21570 1678.93616
1715.0 0.000583 1236.03967 1707.56238
1723.0 0.000580 1235.86340 1741.95813
1737.0 0.000576 1235.68787 1783.10596
1762.0 0.000568 1235.51208 1831.59314
1795.0 0.000557 1235.33704 1887.39099
1837.0 0.000544 1235.16199 1949.98450
1888.0 0.000530 1234.98706 2018.06055
1950.0 0.000513 1234.81262 2089.85522
2020.0 0.000495 1234.63855 2163.23462
2099.0 0.000476 1234.46448 2235.73242
2175.0 0.000460 1234.29089 2304.82910
2246.0 0.000445 1234.11731 2367.27466
2310.0 0.000433 1233.94385 2419.10059
2359.0 0.000424 1233.77100 2455.73267
2393.0 0.000418 1233.59839 2473.05396
2398.0 0.000417 1233.42603 2469.04370
2382.0 0.000420 1233.25317 2444.60132
2345.0 0.000426 1233.08154 2403.20776
2292.0 0.000436 1232.90955 2349.49854
2231.0 0.000448 1232.73804 2287.88696
2161.0 0.000463 1232.56665 2221.52051
2089.0 0.000479 1232.39563 2152.60205
2018.0 0.000496 1232.22485 2082.63232
1952.0 0.000512 1232.05444 2013.05896
1892.0 0.000529 1231.88391 1945.74353
1839.0 0.000544 1231.71350 1882.31140
1793.0 0.000558 1231.54370 1824.31567
1753.0 0.000570 1231.37427 1772.68176
1720.0 0.000581 1231.20447 1727.76575
1695.0 0.000590 1231.03564 1689.45386
1677.0 0.000596 1230.86658 1657.05945
1661.0 0.000602 1230.69775 1629.61108
1648.0 0.000607 1230.52917 1605.82361
1637.0 0.000611 1230.36072 1584.32959
1627.0 0.000615 1230.19275 1563.94336
1617.0 0.000618 1230.02478 1543.81165
1597.0 0.000626 1229.85693 1523.63745
1575.0 0.000635 1229.68921 1503.53406
1550.0 0.000645 1229.52209 1483.87915
1527.0 0.000655 1229.35522 1465.12708
1502.0 0.000666 1229.18823 1447.58899
1479.0 0.000676 1229.02161 1431.46289
1459.0 0.000685 1228.85474 1416.77661
1438.0 0.000695 1228.68884 1403.45532
1421.0 0.000704 1228.52258 1391.40112
1405.0 0.000712 1228.35681 1380.47363
1391.0 0.000719 1228.19092 1370.58008
1378.0 0.000726 1228.02600 1361.63574
1365.0 0.000733 1227.86060 1353.57556
1350.0 0.000741 1227.69543 1346.35535
1339.0 0.000747 1227.53052 1339.90967
1330.0 0.000752 1227.36572 1334.18835
1320.0 0.000758 1227.20105 1329.07190
1313.0 0.000762 1227.03699 1324.58118
1306.0 0.000766 1226.87268 1320.61475
1299.0 0.000770 1226.70862 1317.11462
1296.0 0.000772 1226.54480 1314.03296
1292.0 0.000774 1226.38135 1311.32300
1289.0 0.000776 1226.21777 1308.94006
1285.0 0.000778 1226.05457 1306.87415
1283.0 0.000779 1225.89148 1305.08887
1280.0 0.000781 1225.72864 1303.55261
1276.0 0.000784 1225.56555 1302.27771
1273.0 0.000786 1225.40320 1301.24207
1270.0 0.000787 1225.24097 1300.44507
1270.0 0.000787 1225.07837 1299.88110
1269.0 0.000788 1224.91650 1299.56055
1269.0 0.000788 1224.75439 1299.49060
1268.0 0.000789 1224.59253 1299.69299
1269.0 0.000788 1224.43091 1300.18005
1268.0 0.000789 1224.26929 1300.98657
1267.0 0.000789 1224.10803 1302.13892
1269.0 0.000788 1223.94690 1303.67981
1271.0 0.000787 1223.78577 1305.65344
1274.0 0.000785 1223.62463 1308.10730
1277.0 0.000783 1223.46387 1311.09827
1282.0 0.000780 1223.30383 1314.67712
1289.0 0.000776 1223.14319 1318.90173
1297.0 0.000771 1222.98242 1323.82861
1303.0 0.000767 1222.82227 1329.48962
1308.0 0.000765 1222.66199 1335.90576
1317.0 0.000759 1222.50232 1343.04590
1330.0 0.000752 1222.34229 1350.83899
1341.0 0.000746 1222.18250 1359.16809
1349.0 0.000741 1222.02307 1367.87683
1358.0 0.000736 1221.86353 1376.86560
1366.0 0.000732 1221.70398 1386.11646
1374.0 0.000728 1221.54492 1395.76233
1380.0 0.000725 1221.38574 1406.05334
1386.0 0.000722 1221.22681 1417.24011
1393.0 0.000718 1221.06775 1429.50977
1400.0 0.000714 1220.90894 1442.83728
1412.0 0.000708 1220.74988 1456.94580
1426.0 0.000701 1220.59167 1471.27612
1437.0 0.000696 1220.43274 1484.95288
1447.0 0.000691 1220.27429 1496.94470
1455.0 0.000687 1220.11609 1506.13220
1463.0 0.000684 1219.95776 1511.55017
1464.0 0.000683 1219.79956 1512.53467
1463.0 0.000684 1219.64148 1508.91638
1458.0 0.000686 1219.48340 1501.10059
1451.0 0.000689 1219.32568 1490.03772
1443.0 0.000693 1219.16772 1476.95630
1435.0 0.000697 1219.00964 1463.10217
1426.0 0.000701 1218.85229 1449.54456
1416.0 0.000706 1218.69458 1437.02454
1410.0 0.000709 1218.53711 1425.99500
1405.0 0.000712 1218.37952 1416.64014
1403.0 0.000713 1218.22217 1408.94580
1398.0 0.000715 1218.06482 1402.78320
1395.0 0.000717 1217.90759 1397.95020
1393.0 0.000718 1217.75012 1394.28650
1391.0 0.000719 1217.59290 1391.69934
1393.0 0.000718 1217.43628 1390.20654
1391.0 0.000719 1217.27869 1389.89832
1393.0 0.000718 1217.12170 1390.89355
1396.0 0.000716 1216.96460 1393.28064
1398.0 0.000715 1216.80774 1397.10010
1401.0 0.000714 1216.65088 1402.31189
1405.0 0.000712 1216.49414 1408.77710
1413.0 0.000708 1216.33740 1416.28381
1420.0 0.000704 1216.18066 1424.53931
1427.0 0.000701 1216.02393 1433.26465
1433.0 0.000698 1215.86682 1442.29224
1443.0 0.000693 1215.70996 1451.65649
1451.0 0.000689 1215.55322 1461.67078
1459.0 0.000685 1215.39685 1472.84546
1466.0 0.000682 1215.24011 1485.80322
1475.0 0.000678 1215.08337 1501.14832
1490.0 0.000671 1214.92651 1519.32654
1504.0 0.000665 1214.76990 1540.62646
1525.0 0.000656 1214.61340 1565.02881
1549.0 0.000646 1214.45667 1592.25806
1577.0 0.000634 1214.30029 1621.72754
1605.0 0.000623 1214.14343 1652.54126
1633.0 0.000612 1213.98669 1683.80017
1661.0 0.000602 1213.83020 1714.69897
1690.0 0.000592 1213.67371 1744.87927
1718.0 0.000582 1213.51685 1774.37573
1744.0 0.000573 1213.36035 1803.34570
1771.0 0.000565 1213.20349 1831.85718
1798.0 0.000556 1213.04675 1859.50024
1825.0 0.000548 1212.89014 1885.41040
1846.0 0.000542 1212.73364 1908.22888
1861.0 0.000537 1212.57690 1926.14111
1871.0 0.000534 1212.41980 1937.14868
1869.0 0.000535 1212.26306 1939.32288
1862.0 0.000537 1212.10645 1931.34253
1845.0 0.000542 1211.94934 1912.91626
1822.0 0.000549 1211.79260 1885.08447
1794.0 0.000557 1211.63586 1849.99976
1761.0 0.000568 1211.47864 1810.60425
1723.0 0.000580 1211.32141 1769.88770
1686.0 0.000593 1211.16443 1730.46765
1653.0 0.000605 1211.00720 1694.40515
1623.0 0.000616 1210.85022 1663.01904
1602.0 0.000624 1210.69287 1637.15112
1585.0 0.000631 1210.53540 1617.17041
1576.0 0.000635 1210.37817 1603.15186
1572.0 0.000636 1210.22070 1594.95386
1577.0 0.000634 1210.06323 1592.21008
1586.0 0.000631 1209.90564 1594.33301
1599.0 0.000625 1209.74829 1600.48621
1616.0 0.000619 1209.59033 1609.54065
1636.0 0.000611 1209.43286 1620.08154
1654.0 0.000605 1209.27478 1630.55542
1671.0 0.000598 1209.11670 1639.48718
1686.0 0.000593 1208.95923 1645.84387
1695.0 0.000590 1208.80090 1649.21301
1699.0 0.000589 1208.64258 1649.77942
1694.0 0.000590 1208.48450 1648.06006
1685.0 0.000593 1208.32605 1644.58826
1677.0 0.000596 1208.16772 1639.76404
1667.0 0.000600 1208.00916 1633.91492
1658.0 0.000603 1207.85071 1627.50610
1649.0 0.000606 1207.69189 1621.24207
1643.0 0.000609 1207.53308 1616.04785
1639.0 0.000610 1207.37427 1612.87122
1641.0 0.000609 1207.21509 1612.47986
1655.0 0.000604 1207.05615 1615.29028
1670.0 0.000599 1206.89685 1621.26208
1689.0 0.000592 1206.73767 1629.83118
1709.0 0.000585 1206.57837 1639.89355
1735.0 0.000576 1206.41870 1649.84192
1759.0 0.000569 1206.25916 1657.74524
1782.0 0.000561 1206.09912 1661.76611
1793.0 0.000558 1205.93945 1660.64575
1801.0 0.000555 1205.77917 1654.09668
1802.0 0.000555 1205.61938 1642.83984
1794.0 0.000557 1205.45886 1628.29797
1783.0 0.000561 1205.29846 1612.03198
1766.0 0.000566 1205.13794 1595.35278
1753.0 0.000570 1204.97729 1579.03113
1737.0 0.000576 1204.81653 1563.29614
1721.0 0.000581 1204.65552 1548.01660
1703.0 0.000587 1204.49451 1532.87354
1686.0 0.000593 1204.33337 1517.68921
1670.0 0.000599 1204.17236 1502.54187
1651.0 0.000606 1204.01062 1487.80713
1633.0 0.000612 1203.84900 1474.08081
1613.0 0.000620 1203.68713 1461.94775
1594.0 0.000627 1203.52527 1451.94824
1575.0 0.000635 1203.36328 1444.46399
1558.0 0.000642 1203.20093 1439.75269
1546.0 0.000647 1203.03870 1437.97852
1539.0 0.000650 1202.87598 1439.21643
1534.0 0.000652 1202.71362 1443.48096
1533.0 0.000652 1202.55066 1450.72107
1540.0 0.000649 1202.38757 1460.81018
1552.0 0.000644 1202.22473 1473.48389
1569.0 0.000637 1202.06128 1488.32922
1594.0 0.000627 1201.89819 1504.64539
1625.0 0.000615 1201.73450 1521.44250
1655.0 0.000604 1201.57080 1537.38062
1676.0 0.000597 1201.40662 1550.83289
1696.0 0.000590 1201.24255 1560.20569
1710.0 0.000585 1201.07837 1564.25757
1719.0 0.000582 1200.91370 1562.51013
1714.0 0.000583 1200.74939 1555.35022
1702.0 0.000588 1200.58435 1543.88843
1684.0 0.000594 1200.41956 1529.58459
1662.0 0.000602 1200.25427 1513.95264
1637.0 0.000611 1200.08923 1498.28955
1610.0 0.000621 1199.92358 1483.62463
1585.0 0.000631 1199.75806 1470.74902
1565.0 0.000639 1199.59216 1460.20557
1550.0 0.000645 1199.42603 1452.39380
1538.0 0.000650 1199.25989 1447.58289
1531.0 0.000653 1199.09363 1445.98938
1523.0 0.000657 1198.92676 1447.79187
1521.0 0.000657 1198.76038 1453.16321
1520.0 0.000658 1198.59351 1462.26123
1524.0 0.000656 1198.42651 1475.26355
1531.0 0.000653 1198.25879 1492.29675
1541.0 0.000649 1198.09167 1513.68896
1554.0 0.000644 1197.92395 1539.62634
1573.0 0.000636 1197.75623 1570.32263
1594.0 0.000627 1197.58813 1605.97864
1622.0 0.000617 1197.41992 1646.79761
1656.0 0.000604 1197.25146 1692.57019
1696.0 0.000590 1197.08289 1742.83203
1742.0 0.000574 1196.91418 1796.42249
1790.0 0.000559 1196.74536 1851.50476
1837.0 0.000544 1196.57593 1905.33838
1887.0 0.000530 1196.40674 1954.17773
1923.0 0.000520 1196.23730 1993.76587
1950.0 0.000513 1196.06763 2019.73279
1964.0 0.000509 1195.89758 2028.73572
1967.0 0.000508 1195.72742 2019.31104
1956.0 0.000511 1195.55737 1992.46362
1931.0 0.000518 1195.38708 1951.34705
1899.0 0.000527 1195.21619 1900.44763
1856.0 0.000539 1195.04553 1844.32959
1812.0 0.000552 1194.87476 1786.88525
1763.0 0.000567 1194.70337 1731.11572
1718.0 0.000582 1194.53198 1678.88879
1676.0 0.000597 1194.36047 1631.39893
1641.0 0.000609 1194.18884 1589.16138
1608.0 0.000622 1194.01685 1552.31702
1576.0 0.000635 1193.84473 1520.82410
1552.0 0.000644 1193.67224 1494.40503
1533.0 0.000652 1193.49963 1472.78699
1516.0 0.000660 1193.32703 1455.59521
1502.0 0.000666 1193.15417 1442.46851
1492.0 0.000670 1192.98108 1433.08191
1484.0 0.000674 1192.80774 1427.11536
1479.0 0.000676 1192.63428 1424.25916
1473.0 0.000679 1192.46057 1424.31299
1472.0 0.000679 1192.28674 1427.01746
1471.0 0.000680 1192.11316 1432.12732
1470.0 0.000680 1191.93848 1439.57300
1474.0 0.000678 1191.76440 1449.22949
1480.0 0.000676 1191.58984 1461.12952
1493.0 0.000670 1191.41504 1475.40320
1506.0 0.000664 1191.24048 1492.20605
1521.0 0.000657 1191.06543 1511.67603
1539.0 0.000650 1190.89038 1533.75818
1568.0 0.000638 1190.71472 1558.14917
1600.0 0.000625 1190.53931 1584.16235
1636.0 0.000611 1190.36353 1610.54382
1675.0 0.000597 1190.18750 1635.53625
1710.0 0.000585 1190.01160 1656.83899
1745.0 0.000573 1189.83557 1672.03394
1769.0 0.000565 1189.65881 1679.09668
1787.0 0.000560 1189.48254 1677.00476
1793.0 0.000558 1189.30566 1666.10779
1788.0 0.000559 1189.12903 1648.01306
1775.0 0.000563 1188.95190 1625.03638
1759.0 0.000569 1188.77490 1599.58752
1736.0 0.000576 1188.59753 1573.76917
1710.0 0.000585 1188.42029 1549.08606
1688.0 0.000592 1188.24255 1526.55969
1667.0 0.000600 1188.06433 1506.74976
1648.0 0.000607 1187.88672 1489.94360
1627.0 0.000615 1187.70874 1476.29810
1612.0 0.000620 1187.53052 1465.86218
1598.0 0.000626 1187.35217 1458.70496
1588.0 0.000630 1187.17371 1454.88147
1576.0 0.000635 1186.99524 1454.35352
1570.0 0.000637 1186.81653 1457.38159
1567.0 0.000638 1186.63770 1463.86926
1563.0 0.000640 1186.45874 1473.71533
1565.0 0.000639 1186.27991 1486.71655
1572.0 0.000636 1186.10046 1502.47314
1585.0 0.000631 1185.92126 1520.34619
1599.0 0.000625 1185.74182 1539.51672
1615.0 0.000619 1185.56262 1558.96423
1631.0 0.000613 1185.38257 1577.64734
1646.0 0.000608 1185.20288 1594.58606
1658.0 0.000603 1185.02283 1608.88135
1667.0 0.000600 1184.84326 1619.74146
1678.0 0.000596 1184.66296 1626.35449
1684.0 0.000594 1184.48279 1628.01392
1686.0 0.000593 1184.30273 1624.28162
1682.0 0.000595 1184.12219 1615.23425
1675.0 0.000597 1183.94189 1601.48975
1665.0 0.000601 1183.76135 1584.06104
1653.0 0.000605 1183.58130 1563.99060
1635.0 0.000612 1183.40051 1542.13062
1613.0 0.000620 1183.21973 1519.14331
1592.0 0.000628 1183.03918 1495.48853
1569.0 0.000637 1182.85840 1471.66748
1548.0 0.000646 1182.67725 1448.17603
1526.0 0.000655 1182.49658 1425.52600
1502.0 0.000666 1182.31567 1404.20544
1476.0 0.000678 1182.13452 1384.51025
1451.0 0.000689 1181.95361 1366.68408
1431.0 0.000699 1181.77258 1350.76624
1416.0 0.000706 1181.59119 1336.70728
1401.0 0.000714 1181.41016 1324.42444
1386.0 0.000722 1181.22888 1313.76001
1373.0 0.000728 1181.04773 1304.57227
1364.0 0.000733 1180.86658 1296.69177
1353.0 0.000739 1180.68567 1289.96423
1343.0 0.000745 1180.50403 1284.25208
1337.0 0.000748 1180.32288 1279.42395
1331.0 0.000751 1180.14197 1275.37256
1327.0 0.000754 1179.96069 1271.99939
1319.0 0.000758 1179.77942 1269.21985
1316.0 0.000760 1179.59863 1266.97925
1313.0 0.000762 1179.41736 1265.21716
1310.0 0.000763 1179.23645 1263.90088
1308.0 0.000765 1179.05530 1263.00769
1304.0 0.000767 1178.87427 1262.52527
1304.0 0.000767 1178.69336 1262.45837
1304.0 0.000767 1178.51233 1262.82214
1304.0 0.000767 1178.33154 1263.64246
1302.0 0.000768 1178.15051 1264.96191
1304.0 0.000767 1177.96985 1266.83691
1305.0 0.000766 1177.78931 1269.33118
1302.0 0.000768 1177.60840 1272.52930
1303.0 0.000767 1177.42822 1276.51904
1306.0 0.000766 1177.24792 1281.40381
1309.0 0.000764 1177.06714 1287.29089
1312.0 0.000762 1176.88708 1294.28296
1320.0 0.000758 1176.70703 1302.48962
1324.0 0.000755 1176.52734 1311.99194
1331.0 0.000751 1176.34717 1322.85486
1339.0 0.000747 1176.16736 1335.10437
1349.0 0.000741 1175.98767 1348.67566
1357.0 0.000737 1175.80835 1363.41541
1367.0 0.000732 1175.62891 1378.98462
1382.0 0.000724 1175.44983 1394.85315
1396.0 0.000716 1175.27087 1410.24512
1409.0 0.000710 1175.09216 1424.13147
1419.0 0.000705 1174.91321 1435.40466
1430.0 0.000699 1174.73486 1443.11914
1437.0 0.000696 1174.55664 1446.72888
1446.0 0.000692 1174.37830 1446.32288
1451.0 0.000689 1174.20056 1442.59570
1455.0 0.000687 1174.02271 1436.64221
1453.0 0.000688 1173.84509 1429.66980
1449.0 0.000690 1173.66785 1422.74036
1450.0 0.000690 1173.49060 1416.63928
1454.0 0.000688 1173.31421 1411.86890
1462.0 0.000684 1173.13733 1408.62964
1464.0 0.000683 1172.96130 1406.92151
1471.0 0.000680 1172.78491 1406.59033
1475.0 0.000678 1172.60901 1407.44958
1483.0 0.000674 1172.43372 1409.35144
1490.0 0.000671 1172.25806 1412.26074
1497.0 0.000668 1172.08301 1416.23120
1504.0 0.000665 1171.90845 1421.34106
1510.0 0.000662 1171.73401 1427.57837
1519.0 0.000658 1171.56006 1434.74744
1524.0 0.000656 1171.38635 1442.42896
1532.0 0.000653 1171.21277 1449.97412
1542.0 0.000649 1171.03979 1456.59680
1552.0 0.000644 1170.86707 1461.49854
1556.0 0.000643 1170.69434 1464.02136
1557.0 0.000642 1170.52234 1463.79858
1556.0 0.000643 1170.35046 1460.85034
1555.0 0.000643 1170.17944 1455.60437
1548.0 0.000646 1170.00818 1448.82678
1534.0 0.000652 1169.83777 1441.49658
1520.0 0.000658 1169.66760 1434.60815
1505.0 0.000664 1169.49780 1429.05286
1490.0 0.000671 1169.32861 1425.59924
1480.0 0.000676 1169.15967 1424.79077
1473.0 0.000679 1168.99109 1427.03589
1468.0 0.000681 1168.82312 1432.62463
1466.0 0.000682 1168.65576 1441.73022
1467.0 0.000682 1168.48828 1454.43689
1473.0 0.000679 1168.32166 1470.73645
1479.0 0.000676 1168.15527 1490.44043
1493.0 0.000670 1167.98999 1513.20715
1514.0 0.000661 1167.82507 1538.36646
1537.0 0.000651 1167.66016 1564.91333
1559.0 0.000641 1167.49573 1591.42737
1583.0 0.000632 1167.33215 1616.01660
1607.0 0.000622 1167.16895 1636.61279
1623.0 0.000616 1167.00635 1651.17017
1639.0 0.000610 1166.84448 1658.19348
1650.0 0.000606 1166.68274 1657.04736
1651.0 0.000606 1166.52197 1648.15454
1643.0 0.000609 1166.36182 1632.87048
1634.0 0.000612 1166.20190 1613.19495
1619.0 0.000618 1166.04309 1591.30078
1602.0 0.000624 1165.88477 1569.16980
1585.0 0.000631 1165.72632 1548.46155
1569.0 0.000637 1165.56921 1530.32312
1560.0 0.000641 1165.41260 1515.53735
1554.0 0.000644 1165.25684 1504.52075
1555.0 0.000643 1165.10168 1497.41626
1561.0 0.000641 1164.94702 1494.20581
1572.0 0.000636 1164.79272 1494.63245
1590.0 0.000629 1164.63965 1498.25159
1614.0 0.000620 1164.48706 1504.49512
1638.0 0.000611 1164.33545 1512.55420
1662.0 0.000602 1164.18433 1521.48169
1686.0 0.000593 1164.03394 1530.29565
1704.0 0.000587 1163.88428 1538.05322
1721.0 0.000581 1163.73535 1544.00122
1731.0 0.000578 1163.58716 1547.61511
1734.0 0.000577 1163.43994 1548.62000
1727.0 0.000579 1163.29321 1547.00781
1719.0 0.000582 1163.14734 1543.04309
1702.0 0.000588 1163.00269 1537.27039
1680.0 0.000595 1162.85803 1530.45776
1652.0 0.000605 1162.71509 1523.56702
1630.0 0.000613 1162.57251 1517.60632
1607.0 0.000622 1162.43091 1513.55969
1590.0 0.000629 1162.29041 1512.25891
1578.0 0.000634 1162.15039 1514.33972
1573.0 0.000636 1162.01147 1520.21423
1571.0 0.000637 1161.87341 1530.06555
1571.0 0.000637 1161.73596 1543.80530
1579.0 0.000633 1161.59961 1561.07654
1596.0 0.000627 1161.46472 1581.17200
1619.0 0.000618 1161.33008 1602.88013
1643.0 0.000609 1161.19678 1624.61108
1674.0 0.000597 1161.06409 1644.18933
1700.0 0.000588 1160.93262 1659.26965
1720.0 0.000581 1160.80237 1667.68884
1732.0 0.000577 1160.67261 1668.03113
1738.0 0.000575 1160.54443 1660.07886
1735.0 0.000576 1160.41699 1644.87415
1723.0 0.000580 1160.29041 1624.35632
1705.0 0.000587 1160.16479 1600.84033
1679.0 0.000596 1160.04053 1576.53235
1646.0 0.000608 1159.91724 1553.16980
1617.0 0.000618 1159.79517 1532.04224
1594.0 0.000627 1159.67419 1513.92126
1572.0 0.000636 1159.55383 1499.20447
1555.0 0.000643 1159.43457 1488.00818
1547.0 0.000646 1159.31702 1480.15723
1544.0 0.000648 1159.20056 1475.24390
1545.0 0.000647 1159.08545 1472.60437
1547.0 0.000646 1158.97083 1471.33167
1551.0 0.000645 1158.85791 1470.32104
1557.0 0.000642 1158.74512 1468.40100
1564.0 0.000639 1158.63489 1464.54272
1564.0 0.000639 1158.52502 1458.09790
1565.0 0.000639 1158.41711 1448.94897
1560.0 0.000641 1158.30957 1437.51392
1551.0 0.000645 1158.20410 1424.53674
1535.0 0.000651 1158.09949 1410.90942
1523.0 0.000657 1157.99597 1397.42493
1508.0 0.000663 1157.89380 1384.70996
1493.0 0.000670 1157.79321 1373.22705
1477.0 0.000677 1157.69348 1363.24023
1465.0 0.000683 1157.59546 1354.93323
1456.0 0.000687 1157.49890 1348.38391
1446.0 0.000692 1157.40332 1343.63013
1443.0 0.000693 1157.30957 1340.67737
1439.0 0.000695 1157.21643 1339.53833
1437.0 0.000696 1157.12524 1340.19470
1435.0 0.000697 1157.03528 1342.63232
1437.0 0.000696 1156.94666 1346.83362
1440.0 0.000694 1156.85974 1352.76379
1447.0 0.000691 1156.77405 1360.38379
1454.0 0.000688 1156.68982 1369.61621
1465.0 0.000683 1156.60681 1380.37903
1474.0 0.000678 1156.52539 1392.60022
1481.0 0.000675 1156.44556 1406.22156
1489.0 0.000672 1156.36719 1421.28394
1502.0 0.000666 1156.29041 1437.87598
1520.0 0.000658 1156.21533 1456.16089
1536.0 0.000651 1156.14136 1476.28027
1556.0 0.000643 1156.06897 1498.22754
1575.0 0.000635 1155.99829 1521.86133
1598.0 0.000626 1155.92908 1546.74854
1622.0 0.000617 1155.86145 1572.27380
1646.0 0.000608 1155.79553 1597.69446
1666.0 0.000600 1155.73108 1622.23682
1688.0 0.000592 1155.66870 1645.41370
1704.0 0.000587 1155.60730 1667.10242
1721.0 0.000581 1155.54797 1687.75220
1734.0 0.000577 1155.48999 1708.29468
1752.0 0.000571 1155.43384 1729.90942
1771.0 0.000565 1155.37964 1753.81140
1795.0 0.000557 1155.32654 1780.83679
1822.0 0.000549 1155.27539 1811.29370
1854.0 0.000539 1155.22607 1844.78821
1898.0 0.000527 1155.17847 1880.03259
1941.0 0.000515 1155.13257 1915.34924
1989.0 0.000503 1155.08850 1948.34460
2033.0 0.000492 1155.04565 1976.67664
2074.0 0.000482 1155.00549 1998.27271
2103.0 0.000476 1154.96643 2011.45886
2127.0 0.000470 1154.92932 2015.00635
2135.0 0.000468 1154.89392 2008.03674
2134.0 0.000469 1154.86060 1990.15393
2117.0 0.000472 1154.82898 1961.68494
2088.0 0.000479 1154.79944 1923.97437
2049.0 0.000488 1154.77173 1879.17737
2003.0 0.000499 1154.74561 1830.03833
1951.0 0.000513 1154.72168 1779.23767
1895.0 0.000528 1154.69934 1729.08179
1841.0 0.000543 1154.67896 1681.42627
1790.0 0.000559 1154.66089 1637.47144
1741.0 0.000574 1154.64429 1598.07837
1695.0 0.000590 1154.62988 1563.67651
1655.0 0.000604 1154.61719 1534.46680
1622.0 0.000617 1154.60693 1510.53882
1592.0 0.000628 1154.59839 1491.81201
1567.0 0.000638 1154.59155 1478.20398
1547.0 0.000646 1154.58716 1469.56238
1526.0 0.000655 1154.58472 1465.73633
1508.0 0.000663 1154.58435 1466.57031
1496.0 0.000668 1154.58569 1471.89441
1489.0 0.000672 1154.58923 1481.50354
1484.0 0.000674 1154.59485 1495.14197
1483.0 0.000674 1154.60254 1512.45837
1486.0 0.000673 1154.61255 1532.88818
1494.0 0.000669 1154.62415 1555.64478
1503.0 0.000665 1154.63806 1579.51038
1512.0 0.000661 1154.65430 1602.85413
1524.0 0.000656 1154.67249 1623.60168
1536.0 0.000651 1154.69299 1639.38110
1545.0 0.000647 1154.71558 1647.98425
1549.0 0.000646 1154.74036 1647.84924
1549.0 0.000646 1154.76721 1638.53845
1546.0 0.000647 1154.79651 1620.82898
1533.0 0.000652 1154.82800 1596.50928
1518.0 0.000659 1154.86133 1567.79077
1498.0 0.000668 1154.89685 1536.90002
1478.0 0.000677 1154.93506 1505.64929
1455.0 0.000687 1154.97534 1475.36877
1432.0 0.000698 1155.01770 1446.98474
1412.0 0.000708 1155.06238 1420.97485
1395.0 0.000717 1155.10950 1397.62634
1376.0 0.000727 1155.15833 1376.97717
1362.0 0.000734 1155.21045 1358.95740
1353.0 0.000739 1155.26404 1343.43750
1342.0 0.000745 1155.32043 1330.18665
1330.0 0.000752 1155.37903 1318.95850
1321.0 0.000757 1155.43994 1309.45422
1317.0 0.000759 1155.50342 1301.34253
1312.0 0.000762 1155.56873 1294.29639
1307.0 0.000765 1155.63660 1287.99097
1298.0 0.000770 1155.70691 1282.15820
1296.0 0.000772 1155.77954 1276.60364
1290.0 0.000775 1155.85474 1271.22473
1285.0 0.000778 1155.93262 1266.01721
1276.0 0.000784 1156.01245 1261.01318
1272.0 0.000786 1156.09473 1256.28259
1273.0 0.000786 1156.17944 1251.88330
1276.0 0.000784 1156.26721 1247.85352
1277.0 0.000783 1156.35693 1244.22278
1286.0 0.000778 1156.44897 1240.99426
1298.0 0.000770 1156.54382 1238.17407
1300.0 0.000769 1156.64075 1235.74927
1288.0 0.000776 1156.74036 1233.71094
1274.0 0.000785 1156.84277 1232.05286
1263.0 0.000792 1156.94739 1230.76062
1256.0 0.000796 1157.05444 1229.83337
1254.0 0.000797 1157.16431 1229.26990
1252.0 0.000799 1157.27625 1229.07556
1251.0 0.000799 1157.39099 1229.25867
1250.0 0.000800 1157.50867 1229.83655
1250.0 0.000800 1157.62866 1230.83044
1248.0 0.000801 1157.75098 1232.26904
1249.0 0.000801 1157.87598 1234.18433
1251.0 0.000799 1158.00354 1236.61377
1251.0 0.000799 1158.13379 1239.59619
1254.0 0.000797 1158.26685 1243.17188
1262.0 0.000792 1158.40222 1247.37634
1267.0 0.000789 1158.54004 1252.24109
1271.0 0.000787 1158.68091 1257.77124
1277.0 0.000783 1158.82434 1263.95898
1287.0 0.000777 1158.97046 1270.73694
1296.0 0.000772 1159.11890 1277.99280
1307.0 0.000765 1159.26990 1285.54077
1315.0 0.000760 1159.42395 1293.10779
1324.0 0.000755 1159.58057 1300.38245
1331.0 0.000751 1159.73975 1307.03699
1340.0 0.000746 1159.90173 1312.83093
1350.0 0.000741 1160.06628 1317.65955
1359.0 0.000736 1160.23376 1321.57043
1363.0 0.000734 1160.40381 1324.72534
1368.0 0.000731 1160.57642 1327.30139
1368.0 0.000731 1160.75195 1329.41577
1368.0 0.000731 1160.93005 1331.04565
1366.0 0.000732 1161.11096 1332.05115
1368.0 0.000731 1161.29456 1332.23376
1372.0 0.000729 1161.48047 1331.43921
1375.0 0.000727 1161.66980 1329.64282
1371.0 0.000729 1161.86182 1326.99817
1368.0 0.000731 1162.05640 1323.82715
1364.0 0.000733 1162.25391 1320.54236
1361.0 0.000735 1162.45374 1317.58716
1352.0 0.000740 1162.65649 1315.35620
1347.0 0.000742 1162.86230 1314.17371
1341.0 0.000746 1163.07043 1314.27673
1340.0 0.000746 1163.28198 1315.81738
1339.0 0.000747 1163.49585 1318.87061
1342.0 0.000745 1163.71252 1323.43726
1347.0 0.000742 1163.93201 1329.43958
1353.0 0.000739 1164.15417 1336.69214
1358.0 0.000736 1164.37939 1344.92017
1364.0 0.000733 1164.60718 1353.70520
1372.0 0.000729 1164.83789 1362.54675
1382.0 0.000724 1165.07153 1370.88989
1395.0 0.000717 1165.30786 1378.19055
1403.0 0.000713 1165.54712 1384.02686
1409.0 0.000710 1165.78906 1388.11206
1411.0 0.000709 1166.03357 1390.28943
1412.0 0.000708 1166.28125 1390.47083
1413.0 0.000708 1166.53174 1388.62000
1411.0 0.000709 1166.78516 1384.77905
1407.0 0.000711 1167.04102 1379.13428
1398.0 0.000715 1167.29980 1372.04749
1391.0 0.000719 1167.56177 1364.02783
1387.0 0.000721 1167.82642 1355.65942
1380.0 0.000725 1168.09338 1347.48572
1367.0 0.000732 1168.36365 1339.97034
1358.0 0.000736 1168.63684 1333.44263
1353.0 0.000739 1168.91284 1328.11377
1351.0 0.000740 1169.19141 1324.11523
1348.0 0.000742 1169.47314 1321.50244
1344.0 0.000744 1169.75745 1320.31018
1343.0 0.000745 1170.04468 1320.55090
1343.0 0.000745 1170.33472 1322.25354
1349.0 0.000741 1170.62756 1325.44653
1354.0 0.000739 1170.92346 1330.15332
1360.0 0.000735 1171.22168 1336.37561
1369.0 0.000730 1171.52295 1344.08154
1383.0 0.000723 1171.82751 1353.19067
1396.0 0.000716 1172.13464 1363.53918
1412.0 0.000708 1172.44446 1374.93164
1427.0 0.000701 1172.75708 1387.11060
1443.0 0.000693 1173.07263 1399.85083
1458.0 0.000686 1173.39124 1412.99341
1477.0 0.000677 1173.71216 1426.44519
1496.0 0.000668 1174.03674 1440.24011
1513.0 0.000661 1174.36328 1454.38721
1536.0 0.000651 1174.69275 1468.83667
1566.0 0.000639 1175.02527 1483.34644
1593.0 0.000628 1175.36047 1497.36096
1624.0 0.000616 1175.69861 1510.05859
1653.0 0.000605 1176.03943 1520.32898
1679.0 0.000596 1176.38342 1527.02771
1697.0 0.000589 1176.73010 1529.23853
1708.0 0.000585 1177.07898 1526.56238
1710.0 0.000585 1177.43140 1519.28284
1704.0 0.000587 1177.78613 1508.31213
1691.0 0.000591 1178.14392 1494.93201
1671.0 0.000598 1178.50427 1480.49829
1648.0 0.000607 1178.86768 1466.24609
1624.0 0.000616 1179.23352 1453.06531
1596.0 0.000627 1179.60229 1441.74512
1575.0 0.000635 1179.97363 1432.64624
1561.0 0.000641 1180.34802 1425.98267
1547.0 0.000646 1180.72485 1421.81824
1538.0 0.000650 1181.10474 1420.07910
1537.0 0.000651 1181.48730 1420.59607
1541.0 0.000649 1181.87268 1423.11963
1546.0 0.000647 1182.26013 1427.35974
1550.0 0.000645 1182.65112 1432.99536
1560.0 0.000641 1183.04468 1439.69519
1580.0 0.000633 1183.44055 1447.07886
1598.0 0.000626 1183.83911 1454.73328
1607.0 0.000622 1184.24048 1462.18689
1615.0 0.000619 1184.64453 1468.97083
1625.0 0.000615 1185.05139 1474.75183
1627.0 0.000615 1185.46130 1479.41882
1627.0 0.000615 1185.87305 1483.13428
1619.0 0.000618 1186.28809 1486.27917
1609.0 0.000622 1186.70544 1489.28601
1602.0 0.000624 1187.12549 1492.48120
1598.0 0.000626 1187.54797 1495.94043
1590.0 0.000629 1187.97314 1499.42578
1577.0 0.000634 1188.40100 1502.39172
1568.0 0.000638 1188.83142 1504.07581
1563.0 0.000640 1189.26428 1503.71533
1556.0 0.000643 1189.69995 1500.74060
1544.0 0.000648 1190.13794 1494.97876
1540.0 0.000649 1190.57886 1486.70557
1538.0 0.000650 1191.02173 1476.57837
1529.0 0.000654 1191.46802 1465.43823
1518.0 0.000659 1191.91602 1454.14893
1508.0 0.000663 1192.36670 1443.41479
1502.0 0.000666 1192.82031 1433.86230
1499.0 0.000667 1193.27576 1425.85437
1496.0 0.000668 1193.73425 1419.59827
1493.0 0.000670 1194.19495 1415.15149
1492.0 0.000670 1194.65796 1412.42126
1498.0 0.000668 1195.12366 1411.18274
1500.0 0.000667 1195.59143 1411.10107
1503.0 0.000665 1196.06165 1411.76062
1507.0 0.000664 1196.53430 1412.71826
1513.0 0.000661 1197.00977 1413.56946
1515.0 0.000660 1197.48755 1413.98889
1519.0 0.000658 1197.96680 1413.74231
1522.0 0.000657 1198.44934 1412.67188
1515.0 0.000660 1198.93359 1410.67212
1512.0 0.000661 1199.42041 1407.70093
1506.0 0.000664 1199.90979 1403.81177
1497.0 0.000668 1200.40088 1399.20129
1491.0 0.000671 1200.89514 1394.18054
1484.0 0.000674 1201.39075 1389.15320
1474.0 0.000678 1201.88867 1384.52576
1467.0 0.000682 1202.38928 1380.65198
1463.0 0.000684 1202.89148 1377.81201
1458.0 0.000686 1203.39624 1376.18665
1452.0 0.000689 1203.90320 1375.88440
1452.0 0.000689 1204.41187 1376.93884
1454.0 0.000688 1204.92358 1379.35242
1453.0 0.000688 1205.43652 1383.08826
1456.0 0.000687 1205.95239 1388.07874
1467.0 0.000682 1206.46973 1394.22913
1476.0 0.000678 1206.98853 1401.36389
1480.0 0.000676 1207.51086 1409.24316
1490.0 0.000671 1208.03381 1417.50928
1503.0 0.000665 1208.55945 1425.77600
1508.0 0.000663 1209.08716 1433.63672
1514.0 0.000661 1209.61633 1440.78284
1524.0 0.000656 1210.14807 1447.06799
1538.0 0.000650 1210.68152 1452.49756
1548.0 0.000646 1211.21680 1457.21667
1556.0 0.000643 1211.75391 1461.39429
1560.0 0.000641 1212.29285 1465.19165
1564.0 0.000639 1212.83386 1468.73853
1570.0 0.000637 1213.37659 1472.16968
1577.0 0.000634 1213.92114 1475.67859
1586.0 0.000631 1214.46741 1479.51440
1596.0 0.000627 1215.01526 1483.94934
1608.0 0.000622 1215.56531 1489.22327
1616.0 0.000619 1216.11658 1495.48767
1628.0 0.000614 1216.66992 1502.79102
1649.0 0.000606 1217.22498 1511.05688
1670.0 0.000599 1217.78088 1520.11951
1685.0 0.000593 1218.33936 1529.73413
1702.0 0.000588 1218.89917 1539.58533
1719.0 0.000582 1219.46045 1549.38135
1738.0 0.000575 1220.02332 1558.85095
1751.0 0.000571 1220.58765 1567.78162
1765.0 0.000567 1221.15393 1575.98694
1767.0 0.000566 1221.72131 1583.28003
1768.0 0.000566 1222.29016 1589.48303
1768.0 0.000566 1222.86060 1594.44067
1767.0 0.000566 1223.43201 1598.07129
1765.0 0.000567 1224.00562 1600.38184
1760.0 0.000568 1224.57959 1601.48035
1751.0 0.000571 1225.15564 1601.62085
1745.0 0.000573 1225.73291 1601.22375
1734.0 0.000577 1226.31116 1600.88721
1719.0 0.000582 1226.89099 1601.32068
1709.0 0.000585 1227.47180 1603.23767
1702.0 0.000588 1228.05457 1607.23743
1696.0 0.000590 1228.63757 1613.68127
1686.0 0.000593 1229.22180 1622.64905
1689.0 0.000592 1229.80737 1633.89685
1701.0 0.000588 1230.39417 1646.83374
1711.0 0.000584 1230.98267 1660.58801
1722.0 0.000581 1231.57068 1674.00549
1733.0 0.000577 1232.16064 1685.81812
1743.0 0.000574 1232.75183 1694.75732
1759.0 0.000569 1233.34363 1699.72290
1769.0 0.000565 1233.93640 1699.99304
1775.0 0.000563 1234.52991 1695.33459
1780.0 0.000562 1235.12402 1685.99597
1782.0 0.000561 1235.71960 1672.56799
1773.0 0.000564 1236.31567 1655.83691
1746.0 0.000573 1236.91272 1636.53296
1711.0 0.000584 1237.51074 1615.36072
1687.0 0.000593 1238.10901 1592.93689
1661.0 0.000602 1238.70837 1569.86377
1632.0 0.000613 1239.30835 1546.80164
1605.0 0.000623 1239.90869 1524.33777
1583.0 0.000632 1240.50989 1503.04224
1560.0 0.000641 1241.11096 1483.32336
1534.0 0.000652 1241.71362 1465.45459
1516.0 0.000660 1242.31628 1449.60974
1501.0 0.000666 1242.91980 1435.80615
1479.0 0.000676 1243.52332 1424.02124
1463.0 0.000684 1244.12732 1414.14197
1452.0 0.000689 1244.73181 1406.01184
1438.0 0.000695 1245.33679 1399.46484
1427.0 0.000701 1245.94214 1394.29590
1417.0 0.000706 1246.54700 1390.30469
1410.0 0.000709 1247.15295 1387.29004
1405.0 0.000712 1247.75928 1385.07959
1396.0 0.000716 1248.36487 1383.55273
1390.0 0.000719 1248.97156 1382.63416
1385.0 0.000722 1249.57800 1382.28870
1381.0 0.000724 1250.18408 1382.49329
1376.0 0.000727 1250.79114 1383.21448
1373.0 0.000728 1251.39758 1384.37830
1374.0 0.000728 1252.00439 1385.85803
1376.0 0.000727 1252.61096 1387.47095
1374.0 0.000728 1253.21704 1389.03015
1373.0 0.000728 1253.82373 1390.33411
1375.0 0.000727 1254.42969 1391.24487
1373.0 0.000728 1255.03625 1391.75452
1368.0 0.000731 1255.64185 1391.95410
1368.0 0.000731 1256.24719 1392.03833
1374.0 0.000728 1256.85278 1392.25928
1379.0 0.000725 1257.45752 1392.86707
1377.0 0.000726 1258.06287 1394.08643
1378.0 0.000726 1258.66675 1396.07422
1381.0 0.000724 1259.27051 1398.94226
1383.0 0.000723 1259.87415 1402.73096
1391.0 0.000719 1260.47668 1407.42078
1396.0 0.000716 1261.07947 1412.93201
1403.0 0.000713 1261.68103 1419.13074
1410.0 0.000709 1262.28210 1425.86011
1417.0 0.000706 1262.88293 1432.97351
1428.0 0.000700 1263.48254 1440.36780
1435.0 0.000697 1264.08167 1448.03247
1437.0 0.000696 1264.68005 1456.02832
1442.0 0.000693 1265.27710 1464.47974
1450.0 0.000690 1265.87451 1473.50671
1459.0 0.000685 1266.47021 1483.15588
1468.0 0.000681 1267.06555 1493.40222
1472.0 0.000679 1267.65894 1504.08789
1486.0 0.000673 1268.25220 1514.96375
1500.0 0.000667 1268.84436 1525.68018
1511.0 0.000662 1269.43555 1535.81226
1524.0 0.000656 1270.02563 1544.94629
1538.0 0.000650 1270.61389 1552.67627
1547.0 0.000646 1271.20178 1558.66150
1552.0 0.000644 1271.78784 1562.63281
1556.0 0.000643 1272.37280 1564.34863
1559.0 0.000641 1272.95691 1563.67053
1566.0 0.000639 1273.53931 1560.60889
1570.0 0.000637 1274.12061 1555.36511
1567.0 0.000638 1274.70081 1548.33435
1563.0 0.000640 1275.27856 1540.06177
1558.0 0.000642 1275.85547 1531.12585
1554.0 0.000644 1276.43115 1522.07812
1546.0 0.000647 1277.00427 1513.35120
1542.0 0.000649 1277.57690 1505.24561
1538.0 0.000650 1278.14746 1497.93884
1530.0 0.000654 1278.71643 1491.49146
1527.0 0.000655 1279.28357 1485.92151
1525.0 0.000656 1279.84888 1481.21704
1518.0 0.000659 1280.41223 1477.38000
1513.0 0.000661 1280.97375 1474.41687
1512.0 0.000661 1281.53442 1472.29028
1513.0 0.000661 1282.09180 1470.89734
1515.0 0.000660 1282.64783 1470.08240
1518.0 0.000659 1283.20203 1469.58362
1522.0 0.000657 1283.75378 1469.10645
1523.0 0.000657 1284.30383 1468.36633
1524.0 0.000656 1284.85156 1467.12500
1530.0 0.000654 1285.39697 1465.20349
1527.0 0.000655 1285.94080 1462.44800
1519.0 0.000658 1286.48157 1458.85852
1517.0 0.000659 1287.02087 1454.37793
1510.0 0.000662 1287.55750 1449.04395
1495.0 0.000669 1288.09155 1442.97339
1483.0 0.000674 1288.62354 1436.36035
1481.0 0.000675 1289.15283 1429.47742
1468.0 0.000681 1289.68042 1422.59729
1453.0 0.000688 1290.20447 1415.98816
1441.0 0.000694 1290.72595 1409.85535
1429.0 0.000700 1291.24548 1404.34924
1423.0 0.000703 1291.76221 1399.57507
1411.0 0.000709 1292.27612 1395.58496
1402.0 0.000713 1292.78711 1392.40845
1399.0 0.000715 1293.29565 1390.05505
1397.0 0.000716 1293.80139 1388.51538
1394.0 0.000717 1294.30408 1387.78577
1387.0 0.000721 1294.80420 1387.85571
1383.0 0.000723 1295.30151 1388.71741
1385.0 0.000722 1295.79529 1390.35815
1384.0 0.000723 1296.28638 1392.77563
1385.0 0.000722 1296.77405 1395.96143
1391.0 0.000719 1297.25928 1399.90039
1401.0 0.000714 1297.74097 1404.56934
1408.0 0.000710 1298.21948 1409.92383
1414.0 0.000707 1298.69531 1415.88855
1419.0 0.000705 1299.16711 1422.36975
1422.0 0.000703 1299.63635 1429.23462
1434.0 0.000697 1300.10181 1436.33521
1448.0 0.000691 1300.56360 1443.55066
1461.0 0.000684 1301.02258 1450.82861
1471.0 0.000680 1301.47803 1458.19238
1474.0 0.000678 1301.92969 1465.77441
1474.0 0.000678 1302.37817 1473.74902
1482.0 0.000675 1302.82312 1482.30835
1496.0 0.000668 1303.26428 1491.59351
1507.0 0.000664 1303.70166 1501.62146
1522.0 0.000657 1304.13586 1512.29187
1541.0 0.000649 1304.56580 1523.32751
1557.0 0.000642 1304.99194 1534.31189
1568.0 0.000638 1305.41467 1544.70398
1584.0 0.000631 1305.83325 1553.85828
1610.0 0.000621 1306.24829 1561.15417
1627.0 0.000615 1306.65918 1566.03369
1635.0 0.000612 1307.06592 1568.14429
1638.0 0.000611 1307.46899 1567.41980
1643.0 0.000609 1307.86816 1564.13477
1641.0 0.000609 1308.26282 1558.84961
1632.0 0.000613 1308.65356 1552.33533
1617.0 0.000618 1309.04016 1545.37756
1601.0 0.000625 1309.42261 1538.68640
1588.0 0.000630 1309.80066 1532.82373
1575.0 0.000635 1310.17493 1528.15796
1560.0 0.000641 1310.54419 1524.87805
1552.0 0.000644 1310.90942 1523.00415
1547.0 0.000646 1311.27039 1522.41101
1542.0 0.000649 1311.62695 1522.83801
1541.0 0.000649 1311.97913 1523.93152
1543.0 0.000648 1312.32629 1525.29114
1538.0 0.000650 1312.66919 1526.55493
1534.0 0.000652 1313.00793 1527.45349
1541.0 0.000649 1313.34155 1527.88794
1545.0 0.000647 1313.67102 1527.93018
1543.0 0.000648 1313.99548 1527.79297
1543.0 0.000648 1314.31531 1527.76001
1542.0 0.000649 1314.63037 1528.09595
1544.0 0.000648 1314.94043 1528.96741
1546.0 0.000647 1315.24597 1530.41650
1550.0 0.000645 1315.54663 1532.32910
1558.0 0.000642 1315.84204 1534.48889
1567.0 0.000638 1316.13318 1536.62415
1570.0 0.000637 1316.41895 1538.49304
1566.0 0.000639 1316.69983 1539.97095
1564.0 0.000639 1316.97595 1541.07031
1568.0 0.000638 1317.24658 1541.91516
1567.0 0.000638 1317.51245 1542.70337
1562.0 0.000640 1317.77307 1543.57263
1561.0 0.000641 1318.02820 1544.56201
1558.0 0.000642 1318.27832 1545.60034
1554.0 0.000644 1318.52332 1546.54993
1544.0 0.000648 1318.76318 1547.23071
1532.0 0.000653 1318.99744 1547.52039
1526.0 0.000655 1319.22644 1547.46265
1524.0 0.000656 1319.45032 1547.20007
1521.0 0.000657 1319.66870 1546.99426
1511.0 0.000662 1319.88184 1547.17773
1508.0 0.000663 1320.08911 1548.07739
1508.0 0.000663 1320.29114 1549.98425
1508.0 0.000663 1320.48767 1553.09424
1512.0 0.000661 1320.67859 1557.49609
1520.0 0.000658 1320.86401 1563.12927
1524.0 0.000656 1321.04358 1569.74866
1530.0 0.000654 1321.21814 1576.92188
1531.0 0.000653 1321.38635 1584.00562
1537.0 0.000651 1321.54944 1590.21167
1556.0 0.000643 1321.70630 1594.70081
1570.0 0.000637 1321.85767 1596.72571
1571.0 0.000637 1322.00317 1595.80725
1566.0 0.000639 1322.14307 1591.82739
1562.0 0.000640 1322.27686 1585.02600
1554.0 0.000644 1322.40479 1575.89490
1546.0 0.000647 1322.52710 1565.07971
1534.0 0.000652 1322.64331 1553.20581
1526.0 0.000655 1322.75391 1540.88550
1512.0 0.000661 1322.85791 1528.62683
1495.0 0.000669 1322.95642 1516.86401
1488.0 0.000672 1323.04883 1505.96741
1481.0 0.000675 1323.13501 1496.19275
1467.0 0.000682 1323.21497 1487.75732
1457.0 0.000686 1323.28967 1480.78015
1456.0 0.000687 1323.35767 1475.32837
1458.0 0.000686 1323.41943 1471.43762
1458.0 0.000686 1323.47534 1469.10120
1457.0 0.000686 1323.52466 1468.28821
1460.0 0.000685 1323.56799 1468.93994
1468.0 0.000681 1323.60510 1470.97461
1488.0 0.000672 1323.63611 1474.27820
1516.0 0.000660 1323.66089 1478.70544
1533.0 0.000652 1323.67920 1484.07202
1537.0 0.000651 1323.69128 1490.17126
1539.0 0.000650 1323.69714 1496.76208
1548.0 0.000646 1323.69641 1503.56628
1563.0 0.000640 1323.68933 1510.29492
1578.0 0.000634 1323.67578 1516.58691
1589.0 0.000629 1323.65637 1522.05359
1598.0 0.000626 1323.63013 1526.29712
1601.0 0.000625 1323.59741 1528.98169
1607.0 0.000622 1323.55811 1529.93921
1621.0 0.000617 1323.51257 1529.22754
1619.0 0.000618 1323.46082 1527.14075
1599.0 0.000625 1323.40222 1524.13928
1588.0 0.000630 1323.33728 1520.76306
1585.0 0.000631 1323.26526 1517.51794
1574.0 0.000635 1323.18726 1514.82739
1569.0 0.000637 1323.10254 1512.97607
1566.0 0.000639 1323.01160 1512.14856
1561.0 0.000641 1322.91321 1512.39526
1556.0 0.000643 1322.80847 1513.66528
1551.0 0.000645 1322.69788 1515.81274
1548.0 0.000646 1322.57996 1518.60254
1549.0 0.000646 1322.45557 1521.72864
1552.0 0.000644 1322.32434 1524.82776
1554.0 0.000644 1322.18677 1527.54919
1550.0 0.000645 1322.04272 1529.59009
1541.0 0.000649 1321.89136 1530.76697
1535.0 0.000651 1321.73376 1531.04443
1538.0 0.000650 1321.56946 1530.50281
1535.0 0.000651 1321.39807 1529.32410
1535.0 0.000651 1321.22034 1527.73291
1537.0 0.000651 1321.03564 1525.94983
1528.0 0.000654 1320.84448 1524.16052
1515.0 0.000660 1320.64673 1522.49060
1505.0 0.000664 1320.44177 1520.99902
1504.0 0.000665 1320.23035 1519.69409
1504.0 0.000665 1320.01208 1518.54150
1506.0 0.000664 1319.78687 1517.48706
1506.0 0.000664 1319.55530 1516.44629
1495.0 0.000669 1319.31702 1515.29468
1484.0 0.000674 1319.07153 1513.87378
1481.0 0.000675 1318.81982 1511.97632
1480.0 0.000676 1318.56091 1509.37073
1472.0 0.000679 1318.29529 1505.84070
1469.0 0.000681 1318.02307 1501.20605
1470.0 0.000680 1317.74402 1495.40234
1465.0 0.000683 1317.45825 1488.48047
1452.0 0.000689 1317.16553 1480.62952
1429.0 0.000700 1316.86646 1472.15063
1416.0 0.000706 1316.56018 1463.37427
1412.0 0.000708 1316.24768 1454.64307
1406.0 0.000711 1315.92834 1446.23181
1400.0 0.000714 1315.60193 1438.35144
1387.0 0.000721 1315.26855 1431.15308
1376.0 0.000727 1314.92896 1424.71863
1368.0 0.000731 1314.58252 1419.10083
1362.0 0.000734 1314.22961 1414.31409
1359.0 0.000736 1313.86914 1410.35095
1352.0 0.000740 1313.50281 1407.21057
1350.0 0.000741 1313.12939 1404.87585
1346.0 0.000743 1312.74976 1403.33704
1335.0 0.000749 1312.36328 1402.58276
1330.0 0.000752 1311.96960 1402.61389
1328.0 0.000753 1311.56946 1403.43555
1324.0 0.000755 1311.16309 1405.05469
1322.0 0.000756 1310.74963 1407.48914
1325.0 0.000755 1310.33008 1410.75940
1330.0 0.000752 1309.90320 1414.88513
1334.0 0.000750 1309.47083 1419.87585
1339.0 0.000747 1309.03064 1425.73596
1338.0 0.000747 1308.58447 1432.44336
1339.0 0.000747 1308.13208 1439.95386
1344.0 0.000744 1307.67273 1448.20044
1354.0 0.000739 1307.20679 1457.06677
1363.0 0.000734 1306.73462 1466.44995
1369.0 0.000730 1306.25574 1476.22192
1370.0 0.000730 1305.77063 1486.28577
1376.0 0.000727 1305.27917 1496.55200
1387.0 0.000721 1304.78088 1506.88953
1405.0 0.000712 1304.27637 1517.13135
1426.0 0.000701 1303.76587 1526.99329
1439.0 0.000695 1303.24890 1536.11365
1449.0 0.000690 1302.72498 1544.07556
1463.0 0.000684 1302.19495 1550.47876
1472.0 0.000679 1301.65869 1555.05994
1481.0 0.000675 1301.11670 1557.72827
1486.0 0.000673 1300.56787 1558.61475
1489.0 0.000672 1300.01306 1558.01538
1494.0 0.000669 1299.45227 1556.35242
1496.0 0.000668 1298.88489 1554.09607
1496.0 0.000668 1298.31165 1551.72339
1495.0 0.000669 1297.73230 1549.67456
1489.0 0.000672 1297.14661 1548.32642
1489.0 0.000672 1296.55530 1547.94495
1494.0 0.000669 1295.95740 1548.66711
1497.0 0.000668 1295.35400 1550.45923
1493.0 0.000670 1294.74487 1553.10168
1498.0 0.000668 1294.12903 1556.21167
1509.0 0.000663 1293.50781 1559.26379
1514.0 0.000661 1292.88037 1561.68396
1522.0 0.000657 1292.24792 1562.93164
1526.0 0.000655 1291.60938 1562.58813
1523.0 0.000657 1290.96448 1560.41235
1519.0 0.000658 1290.31433 1556.36047
1524.0 0.000656 1289.65820 1550.55481
1518.0 0.000659 1288.99683 1543.27039
1497.0 0.000668 1288.32983 1534.87622
1483.0 0.000674 1287.65686 1525.78625
1474.0 0.000678 1286.97900 1516.43066
1463.0 0.000684 1286.29504 1507.15198
1450.0 0.000690 1285.60608 1498.20117
1434.0 0.000697 1284.91150 1489.67224
1419.0 0.000705 1284.21094 1481.51868
1410.0 0.000709 1283.50623 1473.59607
1404.0 0.000712 1282.79529 1465.67981
1403.0 0.000713 1282.07971 1457.58093
1396.0 0.000716 1281.35901 1449.17529
1389.0 0.000720 1280.63257 1440.45789
1378.0 0.000726 1279.90137 1431.55859
1366.0 0.000732 1279.16467 1422.66541
1358.0 0.000736 1278.42346 1414.01331
1353.0 0.000739 1277.67786 1405.81616
1345.0 0.000743 1276.92639 1398.23206
1338.0 0.000747 1276.17029 1391.38782
1335.0 0.000749 1275.40930 1385.34485
1329.0 0.000752 1274.64392 1380.14172
1328.0 0.000753 1273.87390 1375.78064
1325.0 0.000755 1273.09851 1372.24438
1323.0 0.000756 1272.31921 1369.51819
1325.0 0.000755 1271.53467 1367.57568
1326.0 0.000754 1270.74622 1366.41150
1327.0 0.000754 1269.95312 1366.01514
1332.0 0.000751 1269.15515 1366.38708
1331.0 0.000751 1268.35352 1367.52942
1327.0 0.000754 1267.54724 1369.43884
1324.0 0.000755 1266.73682 1372.09204
1324.0 0.000755 1265.92273 1375.44543
1324.0 0.000755 1265.10388 1379.41919
1320.0 0.000758 1264.28101 1383.88379
1318.0 0.000759 1263.45398 1388.66943
1318.0 0.000759 1262.62317 1393.52417
1322.0 0.000756 1261.78943 1398.14587
1323.0 0.000756 1260.95056 1402.17419
1323.0 0.000756 1260.10815 1405.22815
1327.0 0.000754 1259.26233 1406.97668
1332.0 0.000751 1258.41321 1407.19458
1338.0 0.000747 1257.56018 1405.84119
1335.0 0.000749 1256.70300 1403.05688
1332.0 0.000751 1255.84277 1399.14429
1335.0 0.000749 1254.97949 1394.48267
1335.0 0.000749 1254.11267 1389.45435
1334.0 0.000750 1253.24280 1384.38452
1336.0 0.000749 1252.36914 1379.50586
1335.0 0.000749 1251.49329 1374.97510
1330.0 0.000752 1250.61365 1370.86328
1333.0 0.000750 1249.73108 1367.20935
1342.0 0.000745 1248.84631 1364.01111
1348.0 0.000742 1247.95776 1361.26001
1344.0 0.000744 1247.06677 1358.93079
1352.0 0.000740 1246.17273 1356.97571
1364.0 0.000733 1245.27637 1355.31836
1362.0 0.000734 1244.37805 1353.86206
1358.0 0.000736 1243.47632 1352.49585
1362.0 0.000734 1242.57251 1351.12207
1364.0 0.000733 1241.66589 1349.65955
1368.0 0.000731 1240.75781 1348.06592
1373.0 0.000728 1239.84729 1346.31018
1366.0 0.000732 1238.93408 1344.38037
1359.0 0.000736 1238.01892 1342.27368
1358.0 0.000736 1237.10266 1340.00830
1355.0 0.000738 1236.18335 1337.63452
1357.0 0.000737 1235.26294 1335.23291
1360.0 0.000735 1234.34009 1332.90942
1346.0 0.000743 1233.41626 1330.78870
1330.0 0.000752 1232.49036 1328.97498
1329.0 0.000752 1231.56299 1327.55286
1326.0 0.000754 1230.63440 1326.57385
1319.0 0.000758 1229.70459 1326.04053
1323.0 0.000756 1228.77295 1325.92273
1317.0 0.000759 1227.84009 1326.14136
1311.0 0.000763 1226.90637 1326.58801
1321.0 0.000757 1225.97192 1327.12646
1324.0 0.000755 1225.03589 1327.62231
1314.0 0.000761 1224.09900 1327.95398
1311.0 0.000763 1223.16138 1328.04517
1320.0 0.000758 1222.22375 1327.86121
1329.0 0.000752 1221.28479 1327.41089
1342.0 0.000745 1220.34485 1326.72974
1342.0 0.000745 1219.40491 1325.90942
1339.0 0.000747 1218.46423 1325.03394
1335.0 0.000749 1217.52380 1324.21460
1327.0 0.000754 1216.58276 1323.57458
1327.0 0.000754 1215.64148 1323.23462
1333.0 0.000750 1214.70081 1323.30701
1340.0 0.000746 1213.75903 1323.86670
1340.0 0.000746 1212.81836 1324.95276
1342.0 0.000745 1211.87744 1326.56458
1345.0 0.000743 1210.93689 1328.62915
1335.0 0.000749 1209.99646 1331.14148
1337.0 0.000748 1209.05615 1333.97180
1349.0 0.000741 1208.11682 1336.99976
1347.0 0.000742 1207.17859 1340.15063
1351.0 0.000740 1206.24023 1343.29663
1365.0 0.000733 1205.30298 1346.30505
1369.0 0.000730 1204.36621 1349.04419
1372.0 0.000729 1203.43127 1351.35876
1384.0 0.000723 1202.49707 1353.10266
1387.0 0.000721 1201.56335 1354.15955
1383.0 0.000723 1200.63135 1354.47083
1384.0 0.000723 1199.70007 1354.08728
1376.0 0.000727 1198.77136 1353.17224
1362.0 0.000734 1197.84338 1351.98230
1359.0 0.000736 1196.91675 1350.82007
1358.0 0.000736 1195.99292 1350.00549
1357.0 0.000737 1195.06921 1349.77954
1352.0 0.000740 1194.14832 1350.31567
1344.0 0.000744 1193.22925 1351.67285
1336.0 0.000749 1192.31177 1353.79700
1328.0 0.000753 1191.39734 1356.50366
1320.0 0.000758 1190.48401 1359.48047
1318.0 0.000759 1189.57349 1362.29126
1320.0 0.000758 1188.66565 1364.42004
1322.0 0.000756 1187.75977 1365.33325
1319.0 0.000758 1186.85669 1364.57812
1315.0 0.000760 1185.95593 1361.88403
1312.0 0.000762 1185.05823 1357.22510
1308.0 0.000765 1184.16345 1350.82532
1311.0 0.000763 1183.27100 1343.07727
1307.0 0.000765 1182.38184 1334.47095
1294.0 0.000773 1181.49561 1325.45862
1289.0 0.000776 1180.61304 1316.44067
1289.0 0.000776 1179.73364 1307.69507
1284.0 0.000779 1178.85693 1299.40649
1279.0 0.000782 1177.98462 1291.68176
1276.0 0.000784 1177.11511 1284.55737
1276.0 0.000784 1176.24939 1278.04407
1279.0 0.000782 1175.38733 1272.10681
1272.0 0.000786 1174.52893 1266.68701
1263.0 0.000792 1173.67517 1261.73022
1259.0 0.000794 1172.82410 1257.13318
1253.0 0.000798 1171.97815 1252.81226
1249.0 0.000801 1171.13660 1248.68860
1246.0 0.000803 1170.29810 1244.71191
1243.0 0.000805 1169.46484 1240.86987
1247.0 0.000802 1168.63538 1237.19092
1238.0 0.000808 1167.81055 1233.72168
1232.0 0.000812 1166.99084 1230.51392
1231.0 0.000812 1166.17505 1227.60645
1224.0 0.000817 1165.36438 1225.06177
1218.0 0.000821 1164.55847 1222.89380
1211.0 0.000826 1163.75781 1221.10632
1209.0 0.000827 1162.96191 1219.71826
1216.0 0.000822 1162.17065 1218.70569
1216.0 0.000822 1161.38538 1218.04285
1214.0 0.000824 1160.60461 1217.68616
1221.0 0.000819 1159.83008 1217.57031
1221.0 0.000819 1159.06030 1217.61353
1217.0 0.000822 1158.29578 1217.70312
1217.0 0.000822 1157.53748 1217.71460
1221.0 0.000819 1156.78406 1217.50281
1229.0 0.000814 1156.03699 1216.94165
1227.0 0.000815 1155.29614 1215.92908
1223.0 0.000818 1154.56067 1214.41223
1228.0 0.000814 1153.83093 1212.40259
1229.0 0.000814 1153.10730 1209.95862
1222.0 0.000818 1152.39026 1207.19226
1217.0 0.000822 1151.68005 1204.21936
1212.0 0.000825 1150.97498 1201.15820
1200.0 0.000833 1150.27661 1198.10547
1195.0 0.000837 1149.58435 1195.15894
1194.0 0.000838 1148.89941 1192.36731
1188.0 0.000842 1148.22095 1189.77075
1182.0 0.000846 1147.54871 1187.38403
1184.0 0.000845 1146.88354 1185.22241
1186.0 0.000843 1146.22498 1183.27905
1182.0 0.000846 1145.57361 1181.56152
1179.0 0.000848 1144.92896 1180.05273
1174.0 0.000852 1144.29150 1178.73999
1167.0 0.000857 1143.66101 1177.60535
1164.0 0.000859 1143.03772 1176.62793
1169.0 0.000855 1142.42200 1175.78516
1176.0 0.000850 1141.81360 1175.04895
1171.0 0.000854 1141.21204 1174.38757
1154.0 0.000867 1140.61853 1173.77283
1156.0 0.000865 1140.03198 1173.17688
1166.0 0.000858 1139.45337 1172.57532
1163.0 0.000860 1138.88245 1171.95959
1154.0 0.000867 1138.31909 1171.31201
1151.0 0.000869 1137.76367 1170.67017
1161.0 0.000861 1137.21570 1170.03992
1162.0 0.000861 1136.67627 1169.44434
1158.0 0.000864 1136.14478 1168.91235
1156.0 0.000865 1135.62061 1168.46802
1155.0 0.000866 1135.10461 1168.13196
1160.0 0.000862 1134.59717 1167.92383
1162.0 0.000861 1134.09790 1167.86072
1162.0 0.000861 1133.60657 1167.95593
1159.0 0.000863 1133.12341 1168.21594
1163.0 0.000860 1132.64917 1168.66516
1165.0 0.000858 1132.18311 1169.30945
1162.0 0.000861 1131.72559 1170.16138
1173.0 0.000853 1131.27625 1171.22949
1182.0 0.000846 1130.83545 1172.52478
1177.0 0.000850 1130.40381 1174.05164
1167.0 0.000857 1129.98022 1175.81128
1165.0 0.000858 1129.56519 1177.80151
1170.0 0.000855 1129.15955 1180.00867
1178.0 0.000849 1128.76196 1182.41492
1188.0 0.000842 1128.37378 1184.99390
1193.0 0.000838 1127.99390 1187.71680
1199.0 0.000834 1127.62378 1190.55969
1207.0 0.000829 1127.26184 1193.51221
1215.0 0.000823 1126.90894 1196.58411
1215.0 0.000823 1126.56482 1199.79626
1211.0 0.000826 1126.23022 1203.18091
1217.0 0.000822 1125.90454 1206.76685
1223.0 0.000818 1125.58801 1210.57922
1226.0 0.000816 1125.28015 1214.62500
1229.0 0.000814 1124.98206 1218.92810
1218.0 0.000821 1124.69263 1223.49316
1208.0 0.000828 1124.41284 1228.32678
1220.0 0.000820 1124.14197 1233.43628
1246.0 0.000803 1123.88049 1238.82434
1252.0 0.000799 1123.62805 1244.45349
1244.0 0.000804 1123.38550 1250.26648
1250.0 0.000800 1123.15173 1256.15369
1257.0 0.000796 1122.92737 1261.97339
1264.0 0.000791 1122.71228 1267.54919
1279.0 0.000782 1122.50635 1272.67395
1292.0 0.000774 1122.31042 1277.16602
1300.0 0.000769 1122.12366 1280.88623
1307.0 0.000765 1121.94617 1283.77808
1320.0 0.000758 1121.77771 1285.87512
1336.0 0.000749 1121.61902 1287.27795
1337.0 0.000748 1121.46948 1288.12195
1336.0 0.000749 1121.32983 1288.52600
1342.0 0.000745 1121.19922 1288.56689
1344.0 0.000744 1121.07812 1288.26550
1345.0 0.000743 1120.96631 1287.59729
1333.0 0.000750 1120.86414 1286.51697
1323.0 0.000756 1120.77100 1285.00146
1323.0 0.000756 1120.68726 1283.07227
1326.0 0.000754 1120.61316 1280.80847
1336.0 0.000749 1120.54810 1278.34167
1327.0 0.000754 1120.49280 1275.82886
1311.0 0.000763 1120.44666 1273.43042
1310.0 0.000763 1120.40991 1271.27820
1310.0 0.000763 1120.38257 1269.47754
1289.0 0.000776 1120.36414 1268.07715
1279.0 0.000782 1120.35486 1267.08862
1284.0 0.000779 1120.35510 1266.53406
1294.0 0.000773 1120.36462 1266.33411
1296.0 0.000772 1120.38306 1266.38977
1279.0 0.000782 1120.41089 1266.54590
1276.0 0.000784 1120.44800 1266.59375
1289.0 0.000776 1120.49390 1266.28467
1294.0 0.000773 1120.54858 1265.36877
1290.0 0.000775 1120.61279 1263.63843
1278.0 0.000782 1120.68567 1260.98193
1278.0 0.000782 1120.76782 1257.40076
1282.0 0.000780 1120.85852 1253.01868
1285.0 0.000778 1120.95837 1248.04797
1271.0 0.000787 1121.06702 1242.73389
1252.0 0.000799 1121.18396 1237.34326
1247.0 0.000802 1121.31006 1232.09277
1243.0 0.000805 1121.44482 1227.16602
1235.0 0.000810 1121.58789 1222.68311
1226.0 0.000816 1121.73975 1218.71790
1219.0 0.000820 1121.89978 1215.29919
1219.0 0.000820 1122.06873 1212.41235
1223.0 0.000818 1122.24548 1210.01733
1212.0 0.000825 1122.43079 1208.04883
1211.0 0.000826 1122.62451 1206.42090
1210.0 0.000826 1122.82593 1205.05505
1204.0 0.000831 1123.03625 1203.86060
1202.0 0.000832 1123.25415 1202.75879
1198.0 0.000835 1123.47974 1201.68616
1194.0 0.000838 1123.71350 1200.59888
1193.0 0.000838 1123.95483 1199.48975
1200.0 0.000833 1124.20422 1198.37415
1205.0 0.000830 1124.46094 1197.30457
1196.0 0.000836 1124.72546 1196.35718
1176.0 0.000850 1124.99744 1195.60583
1170.0 0.000855 1125.27673 1195.12915
1179.0 0.000848 1125.56323 1194.99292
1181.0 0.000847 1125.85706 1195.23108
1181.0 0.000847 1126.15759 1195.91943
1186.0 0.000843 1126.46582 1197.06995
1177.0 0.000850 1126.78040 1198.69983
1170.0 0.000855 1127.10217 1200.81519
1171.0 0.000854 1127.43042 1203.40649
1175.0 0.000851 1127.76514 1206.45862
1181.0 0.000847 1128.10645 1209.93872
1189.0 0.000841 1128.45447 1213.78894
1188.0 0.000842 1128.80859 1217.94409
1184.0 0.000845 1129.16846 1222.31653
1198.0 0.000835 1129.53491 1226.81995
1205.0 0.000830 1129.90698 1231.36426
1207.0 0.000829 1130.28528 1235.87097
1213.0 0.000824 1130.66895 1240.28857
1214.0 0.000824 1131.05798 1244.57703
1215.0 0.000823 1131.45264 1248.73486
1215.0 0.000823 1131.85291 1252.77295
1212.0 0.000825 1132.25806 1256.70825
1216.0 0.000822 1132.66858 1260.57300
1223.0 0.000818 1133.08386 1264.39185
1230.0 0.000813 1133.50342 1268.21204
1247.0 0.000802 1133.92847 1272.08728
1257.0 0.000796 1134.35730 1276.06982
1255.0 0.000797 1134.79102 1280.20447
1254.0 0.000797 1135.22900 1284.51050
1249.0 0.000801 1135.67065 1288.93848
1246.0 0.000803 1136.11658 1293.38464
1253.0 0.000798 1136.56641 1297.69189
1261.0 0.000793 1137.01990 1301.67627
1266.0 0.000790 1137.47656 1305.20605
1270.0 0.000787 1137.93701 1308.18237
1279.0 0.000782 1138.40039 1310.61475
1269.0 0.000788 1138.86682 1312.59924
1252.0 0.000799 1139.33594 1314.30579
1253.0 0.000798 1139.80835 1315.95947
1265.0 0.000791 1140.28271 1317.80225
1267.0 0.000789 1140.76001 1320.06189
1259.0 0.000794 1141.23889 1322.91846
1268.0 0.000789 1141.72046 1326.49243
1271.0 0.000787 1142.20386 1330.79956
1264.0 0.000791 1142.68848 1335.76306
1259.0 0.000794 1143.17480 1341.17725
1254.0 0.000797 1143.66309 1346.71191
1255.0 0.000797 1144.15247 1351.93750
1251.0 0.000799 1144.64246 1356.35925
1255.0 0.000797 1145.13330 1359.49158
1266.0 0.000790 1145.62537 1360.94836
1261.0 0.000793 1146.11743 1360.52051
1255.0 0.000797 1146.61072 1358.22729
1257.0 0.000796 1147.10266 1354.30225
1253.0 0.000798 1147.59558 1349.14453
1254.0 0.000797 1148.08850 1343.22131
1254.0 0.000797 1148.58032 1337.02014
1246.0 0.000803 1149.07227 1330.94409
1241.0 0.000806 1149.56287 1325.32202
1245.0 0.000803 1150.05273 1320.34949
1245.0 0.000803 1150.54138 1316.10999
1243.0 0.000805 1151.02844 1312.59253
1250.0 0.000800 1151.51465 1309.68726
1253.0 0.000798 1151.99866 1307.23047
1255.0 0.000797 1152.48083 1305.01843
1271.0 0.000787 1152.96094 1302.86072
1274.0 0.000785 1153.43860 1300.62170
1276.0 0.000784 1153.91406 1298.23645
1289.0 0.000776 1154.38672 1295.73206
1283.0 0.000779 1154.85596 1293.19507
1270.0 0.000787 1155.32300 1290.76099
1274.0 0.000785 1155.78601 1288.58411
1281.0 0.000781 1156.24609 1286.80164
1270.0 0.000787 1156.70251 1285.53418
1259.0 0.000794 1157.15491 1284.86755
1244.0 0.000804 1157.60315 1284.84692
1233.0 0.000811 1158.04724 1285.47864
1242.0 0.000805 1158.48706 1286.72485
1250.0 0.000800 1158.92151 1288.51721
1249.0 0.000801 1159.35144 1290.75745
1252.0 0.000799 1159.77686 1293.33386
1249.0 0.000801 1160.19653 1296.11621
1247.0 0.000802 1160.61096 1298.96936
1258.0 0.000795 1161.01990 1301.73486
1268.0 0.000789 1161.42249 1304.23206
1270.0 0.000787 1161.81958 1306.27393
1268.0 0.000789 1162.20984 1307.66418
1263.0 0.000792 1162.59436 1308.28271
1259.0 0.000794 1162.97192 1308.05054
1265.0 0.000791 1163.34241 1306.98706
1266.0 0.000790 1163.70642 1305.17969
1259.0 0.000794 1164.06311 1302.77344
1266.0 0.000790 1164.41248 1299.93250
1269.0 0.000788 1164.75378 1296.82458
1259.0 0.000794 1165.08813 1293.61755
1248.0 0.000801 1165.41431 1290.46326
1240.0 0.000806 1165.73193 1287.51477
1233.0 0.000811 1166.04163 1284.90015
1230.0 0.000813 1166.34241 1282.72241
1229.0 0.000814 1166.63501 1281.04468
1226.0 0.000816 1166.91858 1279.88489
1223.0 0.000818 1167.19348 1279.21252
1233.0 0.000811 1167.45874 1278.96460
1238.0 0.000808 1167.71472 1279.04602
1228.0 0.000814 1167.96143 1279.35388
1221.0 0.000819 1168.19812 1279.78955
1219.0 0.000820 1168.42517 1280.28625
1227.0 0.000815 1168.64258 1280.80029
1230.0 0.000813 1168.84924 1281.30945
1229.0 0.000814 1169.04553 1281.81091
1232.0 0.000812 1169.23206 1282.29956
1240.0 0.000806 1169.40698 1282.76953
1231.0 0.000812 1169.57202 1283.21692
1224.0 0.000817 1169.72571 1283.64136
1235.0 0.000810 1169.86841 1284.05652
1239.0 0.000807 1170.00012 1284.48499
1226.0 0.000816 1170.12000 1284.95312
1208.0 0.000828 1170.22925 1285.48938
1220.0 0.000820 1170.32642 1286.12268
1230.0 0.000813 1170.41187 1286.88123
1228.0 0.000814 1170.48584 1287.78772
1228.0 0.000814 1170.54761 1288.84290
1227.0 0.000815 1170.59741 1290.02405
1238.0 0.000808 1170.63562 1291.27832
1251.0 0.000799 1170.66089 1292.51611
1266.0 0.000790 1170.67407 1293.63171
1281.0 0.000781 1170.67480 1294.51831
1281.0 0.000781 1170.66357 1295.09265
1263.0 0.000792 1170.63953 1295.31580
1251.0 0.000799 1170.60278 1295.20422
1264.0 0.000791 1170.55371 1294.83264
1274.0 0.000785 1170.49170 1294.31409
1263.0 0.000792 1170.41699 1293.78345
1261.0 0.000793 1170.32959 1293.37524
1272.0 0.000786 1170.22925 1293.19421
1274.0 0.000785 1170.11609 1293.30920
1287.0 0.000777 1169.98987 1293.71619
1299.0 0.000770 1169.85095 1294.35425
1278.0 0.000782 1169.69910 1295.07825
1262.0 0.000792 1169.53430 1295.69849
1270.0 0.000787 1169.35645 1295.98682
1289.0 0.000776 1169.16626 1295.72998
1305.0 0.000766 1168.96301 1294.76880
1308.0 0.000765 1168.74658 1293.04333
1312.0 0.000762 1168.51782 1290.60742
1305.0 0.000766 1168.27600 1287.60571
1298.0 0.000770 1168.02173 1284.26367
1280.0 0.000781 1167.75476 1280.80713
1256.0 0.000796 1167.47522 1277.45642
1256.0 0.000796 1167.18372 1274.38904
1260.0 0.000794 1166.87952 1271.72351
1249.0 0.000801 1166.56311 1269.53015
1238.0 0.000808 1166.23462 1267.83752
1239.0 0.000807 1165.89417 1266.63660
1241.0 0.000806 1165.54224 1265.88672
1232.0 0.000812 1165.17847 1265.52637
1230.0 0.000813 1164.80322 1265.46997
1240.0 0.000806 1164.41614 1265.61523
1255.0 0.000797 1164.01868 1265.83972
1263.0 0.000792 1163.61023 1266.01514
1264.0 0.000791 1163.19067 1266.02271
1266.0 0.000790 1162.76062 1265.77466
1244.0 0.000804 1162.32068 1265.24194
1228.0 0.000814 1161.87061 1264.44849
1223.0 0.000818 1161.41089 1263.48120
1243.0 0.000805 1160.94128 1262.45154
1260.0 0.000794 1160.46338 1261.49744
1247.0 0.000802 1159.97595 1260.73560
1236.0 0.000809 1159.48010 1260.26550
1229.0 0.000814 1158.97656 1260.15759
1228.0 0.000814 1158.46448 1260.43909
1237.0 0.000808 1157.94592 1261.09998
1245.0 0.000803 1157.41931 1262.08911
1230.0 0.000813 1156.88647 1263.30017
1225.0 0.000816 1156.34753 1264.59241
1246.0 0.000803 1155.80273 1265.79150
1240.0 0.000806 1155.25232 1266.71057
1229.0 0.000814 1154.69690 1267.17371
1250.0 0.000800 1154.13818 1267.03235
1264.0 0.000791 1153.57458 1266.18079
1270.0 0.000787 1153.00781 1264.57690
1262.0 0.000792 1152.43835 1262.23242
1235.0 0.000810 1151.86670 1259.22229
1230.0 0.000813 1151.29382 1255.67493
1235.0 0.000810 1150.71912 1251.76306
1231.0 0.000812 1150.14478 1247.67432
1217.0 0.000822 1149.57068 1243.59888
1213.0 0.000824 1148.99683 1239.70044
1190.0 0.000840 1148.42493 1236.11780
1164.0 0.000859 1147.85535 1232.94592
1179.0 0.000848 1147.28918 1230.24390
1195.0 0.000837 1146.72644 1228.04138
1182.0 0.000846 1146.16809 1226.33350
1168.0 0.000856 1145.61560 1225.09546
1171.0 0.000854 1145.06934 1224.27161
1154.0 0.000867 1144.52991 1223.79199
1154.0 0.000867 1143.99878 1223.57166
1162.0 0.000861 1143.47595 1223.51465
1153.0 0.000867 1142.96362 1223.52905
1148.0 0.000871 1142.46155 1223.53625
1142.0 0.000876 1141.97144 1223.46545
1145.0 0.000873 1141.49414 1223.26880
1165.0 0.000858 1141.03015 1222.91370
1178.0 0.000849 1140.58228 1222.39368
1165.0 0.000858 1140.14954 1221.71960
1173.0 0.000853 1139.73364 1220.93213
1183.0 0.000845 1139.33679 1220.10107
1171.0 0.000854 1138.95850 1219.30530
1162.0 0.000861 1138.60132 1218.62732
1149.0 0.000870 1138.26611 1218.13928
1150.0 0.000870 1137.95386 1217.89038
1162.0 0.000861 1137.66687 1217.90356
1166.0 0.000858 1137.40479 1218.17310
1153.0 0.000867 1137.17029 1218.67261
1140.0 0.000877 1136.96448 1219.36108
1134.0 0.000882 1136.78857 1220.20386
1145.0 0.000873 1136.64441 1221.17419
1151.0 0.000869 1136.53296 1222.27380
1136.0 0.000880 1136.45654 1223.52661
1150.0 0.000870 1136.41638 1224.97473
1182.0 0.000846 1136.41357 1226.67639
1184.0 0.000845 1136.45056 1228.67883
1164.0 0.000859 1136.52881 1231.01575
1164.0 0.000859 1136.65015 1233.69519
1181.0 0.000847 1136.81580 1236.69604
1165.0 0.000858 1137.02820 1239.96680
1141.0 0.000876 1137.28870 1243.44165
1131.0 0.000884 1137.60022 1247.04541
1138.0 0.000879 1137.96350 1250.69946
1148.0 0.000871 1138.38110 1254.32849
1163.0 0.000860 1138.85510 1257.85522
1169.0 0.000855 1139.38708 1261.18408
1162.0 . . .
1180.0 . . .
1188.0 . . .
1181.0 . . .
1158.0 . . .
1144.0 . . .
1153.0 . . .
1170.0 . . .
1183.0 . . .
1175.0 . . .
1170.0 . . .
1153.0 . . .
1146.0 . . .
1146.0 . . .
1147.0 . . .
1186.0 . . .
1203.0 . . .
1173.0 . . .
1149.0 . . .
1154.0 . . .
1162.0 . . .
1143.0 . . .
1145.0 . . .
1177.0 . . .
1198.0 . . .
1203.0 . . .
1217.0 . . .
1239.0 . . .
1231.0 . . .
1229.0 . . .
1243.0 . . .
1233.0 . . .
1239.0 . . .
1241.0 . . .
1225.0 . . .
1200.0 . . .
1201.0 . . .
1194.0 . . .
1190.0 . . .
1217.0 . . .
1215.0 . . .
1208.0 . . .
1212.0 . . .
1219.0 . . .
1205.0 . . .
1178.0 . . .
1177.0 . . .
1170.0 . . .
1152.0 . . .
1152.0 . . .
1128.0 . . .
1121.0 . . .
1164.0 . . .
1181.0 . . .
1179.0 . . .
1162.0 . . .
1137.0 . . .
1132.0 . . .
1173.0 . . .
1169.0 . . .
1133.0 . . .
1130.0 . . .
1122.0 . . .
1126.0 . . .
1136.0 . . .
1128.0 . . .
1108.0 . . .
1132.0 . . .
1167.0 . . .
1155.0 . . .
1146.0 . . .
1142.0 . . .
1127.0 . . .
1138.0 . . .
1136.0 . . .
1123.0 . . .
1160.0 . . .
1177.0 . . .
1156.0 . . .
1155.0 . . .
1187.0 . . .
1174.0 . . .
1164.0 . . .
1163.0 . . .
1150.0 . . .
1154.0 . . .
1171.0 . . .
1157.0 . . .
1168.0 . . .
1194.0 . . .
1171.0 . . .
1138.0 . . .
1169.0 . . .
1213.0 . . .
1229.0 . . .
1158.0 . . .
1109.0 . . .
1150.0 . . .
1198.0 . . .
1199.0 . . .
1167.0 . . .
1202.0 . . .
1288.0 . . .
1303.0 . . .
1235.0 . . .
1177.0 . . .
1159.0 . . .
1190.0 . . .
1186.0 . . .
1121.0 . . .
1135.0 . . .
1233.0 . . .
1330.0 . . .
0.0 . . .
0.0 . . .
0.0 . . .
0.0 . . .
0.0 . . .
0.0 . . .
0.0 . . .
0.0 . . .
0.0 . . .
0.0 . . .
0.0 . . .
0.0 . . .
0.0 . . .
0.0 . . .
0.0 . . .
0.0 . . .
0.0 . . .
0.0 . . .
0.0 . . .
0.0 . . .
0.0 . . .
0.0 . . .
0.0 . . .
0.0 . . .
0.0 . . .
0.0 . . .
0.0 . . .
0.0 . . .
0.0 . . .
0.0 . . .
0.0 . . .
0.0 . . .
0.0 . . .
0.0 . . .
0.0 . . .
0.0 . . .
0.0 . . .
0.0 . . .
0.0 . . .
0.0 . . .
0.0 . . .
0.0 . . .
0.0 . . .
loop_
_refln_index_h
_refln_index_k
_refln_index_l
_refln_observed_status
_refln_F_squared_meas
_refln_F_squared_calc
_refln_phase_calc
_refln_d_spacing
_gsas_i100_meas
1 1 0 o 300247.84 295550.44 180.00 12.94490 100.00
3 0 0 o 291778.81 304107.84 -12.61 7.47374 30.91
1 0 1 o 3196.476 3187.706 -41.20 6.49909 0.23
2 2 0 o 275.141 312.972 180.00 6.47245 0.05
2 0 -1 o 16669.805 22293.535 171.82 5.80817 1.10
2 1 1 o 9874.989 13723.547 70.59 5.29921 1.15
4 1 0 o 44452.05 49498.53 150.06 4.89271 4.22
3 1 -1 o 16501.326 17089.838 37.35 4.58610 1.21
4 0 1 o 86086.12 84918.07 -79.83 4.32283 3.00
3 3 0 o 5983.176 5889.190 0.00 4.31497 0.17
3 2 1 o 24867.680 25242.924 150.47 4.10025 1.49
5 0 -1 o 4367.382 4608.658 -152.31 3.74198 0.10
6 0 0 o 55429.04 59980.55 -62.73 3.73687 1.56
5 1 1 o 18255.623 22665.561 93.88 3.46372 0.81
4 2 -1 o 11381.761 13793.991 -132.30 3.59480 0.57
5 2 0 o 26.678 169.451 51.89 3.59027 0.03
1 0 -2 o 517.331 581.073 58.42 3.35704 0.01
2 0 2 o 304.233 342.148 -134.65 3.24955 0.02
4 3 1 o 90607.72 94731.84 -38.80 3.23954 3.35
4 4 0 o 3355.108 3486.718 0.00 3.23623 0.05
2 1 -2 o 6045.367 5656.181 -105.39 3.15176 0.22
6 1 -1 o 9998.375 9306.813 34.30 3.05392 0.34
5 3 -1 o 3795.782 3746.157 -167.43 2.89694 0.12
7 0 1 o 43516.49 43038.61 -61.91 2.89694 0.59
3 1 2 o 4970.754 4466.760 -59.81 2.98005 0.14
7 1 0 o 15242.805 14074.407 83.38 2.96976 0.55
3 2 -2 o 6428.770 6204.495 -114.47 2.83365 0.16
6 2 1 o 28977.969 28705.846 160.28 2.82701 0.83
6 3 0 o 6984.409 6956.867 -138.03 2.82481 0.21
4 0 -2 o 66026.65 64967.82 73.92 2.90409 0.97
5 0 2 o 3634.436 3097.319 146.77 2.70691 0.04
4 2 2 o 5305.463 5885.890 107.86 2.64960 0.14
5 4 1 o 30453.436 32846.348 139.93 2.64417 0.76
5 1 -2 o 36973.26 39737.35 -106.06 2.59579 0.90
8 0 -1 o 2507.016 2660.271 -14.90 2.59068 0.03
5 5 0 o 6073.726 6372.206 -180.00 2.58898 0.06
7 2 -1 o 19683.559 19787.924 -161.61 2.54030 0.47
4 3 -2 o 70851.46 73340.35 64.77 2.49731 1.55
9 0 0 o 25257.451 25686.652 -118.72 2.49125 0.30
6 1 2 o 6421.678 6445.625 -36.67 2.40925 0.14
6 4 -1 o 36522.36 36969.02 14.90 2.40517 0.78
8 1 1 o 2984.768 2864.245 89.04 2.44779 0.08
8 2 0 o 360.399 350.874 135.00 2.44636 0.01
7 3 1 o 51040.20 52049.34 -28.49 2.36470 0.95
5 3 2 o 10639.001 11343.846 165.81 2.32990 0.22
7 0 -2 o 205382.89 218417.98 74.30 2.32990 2.03
7 4 0 o 26319.725 27917.693 4.95 2.32497 0.45
6 2 -2 o 29164.236 33493.262 -117.51 2.29305 0.54
0 0 3 o 23607.721 29401.756 -156.81 2.26354 0.06
1 1 3 o 5658.792 7646.165 27.52 2.22971 0.09
6 5 1 o 2725.325 5226.043 -159.32 2.22110 0.06
9 1 -1 o 150.601 221.571 -143.03 2.22110 0.00
5 4 -2 o 24507.885 27409.143 -88.18 2.19219 0.41
3 0 -3 o 40417.12 39892.79 140.97 2.16636 0.32
3 0 3 o 40528.79 40014.53 -130.70 2.16636 0.32
8 0 2 o 13236.169 13326.177 -135.68 2.16142 0.12
8 3 -1 o 11288.994 11674.675 34.74 2.15847 0.19
6 6 0 o 5310.256 5504.116 180.00 2.15748 0.04
8 1 -2 o 56914.91 56387.53 -97.03 2.07633 0.92
2 2 3 o 22152.832 22655.350 63.86 2.13665 0.36
9 3 0 o 10717.372 10378.872 -159.72 2.07284 0.15
7 2 2 o 18019.363 17903.455 76.48 2.13190 0.31
10 0 1 o 3239.798 3185.142 -22.11 2.12907 0.03
10 1 0 o 10829.642 10647.439 29.91 2.12813 0.17
4 1 3 o 2529.248 2172.106 22.93 2.05435 0.04
4 1 -3 o 4809.984 4023.520 3.02 2.05435 0.08
6 4 2 o 35520.84 30840.609 -65.12 2.05013 0.57
7 5 -1 o 28367.611 24976.777 -156.96 2.04761 0.45
9 2 1 o 19325.008 19159.746 171.23 2.10085 0.32
7 3 -2 o 117188.29 115073.70 79.71 2.02489 1.76
8 4 1 o 8051.578 7832.970 102.45 2.02246 0.13
3 3 3 o 21457.277 18021.656 -128.93 2.00448 0.31
8 5 0 o 15729.612 19218.920 171.84 1.97408 0.20
11 0 -1 o 37359.80 46062.35 26.06 1.95224 0.24
6 0 3 o 9340.837 8759.046 -138.72 1.93606 0.06
6 0 -3 o 4006.610 3730.973 162.54 1.93606 0.03
6 5 -2 o 16321.556 15499.010 -129.32 1.93253 0.24
9 1 2 o 691.199 653.604 28.34 1.93253 0.01
10 2 -1 o 25542.301 24730.555 -160.56 1.93041 0.35
5 2 3 o 16978.244 16827.303 63.54 1.91476 0.23
5 2 -3 o 10819.124 10726.017 -80.39 1.91476 0.14
7 6 1 o 9288.232 8973.630 -29.71 1.90930 0.12
8 3 2 o 13318.215 10579.152 -141.02 1.89084 0.19
10 0 -2 o 161557.09 159211.27 82.95 1.87099 1.06
9 4 -1 o 3831.256 3767.697 -75.06 1.86907 0.05
11 1 1 o 1653.231 1603.277 1.77 1.86907 0.04
12 0 0 o 15659.895 15391.848 -145.63 1.86844 0.09
7 5 2 o 7449.799 8088.803 50.55 1.81498 0.08
4 4 3 o 10191.110 10886.040 -105.50 1.85485 0.13
9 2 -2 o 27132.129 29971.971 -101.09 1.85175 0.34
11 2 0 o 1701.062 1875.740 137.99 1.84927 0.02
7 7 0 o 65395.91 72447.17 0.00 1.84927 0.37
7 1 -3 o 2006.190 2745.503 102.80 1.80024 0.02
7 1 3 o 2997.299 4056.020 -99.01 1.80024 0.03
8 4 -2 o 3926.955 5191.002 -57.35 1.79740 0.04
10 4 0 o 30828.438 40965.53 0.25 1.79514 0.31
10 3 1 o 10862.526 12030.349 -56.36 1.83129 0.12
8 6 -1 o 5144.697 10208.933 36.56 1.77867 0.06
6 3 3 o 223.570 502.354 73.29 1.76640 0.00
6 3 -3 o 1202.292 3517.379 2.36 1.76640 0.01
9 5 1 o 1779.237 5414.029 143.36 1.76211 0.01
11 0 2 o 9078.156 19158.463 -108.81 1.74757 0.03
10 2 2 o 10617.643 15929.983 47.61 1.73186 0.11
12 1 -1 o 9816.587 13982.281 -138.47 1.73034 0.09
7 6 -2 o 2043.149 2702.597 120.42 1.71657 0.02
9 6 0 o 11363.705 15260.072 -165.56 1.71459 0.10
5 5 3 o 14087.304 18794.963 84.14 1.70408 0.14
11 3 -1 o 45099.27 58121.31 38.97 1.70023 0.44
1 0 4 o 3300.396 3925.252 -164.37 1.69281 0.02
11 1 -2 o 11072.800 12326.084 -99.40 1.68716 0.12
9 4 2 o 3139.871 3479.155 158.23 1.68716 0.03
2 0 -4 o 12168.210 11484.131 8.28 1.67852 0.06
9 0 3 o 15388.545 13853.316 90.96 1.67530 0.08
9 0 -3 o 3081.741 2814.218 -10.11 1.67530 0.01
13 0 1 o 8722.004 7860.043 -84.15 1.67164 0.04
8 7 1 o 1072.393 947.583 179.52 1.67164 0.01
2 1 4 o 3532.736 3533.102 61.60 1.66458 0.04
8 2 3 o 2660.318 2715.243 43.52 1.66144 0.03
8 2 -3 o 7616.116 7787.069 -103.44 1.66144 0.08
10 3 -2 o 14088.865 14364.789 86.74 1.65921 0.13
12 2 1 o 28875.170 29431.031 124.79 1.65787 0.31
13 1 0 o 5726.519 5818.180 24.33 1.65743 0.05
10 5 -1 o 13453.214 13563.901 -169.93 1.64444 0.13
3 1 -4 o 9952.205 9365.086 166.89 1.63772 0.09
12 3 0 o 10388.636 9895.293 -136.36 1.63090 0.10
5 0 -4 o 6714.259 7785.768 8.75 1.58769 0.03
4 0 4 o 40337.21 41981.02 -143.19 1.62477 0.19
12 1 2 o 6756.475 7544.449 119.52 1.58302 0.05
7 4 -3 o 35076.54 36477.30 121.43 1.62185 0.32
7 4 3 o 39884.68 41499.81 -112.57 1.62185 0.36
11 5 0 o 13340.015 14802.862 145.85 1.58147 0.11
8 6 2 o 3247.762 3351.278 -87.45 1.61977 0.03
11 4 1 o 11294.786 11598.309 -34.29 1.61853 0.12
8 8 0 o 19153.242 19546.311 -180.00 1.61811 0.09
4 2 -4 o 2501.251 2621.690 -70.86 1.57588 0.02
3 2 4 o 11039.083 10474.851 4.22 1.61212 0.10
9 7 -1 o 6072.006 6306.584 -95.20 1.57018 0.05
9 5 -2 o 1017.894 986.565 -124.50 1.60724 0.01
5 1 4 o 15928.161 16882.932 43.27 1.56433 0.14
6 6 3 o 10575.650 11147.079 41.79 1.56172 0.09
11 3 2 o 23376.238 24448.312 -92.84 1.55986 0.19
10 6 1 o 187.353 197.664 149.45 1.55875 0.00
14 0 -1 o 55728.44 58046.41 40.55 1.55875 0.23
10 1 3 o 15963.450 15195.202 -101.37 1.55048 0.14
10 1 -3 o 4832.181 4624.043 126.50 1.55048 0.04
13 2 -1 o 14727.645 13582.269 -146.92 1.54757 0.12
4 3 4 o 36816.57 30836.023 -153.69 1.54197 0.31
13 0 -2 o 18471.922 14104.808 40.15 1.53770 0.08
8 7 -2 o 4103.529 3135.766 22.81 1.53770 0.04
9 3 3 o 22115.271 17387.178 85.25 1.52870 0.19
9 3 -3 o 10357.211 8269.504 -27.53 1.52870 0.08
12 2 -2 o 2797.599 2197.993 -164.20 1.52696 0.02
6 1 -4 o 2018.695 1832.025 166.10 1.52055 0.02
10 5 2 o 9328.122 8912.924 41.93 1.51645 0.08
12 4 -1 o 19795.557 18911.857 -113.85 1.51543 0.16
10 7 0 o 58595.03 55910.34 -1.76 1.51509 0.48
14 1 1 o 3366.499 2960.711 -24.92 1.50515 0.03
5 3 -4 o 3629.838 3088.611 5.43 1.49999 0.03
7 0 4 o 95768.45 80939.43 -152.13 1.49999 0.39
11 4 -2 o 1941.144 1520.187 18.19 1.49605 0.02
15 0 0 o 3683.956 2945.780 -85.83 1.49475 0.01
6 2 4 o 16960.055 14173.975 8.35 1.49002 0.13
8 5 3 o 17044.000 14174.956 60.78 1.48777 0.14
8 5 -3 o 15612.507 13011.642 -67.94 1.48777 0.12
13 3 1 o 5867.240 4574.579 -97.49 1.48520 0.05
9 8 1 o 484.211 364.251 -103.57 1.48520 0.00
14 2 0 o 5362.731 4312.881 143.94 1.48488 0.04
11 6 -1 o 23900.902 21612.945 54.50 1.46603 0.19
7 7 3 o 57087.32 49614.16 -123.96 1.43210 0.41
11 2 3 o 2273.192 1977.546 12.91 1.43210 0.02
11 2 -3 o 399.353 339.538 -66.92 1.43210 0.00
5 4 4 o 7779.307 6681.604 45.15 1.46127 0.06
8 1 4 o 26641.889 21100.426 29.82 1.42539 0.20
9 7 2 o 10928.772 9094.465 143.33 1.45762 0.09
13 4 0 o 15540.671 13063.419 8.21 1.45642 0.12
8 0 -4 o 263.147 239.455 129.00 1.45204 0.00
6 4 -4 o 5797.883 4833.074 159.53 1.41683 0.04
14 0 2 o 46710.57 43520.33 -73.05 1.44847 0.17
10 6 -2 o 4854.547 4459.884 -136.86 1.44847 0.04
12 5 1 o 23641.516 21644.107 132.06 1.44758 0.19
12 4 2 o 10462.495 9246.819 137.74 1.41351 0.07
15 1 -1 o 10667.784 9555.530 -131.94 1.41268 0.07
12 6 0 o 13781.001 12163.402 -135.92 1.41240 0.11
7 2 -4 o 869.324 755.773 -42.63 1.44299 0.01
12 0 3 o 23745.350 19295.080 90.18 1.44094 0.09
12 0 -3 o 6214.445 5104.491 -56.48 1.44094 0.02
7 3 4 o 49855.00 44873.18 -159.77 1.40842 0.35
13 2 2 o 15179.217 12351.985 69.19 1.43949 0.11
9 9 0 o 20251.379 16482.053 -180.00 1.43832 0.08
10 4 -3 o 26958.270 23954.865 131.79 1.40651 0.18
10 4 3 o 43201.50 38192.47 -112.46 1.40651 0.30
14 1 -2 o 2090.099 1794.173 174.63 1.40515 0.02
10 8 -1 o 1594.994 1410.704 91.15 1.40434 0.01
11 7 1 o 22145.621 22247.789 -40.89 1.39615 0.15
14 3 -1 o 34503.086 34658.910 51.29 1.39615 0.23
9 8 -2 o 616.547 532.755 -6.05 1.38888 0.00
13 3 -2 o 3056.416 2676.758 -46.17 1.38888 0.02
9 1 -4 o 965.178 829.654 -28.84 1.37621 0.01
6 5 4 o 9195.039 7827.706 -0.91 1.37621 0.07
11 6 2 o 10679.841 9184.093 -79.91 1.37317 0.07
16 0 1 o 5550.216 4818.240 -159.37 1.37241 0.02
9 6 3 o 7426.742 6691.876 67.44 1.36675 0.05
9 6 -3 o 7561.476 6810.817 -47.59 1.36675 0.05
15 2 1 o 12368.021 10838.438 104.42 1.36476 0.09
13 5 -1 o 1878.347 1676.981 -163.17 1.36476 0.01
8 3 -4 o 1409.932 1247.634 132.80 1.36092 0.01
12 5 -2 o 716.486 605.992 -137.00 1.35797 0.00
11 8 0 o 9490.418 7846.518 144.16 1.35699 0.06
16 1 0 o 360.676 296.602 133.40 1.35699 0.00
1 0 -5 o 3945.319 3159.669 -167.13 1.35564 0.01
10 0 4 o 94913.53 72043.46 -159.91 1.35346 0.33
2 0 5 o 12415.469 9076.846 -0.83 1.34827 0.04
9 2 4 o 23313.580 17485.596 5.99 1.34612 0.16
14 4 1 o 29659.055 23532.637 -39.54 1.34256 0.20
15 3 0 o 4545.048 3590.363 -57.10 1.34232 0.03
2 1 -5 o 1990.250 1575.791 40.63 1.34101 0.01
13 1 3 o 7985.714 6050.520 -107.07 1.33726 0.05
13 1 -3 o 3944.233 3036.498 126.60 1.33726 0.03
10 9 1 o 14408.767 10892.271 109.65 1.33540 0.09
7 5 -4 o 1837.125 1396.514 -88.25 1.33179 0.01
15 1 2 o 17050.092 13157.550 123.73 1.32903 0.11
3 1 5 o 12693.459 9694.312 171.10 1.32685 0.08
10 2 -4 o 2971.953 3016.104 -32.64 1.29789 0.02
8 4 4 o 4970.227 3765.792 75.34 1.32480 0.03
11 5 -3 o 3925.485 3913.684 -55.19 1.29640 0.02
11 5 3 o 9234.423 9205.728 53.18 1.29640 0.05
12 3 -3 o 6872.586 5238.303 -47.52 1.32322 0.04
12 3 3 o 8721.729 6646.002 86.49 1.32322 0.06
16 0 -2 o 8969.735 8757.061 -27.66 1.29534 0.03
17 0 -1 o 15603.587 15090.217 46.71 1.29470 0.04
10 8 2 o 2901.844 2274.217 -45.39 1.32209 0.02
10 10 0 o 24726.811 23662.152 0.00 1.29449 0.08
12 7 -1 o 17964.887 13896.342 -97.37 1.32141 0.11
4 2 5 o 3035.638 2803.450 -96.65 1.29331 0.02
4 0 -5 o 44691.21 35383.02 -158.61 1.31993 0.14
7 6 4 o 6634.851 5946.522 -130.16 1.29142 0.04
8 8 3 o 13157.277 11177.855 56.07 1.31636 0.08
15 2 -2 o 883.479 758.294 167.33 1.28890 0.01
13 5 2 o 5842.510 5019.225 52.66 1.28890 0.04
16 2 -1 o 4798.485 4149.960 -128.84 1.28827 0.03
11 7 -2 o 13728.090 11787.473 68.66 1.31524 0.08
14 3 2 o 30871.230 26427.201 -80.03 1.31524 0.19
14 5 0 o 6432.290 5513.047 130.80 1.31436 0.04
5 1 -5 o 10694.063 9217.127 35.50 1.28691 0.06
3 2 -5 o 17300.217 14607.678 3.16 1.31313 0.11
13 6 1 o 3509.773 3247.646 139.06 1.30785 0.02
9 4 -4 o 919.926 878.812 12.28 1.27875 0.01
11 1 4 o 6662.786 6341.254 33.73 1.27875 0.04
11 0 -4 o 16120.240 16206.079 153.38 1.30447 0.05
13 7 0 o 8650.148 7899.967 0.32 1.27550 0.05
4 3 -5 o 28882.244 26157.416 -152.20 1.27437 0.16
5 0 5 o 13467.313 13896.049 15.08 1.29982 0.04
14 4 -2 o 8055.729 7539.884 85.96 1.27015 0.04
11 9 -1 o 4213.793 3920.981 122.44 1.26955 0.03
15 4 -1 o 6057.615 5675.927 -112.78 1.26955 0.03
10 3 4 o 14522.889 13929.049 -148.83 1.26645 0.08
10 9 -2 o 5366.188 5374.082 -129.39 1.26408 0.03
12 8 1 o 9922.074 10079.228 167.21 1.26349 0.06
6 1 5 o 2378.136 2478.077 174.90 1.26220 0.01
10 7 -3 o 15694.238 16495.439 120.06 1.25907 0.08
10 7 3 o 17292.744 18183.414 -120.05 1.25907 0.09
17 1 1 o 5955.764 6204.945 -26.76 1.25751 0.03
12 7 2 o 4990.063 4589.753 129.54 1.25220 0.03
7 0 -5 o 39551.53 35174.51 -152.58 1.25037 0.11
5 3 5 o 4805.428 4235.688 6.61 1.25037 0.03
8 6 -4 o 177.538 124.982 -60.86 1.24865 0.00
15 0 -3 o 1358.986 1257.526 17.64 1.24733 0.00
15 0 3 o 2091.557 1910.178 107.99 1.24733 0.01
16 3 1 o 9012.789 8672.705 -173.89 1.24581 0.05
18 0 0 o 12636.947 12227.570 -10.96 1.24562 0.03
6 2 -5 o 6649.383 6657.134 17.87 1.24458 0.03
9 5 4 o 5501.845 5873.984 15.48 1.24289 0.03
14 2 3 o 2173.853 2418.099 10.61 1.24158 0.01
14 2 -3 o 2109.673 2348.371 -92.95 1.24158 0.01
13 6 -2 o 3993.617 4627.519 -105.83 1.24064 0.02
14 6 -1 o 5818.039 7003.021 81.23 1.24008 0.03
17 2 0 o 4231.704 5085.623 151.90 1.23990 0.02
12 1 -4 o 4129.556 6528.377 -22.20 1.23158 0.02
17 0 2 o 26641.875 37902.41 -71.79 1.22940 0.06
12 9 0 o 5301.875 7602.164 -153.45 1.22868 0.03
5 4 -5 o 5265.674 6873.774 51.77 1.22767 0.02
13 4 -3 o 8500.201 10508.986 115.45 1.22479 0.04
13 4 3 o 7846.696 9691.312 -135.52 1.22479 0.04
16 2 2 o 6287.637 7782.255 71.46 1.22389 0.03
15 5 1 o 7225.475 8991.666 123.49 1.22336 0.04
16 4 0 o 188.188 227.466 -97.49 1.22318 0.00
8 0 5 o 551.706 714.006 59.91 1.22219 0.00
11 3 -4 o 10956.937 14118.128 159.69 1.22059 0.05
7 2 5 o 677.549 942.599 -75.86 1.21678 0.00
9 9 3 o 1052.496 1408.892 70.55 1.21397 0.00
11 10 1 o 14233.460 19366.633 -32.05 1.21258 0.06
8 7 4 o 1960.848 2346.528 148.05 1.20988 0.01
13 0 4 o 852.513 999.408 -156.23 1.20988 0.00
15 4 2 o 5078.262 5331.920 142.30 1.20781 0.02
11 9 2 o 405.566 423.757 16.79 1.20781 0.00
8 1 -5 o 5971.560 6004.917 29.51 1.20616 0.03
14 6 2 o 4254.513 4197.688 -80.33 1.18235 0.02
17 3 -1 o 3474.785 3431.060 53.18 1.18186 0.02
12 2 4 o 217.165 218.447 -41.15 1.20463 0.00
12 8 -2 o 4728.185 4763.229 -90.62 1.20258 0.02
13 8 -1 o 2326.250 2335.740 38.55 1.20207 0.01
6 4 5 o 4272.893 4237.834 124.38 1.20096 0.02
11 11 0 o 407.771 466.228 0.00 1.17681 0.00
10 5 -4 o 323.421 316.425 -67.74 1.19944 0.00
9 1 5 o 442.118 514.402 -2.48 1.17593 0.00
6 5 -5 o 162.361 249.313 119.98 1.17593 0.00
12 6 3 o 498.960 482.707 32.26 1.19827 0.00
12 6 -3 o 2440.946 2371.689 -68.76 1.19827 0.01
17 1 -2 o 3146.625 3063.844 124.59 1.19743 0.01
15 6 0 o 1588.624 1530.400 -116.22 1.19676 0.01
7 3 -5 o 14964.253 14761.774 -144.68 1.19583 0.07
9 7 -4 o 3026.513 3025.238 36.07 1.16969 0.01
18 1 -1 o 383.944 414.202 -156.46 1.19184 0.00
14 7 1 o 25706.609 27739.287 -37.24 1.19184 0.12
15 5 -2 o 3752.006 3673.173 -105.08 1.16782 0.02
11 4 4 o 1266.170 1355.467 121.18 1.18928 0.01
8 3 5 o 2864.340 2743.910 -170.58 1.16634 0.02
14 0 -4 o 30496.424 28563.367 154.66 1.16495 0.07
10 6 4 o 1448.031 1337.282 -87.27 1.16495 0.01
16 3 -2 o 4509.519 4614.818 -69.81 1.18731 0.02
16 1 -3 o 161.552 145.449 -153.98 1.16387 0.00
11 8 -3 o 1141.914 1054.279 -78.46 1.16387 0.00
16 1 3 o 90.828 77.394 151.37 1.16387 0.00
11 8 3 o 2478.664 2270.026 61.03 1.16387 0.01
16 5 -1 o 219.379 174.496 -92.50 1.16264 0.00
19 0 1 o 14064.639 12645.528 -176.97 1.16264 0.03
14 8 0 o 5312.072 4695.417 47.78 1.16249 0.03
10 0 -5 o 9622.910 8757.707 -161.71 1.16163 0.02
13 2 -4 o 4969.615 4549.491 -32.30 1.16026 0.02
11 10 -2 o 10769.229 10057.454 75.98 1.15843 0.05
18 2 1 o 4599.564 4280.637 62.66 1.15798 0.02
12 10 -1 o 5077.729 4747.228 -110.33 1.15798 0.02
9 2 -5 o 900.892 857.000 26.17 1.15699 0.00
15 3 -3 o 1567.420 1586.313 68.83 1.15457 0.01
15 3 3 o 412.232 417.092 -135.65 1.15457 0.00
13 9 1 o 4457.171 4703.841 115.38 1.15337 0.02
13 8 2 o 215.037 265.239 -30.24 1.14927 0.00
19 1 0 o 2908.821 3560.433 -172.52 1.14867 0.01
7 5 5 o 3794.321 4735.805 -25.13 1.14785 0.02
12 4 -4 o 5545.542 6883.085 -1.41 1.14653 0.02
17 4 1 o 12125.416 15238.894 -36.07 1.14433 0.05
8 4 -5 o 4641.473 6124.901 30.15 1.14337 0.02
14 1 4 o 477.788 652.508 -147.93 1.14206 0.00
14 7 -2 o 15840.957 21426.596 75.14 1.14031 0.06
18 1 2 o 4779.548 6828.744 121.12 1.14031 0.02
18 3 0 o 6274.265 8489.015 -13.03 1.13974 0.02
14 5 3 o 4881.471 6331.785 28.33 1.13663 0.02
14 5 -3 o 4895.726 6361.004 -87.76 1.13663 0.02
15 7 -1 o 1690.891 2193.268 -101.11 1.13549 0.01
9 8 4 o 940.424 1257.176 44.25 1.13327 0.00
13 3 4 o 2146.889 2962.865 38.84 1.13327 0.01
0 0 6 o 26490.277 34686.164 119.24 1.13177 0.02
17 3 2 o 7942.869 10538.461 -80.85 1.13157 0.03
11 0 5 o 8567.459 11696.516 -176.39 1.13022 0.02
1 1 6 o 4981.913 7067.951 -58.02 1.12747 0.02
10 2 5 o 3133.758 4878.364 17.56 1.12593 0.02
11 6 -4 o 3254.843 4552.068 -170.01 1.12468 0.01
10 10 3 o 1005.241 1344.091 -103.87 1.12371 0.00
16 6 1 o 3262.785 4149.478 159.17 1.12260 0.01
13 10 0 o 896.703 1245.894 -158.46 1.12247 0.00
17 5 0 o 2993.793 3969.743 86.15 1.12247 0.01
7 6 -5 o 3571.848 4490.950 -137.73 1.12170 0.01
3 0 6 o 13076.631 15007.106 128.23 1.11901 0.03
3 0 -6 o 18270.275 21077.641 -126.51 1.11901 0.04
12 5 4 o 1254.603 1549.057 -45.89 1.11629 0.01
2 2 6 o 2712.873 3244.042 -50.37 1.11486 0.01
16 5 2 o 3585.887 4443.985 62.87 1.11466 0.02
19 0 -2 o 5033.063 6027.884 -53.47 1.11466 0.01
9 4 5 o -1.253 18.065 -20.53 1.11337 0.00
11 1 -5 o 999.635 1222.323 3.38 1.11337 0.00
13 7 -3 o 3079.053 3959.650 83.22 1.11122 0.01
13 7 3 o 3707.847 4809.603 -161.70 1.11122 0.01
12 10 2 o 1719.525 2206.560 158.40 1.11055 0.01
18 2 -2 o 274.928 354.428 -155.54 1.11055 0.00
12 11 1 o 6341.810 8642.074 170.27 1.11015 0.02
13 9 -2 o 2270.130 4113.760 -130.88 1.10649 0.01
20 0 -1 o 317.795 989.465 -45.88 1.10609 0.00
10 3 -5 o 3043.408 5981.923 -161.04 1.10522 0.01
4 1 6 o 464.526 1051.559 -36.22 1.10265 0.00
4 1 -6 o 1257.051 3081.197 46.22 1.10265 0.00
19 2 -1 o 293.517 622.538 -148.57 1.10207 0.00
14 9 -1 o 647.307 1284.438 167.23 1.10207 0.00
15 1 -4 o 2867.487 6401.212 -20.41 1.10005 0.01
