#------------------------------------------------------------------------------
#$Date: 2016-03-22 21:51:41 +0200 (Tue, 22 Mar 2016) $
#$Revision: 179026 $
#$URL: svn://www.crystallography.net/cod/cif/4/12/24/4122447.cif $
#------------------------------------------------------------------------------
#
# This file is available in the Crystallography Open Database (COD),
# http://www.crystallography.net/
#
# All data on this site have been placed in the public domain by the
# contributors.
#
data_4122447
loop_
_publ_author_name
'Kapelewski, Matthew T.'
'Geier, Stephen J.'
'Hudson, Matthew R.'
'St\"uck, David'
'Mason, Jarad A.'
'Nelson, Jocienne N.'
'Xiao, Dianne J.'
'Hulvey, Zeric'
'Gilmour, Elizabeth'
'FitzGerald, Stephen A.'
'Head-Gordon, Martin'
'Brown, Craig M.'
'Long, Jeffrey R.'
_publ_section_title
;
 M2(m-dobdc) (M = Mg, Mn, Fe, Co, Ni) Metal-Organic Frameworks Exhibiting
 Increased Charge Density and Enhanced H2 Binding at the Open Metal Sites.
;
_journal_issue                   34
_journal_name_full               'Journal of the American Chemical Society'
_journal_page_first              12119
_journal_paper_doi               10.1021/ja506230r
_journal_volume                  136
_journal_year                    2014
_chemical_formula_sum            'C4 H D1.97 Ni O3'
_chemical_formula_weight         159.71
_chemical_name_systematic        ' ?'
_space_group_IT_number           160
_symmetry_cell_setting           trigonal
_symmetry_space_group_name_Hall  'R 3 -2"'
_symmetry_space_group_name_H-M   'R 3 m :H'
_audit_creation_date             2013-06-06T17:22
_audit_creation_method           'from EXP file using GSAS2CIF'
_audit_update_record
' 2013-06-06T17:22  Initial CIF as created by GSAS2CIF'
_cell_angle_alpha                90.0
_cell_angle_beta                 90.0
_cell_angle_gamma                120.0
_cell_formula_units_Z            18
_cell_length_a                   25.749(4)
_cell_length_b                   25.749
_cell_length_c                   6.7390(12)
_cell_volume                     3869.4(9)
_computing_structure_refinement  GSAS
_diffrn_radiation_probe          neutron
_diffrn_radiation_wavelength     2.078
_exptl_absorpt_correction_T_max  1.00000
_exptl_absorpt_correction_T_min  1.00000
_exptl_absorpt_process_details
;   GSAS Absorption/surface roughness correction: function number 0
 No correction is applied.
;
_pd_block_id                     2013-06-06T17:22|NI_PRIME_1P0_D2_R||BT1
_pd_calc_method                  'Rietveld Refinement'
_pd_instr_location               ' ?'
_pd_meas_2theta_range_inc        0.05
_pd_meas_2theta_range_max        166.25
_pd_meas_2theta_range_min        1.5
_pd_meas_number_of_points        3296
_pd_phase_name                   Ni_dobdc_prime_1.0_D2
_pd_proc_2theta_range_inc        0.05
_pd_proc_2theta_range_max        166.3198
_pd_proc_2theta_range_min        1.5698
_pd_proc_info_datetime           2013-06-06T17:22:22
_pd_proc_info_excluded_regions   ' ?'
_pd_proc_ls_background_function
;   GSAS Background function number 1 with 12 terms.
 Shifted Chebyshev function of 1st kind
      1:    586.210     2:   -185.949     3:    121.309     4:   -22.0686    
      5:    67.0953     6:   -24.6659     7:    45.5430     8:   -9.96555    
      9:    13.3231    10:   -4.07590    11:    5.05984    12:   -2.67364    
;
_pd_proc_ls_peak_cutoff          0.00050
_pd_proc_ls_profile_function
;
 CW Profile function number 3 with  19 terms
 Pseudovoigt profile coefficients as parameterized in
 P. Thompson, D.E. Cox & J.B. Hastings (1987). J. Appl. Cryst.,20,79-83.
 Asymmetry correction of L.W. Finger, D.E. Cox & A. P. Jephcoat (1994).
 J. Appl. Cryst.,27,892-900.
 Peak tails are ignored  where the intensity is below 0.0005 times the peak
   Aniso. broadening axis   0.0   0.0   1.0
;
_pd_proc_ls_prof_R_factor        0.0308
_pd_proc_ls_prof_wR_expected     0.0383
_pd_proc_ls_prof_wR_factor       0.0377
_pd_proc_number_of_points        3296
_pd_spec_mounting                ' ?'
_refine_ls_goodness_of_fit_all   0.99
_refine_ls_matrix_type           full
_refine_ls_number_parameters     60
_refine_ls_number_restraints     16
_refine_ls_R_Fsqd_factor         0.06133
_refine_ls_shift/su_max          5.55
_refine_ls_shift/su_mean         0.63
_reflns_d_resolution_high        1.059
_reflns_d_resolution_low         12.875
_reflns_limit_h_max              21
_reflns_limit_h_min              0
_reflns_limit_k_max              12
_reflns_limit_k_min              0
_reflns_limit_l_max              6
_reflns_limit_l_min              -6
_reflns_number_total             423
_cod_data_source_file            NI_PRIME_1P0_D2_R.cif
_cod_data_source_block           NI_PRIME_1P0_D2_R_publ
_cod_depositor_comments
;
The following automatic conversions were performed:

'_geom_bond_publ_flag' value 'N' changed to 'n' according to
/usr/data/users/saulius/crontab/automatic-downloads/rss-feeds/ACS/lib/dictionaries/cif_core.dic
dictionary named 'cif_core.dic' version 2.4.2 from 2011-04-26 (38
times).

'_geom_angle_publ_flag' value 'N' changed to 'n' according
to
/usr/data/users/saulius/crontab/automatic-downloads/rss-feeds/ACS/lib/dictionaries/cif_core.dic
dictionary named 'cif_core.dic' version 2.4.2 from 2011-04-26 (32
times).

Automatic conversion script
Id: cif_fix_values 2281 2013-09-26 08:29:07Z andrius 

 Adding full bibliography for 4122440--4122455.cif.
;
_cod_original_cell_volume        3869.5(10)
_cod_original_sg_symbol_H-M      'R 3 m'
_cod_database_code               4122447
#BEGIN Tags that were not found in dictionaries:
_gsas_exptl_extinct_corr_t_min   1.00000
_gsas_exptl_extinct_corr_t_max   1.00000
#END Tags that were not found in dictionaries
loop_
_symmetry_equiv_pos_site_id
_symmetry_equiv_pos_as_xyz
1 +x,+y,+z
2 -y,x-y,+z
3 y-x,-x,+z
4 y-x,+y,+z
5 -y,-x,+z
6 +x,x-y,+z
101 +x+1/3,+y+2/3,+z+2/3
102 -y+1/3,x-y+2/3,+z+2/3
103 y-x+1/3,-x+2/3,+z+2/3
104 y-x+1/3,+y+2/3,+z+2/3
105 -y+1/3,-x+2/3,+z+2/3
106 +x+1/3,x-y+2/3,+z+2/3
201 +x+2/3,+y+1/3,+z+1/3
202 -y+2/3,x-y+1/3,+z+1/3
203 y-x+2/3,-x+1/3,+z+1/3
204 y-x+2/3,+y+1/3,+z+1/3
205 -y+2/3,-x+1/3,+z+1/3
206 +x+2/3,x-y+1/3,+z+1/3
loop_
_atom_site_type_symbol
_atom_site_label
_atom_site_fract_x
_atom_site_fract_y
_atom_site_fract_z
_atom_site_occupancy
_atom_site_thermal_displace_type
_atom_site_U_iso_or_equiv
_atom_site_symmetry_multiplicity
C C1 0.6577(13) 0.8746(12) 0.836(5) 1.0 Uiso 0.024(10) 18
C C2 0.6678(17) 0.8339(8) 0.748(7) 1.0 Uiso 0.003(11) 9
C C6 0.6473(12) 0.8691(14) 0.054(5) 1.0 Uiso 0.022(9) 18
C C11 0.6345(13) 0.9118(11) 0.172(4) 1.0 Uiso 0.020(9) 18
Ni Ni2 0.3262(8) 0.3720(8) 0.5634(21) 1.0 Uiso 0.006(4) 18
H H7 0.6711(31) 0.8355(15) 0.613(9) 1.0 Uiso 0.020(21) 9
O O9 0.6731(11) 0.9290(11) 0.759(4) 1.0 Uiso 0.000(7) 18
O O12 0.6539(11) 0.9646(13) 0.100(5) 1.0 Uiso 0.014(11) 18
O O15 0.6098(17) 0.8925(15) 0.357(5) 1.0 Uiso 0.039(13) 18
C C2m 0.6296(16) 0.8148(8) 0.135(5) 1.0 Uiso 0.003(10) 9
H H7m 0.6243(24) 0.8121(12) 0.268(10) 1.0 Uiso 0.003(17) 9
D D1 0.2095(9) 0.2187(10) 0.0180(35) 1.97(7) Uiso 0.151(18) 18
loop_
_atom_type_symbol
_atom_type_number_in_cell
_atom_type_scat_length_neutron
_atom_type_scat_source
C 72.0 0.6646 International_Tables_Vol_C
Ni 18.0 1.0300 International_Tables_Vol_C
H 18.0 -0.3739 International_Tables_Vol_C
O 54.0 0.5803 International_Tables_Vol_C
D 35.428 0.6671 International_Tables_Vol_C
loop_
_geom_angle_atom_site_label_1
_geom_angle_atom_site_label_2
_geom_angle_atom_site_label_3
_geom_angle
_geom_angle_site_symmetry_1
_geom_angle_site_symmetry_3
_geom_angle_publ_flag
C2 C1 C6 117(4) 1_555 1_556 n
C2 C1 O9 125(4) 1_555 1_555 n
C6 C1 O9 114.8(26) 1_556 1_555 n
C1 C2 C1 123(5) 1_555 6_565 n
C1 C2 H7 117.1(30) 1_555 1_555 n
C1 C2 H7 117.1(30) 6_565 1_555 n
C1 C6 C11 123.0(24) 1_554 1_555 n
C1 C6 C2m 116.8(31) 1_554 1_555 n
C11 C6 C2m 116.8(27) 1_555 1_555 n
C6 C11 O12 117.0(31) 1_555 1_555 n
C6 C11 O15 116.4(24) 1_555 1_555 n
O12 C11 O15 126(4) 1_555 1_555 n
O9 Ni2 O9 165.8(18) 3_565 102_654 n
O9 Ni2 O12 81.7(11) 3_565 102_655 n
O9 Ni2 O12 96.7(11) 3_565 201_445 n
O9 Ni2 O15 98.1(16) 3_565 3_565 n
O9 Ni2 O12 84.1(16) 102_654 102_655 n
O9 Ni2 O12 81.3(12) 102_654 201_445 n
O9 Ni2 O15 96.1(14) 102_654 3_565 n
O12 Ni2 O12 83.5(6) 102_655 201_445 n
O12 Ni2 O15 178.7(18) 102_655 3_565 n
O12 Ni2 O15 97.8(14) 201_445 3_565 n
C1 O9 Ni2 130.5(21) 1_555 2_665 n
C1 O9 Ni2 127.8(23) 1_555 203_565 n
Ni2 O9 Ni2 93.6(13) 2_665 203_565 n
C11 O12 Ni2 129.4(28) 1_555 101_554 n
C11 O12 Ni2 130.6(29) 1_555 203_564 n
Ni2 O12 Ni2 96.0(12) 101_554 203_564 n
C11 O15 Ni2 117.7(26) 1_555 2_665 n
C6 C2m C6 120(4) 1_555 6_565 n
C6 C2m H7m 116.2(24) 1_555 1_555 n
C6 C2m H7m 116.2(24) 6_565 1_555 n
loop_
_geom_bond_atom_site_label_1
_geom_bond_atom_site_label_2
_geom_bond_distance
_geom_bond_site_symmetry_2
_geom_bond_publ_flag
C1 C2 1.339(34) 1_555 n
C1 C6 1.486(28) 1_556 n
C1 H7 1.93(7) 1_555 n
C1 O9 1.353(30) 1_555 n
C2 C1 1.339(34) 1_555 n
C2 C1 1.339(34) 6_565 n
C2 H7 0.91(9) 1_555 n
C6 C1 1.486(28) 1_554 n
C6 C11 1.52(5) 1_555 n
C6 C2m 1.351(30) 1_555 n
C6 H7m 1.93(7) 1_555 n
C11 C6 1.52(5) 1_555 n
C11 O12 1.29(4) 1_555 n
C11 O15 1.376(34) 1_555 n
Ni2 O9 2.066(26) 3_565 n
Ni2 O9 1.971(24) 102_654 n
Ni2 O12 1.922(30) 102_655 n
Ni2 O12 2.04(4) 201_445 n
Ni2 O15 1.98(4) 3_565 n
Ni2 D1 2.176(25) 103_555 n
H7 C1 1.93(7) 1_555 n
H7 C1 1.93(7) 6_565 n
H7 C2 0.91(9) 1_555 n
O9 C1 1.353(30) 1_555 n
O9 Ni2 2.066(26) 2_665 n
O9 Ni2 1.971(24) 203_565 n
O12 C11 1.29(4) 1_555 n
O12 Ni2 2.04(4) 101_554 n
O12 Ni2 1.922(30) 203_564 n
O15 C11 1.376(34) 1_555 n
O15 Ni2 1.98(4) 2_665 n
C2m C6 1.351(30) 1_555 n
C2m C6 1.352(30) 6_565 n
C2m H7m 0.90(8) 1_555 n
H7m C6 1.93(7) 1_555 n
H7m C6 1.93(7) 6_565 n
H7m C2m 0.90(8) 1_555 n
D1 Ni2 2.176(25) 202_554 n
loop_
_pd_meas_intensity_total
_pd_proc_ls_weight
_pd_proc_intensity_bkg_calc
_pd_calc_intensity_total
5680(160) 0.0 1840. .
5530(160) 0.0 1829. .
4930(150) 0.0 1818. .
4950(150) 0.0 1807. .
4220(140) 0.0 1796. .
4370(140) 0.0 1786. .
4090(140) 0.0 1775. .
4150(140) 0.0 1765. .
4190(140) 0.0 1754. .
3540(130) 0.0 1744. .
3770(130) 0.0 1734. .
3690(130) 0.0 1724. .
3830(130) 0.0 1714. .
3350(120) 0.0 1704. .
3380(120) 0.0 1694. .
3190(120) 0.0 1684. .
3330(120) 0.0 1674. .
3060(120) 0.0 1665. .
3060(120) 0.0 1655. .
2740(110) 0.0 1646. .
2880(110) 0.0 1636. .
2850(110) 0.0 1627. .
2600(110) 0.0 1618. .
2640(110) 0.0 1609. .
2640(110) 0.0 1600. .
2480(110) 0.0 1591. .
2490(110) 0.0 1582. .
2450(110) 0.0 1573. .
2630(110) 0.0 1564. .
2360(100) 0.0 1556. .
2320(100) 0.0 1547. .
2290(100) 0.0 1539. .
2440(110) 0.0 1530. .
2240(100) 0.0 1522. .
2260(100) 0.0 1513. .
2200(99) 0.0 1505. .
1995(95) 0.0 1497. .
1973(94) 0.0 1489. .
1923(93) 0.0 1481. .
1995(95) 0.0 1473. .
1777(89) 0.0 1465. .
1818(90) 0.0 1457. .
1823(90) 0.0 1450. .
1773(89) 0.0 1442. .
1745(88) 0.0 1434. .
1864(91) 0.0 1427. .
1800(90) 0.0 1419. .
1645(86) 0.0 1412. .
1595(84) 0.0 1405. .
1645(86) 0.0 1397. .
1700(87) 0.0 1390. .
1582(84) 0.0 1383. .
1732(88) 0.0 1376. .
1600(85) 0.0 1369. .
1396(79) 0.0 1362. .
1496(82) 0.0 1355. .
1600(85) 0.0 1348. .
1550(83) 0.0 1341. .
1455(81) 0.0 1335. .
1541(83) 0.0 1328. .
1523(83) 0.0 1322. .
1468(81) 0.0 1315. .
1532(83) 0.0 1309. .
1477(81) 0.0 1302. .
1409(79) 0.0 1296. .
1368(78) 0.0 1289. .
1368(78) 0.0 1283. .
1305(76) 0.0 1277. .
1359(78) 0.0 1271. .
1405(79) 0.0 1265. .
1337(77) 0.0 1259. .
1159(72) 0.0 1253. .
1441(80) 0.0 1247. .
1318(77) 0.0 1241. .
1255(75) 0.0 1235. .
1150(72) 0.0 1229. .
1250(75) 0.0 1224. .
1309(76) 0.0 1218. .
1246(75) 0.0 1213. .
1296(76) 0.0 1207. .
1182(73) 0.0 1201. .
996(66) 0.0 1196. .
1218(74) 0.0 1191. .
1214(74) 0.0 1185. .
1141(71) 0.0 1180. .
1155(72) 0.0 1175. .
1264(75) 0.0 1169. .
1100(70) 0.0 1164. .
1155(72) 0.0 1159. .
1109(70) 0.0 1154. .
1119(71) 0.0 1149. .
1087(69) 0.0 1144. .
1109(70) 0.0 1139. .
1073(69) 0.0 1134. .
1209(73) 0.0 1130. .
1055(68) 0.0 1125. .
1091(70) 0.0 1120. .
1046(68) 0.0 1115. .
1150(72) 0.0 1111. .
1173(72) 0.0 1106. .
1160(49) 0.0 1101. .
1174(49) 0.0 1097. .
1163(49) 0.0 1092. .
1218(50) 0.000400 1088. 1135.
1069(47) 0.000453 1084. 1133.
1149(49) 0.000416 1079. 1131.
1126(48) 0.000434 1075. 1129.
1094(47) 0.000453 1071. 1128.
1105(48) 0.000434 1066. 1126.
1083(47) 0.000453 1062. 1125.
1057(46) 0.000473 1058. 1125.
1027(46) 0.000473 1054. 1124.
1037(46) 0.000473 1050. 1124.
1088(47) 0.000453 1046. 1124.
1152(49) 0.000416 1042. 1125.
1135(48) 0.000434 1038. 1126.
1135(48) 0.000434 1034. 1128.
1155(49) 0.000416 1030. 1131.
1141(48) 0.000434 1026. 1134.
1090(47) 0.000453 1022. 1138.
1174(49) 0.000416 1018. 1144.
1156(49) 0.000416 1015. 1150.
1175(49) 0.000416 1011. 1158.
1165(49) 0.000416 1007. 1168.
1231(50) 0.000400 1004. 1182.
1354(53) 0.000356 1000. 1199.
1353(53) 0.000356 996. 1222.
1359(53) 0.000356 993. 1254.
1406(54) 0.0003429 989. 1296.
1409(54) 0.0003429 986. 1353.
1510(56) 0.0003189 982. 1426.
1720(60) 0.0002778 979. 1519.
1759(61) 0.0002687 976. 1632.
1757(61) 0.0002687 972. 1767.
1971(64) 0.0002441 969. 1926.
2189(68) 0.0002163 966. 2108.
2373(71) 0.0001984 962. 2313.
2521(73) 0.0001877 959. 2540.
2758(77) 0.0001687 956. 2796.
2852(78) 0.0001644 953. 3083.
3391(85) 0.0001384 950. 3401.
3692(89) 0.0001262 947. 3763.
4166(94) 0.0001132 943. 4178.
4578(99) 0.0001020 940. 4657.
5200(110) 0.0000890 937. 5217.
5820(110) 0.0000797 934. 5882.
6760(120) 0.0000683 931. 6664.
7750(130) 0.0000601 929. 7568.
9070(140) 0.0000510 926. 8574.
10010(150) 0.0000463 923. 9615.
11040(150) 0.0000422 920. 10576.
11710(160) 0.0000396 917. 11284.
11860(160) 0.0000391 914. 11538.
11200(160) 0.0000411 912. 11161.
10290(150) 0.0000450 909. 10124.
8630(140) 0.0000541 906. 8621.
7200(120) 0.0000650 903. 6972.
5440(110) 0.0000857 901. 5442.
4261(95) 0.0001108 898. 4176.
3253(83) 0.0001452 896. 3213.
2743(76) 0.0001731 893. 2530.
2063(66) 0.0002296 890. 2072.
1883(63) 0.0002520 888. 1775.
1726(60) 0.0002778 885. 1582.
1550(57) 0.0003078 883. 1454.
1353(53) 0.000356 880. 1363.
1285(51) 0.000384 878. 1296.
1192(50) 0.000400 876. 1242.
1169(49) 0.000416 873. 1198.
1139(48) 0.000434 871. 1161.
1104(48) 0.000434 869. 1129.
1106(48) 0.000434 866. 1102.
1057(46) 0.000473 864. 1078.
1001(45) 0.000494 862. 1057.
947(44) 0.000517 859. 1038.
990(45) 0.000494 857. 1022.
1007(45) 0.000494 855. 1007.
951(44) 0.000517 853. 993.
965(44) 0.000517 851. 981.
970(44) 0.000517 849. 970.
864(42) 0.000567 846. 960.
934(43) 0.000541 844. 950.
977(45) 0.000494 842. 942.
919(43) 0.000541 840. 933.
858(42) 0.000567 838. 926.
909(43) 0.000541 836. 919.
951(44) 0.000517 834. 912.
883(42) 0.000567 832. 906.
900(43) 0.000541 830. 900.
888(42) 0.000567 828. 895.
827(41) 0.000595 826. 889.
878(42) 0.000567 824. 884.
838(41) 0.000595 823. 880.
869(42) 0.000567 821. 875.
894(42) 0.000567 819. 871.
836(41) 0.000595 817. 867.
867(57) 0.0003078 815. 863.
838(55) 0.0003306 814. 859.
886(57) 0.0003078 812. 855.
935(59) 0.0002873 810. 852.
871(41) 0.000595 808. 848.
873(41) 0.000595 807. 845.
835(40) 0.000625 805. 842.
816(40) 0.000625 803. 842.
843(41) 0.000595 802. 839.
855(41) 0.000595 800. 837.
843(41) 0.000595 798. 834.
832(40) 0.000625 797. 831.
860(41) 0.000595 795. 829.
844(41) 0.000595 793. 826.
791(39) 0.000657 792. 824.
802(40) 0.000625 790. 821.
814(40) 0.000625 789. 819.
781(39) 0.000657 787. 817.
819(40) 0.000625 786. 815.
832(40) 0.000625 784. 813.
866(41) 0.000595 783. 811.
793(39) 0.000657 781. 809.
819(40) 0.000625 780. 807.
817(40) 0.000625 779. 805.
821(40) 0.000625 777. 803.
795(39) 0.000657 776. 801.
816(40) 0.000625 774. 799.
753(38) 0.000693 773. 798.
735(38) 0.000693 772. 796.
799(39) 0.000657 770. 794.
821(40) 0.000625 769. 793.
732(38) 0.000693 768. 791.
779(39) 0.000657 766. 790.
755(38) 0.000693 765. 788.
784(39) 0.000657 764. 787.
807(40) 0.000625 762. 785.
793(39) 0.000657 761. 784.
839(41) 0.000595 760. 783.
825(40) 0.000625 759. 782.
781(39) 0.000657 758. 780.
788(39) 0.000657 756. 779.
786(39) 0.000657 755. 778.
848(41) 0.000595 754. 777.
750(38) 0.000693 753. 776.
743(38) 0.000693 752. 775.
817(40) 0.000625 751. 774.
824(40) 0.000625 749. 773.
798(39) 0.000657 748. 772.
784(39) 0.000657 747. 772.
797(39) 0.000657 746. 771.
806(40) 0.000625 745. 770.
796(39) 0.000657 744. 770.
735(38) 0.000693 743. 769.
783(39) 0.000657 742. 769.
788(39) 0.000657 741. 769.
838(40) 0.000625 740. 769.
823(40) 0.000625 739. 769.
827(40) 0.000625 738. 769.
817(40) 0.000625 737. 769.
732(38) 0.000693 736. 769.
783(39) 0.000657 735. 770.
785(39) 0.000657 734. 770.
771(39) 0.000657 733. 771.
762(38) 0.000693 732. 772.
787(39) 0.000657 731. 773.
754(38) 0.000693 730. 775.
799(39) 0.000657 729. 777.
793(39) 0.000657 728. 779.
783(39) 0.000657 727. 782.
839(41) 0.000595 726. 785.
841(41) 0.000595 726. 789.
856(41) 0.000595 725. 793.
797(39) 0.000657 724. 799.
802(39) 0.000657 723. 806.
871(41) 0.000595 722. 815.
872(41) 0.000595 721. 826.
906(42) 0.000567 720. 841.
937(43) 0.000541 720. 861.
947(43) 0.000541 719. 888.
962(44) 0.000517 718. 924.
1062(46) 0.000473 717. 971.
1156(48) 0.000434 716. 1034.
1199(49) 0.000416 716. 1114.
1257(51) 0.000384 715. 1214.
1398(54) 0.0003429 714. 1337.
1494(55) 0.0003306 713. 1487.
1713(60) 0.0002778 713. 1669.
1904(63) 0.0002520 712. 1882.
2053(65) 0.0002367 711. 2114.
2245(69) 0.0002100 710. 2350.
2458(72) 0.0001929 710. 2573.
2675(75) 0.0001778 709. 2752.
2629(74) 0.0001826 708. 2846.
2552(73) 0.0001877 708. 2818.
2492(72) 0.0001929 707. 2658.
2330(70) 0.0002041 706. 2396.
1915(63) 0.0002520 706. 2089.
1630(58) 0.0002973 705. 1789.
1429(54) 0.0003429 704. 1529.
1258(51) 0.000384 704. 1322.
1168(71) 0.0001984 703. 1163.
958(43) 0.000541 702. 1049.
935(43) 0.000541 702. 969.
895(42) 0.000567 701. 914.
831(40) 0.000625 700. 876.
828(40) 0.000625 700. 849.
812(39) 0.000657 699. 828.
787(39) 0.000657 699. 813.
862(41) 0.000595 698. 800.
747(38) 0.000693 697. 790.
778(38) 0.000693 697. 781.
802(39) 0.000657 696. 774.
784(39) 0.000657 696. 767.
753(38) 0.000693 695. 762.
770(38) 0.000693 695. 757.
739(37) 0.000730 694. 753.
805(39) 0.000657 693. 749.
761(38) 0.000693 693. 746.
809(39) 0.000657 692. 744.
756(38) 0.000693 692. 742.
713(37) 0.000730 691. 740.
720(37) 0.000730 691. 738.
746(38) 0.000693 690. 737.
690(36) 0.000772 690. 737.
712(37) 0.000730 689. 737.
706(37) 0.000730 689. 737.
711(37) 0.000730 688. 738.
673(36) 0.000772 688. 740.
782(39) 0.000657 687. 744.
796(39) 0.000657 687. 749.
761(38) 0.000693 686. 757.
752(38) 0.000693 686. 768.
727(37) 0.000730 685. 782.
742(38) 0.000693 685. 801.
776(38) 0.000693 684. 825.
824(40) 0.000625 684. 854.
896(42) 0.000567 684. 888.
921(42) 0.000567 683. 926.
961(43) 0.000541 683. 969.
1096(46) 0.000473 682. 1011.
1130(47) 0.000453 682. 1046.
1139(47) 0.000453 681. 1068.
1162(48) 0.000434 681. 1070.
1188(48) 0.000434 681. 1051.
1083(46) 0.000473 680. 1011.
1031(45) 0.000494 680. 960.
935(43) 0.000541 679. 908.
885(41) 0.000595 679. 861.
806(39) 0.000657 678. 822.
820(40) 0.000625 678. 791.
802(39) 0.000657 678. 769.
716(37) 0.000730 677. 752.
766(38) 0.000693 677. 741.
765(38) 0.000693 677. 733.
742(38) 0.000693 676. 728.
733(37) 0.000730 676. 724.
736(37) 0.000730 675. 721.
802(39) 0.000657 675. 719.
729(37) 0.000730 675. 718.
742(38) 0.000693 674. 717.
709(37) 0.000730 674. 716.
731(37) 0.000730 674. 716.
722(37) 0.000730 673. 717.
677(36) 0.000772 673. 717.
710(37) 0.000730 673. 718.
723(37) 0.000730 672. 720.
764(38) 0.000693 672. 722.
711(37) 0.000730 672. 725.
712(37) 0.000730 671. 729.
669(35) 0.000816 670.9 733.2
748(38) 0.000693 671. 739.
732(37) 0.000730 670. 747.
770(38) 0.000693 670. 757.
754(38) 0.000693 670. 770.
810(39) 0.000657 669. 789.
774(38) 0.000693 669. 814.
753(38) 0.000693 669. 848.
833(40) 0.000625 668. 893.
982(44) 0.000517 668. 951.
998(44) 0.000517 668. 1026.
1060(46) 0.000473 667. 1114.
1188(48) 0.000434 667. 1217.
1258(50) 0.000400 667. 1330.
1523(55) 0.0003306 667. 1448.
1701(58) 0.0002973 666. 1558.
1856(61) 0.0002687 666. 1640.
1836(61) 0.0002687 666. 1678.
1782(60) 0.0002778 665. 1657.
1706(58) 0.0002973 665. 1577.
1511(55) 0.0003306 665. 1455.
1379(52) 0.000370 665. 1317.
1213(49) 0.000416 664. 1185.
1045(45) 0.000494 664. 1069.
954(43) 0.000541 664. 976.
826(40) 0.000625 664. 903.
826(40) 0.000625 663. 850.
815(39) 0.000657 663. 811.
769(38) 0.000693 663. 783.
814(39) 0.000657 663. 763.
799(39) 0.000657 662. 749.
733(35) 0.000816 662.1 738.0
714(35) 0.000816 661.8 729.7
758(36) 0.000772 662. 723.
692(34) 0.000865 661.3 717.7
685(34) 0.000865 661.1 713.2
705(35) 0.000816 660.8 709.5
716(35) 0.000816 660.6 706.5
738(36) 0.000772 660. 704.
689(34) 0.000865 660.1 702.0
660(34) 0.000865 659.9 700.4
704(35) 0.000816 659.7 699.4
724(35) 0.000816 659.5 699.0
717(35) 0.000816 659.2 699.1
694(34) 0.000865 659.0 700.0
761(36) 0.000772 659. 702.
711(35) 0.000816 658.6 705.3
697(35) 0.000816 658.3 710.2
688(34) 0.000865 658.1 717.4
673(34) 0.000865 657.9 727.2
685(34) 0.000865 657.7 740.1
725(35) 0.000816 657.5 756.1
764(36) 0.000772 657. 775.
721(35) 0.000816 657.1 794.9
769(36) 0.000772 657. 815.
739(36) 0.000772 657. 834.
819(38) 0.000693 656. 850.
869(39) 0.000657 656. 859.
812(38) 0.000693 656. 857.
832(38) 0.000693 656. 843.
811(38) 0.000693 656. 820.
726(35) 0.000816 655.5 794.2
760(36) 0.000772 655. 769.
750(36) 0.000772 655. 747.
702(35) 0.000816 654.9 728.4
737(36) 0.000772 655. 714.
750(36) 0.000772 655. 704.
688(34) 0.000865 654.3 695.9
732(35) 0.000816 654.1 690.4
720(35) 0.000816 653.9 686.3
703(35) 0.000816 653.8 683.3
625(33) 0.000918 653.6 681.0
627(33) 0.000918 653.4 679.4
628(33) 0.000918 653.2 678.1
647(33) 0.000918 653.0 677.2
684(34) 0.000865 652.9 676.5
640(33) 0.000918 652.7 676.1
708(35) 0.000816 652.5 676.0
723(35) 0.000816 652.3 676.1
685(34) 0.000865 652.2 676.5
703(35) 0.000816 652.0 677.2
682(34) 0.000865 651.8 678.4
668(34) 0.000865 651.7 680.3
672(34) 0.000865 651.5 682.9
701(35) 0.000816 651.3 686.7
628(33) 0.000918 651.2 692.0
691(34) 0.000865 651.0 699.2
760(36) 0.000772 651. 709.
760(36) 0.000772 651. 721.
745(36) 0.000772 651. 736.
778(37) 0.000730 650. 754.
760(36) 0.000772 650. 773.
817(38) 0.000693 650. 791.
800(37) 0.000730 650. 809.
815(38) 0.000693 650. 822.
788(37) 0.000730 650. 829.
789(37) 0.000730 649. 825.
841(38) 0.000693 649. 812.
798(37) 0.000730 649. 792.
777(37) 0.000730 649. 769.
778(37) 0.000730 649. 748.
772(37) 0.000730 649. 729.
707(35) 0.000816 648.5 713.4
717(35) 0.000816 648.4 701.3
668(34) 0.000865 648.2 692.0
718(35) 0.000816 648.1 685.3
706(35) 0.000816 647.9 680.3
654(33) 0.000918 647.8 676.8
677(34) 0.000865 647.6 674.3
695(34) 0.000865 647.5 672.5
635(33) 0.000918 647.4 671.2
656(33) 0.000918 647.2 670.3
692(34) 0.000865 647.1 669.7
722(35) 0.000816 646.9 669.5
705(35) 0.000816 646.8 669.5
691(34) 0.000865 646.7 669.9
694(34) 0.000865 646.5 670.8
709(35) 0.000816 646.4 672.1
640(33) 0.000918 646.3 674.1
697(35) 0.000816 646.1 677.1
641(33) 0.000918 646.0 681.1
655(33) 0.000918 645.9 686.6
663(34) 0.000865 645.7 693.6
695(35) 0.000816 645.6 702.5
710(35) 0.000816 645.5 712.9
739(36) 0.000772 645. 724.
766(36) 0.000772 645. 736.
730(35) 0.000816 645.1 747.1
708(35) 0.000816 644.9 755.9
765(36) 0.000772 645. 761.
760(36) 0.000772 645. 760.
747(36) 0.000772 645. 754.
749(36) 0.000772 644. 743.
711(35) 0.000816 644.3 729.8
680(34) 0.000865 644.2 717.4
704(34) 0.000865 644.1 706.4
699(34) 0.000865 643.9 697.5
703(34) 0.000865 643.8 690.7
687(34) 0.000865 643.7 685.7
719(35) 0.000816 643.6 682.3
642(33) 0.000918 643.5 680.3
661(33) 0.000918 643.3 679.4
729(35) 0.000816 643.2 679.4
712(35) 0.000816 643.1 680.1
628(32) 0.000977 643.0 681.6
681(34) 0.000865 642.9 683.8
715(35) 0.000816 642.7 686.8
709(35) 0.000816 642.6 690.9
681(34) 0.000865 642.5 696.4
658(33) 0.000918 642.4 703.9
717(35) 0.000816 642.3 714.0
752(36) 0.000772 642. 728.
758(36) 0.000772 642. 747.
757(36) 0.000772 642. 772.
819(37) 0.000730 642. 804.
820(37) 0.000730 642. 846.
828(38) 0.000693 642. 896.
886(39) 0.000657 641. 954.
906(40) 0.000625 641. 1015.
1024(42) 0.000567 641. 1071.
1086(44) 0.000517 641. 1111.
1118(44) 0.000517 641. 1122.
1181(46) 0.000473 641. 1100.
1130(45) 0.000494 641. 1054.
1131(45) 0.000494 641. 995.
1054(43) 0.000541 641. 934.
973(41) 0.000595 640. 879.
901(39) 0.000657 640. 831.
839(38) 0.000693 640. 792.
828(38) 0.000693 640. 762.
749(36) 0.000772 640. 739.
741(35) 0.000816 640.0 721.7
781(37) 0.000730 640. 709.
754(36) 0.000772 640. 700.
689(34) 0.000865 639.6 692.7
713(35) 0.000816 639.5 687.6
686(34) 0.000865 639.4 683.7
683(34) 0.000865 639.3 680.8
686(34) 0.000865 639.2 678.8
689(34) 0.000865 639.1 677.6
691(34) 0.000865 639.0 677.1
643(33) 0.000918 638.9 677.6
712(35) 0.000816 638.8 679.1
658(33) 0.000918 638.7 682.5
691(34) 0.000865 638.6 686.9
709(35) 0.000816 638.5 693.1
740(35) 0.000816 638.4 701.2
704(34) 0.000865 638.3 711.4
713(35) 0.000816 638.2 723.1
696(34) 0.000865 638.1 735.7
714(35) 0.000816 638.0 747.4
735(35) 0.000816 637.9 755.5
782(37) 0.000730 638. 758.
777(36) 0.000772 638. 753.
779(36) 0.000772 638. 742.
710(35) 0.000816 637.5 728.9
725(35) 0.000816 637.4 715.2
778(36) 0.000772 637. 703.
710(35) 0.000816 637.3 691.7
677(34) 0.000865 637.2 683.4
682(34) 0.000865 637.1 676.3
672(34) 0.000865 637.0 670.8
687(34) 0.000865 636.9 666.6
686(34) 0.000865 636.8 663.4
675(34) 0.000865 636.7 661.0
698(34) 0.000865 636.6 659.2
653(33) 0.000918 636.5 657.8
689(34) 0.000865 636.4 656.7
696(34) 0.000865 636.3 655.8
612(32) 0.000977 636.2 655.1
615(32) 0.000977 636.1 654.6
675(34) 0.000865 636.0 654.2
663(33) 0.000918 635.9 653.8
636(33) 0.000918 635.9 653.6
631(32) 0.000977 635.8 653.5
640(33) 0.000918 635.7 653.4
718(35) 0.000816 635.6 653.4
652(33) 0.000918 635.5 653.5
664(33) 0.000918 635.4 653.7
680(34) 0.000865 635.3 653.9
684(34) 0.000865 635.2 654.2
659(33) 0.000918 635.1 654.7
649(33) 0.000918 635.0 655.2
671(34) 0.000865 635.0 655.8
660(33) 0.000918 634.9 656.5
643(33) 0.000918 634.8 657.3
665(33) 0.000918 634.7 658.3
691(34) 0.000865 634.6 659.4
685(34) 0.000865 634.5 660.7
719(35) 0.000816 634.4 662.2
688(34) 0.000865 634.3 664.0
696(33) 0.000918 634.3 666.0
706(33) 0.000918 634.2 668.3
657(32) 0.000977 634.1 671.1
686(33) 0.000918 634.0 674.4
684(33) 0.000918 633.9 678.5
699(33) 0.000918 633.8 683.4
696(33) 0.000918 633.7 689.6
669(32) 0.000977 633.7 697.4
713(34) 0.000865 633.6 707.7
743(34) 0.000865 633.5 721.0
754(35) 0.000816 633.4 738.5
729(34) 0.000865 633.3 761.1
768(35) 0.000816 633.2 790.0
773(35) 0.000816 633.1 825.9
844(37) 0.000730 633. 869.
906(38) 0.000693 633. 920.
968(40) 0.000625 633. 975.
979(40) 0.000625 633. 1029.
1030(41) 0.000595 633. 1074.
1037(41) 0.000595 633. 1099.
1045(41) 0.000595 633. 1097.
1051(41) 0.000595 632. 1068.
1044(41) 0.000595 632. 1021.
1043(41) 0.000595 632. 967.
948(39) 0.000657 632. 914.
910(38) 0.000693 632. 866.
877(38) 0.000693 632. 825.
831(37) 0.000730 632. 792.
772(35) 0.000816 631.9 765.9
799(36) 0.000772 632. 746.
775(35) 0.000816 631.7 731.4
727(34) 0.000865 631.7 721.1
711(34) 0.000865 631.6 714.1
725(34) 0.000865 631.5 709.9
748(34) 0.000865 631.4 708.2
702(33) 0.000918 631.3 708.8
716(34) 0.000865 631.3 711.8
692(33) 0.000918 631.2 717.5
722(34) 0.000865 631.1 726.2
761(35) 0.000816 631.0 738.5
749(34) 0.000865 630.9 754.5
779(35) 0.000816 630.9 774.5
768(35) 0.000816 630.8 798.3
834(37) 0.000730 631. 825.
872(37) 0.000730 631. 852.
859(37) 0.000730 631. 875.
864(37) 0.000730 630. 890.
911(38) 0.000693 630. 891.
911(38) 0.000693 630. 879.
841(37) 0.000730 630. 857.
880(38) 0.000693 630. 830.
838(37) 0.000730 630. 803.
784(35) 0.000816 630.0 778.0
805(36) 0.000772 630. 757.
761(35) 0.000816 629.8 739.2
733(34) 0.000865 629.8 725.7
737(34) 0.000865 629.7 715.8
687(33) 0.000918 629.6 709.0
678(33) 0.000918 629.5 704.9
711(34) 0.000865 629.5 703.3
720(34) 0.000865 629.4 704.0
708(33) 0.000918 629.3 707.1
705(33) 0.000918 629.2 712.8
692(33) 0.000918 629.2 721.5
720(34) 0.000865 629.1 733.8
733(34) 0.000865 629.0 750.2
758(35) 0.000816 628.9 771.4
763(35) 0.000816 628.9 797.7
791(36) 0.000772 629. 829.
818(36) 0.000772 629. 865.
869(37) 0.000730 629. 902.
946(39) 0.000657 629. 937.
987(40) 0.000625 628. 962.
998(40) 0.000625 628. 972.
1014(41) 0.000595 628. 963.
1040(41) 0.000595 628. 937.
997(40) 0.000625 628. 902.
916(38) 0.000693 628. 863.
876(38) 0.000693 628. 826.
810(36) 0.000772 628. 793.
792(36) 0.000772 628. 765.
755(35) 0.000816 627.8 742.2
750(35) 0.000816 627.7 723.7
685(33) 0.000918 627.7 709.2
727(34) 0.000865 627.6 698.1
722(34) 0.000865 627.5 689.7
685(33) 0.000918 627.4 683.5
722(34) 0.000865 627.4 679.0
715(34) 0.000865 627.3 676.0
666(32) 0.000977 627.2 674.1
658(32) 0.000977 627.1 673.9
661(32) 0.000977 627.1 674.0
682(33) 0.000918 627.0 675.0
699(33) 0.000918 626.9 676.7
673(32) 0.000977 626.8 678.9
692(33) 0.000918 626.8 681.3
709(33) 0.000918 626.7 683.3
739(34) 0.000865 626.6 684.1
740(34) 0.000865 626.5 683.4
714(34) 0.000865 626.5 681.3
702(26) 0.001479 626.4 678.0
694(31) 0.001041 626.3 674.5
655(30) 0.001111 626.3 671.1
656(30) 0.001111 626.2 668.1
641(30) 0.001111 626.1 665.8
670(30) 0.001111 626.0 664.2
663(30) 0.001111 626.0 663.3
666(30) 0.001111 625.9 663.2
648(30) 0.001111 625.8 664.1
673(30) 0.001111 625.7 665.5
684(31) 0.001041 625.7 667.8
668(30) 0.001111 625.6 671.2
658(30) 0.001111 625.5 676.0
695(31) 0.001041 625.4 682.2
721(32) 0.000977 625.4 690.5
733(32) 0.000977 625.3 701.0
725(32) 0.000977 625.2 714.2
694(31) 0.001041 625.2 730.3
745(32) 0.000977 625.1 749.4
729(32) 0.000977 625.0 771.1
713(31) 0.001041 624.9 794.4
783(33) 0.000918 624.9 817.0
801(33) 0.000918 624.8 835.4
835(34) 0.000865 624.7 846.3
831(34) 0.000865 624.6 845.9
858(35) 0.000816 624.6 834.6
844(34) 0.000865 624.5 815.6
819(34) 0.000865 624.4 792.8
802(33) 0.000918 624.4 769.6
740(32) 0.000977 624.3 748.2
761(33) 0.000918 624.2 729.5
756(32) 0.000977 624.1 713.9
698(31) 0.001041 624.1 701.2
689(31) 0.001041 624.0 691.4
714(31) 0.001041 623.9 684.1
700(31) 0.001041 623.9 678.9
659(30) 0.001111 623.8 675.6
674(30) 0.001111 623.7 673.9
709(31) 0.001041 623.6 673.8
660(30) 0.001111 623.6 675.1
691(31) 0.001041 623.5 677.7
708(31) 0.001041 623.4 681.6
727(32) 0.000977 623.3 686.6
732(32) 0.000977 623.3 692.2
736(32) 0.000977 623.2 697.9
689(31) 0.001041 623.1 702.6
741(32) 0.000977 623.1 705.1
726(32) 0.000977 623.0 704.6
677(31) 0.001041 622.9 700.9
704(31) 0.001041 622.8 694.8
700(31) 0.001041 622.8 687.6
680(31) 0.001041 622.7 680.2
705(31) 0.001041 622.6 673.3
681(31) 0.001041 622.5 667.2
679(31) 0.001041 622.5 662.0
653(30) 0.001111 622.4 657.7
645(30) 0.001111 622.3 654.3
573(28) 0.001276 622.3 651.5
618(29) 0.001189 622.2 649.4
634(29) 0.001189 622.1 647.7
670(30) 0.001111 622.0 646.5
640(30) 0.001111 622.0 645.5
616(29) 0.001189 621.9 644.9
649(30) 0.001111 621.8 644.5
665(30) 0.001111 621.7 644.2
649(30) 0.001111 621.7 644.1
636(30) 0.001111 621.6 644.1
658(30) 0.001111 621.5 644.2
658(30) 0.001111 621.4 644.5
644(30) 0.001111 621.4 644.9
669(30) 0.001111 621.3 645.4
644(30) 0.001111 621.2 646.0
652(30) 0.001111 621.1 646.8
676(31) 0.001041 621.1 647.8
670(30) 0.001111 621.0 649.0
647(30) 0.001111 620.9 650.4
643(30) 0.001111 620.9 652.0
676(31) 0.001041 620.8 654.0
697(31) 0.001041 620.7 656.4
673(30) 0.001111 620.6 659.3
679(31) 0.001041 620.6 662.8
700(31) 0.001041 620.5 667.1
691(31) 0.001041 620.4 672.6
731(32) 0.000977 620.3 679.3
686(31) 0.001041 620.3 687.8
706(31) 0.001041 620.2 698.4
680(31) 0.001041 620.1 711.5
711(31) 0.001041 620.0 727.6
729(32) 0.000977 620.0 746.6
748(32) 0.000977 619.9 768.9
784(33) 0.000918 619.8 794.0
777(33) 0.000918 619.7 820.9
848(34) 0.000865 619.6 847.4
860(35) 0.000816 619.6 870.2
872(35) 0.000816 619.5 885.0
831(34) 0.000865 619.4 888.4
893(35) 0.000816 619.3 879.9
849(34) 0.000865 619.3 862.0
822(34) 0.000865 619.2 838.8
847(34) 0.000865 619.1 814.3
829(32) 0.000977 619.0 791.2
794(31) 0.001041 619.0 771.1
827(32) 0.000977 618.9 754.7
759(31) 0.001041 618.8 742.2
764(31) 0.001041 618.7 733.9
767(31) 0.001041 618.7 729.1
745(30) 0.001111 618.6 728.0
724(30) 0.001111 618.5 730.6
743(30) 0.001111 618.4 736.7
764(31) 0.001041 618.3 746.2
799(31) 0.001041 618.3 759.0
774(31) 0.001041 618.2 774.7
775(31) 0.001041 618.1 792.6
822(32) 0.000977 618.0 811.1
825(32) 0.000977 618.0 827.9
843(32) 0.000977 617.9 840.1
842(32) 0.000977 617.8 844.9
856(33) 0.000918 617.7 841.0
841(32) 0.000977 617.6 829.6
838(32) 0.000977 617.6 813.3
827(32) 0.000977 617.5 795.1
790(31) 0.001041 617.4 777.3
793(31) 0.001041 617.3 761.6
741(30) 0.001111 617.2 748.6
748(30) 0.001111 617.2 738.9
726(30) 0.001111 617.1 732.5
741(30) 0.001111 617.0 729.8
742(30) 0.001111 616.9 730.3
736(30) 0.001111 616.8 734.5
759(31) 0.001041 616.8 742.5
723(30) 0.001111 616.7 754.4
777(31) 0.001041 616.6 770.6
804(32) 0.000977 616.5 791.0
826(32) 0.000977 616.4 815.6
815(32) 0.000977 616.3 843.8
892(33) 0.000918 616.3 874.2
938(34) 0.000865 616.2 904.1
954(35) 0.000816 616.1 929.5
951(34) 0.000865 616.0 945.5
943(34) 0.000865 615.9 948.1
931(34) 0.000865 615.9 936.5
945(34) 0.000865 615.8 913.1
926(34) 0.000865 615.7 882.6
917(34) 0.000865 615.6 849.7
869(33) 0.000918 615.5 817.5
792(31) 0.001041 615.4 788.1
773(31) 0.001041 615.3 762.2
772(31) 0.001041 615.3 740.5
710(30) 0.001111 615.2 722.1
711(30) 0.001111 615.1 707.0
668(29) 0.001189 615.0 694.6
692(29) 0.001189 614.9 684.6
684(29) 0.001189 614.8 676.5
703(29) 0.001189 614.8 669.9
670(29) 0.001189 614.7 664.6
683(29) 0.001189 614.6 660.2
670(29) 0.001189 614.5 656.5
664(28) 0.001276 614.4 653.5
659(28) 0.001276 614.3 650.9
704(29) 0.001189 614.2 648.7
714(30) 0.001111 614.1 646.9
695(29) 0.001189 614.1 645.3
681(29) 0.001189 614.0 644.0
657(28) 0.001276 613.9 642.9
658(28) 0.001276 613.8 642.0
655(28) 0.001276 613.7 641.3
630(28) 0.001276 613.6 641.1
654(28) 0.001276 613.5 640.9
632(28) 0.001276 613.4 640.9
656(28) 0.001276 613.4 641.2
629(28) 0.001276 613.3 641.8
648(28) 0.001276 613.2 642.7
628(28) 0.001276 613.1 644.0
673(29) 0.001189 613.0 645.7
666(29) 0.001189 612.9 648.1
651(28) 0.001276 612.8 650.7
724(30) 0.001111 612.7 653.5
657(28) 0.001276 612.6 656.6
690(29) 0.001189 612.5 659.5
735(30) 0.001111 612.4 662.0
680(29) 0.001189 612.4 663.5
650(28) 0.001276 612.3 663.8
700(29) 0.001189 612.2 662.8
713(30) 0.001111 612.1 660.9
679(29) 0.001189 612.0 658.5
677(29) 0.001189 611.9 656.1
665(28) 0.001276 611.8 654.0
630(28) 0.001276 611.7 652.4
634(28) 0.001276 611.6 651.4
667(29) 0.001189 611.5 651.1
679(29) 0.001189 611.4 651.6
665(28) 0.001276 611.3 652.9
658(28) 0.001276 611.2 655.1
630(28) 0.001276 611.1 658.3
674(29) 0.001189 611.0 662.5
669(29) 0.001189 610.9 667.7
689(29) 0.001189 610.9 674.0
678(29) 0.001189 610.8 681.3
702(29) 0.001189 610.7 689.3
720(30) 0.001111 610.6 697.6
708(28) 0.001276 610.5 705.3
712(28) 0.001276 610.4 711.5
666(27) 0.001372 610.3 714.9
707(28) 0.001276 610.2 715.1
732(28) 0.001276 610.1 712.2
739(28) 0.001276 610.0 707.0
716(28) 0.001276 609.9 700.9
714(28) 0.001276 609.8 694.7
704(28) 0.001276 609.7 689.4
663(27) 0.001372 609.6 686.3
652(27) 0.001372 609.5 683.8
694(27) 0.001372 609.4 683.0
707(28) 0.001276 609.3 684.1
670(27) 0.001372 609.2 687.0
669(27) 0.001372 609.1 691.9
670(27) 0.001372 609.0 698.6
692(27) 0.001372 608.9 707.2
723(28) 0.001276 608.8 717.2
693(27) 0.001372 608.7 728.2
726(28) 0.001276 608.6 739.3
768(29) 0.001189 608.5 749.0
772(29) 0.001189 608.4 755.6
810(30) 0.001111 608.3 757.8
791(29) 0.001189 608.1 755.0
748(29) 0.001189 608.0 748.0
762(29) 0.001189 607.9 738.1
730(28) 0.001276 607.8 727.1
712(28) 0.001276 607.7 716.2
687(27) 0.001372 607.6 706.2
731(28) 0.001276 607.5 697.8
699(28) 0.001276 607.4 691.0
702(28) 0.001276 607.3 686.1
656(27) 0.001372 607.2 683.0
659(27) 0.001372 607.1 681.7
678(27) 0.001372 607.0 682.2
723(28) 0.001276 606.9 684.3
684(27) 0.001372 606.8 688.0
677(27) 0.001372 606.7 693.3
679(27) 0.001372 606.6 699.7
679(27) 0.001372 606.4 707.0
682(27) 0.001372 606.3 714.5
716(28) 0.001276 606.2 721.2
758(29) 0.001189 606.1 725.9
748(29) 0.001189 606.0 727.6
712(28) 0.001276 605.9 726.1
710(28) 0.001276 605.8 721.8
712(28) 0.001276 605.7 715.9
714(28) 0.001276 605.6 709.4
693(27) 0.001372 605.4 703.4
698(28) 0.001276 605.3 698.5
677(27) 0.001372 605.2 695.1
722(28) 0.001276 605.1 693.5
700(28) 0.001276 605.0 693.9
699(28) 0.001276 604.9 696.2
742(28) 0.001276 604.8 700.6
764(29) 0.001189 604.7 707.3
725(28) 0.001276 604.5 715.9
748(29) 0.001189 604.4 726.5
742(28) 0.001276 604.3 738.5
745(29) 0.001189 604.2 751.2
775(29) 0.001189 604.1 763.7
773(29) 0.001189 604.0 774.0
760(29) 0.001189 603.8 780.6
781(29) 0.001189 603.7 782.0
773(29) 0.001189 603.6 778.1
760(29) 0.001189 603.5 769.7
751(29) 0.001189 603.4 758.5
732(28) 0.001276 603.3 746.1
739(28) 0.001276 603.1 734.1
732(28) 0.001276 603.0 723.4
701(28) 0.001276 602.9 714.7
693(27) 0.001372 602.8 708.0
715(28) 0.001276 602.7 703.5
723(28) 0.001276 602.5 701.2
748(29) 0.001189 602.4 701.0
715(28) 0.001276 602.3 703.0
708(28) 0.001276 602.2 706.9
721(28) 0.001276 602.1 712.4
714(28) 0.001276 601.9 719.2
727(28) 0.001276 601.8 726.5
756(29) 0.001189 601.7 733.4
755(29) 0.001189 601.6 738.6
731(28) 0.001276 601.4 741.1
739(28) 0.001276 601.3 740.2
748(29) 0.001189 601.2 736.3
749(29) 0.001189 601.1 730.0
727(28) 0.001276 600.9 722.7
744(29) 0.001189 600.8 715.4
756(29) 0.001189 600.7 709.1
708(28) 0.001276 600.6 704.2
701(28) 0.001276 600.4 701.1
705(28) 0.001276 600.3 699.9
689(27) 0.001372 600.2 700.8
691(27) 0.001372 600.1 703.8
722(28) 0.001276 599.9 708.8
717(28) 0.001276 599.8 715.7
730(28) 0.001276 599.7 724.4
748(29) 0.001189 599.6 734.4
739(28) 0.001276 599.4 745.0
720(28) 0.001276 599.3 754.8
739(27) 0.001372 599.2 762.5
755(27) 0.001372 599.0 766.6
768(28) 0.001276 598.9 766.5
773(28) 0.001276 598.8 761.5
772(28) 0.001276 598.6 753.0
735(27) 0.001372 598.5 742.4
750(27) 0.001372 598.4 731.3
750(27) 0.001372 598.2 720.6
703(26) 0.001479 598.1 711.1
705(26) 0.001479 598.0 703.1
714(27) 0.001372 597.9 696.7
710(26) 0.001479 597.7 692.1
718(27) 0.001372 597.6 689.1
664(26) 0.001479 597.4 687.7
702(26) 0.001479 597.3 687.9
692(26) 0.001479 597.2 689.3
684(26) 0.001479 597.0 691.9
667(26) 0.001479 596.9 695.3
654(25) 0.001600 596.8 699.2
703(26) 0.001479 596.6 703.2
698(26) 0.001479 596.5 706.7
678(26) 0.001479 596.4 709.7
657(25) 0.001600 596.2 712.1
687(26) 0.001479 596.1 714.6
702(26) 0.001479 595.9 717.7
748(27) 0.001372 595.8 722.1
718(27) 0.001372 595.7 728.8
754(27) 0.001372 595.5 737.6
770(28) 0.001276 595.4 749.2
755(27) 0.001372 595.3 764.0
805(28) 0.001276 595.1 782.3
826(29) 0.001189 595.0 804.1
821(29) 0.001189 594.8 829.5
853(29) 0.001189 594.7 857.8
899(30) 0.001111 594.5 888.0
954(31) 0.001041 594.4 918.0
938(31) 0.001041 594.3 944.8
964(31) 0.001041 594.1 964.8
980(31) 0.001041 594.0 974.5
957(31) 0.001041 593.8 971.9
976(31) 0.001041 593.7 957.6
946(31) 0.001041 593.5 934.6
898(30) 0.001111 593.4 906.1
860(29) 0.001189 593.3 875.4
850(29) 0.001189 593.1 845.4
829(29) 0.001189 593.0 817.8
793(28) 0.001276 592.8 793.6
766(28) 0.001276 592.7 772.7
759(27) 0.001372 592.5 755.5
771(28) 0.001276 592.4 741.5
688(26) 0.001479 592.2 730.6
706(26) 0.001479 592.1 722.5
712(27) 0.001372 591.9 716.6
697(26) 0.001479 591.8 712.6
690(26) 0.001479 591.6 709.9
709(26) 0.001479 591.5 707.7
711(27) 0.001372 591.3 705.4
684(26) 0.001479 591.2 702.6
730(27) 0.001372 591.0 699.0
677(26) 0.001479 590.9 694.8
692(26) 0.001479 590.7 690.3
702(26) 0.001479 590.6 686.1
671(26) 0.001479 590.4 682.4
709(26) 0.001479 590.3 679.9
713(27) 0.001372 590.1 678.1
646(25) 0.001600 590.0 677.6
672(26) 0.001479 589.8 678.1
696(26) 0.001479 589.7 679.7
701(26) 0.001479 589.5 682.4
693(26) 0.001479 589.4 685.8
737(27) 0.001372 589.2 689.7
687(26) 0.001479 589.1 693.6
682(26) 0.001479 588.9 696.7
692(26) 0.001479 588.8 698.6
725(27) 0.001372 588.6 698.6
696(26) 0.001479 588.4 696.9
708(26) 0.001479 588.3 693.9
672(26) 0.001479 588.1 689.9
693(26) 0.001479 588.0 685.9
662(26) 0.001479 587.8 682.3
650(25) 0.001600 587.7 679.6
680(26) 0.001479 587.5 678.0
689(26) 0.001479 587.3 677.8
643(25) 0.001600 587.2 678.9
692(26) 0.001479 587.0 681.4
705(26) 0.001479 586.9 685.4
718(27) 0.001372 586.7 690.8
703(26) 0.001479 586.5 697.3
711(27) 0.001372 586.4 704.7
713(27) 0.001372 586.2 712.5
780(28) 0.001276 586.1 719.9
746(27) 0.001372 585.9 726.1
779(28) 0.001276 585.7 730.2
748(27) 0.001372 585.6 731.6
770(28) 0.001276 585.4 730.1
717(27) 0.001372 585.3 726.0
739(27) 0.001372 585.1 719.9
783(28) 0.001276 584.9 712.6
732(27) 0.001372 584.8 705.1
717(27) 0.001372 584.6 698.0
681(25) 0.001600 584.4 691.9
710(26) 0.001479 584.3 687.0
718(26) 0.001479 584.1 683.5
644(24) 0.001736 584.0 681.4
668(25) 0.001600 583.8 680.8
709(26) 0.001479 583.6 681.5
743(26) 0.001479 583.5 683.3
763(27) 0.001372 583.3 685.9
705(26) 0.001479 583.1 689.0
719(26) 0.001479 583.0 691.9
719(26) 0.001479 582.8 694.1
733(26) 0.001479 582.6 695.0
768(27) 0.001372 582.5 694.5
706(26) 0.001479 582.3 692.5
704(26) 0.001479 582.1 689.5
680(25) 0.001600 582.0 686.3
710(26) 0.001479 581.8 683.1
679(25) 0.001600 581.6 680.6
675(25) 0.001600 581.4 678.9
700(25) 0.001600 581.3 678.4
694(25) 0.001600 581.1 679.0
675(25) 0.001600 580.9 680.7
682(25) 0.001600 580.8 683.6
697(25) 0.001600 580.6 687.4
704(26) 0.001479 580.4 691.9
707(26) 0.001479 580.3 696.8
686(25) 0.001600 580.1 701.4
711(26) 0.001479 579.9 705.4
741(26) 0.001479 579.7 708.4
763(27) 0.001372 579.6 710.6
707(26) 0.001479 579.4 711.8
720(26) 0.001479 579.2 712.7
725(26) 0.001479 579.0 714.0
692(25) 0.001600 578.9 716.1
729(26) 0.001479 578.7 719.6
751(26) 0.001479 578.5 724.9
796(27) 0.001372 578.4 732.4
770(27) 0.001372 578.2 742.1
807(27) 0.001372 578.0 754.2
818(28) 0.001276 577.8 768.5
821(28) 0.001276 577.7 784.8
824(28) 0.001276 577.5 802.3
854(28) 0.001276 577.3 820.0
884(29) 0.001189 577.1 836.5
908(29) 0.001189 577.0 849.8
860(28) 0.001276 576.8 858.3
880(29) 0.001189 576.6 860.9
896(29) 0.001189 576.4 857.3
838(28) 0.001276 576.2 848.3
863(28) 0.001276 576.1 835.5
830(28) 0.001276 575.9 820.7
813(28) 0.001276 575.7 805.4
784(27) 0.001372 575.5 791.1
788(27) 0.001372 575.4 778.6
788(27) 0.001372 575.2 768.6
806(27) 0.001372 575.0 761.3
793(27) 0.001372 574.8 756.8
757(27) 0.001372 574.6 755.1
768(27) 0.001372 574.5 756.0
821(28) 0.001276 574.3 759.3
801(27) 0.001372 574.1 764.5
807(27) 0.001372 573.9 770.9
771(27) 0.001372 573.7 777.6
792(27) 0.001372 573.6 783.4
829(28) 0.001276 573.4 787.4
767(27) 0.001372 573.2 788.7
799(27) 0.001372 573.0 787.5
772(27) 0.001372 572.8 783.6
756(27) 0.001372 572.7 778.3
832(28) 0.001276 572.5 772.8
788(27) 0.001372 572.3 767.9
731(26) 0.001479 572.1 764.6
724(26) 0.001479 571.9 763.3
806(27) 0.001372 571.7 764.3
759(27) 0.001372 571.6 767.7
768(27) 0.001372 571.4 773.4
769(27) 0.001372 571.2 781.1
785(27) 0.001372 571.0 790.3
801(27) 0.001372 570.8 800.1
788(27) 0.001372 570.6 809.4
841(28) 0.001276 570.5 817.0
814(28) 0.001276 570.3 821.8
835(28) 0.001276 570.1 823.5
780(27) 0.001372 569.9 822.1
885(29) 0.001189 569.7 818.6
805(27) 0.001372 569.5 814.2
845(28) 0.001276 569.3 810.4
825(28) 0.001276 569.2 808.0
813(28) 0.001276 569.0 808.1
845(28) 0.001276 568.8 811.0
853(28) 0.001276 568.6 817.0
893(29) 0.001189 568.4 825.9
841(28) 0.001276 568.2 837.6
915(29) 0.001189 568.0 851.1
925(29) 0.001189 567.9 865.4
965(30) 0.001111 567.7 878.9
932(30) 0.001111 567.5 889.8
964(30) 0.001111 567.3 896.5
905(29) 0.001189 567.1 897.6
994(31) 0.001041 566.9 893.0
915(28) 0.001276 566.7 883.3
889(28) 0.001276 566.5 869.9
888(28) 0.001276 566.4 854.8
854(27) 0.001372 566.2 839.5
877(28) 0.001276 566.0 825.4
828(27) 0.001372 565.8 813.7
853(27) 0.001372 565.6 804.7
824(27) 0.001372 565.4 798.9
842(27) 0.001372 565.2 796.2
828(27) 0.001372 565.0 796.5
799(26) 0.001479 564.8 799.3
800(26) 0.001479 564.7 804.0
818(27) 0.001372 564.5 809.4
822(27) 0.001372 564.3 814.4
862(27) 0.001372 564.1 817.4
794(26) 0.001479 563.9 817.1
824(27) 0.001372 563.7 812.9
850(27) 0.001372 563.5 804.6
765(26) 0.001479 563.3 792.9
789(26) 0.001479 563.1 779.1
786(26) 0.001479 562.9 764.3
747(26) 0.001479 562.8 749.6
720(25) 0.001600 562.6 735.8
745(25) 0.001600 562.4 723.4
723(25) 0.001600 562.2 712.6
705(25) 0.001600 562.0 703.4
676(24) 0.001736 561.8 695.7
708(25) 0.001600 561.6 689.2
684(24) 0.001736 561.4 683.6
693(25) 0.001600 561.2 678.4
663(24) 0.001736 561.0 673.4
676(24) 0.001736 560.8 668.2
704(25) 0.001600 560.6 662.6
658(24) 0.001736 560.5 656.8
671(24) 0.001736 560.3 650.8
622(23) 0.001890 560.1 644.9
623(23) 0.001890 559.9 639.2
676(24) 0.001736 559.7 633.9
645(24) 0.001736 559.5 629.1
619(23) 0.001890 559.3 624.9
611(23) 0.001890 559.1 621.1
590(23) 0.001890 558.9 617.9
607(23) 0.001890 558.7 615.1
648(24) 0.001736 558.5 612.8
608(23) 0.001890 558.3 611.0
594(23) 0.001890 558.1 609.5
600(23) 0.001890 557.9 608.2
600(23) 0.001890 557.7 607.2
603(23) 0.001890 557.6 606.3
568(22) 0.002066 557.4 605.5
604(23) 0.001890 557.2 604.8
603(23) 0.001890 557.0 604.1
580(22) 0.002066 556.8 603.4
616(23) 0.001890 556.6 602.8
615(23) 0.001890 556.4 602.3
618(23) 0.001890 556.2 601.9
561(22) 0.002066 556.0 601.8
608(23) 0.001890 555.8 602.0
650(24) 0.001736 555.6 602.4
595(23) 0.001890 555.4 603.1
606(23) 0.001890 555.2 604.0
594(23) 0.001890 555.0 605.3
589(23) 0.001890 554.8 606.8
620(23) 0.001890 554.6 608.5
615(23) 0.001890 554.4 610.5
603(23) 0.001890 554.3 612.4
615(23) 0.001890 554.1 614.5
610(23) 0.001890 553.9 616.6
626(23) 0.001890 553.7 618.8
602(23) 0.001890 553.5 621.3
624(23) 0.001890 553.3 624.1
624(23) 0.001890 553.1 627.5
631(23) 0.001890 552.9 631.5
616(23) 0.001890 552.7 636.2
674(24) 0.001736 552.5 641.7
684(24) 0.001736 552.3 647.8
645(24) 0.001736 552.1 654.5
662(24) 0.001736 551.9 661.5
644(24) 0.001736 551.7 668.4
713(25) 0.001600 551.5 674.8
695(25) 0.001600 551.3 679.9
664(24) 0.001736 551.1 683.2
707(25) 0.001600 550.9 684.5
653(24) 0.001736 550.7 683.6
698(25) 0.001600 550.6 680.7
720(25) 0.001600 550.4 676.4
666(24) 0.001736 550.2 671.3
645(24) 0.001736 550.0 665.8
671(24) 0.001736 549.8 660.6
615(23) 0.001890 549.6 655.9
623(23) 0.001890 549.4 652.0
643(24) 0.001736 549.2 648.9
654(24) 0.001736 549.0 646.7
662(24) 0.001736 548.8 645.1
654(24) 0.001736 548.6 644.0
632(23) 0.001890 548.4 643.2
609(23) 0.001890 548.2 642.4
621(23) 0.001890 548.0 641.4
613(23) 0.001890 547.8 640.2
598(23) 0.001890 547.6 638.9
586(31) 0.001041 547.4 637.4
602(22) 0.002066 547.2 636.0
641(23) 0.001890 547.0 635.0
627(23) 0.001890 546.9 634.5
629(23) 0.001890 546.7 634.6
642(23) 0.001890 546.5 635.5
635(23) 0.001890 546.3 637.2
642(23) 0.001890 546.1 639.8
690(24) 0.001736 545.9 643.1
691(24) 0.001736 545.7 647.2
678(23) 0.001890 545.5 651.8
690(24) 0.001736 545.3 656.7
675(23) 0.001890 545.1 661.7
698(24) 0.001736 544.9 666.4
697(24) 0.001736 544.7 670.5
736(24) 0.001736 544.5 674.0
747(25) 0.001600 544.3 676.8
724(24) 0.001736 544.1 679.3
710(24) 0.001736 543.9 681.8
714(24) 0.001736 543.7 684.8
717(24) 0.001736 543.5 688.7
699(24) 0.001736 543.4 693.8
685(24) 0.001736 543.2 700.4
705(24) 0.001736 543.0 708.4
747(25) 0.001600 542.8 717.9
744(25) 0.001600 542.6 728.5
738(25) 0.001600 542.4 739.8
764(25) 0.001600 542.2 751.0
726(24) 0.001736 542.0 761.3
727(24) 0.001736 541.8 769.4
767(25) 0.001600 541.6 774.4
744(25) 0.001600 541.4 775.4
729(24) 0.001736 541.2 772.2
727(24) 0.001736 541.0 765.2
709(24) 0.001736 540.8 755.1
748(25) 0.001600 540.6 743.0
734(24) 0.001736 540.5 730.1
697(24) 0.001736 540.3 717.1
673(23) 0.001890 540.1 704.9
675(23) 0.001890 539.9 693.8
648(23) 0.001890 539.7 684.0
694(24) 0.001736 539.5 675.4
687(24) 0.001736 539.3 668.2
673(23) 0.001890 539.1 662.0
688(24) 0.001736 538.9 656.7
623(22) 0.002066 538.7 652.0
614(22) 0.002066 538.5 647.4
647(23) 0.001890 538.3 642.7
652(23) 0.001890 538.2 637.9
618(22) 0.002066 538.0 632.8
604(22) 0.002066 537.8 627.6
613(22) 0.002066 537.6 622.4
626(23) 0.001890 537.4 617.4
600(22) 0.002066 537.2 612.7
614(22) 0.002066 537.0 608.4
580(22) 0.002066 536.8 604.6
580(22) 0.002066 536.6 601.2
625(23) 0.001890 536.4 598.4
613(22) 0.002066 536.2 596.0
580(22) 0.002066 536.1 594.0
578(22) 0.002066 535.9 592.3
586(22) 0.002066 535.7 590.8
602(22) 0.002066 535.5 589.4
576(22) 0.002066 535.3 588.1
577(22) 0.002066 535.1 586.8
581(22) 0.002066 534.9 585.4
587(22) 0.002066 534.7 584.0
565(21) 0.002268 534.5 582.6
569(21) 0.002268 534.4 581.3
583(22) 0.002066 534.2 580.1
587(22) 0.002066 534.0 579.2
596(22) 0.002066 533.8 578.6
571(22) 0.002066 533.6 578.1
600(22) 0.002066 533.4 577.8
615(22) 0.002066 533.2 577.8
590(22) 0.002066 533.0 578.0
567(21) 0.002268 532.8 578.4
603(22) 0.002066 532.7 578.9
602(22) 0.002066 532.5 579.5
593(22) 0.002066 532.3 580.2
598(22) 0.002066 532.1 581.0
578(22) 0.002066 531.9 582.0
581(22) 0.002066 531.7 583.1
604(22) 0.002066 531.5 584.4
576(22) 0.002066 531.4 586.1
592(22) 0.002066 531.2 588.2
603(22) 0.002066 531.0 590.6
588(22) 0.002066 530.8 593.3
586(22) 0.002066 530.6 596.3
582(22) 0.002066 530.4 599.5
611(22) 0.002066 530.2 602.7
611(22) 0.002066 530.1 605.7
636(23) 0.001890 529.9 608.2
621(22) 0.002066 529.7 610.0
620(22) 0.002066 529.5 610.9
613(22) 0.002066 529.3 610.8
581(22) 0.002066 529.1 609.7
592(22) 0.002066 529.0 607.8
603(22) 0.002066 528.8 605.3
602(22) 0.002066 528.6 602.4
575(22) 0.002066 528.4 599.4
590(22) 0.002066 528.2 596.6
582(22) 0.002066 528.0 594.0
585(22) 0.002066 527.9 591.8
607(22) 0.002066 527.7 590.0
584(22) 0.002066 527.5 588.6
598(22) 0.002066 527.3 587.6
596(22) 0.002066 527.1 586.9
590(22) 0.002066 526.9 586.5
588(22) 0.002066 526.8 586.1
581(22) 0.002066 526.6 585.6
570(22) 0.002066 526.4 585.1
586(22) 0.002066 526.2 584.3
604(22) 0.002066 526.0 583.4
603(22) 0.002066 525.9 582.4
612(22) 0.002066 525.7 581.3
578(22) 0.002066 525.5 580.3
588(22) 0.002066 525.3 579.5
598(22) 0.002066 525.1 578.9
609(22) 0.002066 525.0 578.5
567(22) 0.002066 524.8 578.3
572(22) 0.002066 524.6 578.2
605(22) 0.002066 524.4 578.1
577(22) 0.002066 524.3 578.0
549(21) 0.002268 524.1 577.7
555(21) 0.002268 523.9 577.2
594(22) 0.002066 523.7 576.4
612(22) 0.002066 523.5 575.5
600(22) 0.002066 523.4 574.4
575(22) 0.002066 523.2 573.2
554(21) 0.002268 523.0 572.1
568(22) 0.002066 522.8 571.1
577(22) 0.002066 522.7 570.4
585(22) 0.002066 522.5 569.9
584(22) 0.002066 522.3 569.7
583(22) 0.002066 522.1 569.8
574(22) 0.002066 522.0 570.0
555(21) 0.002268 521.8 570.5
559(21) 0.002268 521.6 571.3
587(22) 0.002066 521.4 572.0
589(22) 0.002066 521.3 572.8
563(21) 0.002268 521.1 573.4
581(22) 0.002066 520.9 574.0
597(22) 0.002066 520.7 574.5
634(23) 0.001890 520.6 575.0
603(22) 0.002066 520.4 575.5
572(22) 0.002066 520.2 576.1
567(22) 0.002066 520.1 576.9
602(22) 0.002066 519.9 578.0
586(22) 0.002066 519.7 579.3
554(21) 0.002268 519.5 580.9
545(21) 0.002268 519.4 582.8
590(22) 0.002066 519.2 584.9
591(22) 0.002066 519.0 587.0
581(22) 0.002066 518.9 589.0
614(22) 0.002066 518.7 590.7
572(22) 0.002066 518.5 591.8
606(22) 0.002066 518.3 592.3
593(22) 0.002066 518.2 592.1
572(22) 0.002066 518.0 591.1
608(22) 0.002066 517.8 589.5
578(22) 0.002066 517.7 587.5
601(22) 0.002066 517.5 585.2
570(22) 0.002066 517.3 582.8
537(21) 0.002268 517.2 580.5
568(22) 0.002066 517.0 578.5
557(21) 0.002268 516.8 576.9
562(21) 0.002268 516.7 575.5
590(22) 0.002066 516.5 574.4
600(22) 0.002066 516.3 573.8
596(22) 0.002066 516.2 573.5
560(21) 0.002268 516.0 573.5
557(21) 0.002268 515.8 573.9
573(22) 0.002066 515.7 574.5
609(22) 0.002066 515.5 575.4
604(22) 0.002066 515.3 576.6
564(21) 0.002268 515.2 578.2
552(21) 0.002268 515.0 580.1
591(22) 0.002066 514.8 582.4
625(23) 0.001890 514.7 585.2
595(22) 0.002066 514.5 588.3
597(22) 0.002066 514.4 591.8
594(22) 0.002066 514.2 595.5
613(22) 0.002066 514.0 599.5
611(22) 0.002066 513.9 603.4
595(22) 0.002066 513.7 607.1
655(23) 0.001890 513.5 610.3
640(23) 0.001890 513.4 613.0
620(23) 0.001890 513.2 614.8
641(23) 0.001890 513.1 615.7
616(22) 0.002066 512.9 615.9
622(23) 0.001890 512.7 615.4
602(22) 0.002066 512.6 614.4
617(22) 0.002066 512.4 613.2
636(23) 0.001890 512.3 612.0
639(23) 0.001890 512.1 611.1
629(23) 0.001890 511.9 610.5
641(23) 0.001890 511.8 610.3
635(23) 0.001890 511.6 610.6
622(23) 0.001890 511.5 611.2
610(18) 0.003086 511.3 612.1
594(22) 0.002066 511.2 613.1
608(22) 0.002066 511.0 614.2
642(23) 0.001890 510.8 615.0
640(23) 0.001890 510.7 615.7
614(22) 0.002066 510.5 616.2
635(23) 0.001890 510.4 616.6
617(22) 0.002066 510.2 617.0
632(23) 0.001890 510.1 617.6
598(22) 0.002066 509.9 618.4
614(22) 0.002066 509.8 619.7
602(22) 0.002066 509.6 621.3
651(23) 0.001890 509.5 623.4
630(23) 0.001890 509.3 625.9
620(23) 0.001890 509.1 628.6
629(23) 0.001890 509.0 631.4
627(23) 0.001890 508.8 634.1
643(23) 0.001890 508.7 636.6
653(23) 0.001890 508.5 638.8
617(22) 0.002066 508.4 640.7
656(23) 0.001890 508.2 642.5
665(23) 0.001890 508.1 644.1
649(23) 0.001890 507.9 646.0
655(23) 0.001890 507.8 648.0
671(23) 0.001890 507.6 650.6
670(23) 0.001890 507.5 653.7
646(23) 0.001890 507.3 657.4
666(23) 0.001890 507.2 661.8
675(24) 0.001736 507.0 666.3
623(23) 0.001890 506.9 671.0
639(23) 0.001890 506.7 675.3
683(24) 0.001736 506.6 678.9
641(23) 0.001890 506.4 681.4
651(23) 0.001890 506.3 682.3
657(23) 0.001890 506.1 681.5
638(23) 0.001890 506.0 678.7
654(23) 0.001890 505.9 674.3
657(23) 0.001890 505.7 668.2
629(23) 0.001890 505.6 661.1
622(23) 0.001890 505.4 653.2
606(22) 0.002066 505.3 645.0
636(23) 0.001890 505.1 636.8
600(22) 0.002066 505.0 629.0
602(22) 0.002066 504.8 621.7
632(23) 0.001890 504.7 615.0
568(22) 0.002066 504.6 608.9
614(22) 0.002066 504.4 603.6
613(22) 0.002066 504.3 599.0
598(22) 0.002066 504.1 595.0
625(23) 0.001890 504.0 591.7
601(22) 0.002066 503.8 589.0
607(22) 0.002066 503.7 586.8
581(22) 0.002066 503.6 585.1
588(22) 0.002066 503.4 584.0
614(22) 0.002066 503.3 583.4
572(22) 0.002066 503.1 583.4
562(21) 0.002268 503.0 583.8
606(22) 0.002066 502.9 584.7
598(22) 0.002066 502.7 586.1
614(22) 0.002066 502.6 587.9
571(22) 0.002066 502.4 590.2
599(22) 0.002066 502.3 592.8
595(22) 0.002066 502.2 595.8
585(22) 0.002066 502.0 599.0
622(23) 0.001890 501.9 602.6
624(23) 0.001890 501.8 606.4
627(23) 0.001890 501.6 610.4
604(22) 0.002066 501.5 614.8
594(22) 0.002066 501.3 619.5
634(23) 0.001890 501.2 624.6
691(24) 0.001736 501.1 630.2
642(23) 0.001890 500.9 636.1
660(23) 0.001890 500.8 642.4
683(24) 0.001736 500.7 648.7
706(24) 0.001736 500.5 654.9
692(24) 0.001736 500.4 660.7
679(24) 0.001736 500.3 665.6
682(24) 0.001736 500.1 669.2
634(23) 0.001890 500.0 671.3
654(23) 0.001890 499.9 671.5
687(24) 0.001736 499.7 669.9
688(24) 0.001736 499.6 666.4
687(24) 0.001736 499.5 661.3
651(23) 0.001890 499.3 655.1
664(23) 0.001890 499.2 647.9
637(23) 0.001890 499.1 640.4
610(22) 0.002066 499.0 632.7
641(23) 0.001890 498.8 625.1
616(22) 0.002066 498.7 617.8
597(22) 0.002066 498.6 610.9
606(22) 0.002066 498.4 604.4
597(22) 0.002066 498.3 598.2
569(22) 0.002066 498.2 592.4
579(22) 0.002066 498.1 586.9
586(22) 0.002066 497.9 581.8
595(22) 0.002066 497.8 577.0
587(22) 0.002066 497.7 572.6
566(22) 0.002066 497.5 568.5
583(22) 0.002066 497.4 564.8
561(21) 0.002268 497.3 561.4
519(29) 0.001189 497.2 558.4
542(20) 0.002500 497.0 555.7
567(21) 0.002268 496.9 553.4
569(21) 0.002268 496.8 551.5
573(21) 0.002268 496.7 549.8
543(20) 0.002500 496.5 548.5
566(21) 0.002268 496.4 547.5
572(21) 0.002268 496.3 546.7
521(20) 0.002500 496.2 546.2
570(21) 0.002268 496.0 546.0
563(21) 0.002268 495.9 546.1
522(20) 0.002500 495.8 546.4
535(20) 0.002500 495.7 547.0
568(21) 0.002268 495.6 547.8
554(21) 0.002268 495.4 548.9
562(21) 0.002268 495.3 550.2
537(20) 0.002500 495.2 551.8
555(21) 0.002268 495.1 553.5
578(21) 0.002268 495.0 555.4
573(21) 0.002268 494.8 557.3
576(21) 0.002268 494.7 559.4
550(21) 0.002268 494.6 561.3
595(21) 0.002268 494.5 563.1
579(21) 0.002268 494.4 564.7
594(21) 0.002268 494.2 566.0
586(21) 0.002268 494.1 567.0
568(21) 0.002268 494.0 567.6
576(21) 0.002268 493.9 567.8
570(21) 0.002268 493.8 567.8
549(21) 0.002268 493.7 567.6
585(21) 0.002268 493.5 567.2
614(22) 0.002066 493.4 566.9
560(21) 0.002268 493.3 566.6
582(21) 0.002268 493.2 566.6
610(22) 0.002066 493.1 566.7
541(20) 0.002500 493.0 567.2
586(21) 0.002268 492.8 567.9
569(21) 0.002268 492.7 569.0
544(20) 0.002500 492.6 570.4
559(21) 0.002268 492.5 572.1
589(21) 0.002268 492.4 574.2
562(21) 0.002268 492.3 576.5
600(22) 0.002066 492.2 579.2
607(22) 0.002066 492.1 582.3
597(21) 0.002268 491.9 585.6
606(22) 0.002066 491.8 589.3
605(22) 0.002066 491.7 593.5
606(22) 0.002066 491.6 597.8
617(22) 0.002066 491.5 602.3
602(22) 0.002066 491.4 606.8
632(22) 0.002066 491.3 611.2
621(22) 0.002066 491.2 615.3
643(22) 0.002066 491.1 618.9
643(22) 0.002066 490.9 621.9
636(22) 0.002066 490.8 624.0
629(22) 0.002066 490.7 625.2
624(22) 0.002066 490.6 625.5
630(22) 0.002066 490.5 625.0
608(22) 0.002066 490.4 623.8
598(21) 0.002268 490.3 622.2
583(21) 0.002268 490.2 620.3
566(21) 0.002268 490.1 618.3
612(22) 0.002066 490.0 616.4
617(22) 0.002066 489.9 614.7
618(22) 0.002066 489.8 613.2
611(22) 0.002066 489.6 611.9
651(22) 0.002066 489.5 610.8
598(21) 0.002268 489.4 609.8
612(22) 0.002066 489.3 608.7
634(22) 0.002066 489.2 607.6
617(22) 0.002066 489.1 606.3
650(22) 0.002066 489.0 604.8
640(22) 0.002066 488.9 603.3
577(21) 0.002268 488.8 601.6
586(21) 0.002268 488.7 599.9
574(21) 0.002268 488.6 598.3
606(22) 0.002066 488.5 596.8
597(21) 0.002268 488.4 595.5
582(21) 0.002268 488.3 594.4
607(22) 0.002066 488.2 593.4
577(21) 0.002268 488.1 592.5
585(21) 0.002268 488.0 591.6
594(21) 0.002268 487.9 590.7
574(21) 0.002268 487.8 589.6
594(21) 0.002268 487.7 588.3
575(21) 0.002268 487.6 586.9
604(22) 0.002066 487.5 585.2
626(22) 0.002066 487.4 583.3
608(22) 0.002066 487.3 581.3
608(22) 0.002066 487.2 579.4
577(21) 0.002268 487.1 577.5
570(21) 0.002268 487.0 575.8
553(21) 0.002268 486.9 574.4
559(21) 0.002268 486.8 573.1
588(21) 0.002268 486.7 572.0
596(21) 0.002268 486.6 571.2
572(21) 0.002268 486.5 570.6
566(21) 0.002268 486.4 570.2
613(22) 0.002066 486.3 569.9
584(21) 0.002268 486.2 569.8
575(21) 0.002268 486.1 569.9
583(21) 0.002268 486.0 570.1
582(21) 0.002268 485.9 570.5
580(21) 0.002268 485.8 571.1
564(21) 0.002268 485.7 571.9
565(21) 0.002268 485.6 573.1
604(22) 0.002066 485.5 574.5
601(22) 0.002066 485.4 576.4
596(21) 0.002268 485.3 578.4
576(21) 0.002268 485.2 580.6
593(21) 0.002268 485.2 582.8
590(21) 0.002268 485.1 585.1
607(22) 0.002066 485.0 587.3
605(22) 0.002066 484.9 589.2
609(22) 0.002066 484.8 590.7
598(21) 0.002268 484.7 591.7
566(21) 0.002268 484.6 592.1
589(21) 0.002268 484.5 591.9
586(21) 0.002268 484.4 591.3
594(21) 0.002268 484.3 590.1
586(21) 0.002268 484.2 588.7
586(21) 0.002268 484.1 587.1
603(22) 0.002066 484.0 585.4
572(21) 0.002268 483.9 583.9
560(21) 0.002268 483.9 582.5
618(22) 0.002066 483.8 581.3
570(21) 0.002268 483.7 580.3
570(21) 0.002268 483.6 579.6
610(22) 0.002066 483.5 579.2
577(21) 0.002268 483.4 578.9
590(21) 0.002268 483.3 578.7
627(22) 0.002066 483.2 578.7
567(21) 0.002268 483.1 578.8
572(21) 0.002268 483.0 579.0
570(21) 0.002268 483.0 579.3
584(21) 0.002268 482.9 579.7
596(21) 0.002268 482.8 580.2
625(22) 0.002066 482.7 580.8
612(22) 0.002066 482.6 581.4
630(22) 0.002066 482.5 582.1
569(21) 0.002268 482.4 582.6
566(21) 0.002268 482.3 583.1
593(21) 0.002268 482.3 583.4
607(22) 0.002066 482.2 583.5
590(21) 0.002268 482.1 583.4
588(21) 0.002268 482.0 583.2
603(22) 0.002066 481.9 582.9
588(21) 0.002268 481.8 582.6
616(22) 0.002066 481.7 582.3
565(21) 0.002268 481.7 582.2
600(22) 0.002066 481.6 582.1
608(22) 0.002066 481.5 582.3
565(21) 0.002268 481.4 582.7
620(22) 0.002066 481.3 583.3
578(21) 0.002268 481.2 584.0
580(21) 0.002268 481.1 584.7
592(21) 0.002268 481.1 585.3
587(21) 0.002268 481.0 585.7
601(22) 0.002066 480.9 585.9
586(21) 0.002268 480.8 585.6
578(21) 0.002268 480.7 584.8
599(22) 0.002066 480.6 583.5
603(22) 0.002066 480.6 581.6
599(22) 0.002066 480.5 579.3
564(21) 0.002268 480.4 576.6
590(21) 0.002268 480.3 573.6
545(21) 0.002268 480.2 570.4
561(21) 0.002268 480.2 567.2
610(22) 0.002066 480.1 564.1
581(21) 0.002268 480.0 561.1
569(21) 0.002268 479.9 558.3
594(21) 0.002268 479.8 555.8
596(21) 0.002268 479.7 553.6
571(21) 0.002268 479.7 551.7
578(21) 0.002268 479.6 550.2
562(21) 0.002268 479.5 548.9
586(21) 0.002268 479.4 548.0
545(21) 0.002268 479.3 547.5
583(21) 0.002268 479.3 547.2
568(21) 0.002268 479.2 547.3
568(21) 0.002268 479.1 547.8
568(21) 0.002268 479.0 548.5
536(20) 0.002500 478.9 549.5
537(20) 0.002500 478.9 550.8
542(20) 0.002500 478.8 552.3
567(21) 0.002268 478.7 554.1
556(21) 0.002268 478.6 556.0
545(21) 0.002268 478.6 558.0
567(21) 0.002268 478.5 560.1
557(21) 0.002268 478.4 562.3
558(21) 0.002268 478.3 564.5
583(21) 0.002268 478.2 566.7
550(21) 0.002268 478.2 568.9
635(22) 0.002066 478.1 571.0
579(21) 0.002268 478.0 573.2
573(21) 0.002268 477.9 575.4
575(21) 0.002268 477.9 577.7
619(22) 0.002066 477.8 580.1
617(22) 0.002066 477.7 582.5
585(21) 0.002268 477.6 584.9
579(21) 0.002268 477.5 587.4
603(22) 0.002066 477.5 589.7
603(22) 0.002066 477.4 591.9
609(23) 0.001890 477.3 594.0
584(22) 0.002066 477.2 595.7
618(23) 0.001890 477.2 597.3
632(23) 0.001890 477.1 598.5
590(22) 0.002066 477.0 599.6
621(23) 0.001890 476.9 600.4
595(22) 0.002066 476.9 601.1
632(23) 0.001890 476.8 601.9
556(22) 0.002066 476.7 602.6
571(22) 0.002066 476.6 603.5
608(23) 0.001890 476.6 604.5
618(23) 0.001890 476.5 605.7
603(22) 0.002066 476.4 606.9
627(23) 0.001890 476.3 608.1
622(23) 0.001890 476.3 609.2
607(23) 0.001890 476.2 610.2
621(23) 0.001890 476.1 610.9
640(23) 0.001890 476.1 611.3
596(22) 0.002066 476.0 611.4
615(23) 0.001890 475.9 611.1
610(23) 0.001890 475.8 610.5
585(22) 0.002066 475.8 609.6
605(23) 0.001890 475.7 608.5
629(23) 0.001890 475.6 607.4
618(23) 0.001890 475.5 606.3
603(22) 0.002066 475.5 605.1
616(23) 0.001890 475.4 604.0
603(22) 0.002066 475.3 602.9
560(22) 0.002066 475.3 601.8
585(22) 0.002066 475.2 600.7
631(23) 0.001890 475.1 599.5
616(23) 0.001890 475.0 598.2
627(23) 0.001890 475.0 596.8
630(23) 0.001890 474.9 595.3
622(23) 0.001890 474.8 593.7
619(23) 0.001890 474.8 592.0
641(23) 0.001890 474.7 590.3
612(23) 0.001890 474.6 588.7
575(22) 0.002066 474.5 587.2
609(23) 0.001890 474.5 585.9
534(21) 0.002268 474.4 584.6
587(22) 0.002066 474.3 583.6
592(22) 0.002066 474.3 582.7
572(22) 0.002066 474.2 581.9
577(22) 0.002066 474.1 581.2
599(22) 0.002066 474.1 580.6
579(22) 0.002066 474.0 580.0
577(22) 0.002066 473.9 579.4
621(23) 0.001890 473.8 578.9
611(23) 0.001890 473.8 578.5
609(23) 0.001890 473.7 578.1
587(22) 0.002066 473.6 577.8
578(22) 0.002066 473.6 577.6
627(23) 0.001890 473.5 577.5
592(22) 0.002066 473.4 577.6
585(22) 0.002066 473.4 577.7
597(22) 0.002066 473.3 577.8
609(23) 0.001890 473.2 578.0
555(22) 0.002066 473.2 578.2
614(23) 0.001890 473.1 578.4
552(21) 0.002268 473.0 578.7
563(22) 0.002066 472.9 578.8
571(22) 0.002066 472.9 579.0
556(22) 0.002066 472.8 579.3
565(22) 0.002066 472.7 579.8
576(22) 0.002066 472.7 580.4
582(22) 0.002066 472.6 581.3
561(22) 0.002066 472.5 582.4
567(22) 0.002066 472.5 583.8
593(22) 0.002066 472.4 585.5
583(22) 0.002066 472.3 587.4
598(22) 0.002066 472.3 589.5
577(22) 0.002066 472.2 591.8
561(22) 0.002066 472.1 594.2
541(21) 0.002268 472.1 596.7
590(22) 0.002066 472.0 599.2
594(22) 0.002066 471.9 601.7
596(22) 0.002066 471.9 604.0
594(22) 0.002066 471.8 606.3
572(22) 0.002066 471.7 608.4
623(23) 0.001890 471.7 610.4
662(24) 0.001736 471.6 612.3
566(22) 0.002066 471.5 614.1
641(23) 0.001890 471.5 615.7
611(23) 0.001890 471.4 617.1
611(23) 0.001890 471.3 618.4
633(23) 0.001890 471.3 619.3
662(24) 0.001736 471.2 619.8
657(23) 0.001890 471.1 619.9
673(24) 0.001736 471.1 619.5
620(23) 0.001890 471.0 618.6
617(23) 0.001890 470.9 617.2
623(23) 0.001890 470.9 615.4
613(23) 0.001890 470.8 613.2
596(22) 0.002066 470.7 610.7
625(23) 0.001890 470.7 608.1
603(22) 0.002066 470.6 605.3
597(23) 0.001890 470.5 602.6
582(22) 0.002066 470.5 599.9
591(22) 0.002066 470.4 597.4
610(23) 0.001890 470.4 595.0
594(23) 0.001890 470.3 592.8
571(22) 0.002066 470.2 590.8
577(22) 0.002066 470.2 588.8
569(22) 0.002066 470.1 586.9
562(22) 0.002066 470.0 584.9
613(23) 0.001890 470.0 582.8
573(22) 0.002066 469.9 580.6
547(22) 0.002066 469.8 578.3
556(22) 0.002066 469.8 575.7
560(22) 0.002066 469.7 573.1
571(22) 0.002066 469.6 570.2
538(21) 0.002268 469.6 567.2
531(21) 0.002268 469.5 564.1
539(21) 0.002268 469.4 561.1
530(21) 0.002268 469.4 558.1
575(22) 0.002066 469.3 555.2
519(21) 0.002268 469.2 552.4
540(21) 0.002268 469.2 549.8
550(22) 0.002066 469.1 547.5
513(21) 0.002268 469.1 545.3
516(21) 0.002268 469.0 543.2
539(21) 0.002268 468.9 541.4
527(21) 0.002268 468.9 539.8
513(21) 0.002268 468.8 538.4
513(21) 0.002268 468.7 537.1
540(21) 0.002268 468.7 536.1
539(21) 0.002268 468.6 535.3
555(22) 0.002066 468.5 534.6
556(22) 0.002066 468.5 534.2
561(22) 0.002066 468.4 534.0
502(21) 0.002268 468.4 534.0
544(22) 0.002066 468.3 534.2
514(21) 0.002268 468.2 534.7
564(22) 0.002066 468.2 535.3
565(22) 0.002066 468.1 536.1
522(21) 0.002268 468.0 537.2
585(22) 0.002066 468.0 538.4
543(22) 0.002066 467.9 539.9
517(21) 0.002268 467.8 541.5
546(22) 0.002066 467.8 543.3
542(22) 0.002066 467.7 545.2
575(22) 0.002066 467.7 547.2
572(22) 0.002066 467.6 549.3
540(21) 0.002268 467.5 551.5
520(21) 0.002268 467.5 553.6
548(22) 0.002066 467.4 555.6
594(23) 0.001890 467.3 557.5
519(21) 0.002268 467.3 559.3
560(22) 0.002066 467.2 560.9
602(23) 0.001890 467.2 562.2
572(22) 0.002066 467.1 563.4
553(22) 0.002066 467.0 564.3
573(22) 0.002066 467.0 565.0
579(22) 0.002066 466.9 565.7
597(23) 0.001890 466.8 566.1
606(23) 0.001890 466.8 566.6
604(23) 0.001890 466.7 567.0
570(22) 0.002066 466.7 567.5
584(22) 0.002066 466.6 568.1
557(22) 0.002066 466.5 568.8
568(22) 0.002066 466.5 569.5
560(22) 0.002066 466.4 570.5
586(22) 0.002066 466.3 571.6
590(22) 0.002066 466.3 572.8
552(22) 0.002066 466.2 574.0
536(21) 0.002268 466.2 575.3
535(21) 0.002268 466.1 576.7
561(22) 0.002066 466.0 578.1
557(22) 0.002066 466.0 579.6
575(22) 0.002066 465.9 581.2
590(22) 0.002066 465.8 582.8
581(22) 0.002066 465.8 584.6
593(23) 0.001890 465.7 586.4
611(23) 0.001890 465.7 588.5
579(22) 0.002066 465.6 590.7
571(22) 0.002066 465.5 593.1
574(22) 0.002066 465.5 595.8
610(23) 0.001890 465.4 598.7
598(23) 0.001890 465.3 601.8
591(22) 0.002066 465.3 605.1
601(23) 0.001890 465.2 608.5
628(23) 0.001890 465.2 612.2
623(23) 0.001890 465.1 615.9
592(22) 0.002066 465.0 619.8
645(23) 0.001890 465.0 623.8
661(24) 0.001736 464.9 627.9
660(24) 0.001736 464.8 632.0
690(24) 0.001736 464.8 636.2
640(23) 0.001890 464.7 640.2
676(24) 0.001736 464.7 644.2
730(25) 0.001600 464.6 648.0
702(24) 0.001736 464.5 651.6
686(24) 0.001736 464.5 654.9
727(25) 0.001600 464.4 657.8
697(24) 0.001736 464.3 660.4
689(24) 0.001736 464.3 662.7
705(25) 0.001600 464.2 664.7
735(24) 0.001736 464.2 666.4
697(23) 0.001890 464.1 667.8
771(25) 0.001600 464.0 669.1
727(24) 0.001736 464.0 670.3
713(24) 0.001736 463.9 671.3
713(24) 0.001736 463.9 672.2
739(24) 0.001736 463.8 673.0
739(24) 0.001736 463.7 673.5
706(24) 0.001736 463.7 673.8
756(24) 0.001736 463.6 673.8
706(24) 0.001736 463.5 673.3
758(24) 0.001736 463.5 672.3
738(24) 0.001736 463.4 670.7
728(24) 0.001736 463.4 668.6
672(23) 0.001890 463.3 665.9
683(23) 0.001890 463.2 662.8
684(23) 0.001890 463.2 659.2
702(23) 0.001890 463.1 655.3
675(23) 0.001890 463.1 651.1
713(24) 0.001736 463.0 646.9
679(23) 0.001890 462.9 642.6
666(23) 0.001890 462.9 638.4
674(23) 0.001890 462.8 634.4
647(22) 0.002066 462.7 630.6
609(22) 0.002066 462.7 626.9
634(22) 0.002066 462.6 623.4
650(23) 0.001890 462.6 620.2
619(22) 0.002066 462.5 617.2
595(22) 0.002066 462.4 614.4
610(22) 0.002066 462.4 611.7
612(22) 0.002066 462.3 609.2
591(21) 0.002268 462.3 606.7
569(21) 0.002268 462.2 604.5
595(22) 0.002066 462.1 602.3
578(21) 0.002268 462.1 600.3
591(22) 0.002066 462.0 598.4
589(21) 0.002268 461.9 596.7
635(22) 0.002066 461.9 595.2
624(22) 0.002066 461.8 593.9
570(21) 0.002268 461.8 592.7
604(22) 0.002066 461.7 591.7
579(21) 0.002268 461.6 590.9
629(22) 0.002066 461.6 590.3
593(22) 0.002066 461.5 589.8
581(21) 0.002268 461.5 589.5
580(21) 0.002268 461.4 589.3
610(22) 0.002066 461.3 589.3
613(22) 0.002066 461.3 589.4
599(22) 0.002066 461.2 589.6
631(22) 0.002066 461.2 589.9
603(22) 0.002066 461.1 590.3
613(22) 0.002066 461.0 590.7
603(22) 0.002066 461.0 591.2
596(22) 0.002066 460.9 591.6
618(22) 0.002066 460.8 592.0
582(21) 0.002268 460.8 592.3
581(21) 0.002268 460.7 592.5
587(21) 0.002268 460.7 592.6
614(22) 0.002066 460.6 592.4
568(21) 0.002268 460.5 592.1
604(22) 0.002066 460.5 591.6
614(22) 0.002066 460.4 590.8
590(21) 0.002268 460.4 589.8
588(21) 0.002268 460.3 588.6
591(22) 0.002066 460.2 587.3
604(22) 0.002066 460.2 585.9
607(22) 0.002066 460.1 584.4
551(21) 0.002268 460.1 582.8
536(20) 0.002500 460.0 581.2
582(21) 0.002268 459.9 579.5
565(21) 0.002268 459.9 577.8
537(20) 0.002500 459.8 576.1
583(21) 0.002268 459.7 574.3
595(22) 0.002066 459.7 572.6
577(21) 0.002268 459.6 570.7
560(21) 0.002268 459.6 568.9
548(21) 0.002268 459.5 566.9
545(21) 0.002268 459.4 564.9
555(21) 0.002268 459.4 562.9
549(21) 0.002268 459.3 560.8
556(21) 0.002268 459.3 558.7
551(21) 0.002268 459.2 556.6
553(21) 0.002268 459.1 554.5
532(20) 0.002500 459.1 552.5
556(21) 0.002268 459.0 550.4
567(21) 0.002268 459.0 548.5
567(21) 0.002268 458.9 546.6
535(20) 0.002500 458.8 544.9
537(20) 0.002500 458.8 543.2
531(20) 0.002500 458.7 541.7
555(21) 0.002268 458.7 540.3
548(21) 0.002268 458.6 539.0
535(20) 0.002500 458.5 538.1
541(21) 0.002268 458.5 537.1
535(20) 0.002500 458.4 536.3
547(21) 0.002268 458.3 535.7
518(20) 0.002500 458.3 535.2
539(21) 0.002268 458.2 534.9
560(21) 0.002268 458.2 534.9
512(28) 0.001276 458.1 534.9
549(21) 0.002268 458.0 535.2
527(20) 0.002500 458.0 535.6
536(20) 0.002500 457.9 536.3
563(21) 0.002268 457.9 537.0
541(21) 0.002268 457.8 537.9
541(21) 0.002268 457.7 539.0
554(21) 0.002268 457.7 540.3
544(21) 0.002268 457.6 541.7
558(21) 0.002268 457.6 543.4
559(21) 0.002268 457.5 545.1
587(21) 0.002268 457.4 547.0
578(21) 0.002268 457.4 549.0
571(21) 0.002268 457.3 551.1
593(22) 0.002066 457.3 553.3
549(21) 0.002268 457.2 555.5
555(21) 0.002268 457.1 557.8
584(21) 0.002268 457.1 560.1
585(21) 0.002268 457.0 562.3
601(22) 0.002066 457.0 564.4
577(21) 0.002268 456.9 566.4
572(21) 0.002268 456.8 568.3
569(21) 0.002268 456.8 569.9
592(22) 0.002066 456.7 571.4
583(21) 0.002268 456.7 572.6
599(22) 0.002066 456.6 573.6
572(21) 0.002268 456.5 574.4
592(22) 0.002066 456.5 574.9
608(22) 0.002066 456.4 575.3
592(22) 0.002066 456.4 575.5
575(21) 0.002268 456.3 575.6
631(22) 0.002066 456.2 575.5
604(22) 0.002066 456.2 575.3
579(21) 0.002268 456.1 575.1
582(21) 0.002268 456.1 574.7
571(21) 0.002268 456.0 574.2
604(22) 0.002066 455.9 573.7
618(22) 0.002066 455.9 573.1
586(21) 0.002268 455.8 572.4
576(21) 0.002268 455.8 571.6
582(21) 0.002268 455.7 570.8
578(21) 0.002268 455.6 570.0
571(21) 0.002268 455.6 569.1
572(21) 0.002268 455.5 568.2
550(21) 0.002268 455.5 567.3
554(21) 0.002268 455.4 566.4
556(21) 0.002268 455.3 565.6
580(21) 0.002268 455.3 564.9
591(21) 0.002268 455.2 564.2
547(21) 0.002268 455.2 563.7
551(21) 0.002268 455.1 563.3
556(21) 0.002268 455.0 563.0
556(21) 0.002268 455.0 562.9
560(21) 0.002268 454.9 562.9
568(21) 0.002268 454.9 563.2
590(21) 0.002268 454.8 563.6
562(21) 0.002268 454.7 564.2
575(21) 0.002268 454.7 565.0
585(21) 0.002268 454.6 565.9
574(21) 0.002268 454.6 567.1
559(21) 0.002268 454.5 568.4
570(21) 0.002268 454.5 569.9
574(21) 0.002268 454.4 571.5
584(21) 0.002268 454.3 573.2
577(21) 0.002268 454.3 575.0
598(22) 0.002066 454.2 576.8
587(21) 0.002268 454.2 578.6
576(21) 0.002268 454.1 580.3
586(21) 0.002268 454.0 582.0
603(22) 0.002066 454.0 583.6
588(21) 0.002268 453.9 585.1
600(22) 0.002066 453.9 586.4
574(21) 0.002268 453.8 587.6
585(21) 0.002268 453.7 588.6
593(22) 0.002066 453.7 589.5
592(22) 0.002066 453.6 590.2
597(22) 0.002066 453.6 590.8
580(21) 0.002268 453.5 591.2
615(22) 0.002066 453.5 591.5
613(22) 0.002066 453.4 591.7
573(21) 0.002268 453.3 591.8
580(21) 0.002268 453.3 591.8
587(21) 0.002268 453.2 591.6
597(22) 0.002066 453.2 591.4
589(21) 0.002268 453.1 591.0
593(22) 0.002066 453.0 590.5
586(21) 0.002268 453.0 589.9
594(22) 0.002066 452.9 589.2
607(22) 0.002066 452.9 588.4
595(22) 0.002066 452.8 587.5
576(21) 0.002268 452.8 586.5
576(21) 0.002268 452.7 585.4
556(21) 0.002268 452.6 584.4
567(21) 0.002268 452.6 583.2
588(21) 0.002268 452.5 582.1
597(22) 0.002066 452.5 581.0
589(21) 0.002268 452.4 579.9
569(21) 0.002268 452.3 578.8
589(21) 0.002268 452.3 577.7
597(22) 0.002066 452.2 576.6
605(22) 0.002066 452.2 575.6
575(21) 0.002268 452.1 574.5
564(21) 0.002268 452.1 573.5
595(22) 0.002066 452.0 572.5
590(21) 0.002268 451.9 571.5
608(22) 0.002066 451.9 570.5
575(21) 0.002268 451.8 569.5
544(21) 0.002268 451.8 568.6
553(21) 0.002268 451.7 567.6
580(21) 0.002268 451.7 566.7
557(21) 0.002268 451.6 565.9
556(21) 0.002268 451.5 565.0
558(21) 0.002268 451.5 564.2
563(21) 0.002268 451.4 563.4
565(21) 0.002268 451.4 562.7
555(21) 0.002268 451.3 561.9
552(21) 0.002268 451.3 561.2
550(21) 0.002268 451.2 560.4
560(21) 0.002268 451.1 559.7
576(21) 0.002268 451.1 558.9
552(21) 0.002268 451.0 558.1
564(21) 0.002268 451.0 557.4
580(21) 0.002268 450.9 556.6
551(21) 0.002268 450.9 555.9
585(21) 0.002268 450.8 555.2
574(21) 0.002268 450.8 554.6
537(21) 0.002268 450.7 554.1
556(21) 0.002268 450.6 553.6
538(21) 0.002268 450.6 553.3
535(20) 0.002500 450.5 553.1
555(21) 0.002268 450.5 553.1
563(21) 0.002268 450.4 553.2
563(21) 0.002268 450.4 553.4
580(21) 0.002268 450.3 553.9
587(21) 0.002268 450.2 554.4
570(21) 0.002268 450.2 555.1
565(21) 0.002268 450.1 556.0
575(21) 0.002268 450.1 557.0
549(21) 0.002268 450.0 558.1
556(21) 0.002268 450.0 559.4
581(21) 0.002268 449.9 560.7
576(21) 0.002268 449.9 562.1
582(21) 0.002268 449.8 563.5
586(21) 0.002268 449.7 564.9
566(21) 0.002268 449.7 566.3
571(21) 0.002268 449.6 567.8
595(22) 0.002066 449.6 569.1
582(21) 0.002268 449.5 570.5
583(21) 0.002268 449.5 571.7
589(21) 0.002268 449.4 572.9
593(22) 0.002066 449.4 574.1
582(21) 0.002268 449.3 575.1
591(22) 0.002066 449.3 576.1
595(22) 0.002066 449.2 577.1
610(22) 0.002066 449.1 577.9
600(22) 0.002066 449.1 578.8
614(22) 0.002066 449.0 579.5
621(22) 0.002066 449.0 580.2
579(21) 0.002268 448.9 580.7
583(21) 0.002268 448.9 581.2
593(22) 0.002066 448.8 581.6
639(22) 0.002066 448.8 581.8
614(22) 0.002066 448.7 581.9
587(21) 0.002268 448.7 581.8
573(21) 0.002268 448.6 581.5
588(21) 0.002268 448.5 581.1
593(22) 0.002066 448.5 580.4
578(21) 0.002268 448.4 579.5
591(22) 0.002066 448.4 578.4
622(22) 0.002066 448.3 577.1
593(22) 0.002066 448.3 575.7
578(21) 0.002268 448.2 574.1
580(21) 0.002268 448.2 572.5
582(21) 0.002268 448.1 570.8
579(21) 0.002268 448.1 569.0
589(21) 0.002268 448.0 567.3
573(21) 0.002268 448.0 565.6
568(21) 0.002268 447.9 563.9
570(21) 0.002268 447.8 562.4
566(21) 0.002268 447.8 561.0
545(21) 0.002268 447.7 559.8
534(20) 0.002500 447.7 558.7
539(21) 0.002268 447.6 557.8
538(21) 0.002268 447.6 557.1
551(21) 0.002268 447.5 556.7
557(21) 0.002268 447.5 556.4
560(21) 0.002268 447.4 556.3
544(21) 0.002268 447.4 556.4
533(20) 0.002500 447.3 556.7
516(20) 0.002500 447.3 557.2
522(20) 0.002500 447.2 557.9
537(21) 0.002268 447.2 558.7
565(21) 0.002268 447.1 559.7
562(21) 0.002268 447.1 560.9
559(21) 0.002268 447.0 562.1
560(21) 0.002268 447.0 563.4
553(21) 0.002268 446.9 564.8
568(21) 0.002268 446.8 566.2
547(21) 0.002268 446.8 567.6
549(21) 0.002268 446.7 568.9
586(21) 0.002268 446.7 570.3
548(21) 0.002268 446.6 571.5
561(22) 0.002066 446.6 572.6
576(22) 0.002066 446.5 573.7
560(22) 0.002066 446.5 574.6
584(22) 0.002066 446.4 575.4
546(21) 0.002268 446.4 576.0
579(22) 0.002066 446.3 576.6
547(21) 0.002268 446.3 577.0
565(22) 0.002066 446.2 577.3
554(22) 0.002066 446.2 577.4
553(22) 0.002066 446.1 577.5
591(22) 0.002066 446.1 577.4
534(21) 0.002268 446.0 577.2
555(22) 0.002066 446.0 576.9
554(22) 0.002066 445.9 576.5
569(22) 0.002066 445.9 576.0
573(22) 0.002066 445.8 575.3
562(22) 0.002066 445.8 574.6
605(22) 0.002066 445.7 573.7
538(21) 0.002268 445.7 572.7
579(22) 0.002066 445.6 571.6
595(22) 0.002066 445.6 570.5
587(22) 0.002066 445.5 569.3
577(22) 0.002066 445.5 568.0
586(22) 0.002066 445.4 566.8
588(22) 0.002066 445.4 565.5
530(21) 0.002268 445.3 564.3
534(21) 0.002268 445.3 563.1
551(21) 0.002268 445.2 561.9
568(22) 0.002066 445.2 560.9
528(21) 0.002268 445.1 559.9
543(21) 0.002268 445.1 559.0
550(21) 0.002268 445.0 558.2
545(21) 0.002268 445.0 557.6
567(22) 0.002066 444.9 557.0
558(22) 0.002066 444.9 556.6
562(22) 0.002066 444.8 556.3
568(22) 0.002066 444.8 556.0
546(21) 0.002268 444.7 555.9
530(21) 0.002268 444.7 555.9
530(21) 0.002268 444.6 556.0
536(21) 0.002268 444.6 556.2
563(22) 0.002066 444.5 556.4
588(22) 0.002066 444.5 556.6
552(21) 0.002268 444.4 556.9
564(22) 0.002066 444.4 557.2
567(22) 0.002066 444.3 557.5
560(22) 0.002066 444.3 557.8
560(22) 0.002066 444.2 558.1
568(22) 0.002066 444.2 558.3
562(22) 0.002066 444.1 558.5
575(22) 0.002066 444.1 558.7
563(22) 0.002066 444.0 558.8
591(22) 0.002066 444.0 558.9
571(22) 0.002066 443.9 558.9
559(22) 0.002066 443.9 558.9
571(22) 0.002066 443.8 558.9
558(22) 0.002066 443.8 558.9
538(21) 0.002268 443.7 558.8
550(21) 0.002268 443.7 558.7
548(21) 0.002268 443.6 558.7
564(22) 0.002066 443.6 558.6
551(21) 0.002268 443.5 558.6
545(21) 0.002268 443.5 558.5
571(22) 0.002066 443.4 558.5
548(21) 0.002268 443.4 558.5
594(22) 0.002066 443.3 558.5
599(22) 0.002066 443.3 558.5
558(22) 0.002066 443.2 558.5
560(22) 0.002066 443.2 558.6
563(22) 0.002066 443.1 558.7
605(22) 0.002066 443.1 558.8
598(22) 0.002066 443.0 558.9
571(22) 0.002066 443.0 559.0
521(21) 0.002268 442.9 559.2
567(22) 0.002066 442.9 559.4
572(22) 0.002066 442.9 559.6
546(21) 0.002268 442.8 559.8
546(21) 0.002268 442.8 560.0
561(22) 0.002066 442.7 560.1
564(22) 0.002066 442.7 560.3
596(22) 0.002066 442.6 560.5
576(22) 0.002066 442.6 560.6
576(22) 0.002066 442.5 560.7
602(22) 0.002066 442.5 560.8
579(22) 0.002066 442.4 560.8
569(22) 0.002066 442.4 560.8
567(22) 0.002066 442.3 560.8
597(22) 0.002066 442.3 560.8
553(21) 0.002268 442.2 560.7
569(22) 0.002066 442.2 560.6
566(22) 0.002066 442.1 560.5
549(21) 0.002268 442.1 560.4
583(22) 0.002066 442.0 560.3
560(22) 0.002066 442.0 560.1
603(22) 0.002066 441.9 559.9
598(22) 0.002066 441.9 559.7
585(22) 0.002066 441.9 559.4
604(22) 0.002066 441.8 559.1
595(18) 0.003086 441.8 558.7
605(23) 0.001890 441.7 558.2
594(23) 0.001890 441.7 557.7
585(23) 0.001890 441.6 557.1
564(22) 0.002066 441.6 556.5
586(23) 0.001890 441.5 555.7
549(22) 0.002066 441.5 554.9
570(22) 0.002066 441.4 554.0
615(23) 0.001890 441.4 553.0
584(23) 0.001890 441.3 552.0
572(22) 0.002066 441.3 550.9
581(22) 0.002066 441.2 549.8
623(23) 0.001890 441.2 548.6
548(22) 0.002066 441.1 547.4
588(23) 0.001890 441.1 546.1
552(22) 0.002066 441.0 544.8
523(21) 0.002268 441.0 543.5
530(22) 0.002066 441.0 542.2
555(22) 0.002066 440.9 540.9
565(22) 0.002066 440.9 539.6
566(22) 0.002066 440.8 538.3
557(22) 0.002066 440.8 537.0
555(22) 0.002066 440.7 535.8
557(22) 0.002066 440.7 534.5
563(22) 0.002066 440.6 533.3
537(22) 0.002066 440.6 532.1
538(22) 0.002066 440.5 531.0
542(22) 0.002066 440.5 529.8
511(21) 0.002268 440.4 528.8
531(22) 0.002066 440.4 527.7
561(22) 0.002066 440.3 526.8
509(21) 0.002268 440.3 525.8
522(21) 0.002268 440.2 524.9
535(22) 0.002066 440.2 524.1
528(21) 0.002268 440.2 523.3
533(22) 0.002066 440.1 522.6
522(21) 0.002268 440.1 521.9
528(21) 0.002268 440.0 521.2
520(21) 0.002268 440.0 520.6
549(22) 0.002066 439.9 520.1
527(21) 0.002268 439.9 519.6
526(21) 0.002268 439.8 519.2
564(22) 0.002066 439.8 518.8
565(22) 0.002066 439.7 518.5
536(22) 0.002066 439.7 518.2
574(22) 0.002066 439.6 518.0
526(21) 0.002268 439.6 517.8
532(22) 0.002066 439.5 517.6
535(22) 0.002066 439.5 517.5
517(21) 0.002268 439.4 517.4
543(22) 0.002066 439.4 517.4
522(21) 0.002268 439.3 517.3
544(22) 0.002066 439.3 517.3
496(21) 0.002268 439.3 517.3
561(22) 0.002066 439.2 517.2
556(22) 0.002066 439.2 517.2
507(21) 0.002268 439.1 517.2
514(21) 0.002268 439.1 517.1
517(21) 0.002268 439.0 517.0
542(22) 0.002066 439.0 516.9
517(21) 0.002268 438.9 516.8
524(21) 0.002268 438.9 516.7
557(22) 0.002066 438.8 516.5
553(22) 0.002066 438.8 516.3
536(22) 0.002066 438.7 516.2
509(21) 0.002268 438.7 516.0
567(22) 0.002066 438.6 515.8
531(22) 0.002066 438.6 515.7
518(21) 0.002268 438.5 515.5
513(21) 0.002268 438.5 515.4
532(22) 0.002066 438.4 515.3
498(21) 0.002268 438.4 515.2
545(22) 0.002066 438.3 515.1
497(21) 0.002268 438.3 515.1
521(21) 0.002268 438.3 515.1
517(21) 0.002268 438.2 515.2
520(21) 0.002268 438.2 515.3
560(22) 0.002066 438.1 515.4
527(21) 0.002268 438.1 515.5
527(21) 0.002268 438.0 515.6
543(22) 0.002066 438.0 515.8
548(22) 0.002066 437.9 516.0
559(22) 0.002066 437.9 516.2
540(22) 0.002066 437.8 516.4
523(21) 0.002268 437.8 516.6
524(21) 0.002268 437.7 516.9
542(22) 0.002066 437.7 517.1
523(21) 0.002268 437.6 517.3
511(21) 0.002268 437.6 517.6
524(21) 0.002268 437.5 517.9
508(21) 0.002268 437.5 518.2
530(22) 0.002066 437.4 518.5
533(22) 0.002066 437.4 518.8
589(23) 0.001890 437.3 519.2
543(22) 0.002066 437.3 519.6
536(22) 0.002066 437.2 520.0
528(21) 0.002268 437.2 520.5
532(22) 0.002066 437.1 521.0
522(21) 0.002268 437.1 521.6
525(21) 0.002268 437.0 522.3
547(22) 0.002066 437.0 523.0
525(21) 0.002268 436.9 523.8
536(21) 0.002268 436.9 524.7
516(21) 0.002268 436.8 525.7
549(21) 0.002268 436.8 526.8
515(21) 0.002268 436.7 527.9
511(21) 0.002268 436.7 529.1
547(21) 0.002268 436.6 530.4
563(22) 0.002066 436.6 531.8
522(21) 0.002268 436.5 533.3
561(22) 0.002066 436.5 534.9
554(21) 0.002268 436.4 536.5
553(21) 0.002268 436.4 538.2
509(20) 0.002500 436.3 540.0
568(22) 0.002066 436.3 541.8
535(21) 0.002268 436.2 543.6
548(21) 0.002268 436.2 545.5
580(22) 0.002066 436.1 547.4
533(21) 0.002268 436.1 549.4
563(22) 0.002066 436.0 551.3
554(21) 0.002268 436.0 553.1
574(22) 0.002066 435.9 555.0
535(21) 0.002268 435.9 556.7
561(21) 0.002268 435.8 558.4
558(21) 0.002268 435.8 560.0
572(22) 0.002066 435.7 561.5
575(22) 0.002066 435.7 562.9
557(21) 0.002268 435.6 564.1
561(21) 0.002268 435.6 565.1
596(22) 0.002066 435.5 566.0
580(22) 0.002066 435.5 566.7
590(22) 0.002066 435.4 567.2
585(22) 0.002066 435.4 567.6
567(22) 0.002066 435.3 567.8
569(22) 0.002066 435.3 567.8
531(21) 0.002268 435.2 567.6
551(21) 0.002268 435.2 567.4
562(22) 0.002066 435.1 566.9
547(21) 0.002268 435.1 566.4
543(21) 0.002268 435.0 565.7
542(21) 0.002268 435.0 565.0
574(22) 0.002066 434.9 564.1
598(22) 0.002066 434.8 563.2
552(21) 0.002268 434.8 562.2
545(21) 0.002268 434.7 561.2
557(21) 0.002268 434.7 560.2
544(21) 0.002268 434.6 559.1
588(22) 0.002066 434.6 558.0
587(22) 0.002066 434.5 556.8
571(22) 0.002066 434.5 555.7
548(21) 0.002268 434.4 554.5
576(22) 0.002066 434.4 553.3
560(21) 0.002268 434.3 552.1
558(21) 0.002268 434.3 550.9
554(21) 0.002268 434.2 549.7
574(22) 0.002066 434.1 548.5
560(21) 0.002268 434.1 547.3
569(22) 0.002066 434.0 546.1
551(21) 0.002268 434.0 544.9
554(21) 0.002268 433.9 543.6
538(21) 0.002268 433.9 542.4
535(21) 0.002268 433.8 541.2
537(21) 0.002268 433.8 540.0
533(21) 0.002268 433.7 538.7
542(21) 0.002268 433.7 537.5
563(22) 0.002066 433.6 536.3
528(21) 0.002268 433.5 535.0
559(21) 0.002268 433.5 533.8
570(22) 0.002066 433.4 532.6
510(21) 0.002268 433.4 531.5
507(20) 0.002500 433.3 530.3
533(21) 0.002268 433.3 529.2
568(22) 0.002066 433.2 528.1
522(21) 0.002268 433.2 527.1
543(21) 0.002268 433.1 526.1
534(21) 0.002268 433.0 525.2
520(21) 0.002268 433.0 524.3
541(21) 0.002268 432.9 523.5
511(21) 0.002268 432.9 522.7
530(21) 0.002268 432.8 522.0
497(20) 0.002500 432.8 521.4
499(20) 0.002500 432.7 520.9
556(21) 0.002268 432.6 520.4
531(21) 0.002268 432.6 520.0
525(21) 0.002268 432.5 519.7
522(21) 0.002268 432.5 519.4
522(21) 0.002268 432.4 519.2
488(20) 0.002500 432.4 519.1
511(21) 0.002268 432.3 519.1
558(21) 0.002268 432.2 519.1
527(21) 0.002268 432.2 519.2
532(21) 0.002268 432.1 519.3
560(21) 0.002268 432.1 519.5
507(20) 0.002500 432.0 519.8
531(21) 0.002268 432.0 520.2
542(21) 0.002268 431.9 520.6
522(21) 0.002268 431.8 521.0
532(21) 0.002268 431.8 521.5
532(21) 0.002268 431.7 522.0
506(20) 0.002500 431.7 522.6
518(29) 0.001189 431.6 523.3
514(20) 0.002500 431.5 523.9
525(21) 0.002268 431.5 524.7
541(21) 0.002268 431.4 525.4
553(21) 0.002268 431.4 526.2
558(21) 0.002268 431.3 527.0
529(21) 0.002268 431.2 527.8
534(21) 0.002268 431.2 528.6
546(21) 0.002268 431.1 529.5
561(21) 0.002268 431.1 530.4
562(21) 0.002268 431.0 531.3
539(21) 0.002268 430.9 532.2
538(21) 0.002268 430.9 533.1
547(21) 0.002268 430.8 533.9
536(21) 0.002268 430.8 534.8
546(21) 0.002268 430.7 535.7
550(21) 0.002268 430.6 536.6
535(21) 0.002268 430.6 537.4
530(21) 0.002268 430.5 538.2
551(21) 0.002268 430.5 539.0
538(21) 0.002268 430.4 539.7
544(21) 0.002268 430.3 540.4
541(21) 0.002268 430.3 541.1
564(21) 0.002268 430.2 541.7
516(20) 0.002500 430.2 542.2
524(21) 0.002268 430.1 542.8
560(21) 0.002268 430.0 543.2
559(21) 0.002268 430.0 543.6
539(21) 0.002268 429.9 544.0
543(21) 0.002268 429.8 544.3
542(21) 0.002268 429.8 544.6
557(21) 0.002268 429.7 544.9
536(21) 0.002268 429.7 545.1
544(21) 0.002268 429.6 545.2
518(20) 0.002500 429.5 545.4
552(21) 0.002268 429.5 545.5
544(21) 0.002268 429.4 545.6
545(21) 0.002268 429.3 545.7
582(22) 0.002066 429.3 545.8
544(21) 0.002268 429.2 545.8
533(21) 0.002268 429.2 545.9
580(22) 0.002066 429.1 546.0
585(22) 0.002066 429.0 546.0
530(21) 0.002268 429.0 546.1
551(21) 0.002268 428.9 546.2
584(22) 0.002066 428.8 546.3
585(22) 0.002066 428.8 546.4
571(21) 0.002268 428.7 546.5
556(21) 0.002268 428.6 546.6
526(21) 0.002268 428.6 546.7
519(20) 0.002500 428.5 546.8
546(21) 0.002268 428.5 547.0
589(22) 0.002066 428.4 547.1
542(21) 0.002268 428.3 547.2
538(21) 0.002268 428.3 547.4
560(21) 0.002268 428.2 547.5
550(21) 0.002268 428.1 547.7
547(21) 0.002268 428.1 547.8
551(21) 0.002268 428.0 548.0
566(21) 0.002268 427.9 548.1
566(21) 0.002268 427.9 548.3
559(21) 0.002268 427.8 548.4
561(21) 0.002268 427.8 548.6
557(21) 0.002268 427.7 548.7
605(22) 0.002066 427.6 548.8
605(22) 0.002066 427.6 549.0
588(22) 0.002066 427.5 549.1
574(21) 0.002268 427.4 549.2
581(22) 0.002066 427.4 549.2
608(22) 0.002066 427.3 549.3
570(21) 0.002268 427.2 549.4
542(21) 0.002268 427.2 549.4
597(22) 0.002066 427.1 549.5
567(21) 0.002268 427.0 549.5
561(21) 0.002268 427.0 549.5
544(21) 0.002268 426.9 549.5
576(22) 0.002066 426.9 549.5
576(22) 0.002066 426.8 549.5
580(22) 0.002066 426.7 549.5
573(21) 0.002268 426.7 549.5
540(21) 0.002268 426.6 549.5
563(21) 0.002268 426.5 549.5
553(21) 0.002268 426.5 549.5
580(22) 0.002066 426.4 549.5
588(22) 0.002066 426.3 549.5
590(22) 0.002066 426.3 549.5
572(21) 0.002268 426.2 549.6
541(21) 0.002268 426.1 549.6
590(22) 0.002066 426.1 549.7
595(22) 0.002066 426.0 549.8
571(21) 0.002268 426.0 549.9
547(21) 0.002268 425.9 550.0
611(22) 0.002066 425.8 550.1
581(22) 0.002066 425.8 550.2
570(21) 0.002268 425.7 550.4
549(21) 0.002268 425.6 550.6
566(21) 0.002268 425.6 550.8
570(21) 0.002268 425.5 551.0
551(21) 0.002268 425.4 551.2
569(21) 0.002268 425.4 551.4
569(18) 0.003086 425.3 551.6
521(20) 0.002500 425.2 551.8
545(21) 0.002268 425.2 552.1
574(21) 0.002268 425.1 552.3
540(21) 0.002268 425.1 552.5
561(21) 0.002268 425.0 552.6
561(21) 0.002268 424.9 552.8
539(21) 0.002268 424.9 552.9
544(21) 0.002268 424.8 553.0
557(21) 0.002268 424.7 553.1
558(21) 0.002268 424.7 553.1
577(22) 0.002066 424.6 553.1
583(22) 0.002066 424.6 553.1
589(22) 0.002066 424.5 553.0
553(21) 0.002268 424.4 552.9
561(21) 0.002268 424.4 552.7
554(21) 0.002268 424.3 552.5
572(21) 0.002268 424.3 552.3
593(22) 0.002066 424.2 552.0
562(21) 0.002268 424.1 551.7
549(21) 0.002268 424.1 551.3
530(21) 0.002268 424.0 551.0
571(21) 0.002268 423.9 550.6
575(21) 0.002268 423.9 550.2
559(21) 0.002268 423.8 549.7
553(21) 0.002268 423.8 549.3
550(21) 0.002268 423.7 548.8
528(21) 0.002268 423.7 548.4
498(20) 0.002500 423.6 547.9
531(21) 0.002268 423.5 547.5
542(21) 0.002268 423.5 547.0
531(21) 0.002268 423.4 546.5
572(21) 0.002268 423.4 546.1
559(21) 0.002268 423.3 545.7
575(21) 0.002268 423.2 545.2
578(22) 0.002066 423.2 544.8
554(21) 0.002268 423.1 544.4
569(21) 0.002268 423.1 544.1
561(21) 0.002268 423.0 543.7
534(21) 0.002268 423.0 543.4
552(21) 0.002268 422.9 543.0
542(21) 0.002268 422.8 542.7
564(21) 0.002268 422.8 542.5
577(22) 0.002066 422.7 542.2
540(21) 0.002268 422.7 542.0
557(21) 0.002268 422.6 541.7
540(21) 0.002268 422.6 541.5
550(21) 0.002268 422.5 541.3
554(21) 0.002268 422.5 541.1
506(20) 0.002500 422.4 540.9
514(20) 0.002500 422.4 540.7
554(21) 0.002268 422.3 540.6
537(21) 0.002268 422.3 540.4
549(21) 0.002268 422.2 540.2
556(21) 0.002268 422.2 540.0
563(21) 0.002268 422.1 539.9
540(21) 0.002268 422.1 539.7
561(21) 0.002268 422.0 539.5
551(21) 0.002268 422.0 539.3
531(21) 0.002268 421.9 539.1
530(21) 0.002268 421.9 538.9
556(21) 0.002268 421.8 538.7
555(21) 0.002268 421.8 538.4
541(21) 0.002268 421.7 538.2
561(21) 0.002268 421.7 537.9
535(21) 0.002268 421.6 537.6
530(21) 0.002268 421.6 537.4
542(21) 0.002268 421.5 537.0
543(21) 0.002268 421.5 536.7
541(21) 0.002268 421.4 536.4
546(21) 0.002268 421.4 536.0
538(21) 0.002268 421.4 535.6
518(20) 0.002500 421.3 535.2
501(20) 0.002500 421.3 534.8
529(21) 0.002268 421.2 534.3
526(21) 0.002268 421.2 533.8
559(21) 0.002268 421.2 533.3
563(21) 0.002268 421.1 532.8
571(21) 0.002268 421.1 532.2
528(21) 0.002268 421.0 531.7
498(20) 0.002500 421.0 531.0
517(20) 0.002500 421.0 530.4
514(20) 0.002500 420.9 529.7
531(21) 0.002268 420.9 529.0
512(20) 0.002500 420.9 528.3
535(21) 0.002268 420.8 527.6
514(20) 0.002500 420.8 526.8
517(20) 0.002500 420.8 526.1
531(21) 0.002268 420.7 525.3
529(21) 0.002268 420.7 524.5
556(21) 0.002268 420.7 523.7
541(21) 0.002268 420.6 522.9
533(21) 0.002268 420.6 522.1
510(20) 0.002500 420.6 521.3
508(20) 0.002500 420.5 520.5
524(21) 0.002268 420.5 519.7
495(20) 0.002500 420.5 518.9
510(20) 0.002500 420.5 518.1
532(21) 0.002268 420.4 517.4
518(20) 0.002500 420.4 516.6
517(20) 0.002500 420.4 515.9
507(21) 0.002268 420.4 515.2
497(20) 0.002500 420.3 514.5
524(21) 0.002268 420.3 513.8
507(21) 0.002268 420.3 513.2
511(21) 0.002268 420.3 512.5
499(20) 0.002500 420.3 511.9
545(21) 0.002268 420.3 511.4
559(22) 0.002066 420.2 510.8
509(21) 0.002268 420.2 510.3
485(20) 0.002500 420.2 509.8
516(21) 0.002268 420.2 509.3
540(21) 0.002268 420.2 508.8
498(20) 0.002500 420.2 508.4
526(21) 0.002268 420.2 508.0
530(21) 0.002268 420.2 507.6
503(21) 0.002268 420.2 507.3
526(21) 0.002268 420.1 507.0
493(20) 0.002500 420.1 506.6
513(21) 0.002268 420.1 506.4
529(21) 0.002268 420.1 506.1
510(21) 0.002268 420.1 505.9
499(20) 0.002500 420.1 505.7
513(21) 0.002268 420.1 505.5
497(20) 0.002500 420.1 505.3
494(20) 0.002500 420.1 505.1
494(20) 0.002500 420.1 505.0
493(20) 0.002500 420.1 504.8
515(21) 0.002268 420.1 504.7
515(21) 0.002268 420.2 504.6
498(20) 0.002500 420.2 504.6
521(21) 0.002268 420.2 504.5
513(21) 0.002268 420.2 504.4
506(21) 0.002268 420.2 504.4
518(21) 0.002268 420.2 504.4
514(21) 0.002268 420.2 504.3
528(21) 0.002268 420.2 504.3
486(20) 0.002500 420.3 504.3
502(21) 0.002268 420.3 504.3
519(21) 0.002268 420.3 504.3
505(21) 0.002268 420.3 504.4
517(21) 0.002268 420.3 504.4
522(21) 0.002268 420.4 504.4
529(21) 0.002268 420.4 504.5
491(20) 0.002500 420.4 504.5
530(21) 0.002268 420.4 504.6
539(21) 0.002268 420.5 504.6
489(20) 0.002500 420.5 504.7
505(21) 0.002268 420.5 504.8
539(21) 0.002268 420.6 504.9
523(21) 0.002268 420.6 505.0
514(21) 0.002268 420.6 505.1
509(21) 0.002268 420.7 505.2
495(20) 0.002500 420.7 505.4
472(20) 0.002500 420.8 505.5
507(21) 0.002268 420.8 505.6
485(20) 0.002500 420.9 505.8
503(21) 0.002268 420.9 506.0
524(21) 0.002268 421.0 506.1
527(21) 0.002268 421.0 506.3
529(21) 0.002268 421.1 506.5
525(21) 0.002268 421.1 506.7
527(21) 0.002268 421.2 507.0
511(21) 0.002268 421.2 507.2
529(21) 0.002268 421.3 507.5
518(21) 0.002268 421.3 507.7
525(21) 0.002268 421.4 508.0
549(21) 0.002268 421.5 508.3
546(21) 0.002268 421.5 508.6
537(21) 0.002268 421.6 508.9
503(21) 0.002268 421.7 509.2
478(20) 0.002500 421.8 509.6
523(21) 0.002268 421.8 509.9
507(21) 0.002268 421.9 510.3
506(21) 0.002268 422.0 510.7
555(22) 0.002066 422.1 511.1
520(21) 0.002268 422.2 511.5
522(21) 0.002268 422.2 511.9
526(21) 0.002268 422.3 512.3
517(21) 0.002268 422.4 512.7
507(21) 0.002268 422.5 513.1
555(22) 0.002066 422.6 513.6
543(21) 0.002268 422.7 514.0
536(21) 0.002268 422.8 514.4
537(21) 0.002268 422.9 514.9
555(22) 0.002066 423.0 515.3
511(21) 0.002268 423.1 515.7
517(21) 0.002268 423.2 516.2
510(21) 0.002268 423.3 516.6
520(21) 0.002268 423.4 517.0
534(21) 0.002268 423.5 517.4
539(21) 0.002268 423.6 517.8
535(21) 0.002268 423.8 518.2
548(21) 0.002268 423.9 518.6
560(22) 0.002066 424.0 518.9
555(22) 0.002066 424.1 519.2
537(21) 0.002268 424.3 519.6
525(21) 0.002268 424.4 519.8
486(20) 0.002500 424.5 520.1
514(21) 0.002268 424.7 520.4
517(21) 0.002268 424.8 520.6
517(21) 0.002268 424.9 520.8
524(21) 0.002268 425.1 520.9
524(21) 0.002268 425.2 521.1
514(21) 0.002268 425.4 521.2
523(21) 0.002268 425.5 521.3
525(21) 0.002268 425.7 521.4
535(21) 0.002268 425.8 521.4
515(21) 0.002268 426.0 521.4
517(21) 0.002268 426.2 521.4
529(21) 0.002268 426.3 521.3
515(21) 0.002268 426.5 521.3
509(21) 0.002268 426.7 521.2
514(21) 0.002268 426.8 521.1
516(21) 0.002268 427.0 521.0
510(21) 0.002268 427.2 520.9
546(22) 0.002066 427.4 520.7
521(21) 0.002268 427.5 520.5
522(21) 0.002268 427.7 520.4
517(21) 0.002268 427.9 520.2
496(21) 0.002268 428.1 520.0
503(21) 0.002268 428.3 519.8
514(21) 0.002268 428.5 519.7
524(21) 0.002268 428.7 519.5
516(21) 0.002268 428.9 519.3
497(21) 0.002268 429.1 519.1
501(21) 0.002268 429.3 518.9
517(21) 0.002268 429.6 518.8
523(21) 0.002268 429.8 518.6
553(22) 0.002066 430.0 518.5
539(21) 0.002268 430.2 518.3
520(21) 0.002268 430.4 518.2
520(21) 0.002268 430.7 518.1
539(21) 0.002268 430.9 518.0
557(22) 0.002066 431.1 517.9
529(21) 0.002268 431.4 517.9
545(22) 0.002066 431.6 517.9
510(21) 0.002268 431.9 517.9
502(21) 0.002268 432.1 517.9
517(21) 0.002268 432.4 517.9
527(21) 0.002268 432.6 518.0
516(21) 0.002268 432.9 518.0
553(22) 0.002066 433.2 518.1
525(21) 0.002268 433.4 518.3
523(21) 0.002268 433.7 518.4
531(21) 0.002268 434.0 518.6
529(21) 0.002268 434.3 518.8
525(21) 0.002268 434.6 519.1
554(22) 0.002066 434.8 519.3
519(21) 0.002268 435.1 519.6
524(21) 0.002268 435.4 519.9
524(21) 0.002268 435.7 520.3
530(21) 0.002268 436.0 520.7
551(22) 0.002066 436.3 521.1
553(22) 0.002066 436.7 521.5
536(21) 0.002268 437.0 522.0
521(21) 0.002268 437.3 522.5
552(22) 0.002066 437.6 523.0
537(21) 0.002268 437.9 523.5
534(21) 0.002268 438.3 524.1
516(21) 0.002268 438.6 524.7
514(21) 0.002268 438.9 525.3
516(21) 0.002268 439.3 525.9
544(22) 0.002066 439.6 526.6
541(22) 0.002066 440.0 527.2
555(22) 0.002066 440.3 527.9
521(21) 0.002268 440.7 528.7
544(22) 0.002066 441.1 529.4
528(21) 0.002268 441.4 530.2
542(22) 0.002066 441.8 530.9
546(22) 0.002066 442.2 531.7
545(22) 0.002066 442.6 532.5
549(22) 0.002066 443.0 533.3
551(22) 0.002066 443.4 534.1
540(22) 0.002066 443.7 535.0
530(21) 0.002268 444.2 535.8
530(21) 0.002268 444.6 536.6
539(21) 0.002268 445.0 537.5
532(21) 0.002268 445.4 538.3
523(21) 0.002268 445.8 539.2
550(22) 0.002066 446.2 540.0
542(22) 0.002066 446.7 540.9
516(21) 0.002268 447.1 541.7
536(21) 0.002268 447.5 542.5
540(22) 0.002066 448.0 543.4
517(21) 0.002268 448.4 544.2
543(22) 0.002066 448.9 545.0
543(22) 0.002066 449.3 545.8
547(22) 0.002066 449.8 546.6
563(22) 0.002066 450.3 547.4
559(22) 0.002066 450.7 548.2
548(22) 0.002066 451.2 548.9
558(22) 0.002066 451.7 549.7
555(22) 0.002066 452.2 550.4
513(21) 0.002268 452.7 551.1
520(21) 0.002268 453.2 551.8
544(22) 0.002066 453.7 552.5
534(21) 0.002268 454.2 553.2
586(22) 0.002066 454.7 553.9
596(22) 0.002066 455.2 554.6
578(18) 0.003086 455.8 555.2
559(22) 0.002066 456.3 555.8
562(22) 0.002066 456.8 556.4
587(22) 0.002066 457.4 557.1
569(22) 0.002066 457.9 557.7
565(22) 0.002066 458.5 558.2
563(22) 0.002066 459.0 558.8
563(22) 0.002066 459.6 559.4
567(22) 0.002066 460.2 559.9
563(22) 0.002066 460.7 560.5
551(22) 0.002066 461.3 561.0
575(22) 0.002066 461.9 561.6
577(22) 0.002066 462.5 562.1
575(22) 0.002066 463.1 562.6
585(22) 0.002066 463.7 563.2
576(22) 0.002066 464.3 563.7
600(23) 0.001890 464.9 564.2
596(23) 0.001890 465.6 564.7
549(22) 0.002066 466.2 565.2
549(22) 0.002066 466.8 565.8
557(22) 0.002066 467.5 566.3
583(22) 0.002066 468.1 566.8
592(22) 0.002066 468.8 567.3
578(22) 0.002066 469.4 567.8
569(22) 0.002066 470.1 568.4
593(23) 0.001890 470.8 568.9
579(22) 0.002066 471.4 569.4
550(22) 0.002066 472.1 570.0
572(22) 0.002066 472.8 570.5
576(22) 0.002066 473.5 571.1
560(22) 0.002066 474.2 571.6
583(22) 0.002066 474.9 572.2
597(23) 0.001890 475.7 572.8
588(22) 0.002066 476.4 573.3
586(22) 0.002066 477.1 573.9
569(22) 0.002066 477.9 574.6
551(22) 0.002066 478.6 575.2
562(22) 0.002066 479.3 575.8
600(23) 0.001890 480.1 576.5
601(23) 0.001890 480.9 577.1
608(23) 0.001890 481.6 577.8
599(23) 0.001890 482.4 578.5
587(22) 0.002066 483.2 579.2
596(23) 0.001890 484.0 579.9
613(23) 0.001890 484.8 580.6
637(23) 0.001890 485.6 581.4
615(23) 0.001890 486.4 582.2
611(23) 0.001890 487.2 583.0
629(23) 0.001890 488.1 583.8
625(23) 0.001890 488.9 584.6
603(23) 0.001890 489.8 585.4
610(23) 0.001890 490.6 586.3
603(23) 0.001890 491.5 587.2
591(22) 0.002066 492.3 588.1
614(23) 0.001890 493.2 589.0
620(23) 0.001890 494.1 590.0
619(23) 0.001890 495.0 590.9
618(23) 0.001890 495.9 591.9
619(23) 0.001890 496.8 592.9
617(23) 0.001890 497.7 594.0
615(23) 0.001890 498.6 595.0
619(23) 0.001890 499.5 596.1
604(23) 0.001890 500.5 597.2
617(23) 0.001890 501.4 598.3
612(23) 0.001890 502.3 599.4
620(23) 0.001890 503.3 600.6
624(23) 0.001890 504.3 601.8
617(23) 0.001890 505.2 603.0
622(23) 0.001890 506.2 604.2
610(23) 0.001890 507.2 605.5
597(23) 0.001890 508.2 606.7
593(23) 0.001890 509.2 608.0
605(23) 0.001890 510.2 609.3
612(23) 0.001890 511.2 610.7
636(23) 0.001890 512.3 612.0
646(23) 0.001890 513.3 613.4
612(23) 0.001890 514.4 614.8
630(23) 0.001890 515.4 616.2
640(23) 0.001890 516.5 617.7
643(23) 0.001890 517.6 619.1
643(23) 0.001890 518.6 620.6
623(23) 0.001890 519.7 622.1
613(23) 0.001890 520.8 623.7
573(22) 0.002066 521.9 625.2
590(22) 0.002066 523.0 626.8
626(23) 0.001890 524.2 628.4
651(24) 0.001736 525.3 630.0
654(24) 0.001736 526.4 631.6
654(24) 0.001736 527.6 633.3
650(23) 0.001890 528.7 634.9
633(23) 0.001890 529.9 636.6
637(23) 0.001890 531.1 638.3
635(23) 0.001890 532.3 640.0
626(23) 0.001890 533.5 641.8
629(23) 0.001890 534.7 643.5
654(24) 0.001736 535.9 645.3
660(24) 0.001736 537.1 647.0
649(23) 0.001890 538.3 648.8
622(23) 0.001890 539.6 650.6
642(23) 0.001890 540.8 652.5
676(24) 0.001736 542.1 654.3
635(24) 0.001736 543.4 656.1
661(24) 0.001736 544.6 658.0
697(25) 0.001600 545.9 659.8
699(25) 0.001600 547.2 661.7
663(24) 0.001736 548.5 663.6
669(24) 0.001736 549.8 665.5
663(24) 0.001736 551.2 667.4
679(24) 0.001736 552.5 669.3
645(24) 0.001736 553.8 671.2
674(24) 0.001736 555.2 673.1
678(24) 0.001736 556.6 675.0
673(24) 0.001736 557.9 676.9
681(24) 0.001736 559.3 678.8
672(24) 0.001736 560.7 680.7
706(25) 0.001600 562.1 682.6
718(25) 0.001600 563.5 684.5
713(25) 0.001600 565.0 686.4
697(25) 0.001600 566.4 688.3
727(25) 0.001600 567.8 690.2
691(25) 0.001600 569.3 692.1
678(24) 0.001736 570.8 694.0
691(25) 0.001600 572.2 695.9
705(25) 0.001600 573.7 697.8
735(25) 0.001600 575.2 699.6
736(25) 0.001600 576.7 701.5
719(25) 0.001600 578.2 703.4
727(25) 0.001600 579.8 705.2
717(25) 0.001600 581.3 707.0
738(25) 0.001600 582.8 708.9
750(25) 0.001600 584.4 710.7
699(25) 0.001600 586.0 712.5
722(25) 0.001600 587.6 714.3
739(25) 0.001600 589.1 716.0
759(26) . . .
731(25) . . .
735(25) . . .
726(25) . . .
726(25) . . .
737(25) . . .
748(25) . . .
763(26) . . .
754(26) . . .
717(25) . . .
742(25) . . .
721(25) . . .
756(26) . . .
768(26) . . .
797(26) . . .
743(25) . . .
767(26) . . .
799(26) . . .
776(26) . . .
770(26) . . .
810(26) . . .
795(26) . . .
778(26) . . .
805(26) . . .
790(26) . . .
809(26) . . .
782(26) . . .
772(26) . . .
807(26) . . .
827(27) . . .
773(26) . . .
809(26) . . .
860(27) . . .
828(27) . . .
828(27) . . .
820(27) . . .
854(27) . . .
836(27) . . .
816(27) . . .
811(26) . . .
813(26) . . .
825(27) . . .
833(27) . . .
852(27) . . .
845(27) . . .
842(27) . . .
788(26) . . .
848(27) . . .
842(27) . . .
869(27) . . .
868(27) . . .
862(27) . . .
865(27) . . .
847(27) . . .
831(27) . . .
846(27) . . .
841(27) . . .
837(27) . . .
858(27) . . .
871(27) . . .
889(28) . . .
933(28) . . .
923(28) . . .
917(28) . . .
917(28) . . .
900(28) . . .
905(40) . . .
852(39) . . .
918(40) . . .
909(40) . . .
934(41) . . .
833(39) . . .
866(39) . . .
942(41) . . .
967(41) . . .
894(40) . . .
945(41) . . .
900(40) . . .
897(40) . . .
895(40) . . .
953(41) . . .
949(41) . . .
922(40) . . .
1005(42) . . .
947(41) . . .
968(41) . . .
969(41) . . .
946(41) . . .
891(40) . . .
962(41) . . .
1013(42) . . .
962(41) . . .
906(40) . . .
963(41) . . .
956(41) . . .
954(41) . . .
1025(42) . . .
991(42) . . .
1021(42) . . .
1029(42) . . .
971(41) . . .
979(41) . . .
1004(42) . . .
978(41) . . .
977(41) . . .
1029(42) . . .
977(41) . . .
958(41) . . .
967(41) . . .
1014(42) . . .
1052(43) . . .
999(42) . . .
950(41) . . .
989(42) . . .
1038(43) . . .
1090(44) . . .
1110(44) . . .
1022(42) . . .
1004(42) . . .
1061(43) . . .
1099(44) . . .
1043(43) . . .
1029(42) . . .
980(42) . . .
1095(44) . . .
1062(43) . . .
1066(43) . . .
1076(43) . . .
1058(43) . . .
1032(42) . . .
1082(43) . . .
1137(44) . . .
1034(42) . . .
1091(44) . . .
1075(43) . . .
1041(43) . . .
1019(42) . . .
1041(43) . . .
1100(44) . . .
1077(43) . . .
1038(43) . . .
1079(43) . . .
1085(43) . . .
1129(44) . . .
1120(44) . . .
1112(44) . . .
1094(44) . . .
1113(44) . . .
1133(44) . . .
1125(44) . . .
1095(44) . . .
1095(44) . . .
1174(45) . . .
1094(44) . . .
1205(46) . . .
1106(44) . . .
1022(42) . . .
1105(44) . . .
1168(45) . . .
1134(44) . . .
1126(44) . . .
1092(44) . . .
1142(44) . . .
1120(44) . . .
1164(45) . . .
1176(45) . . .
loop_
_refln_index_h
_refln_index_k
_refln_index_l
_refln_observed_status
_refln_F_squared_meas
_refln_F_squared_calc
_refln_phase_calc
_refln_d_spacing
_gsas_i100_meas
1 1 0 o 1627.667 1589.812 -180.00 12.87472 100.00
3 0 0 o 885.484 900.237 -13.46 7.43322 18.25
1 0 1 o 231.060 208.418 16.26 6.45085 3.60
2 2 0 o 0.054 0.048 0.00 6.43736 0.00
2 0 -1 o 742.948 712.838 143.70 5.76740 9.28
2 1 1 o 68.878 81.910 95.51 5.26342 1.44
4 1 0 o 92.295 87.229 111.82 4.86619 1.65
3 1 -1 o 58.800 61.066 -10.72 4.55666 0.93
4 0 1 o 457.167 422.390 -88.12 4.29556 3.21
3 3 0 o 206.164 187.517 180.00 4.29157 1.45
3 2 1 o 86.722 77.249 165.01 4.07475 1.10
5 0 -1 o 369.667 356.469 15.99 3.71920 1.97
6 0 0 o 501.895 481.330 -59.02 3.71661 2.67
4 2 -1 o 219.771 208.122 -157.62 3.57310 2.17
5 2 0 o 32.880 31.050 -22.84 3.57080 0.32
5 1 1 o 395.146 364.752 40.88 3.44297 3.63
1 0 -2 o 94.371 76.083 -13.96 3.33167 0.41
2 0 2 o 56.788 56.134 -119.77 3.22542 0.23
4 3 1 o 245.874 239.135 -59.16 3.22036 1.99
4 4 0 o 21.484 20.768 0.00 3.21868 0.09
2 1 -2 o 103.113 89.944 -157.93 3.12874 0.79
6 1 -1 o 0.120 0.095 -66.21 3.03601 0.00
3 1 2 o 6.533 6.281 37.47 2.95887 0.05
7 1 0 o 421.056 401.733 128.14 2.95366 2.90
4 0 -2 o 501.875 465.592 23.22 2.88370 1.65
7 0 1 o 210.554 195.214 -165.98 2.88008 0.69
5 3 -1 o 5.930 5.498 -134.72 2.88008 0.04
3 2 -2 o 65.202 59.441 140.98 2.81398 0.41
6 2 1 o 536.114 485.308 -162.71 2.81061 3.37
6 3 0 o 48.584 43.871 -118.11 2.80949 0.30
5 0 2 o 180.128 131.286 15.03 2.68847 0.52
4 2 2 o 8.929 8.352 130.46 2.63171 0.05
5 4 1 o 185.931 174.675 75.72 2.62896 1.03
5 1 -2 o 261.555 252.709 -104.29 2.57839 1.40
8 0 -1 o 39.643 38.155 37.19 2.57580 0.11
5 5 0 o 44.811 43.092 0.00 2.57494 0.12
7 2 -1 o 216.354 215.982 178.14 2.52575 1.12
4 3 -2 o 93.273 89.793 42.63 2.48081 0.47
9 0 0 o 612.573 592.886 -40.60 2.47774 1.53
8 1 1 o 257.617 242.339 10.44 2.43382 1.25
8 2 0 o 30.131 28.339 -98.48 2.43309 0.15
6 1 2 o 4.355 4.291 -86.15 2.39354 0.02
6 4 -1 o 380.711 374.579 9.43 2.39146 1.79
7 3 1 o 119.124 125.908 -8.95 2.35125 0.54
5 3 2 o 220.630 219.025 -158.39 2.31486 0.98
7 0 -2 o 1703.728 1691.330 73.10 2.31486 3.77
7 4 0 o 44.427 44.145 46.33 2.31237 0.20
6 2 -2 o 151.253 149.503 -148.08 2.27833 0.65
0 0 3 o 1380.713 1324.301 114.01 2.24633 0.97
9 1 -1 o 77.712 68.137 -24.70 2.20854 0.32
6 5 1 o 153.639 134.708 -139.87 2.20854 0.63
1 1 3 o 214.721 190.098 -47.94 2.21290 0.88
5 4 -2 o 268.364 228.258 -55.44 2.17831 1.07
3 0 3 o 42.028 37.995 -142.30 2.15028 0.08
3 0 -3 o 322.740 291.766 144.45 2.15028 0.63
8 0 2 o 107.314 96.852 -123.43 2.14778 0.21
8 3 -1 o 1.229 1.108 118.83 2.14628 0.00
6 6 0 o 50.475 45.480 180.00 2.14579 0.10
2 2 3 o 608.272 549.276 116.43 2.12091 2.32
7 2 2 o 270.899 245.800 81.45 2.11851 1.03
10 0 1 o 122.831 111.739 85.87 2.11707 0.23
10 1 0 o 96.599 87.944 87.37 2.11659 0.37
9 2 1 o 571.470 537.184 -155.11 2.08901 2.12
8 1 -2 o 626.272 596.505 -99.51 2.06337 2.28
4 1 3 o 160.039 144.485 -34.59 2.03951 0.57
4 1 -3 o 374.254 337.881 5.77 2.03951 1.34
9 3 0 o 77.644 73.607 -167.89 2.06160 0.28
6 4 2 o 508.550 459.600 -36.70 2.03737 1.81
7 5 -1 o 205.003 185.468 -170.37 2.03610 0.73
7 3 -2 o 682.735 647.204 90.74 2.01233 2.39
8 4 1 o 193.344 183.700 83.68 2.01110 0.67
3 3 3 o 196.224 189.533 -119.07 1.99018 0.67
8 5 0 o 34.672 36.011 140.99 1.96338 0.12
11 0 -1 o 137.849 138.976 30.27 1.94131 0.23
6 0 -3 o 130.377 129.958 -136.32 1.92247 0.21
6 0 3 o 157.045 156.540 119.42 1.92247 0.25
6 5 -2 o 160.079 160.134 -126.93 1.92068 0.52
9 1 2 o 47.814 47.830 -25.92 1.92068 0.15
5 2 3 o 57.711 60.834 76.53 1.90138 0.18
5 2 -3 o 108.583 114.460 -169.05 1.90138 0.35
10 2 -1 o 175.235 175.763 -173.84 1.91961 0.57
7 6 1 o 14.734 15.416 -23.92 1.89862 0.05
8 3 2 o 369.008 334.002 -166.05 1.87931 1.16
10 0 -2 o 1716.955 1739.360 64.93 1.85960 2.64
11 1 1 o 102.468 104.225 -9.59 1.85863 0.32
9 4 -1 o 30.293 30.813 -39.32 1.85863 0.09
12 0 0 o 236.428 240.766 -146.80 1.85831 0.36
4 4 3 o 6.000 6.160 49.14 1.84207 0.02
9 2 -2 o 168.362 172.950 -96.67 1.84050 0.51
11 2 0 o 25.791 26.506 -17.36 1.83925 0.08
7 7 0 o 68.875 70.785 0.00 1.83925 0.10
10 3 1 o 81.186 80.593 -37.83 1.82106 0.24
7 5 2 o 63.291 57.620 121.70 1.80400 0.19
7 1 -3 o 36.967 35.861 67.94 1.78799 0.11
7 1 3 o 144.721 140.393 -104.58 1.78799 0.42
8 4 -2 o 37.353 36.391 -15.49 1.78655 0.11
10 4 0 o 159.337 155.681 -19.16 1.78540 0.46
8 6 -1 o 161.876 150.802 29.16 1.76876 0.46
6 3 3 o 17.218 15.773 -82.91 1.75447 0.05
6 3 -3 o 136.742 125.268 9.13 1.75447 0.39
9 5 1 o 10.418 9.538 -94.02 1.75230 0.03
11 0 2 o 269.269 245.732 129.85 1.73708 0.37
10 2 2 o 266.254 261.377 -18.84 1.72148 0.73
7 6 -2 o 35.529 33.888 116.66 1.70630 0.10
12 1 -1 o 66.181 65.101 -159.92 1.72071 0.18
9 6 0 o 19.901 18.903 -56.55 1.70530 0.05
5 5 3 o 166.919 153.860 90.79 1.69273 0.45
11 3 -1 o 338.879 312.119 25.09 1.69078 0.91
1 0 4 o 3.473 3.251 -110.29 1.67996 0.00
11 1 -2 o 267.153 252.635 -133.09 1.67710 0.71
9 4 2 o 55.791 52.759 67.06 1.67710 0.15
2 0 -4 o 184.232 180.464 5.97 1.66584 0.24
9 0 3 o 366.599 360.422 68.57 1.66421 0.48
9 0 -3 o 80.842 79.480 54.39 1.66421 0.11
8 7 1 o 71.244 70.366 146.12 1.66235 0.19
13 0 1 o 139.368 137.650 -142.52 1.66235 0.18
2 1 4 o 112.437 115.929 147.53 1.65206 0.29
8 2 3 o 59.389 61.515 94.25 1.65047 0.15
8 2 -3 o 267.052 276.607 -114.92 1.65047 0.69
10 3 -2 o 51.807 53.760 107.23 1.64934 0.13
12 2 1 o 450.472 467.693 130.63 1.64866 1.17
13 1 0 o 99.103 102.894 48.18 1.64844 0.26
10 5 -1 o 43.411 42.244 -161.05 1.63531 0.11
3 1 -4 o 46.844 44.533 157.90 1.62552 0.12
12 3 0 o 163.647 154.720 -157.82 1.62206 0.41
4 0 4 o 223.457 211.220 -71.51 1.61271 0.28
7 4 -3 o 488.431 463.268 115.65 1.61123 1.23
7 4 3 o 259.324 245.964 -90.71 1.61123 0.65
8 6 2 o 111.580 106.117 -67.74 1.61018 0.28
11 4 1 o 85.853 81.776 -33.35 1.60955 0.22
8 8 0 o 358.268 341.427 -180.00 1.60934 0.45
3 2 4 o 131.782 126.738 -7.35 1.60021 0.33
9 5 -2 o 1.684 1.612 -135.85 1.59773 0.00
5 0 -4 o 166.957 151.051 -21.88 1.57605 0.20
4 2 -4 o 17.107 15.827 -165.61 1.56437 0.04
12 1 2 o 49.552 44.848 -175.38 1.57368 0.12
9 7 -1 o 89.672 83.468 -118.83 1.56148 0.22
11 5 0 o 236.493 214.217 118.78 1.57290 0.58
5 1 4 o 233.823 222.212 95.74 1.55295 0.56
6 6 3 o 110.290 105.357 65.79 1.55163 0.26
11 3 2 o 250.709 240.366 -157.29 1.55069 0.60
10 6 1 o 7.452 7.159 94.85 1.55012 0.02
14 0 -1 o 559.630 537.623 20.56 1.55012 0.67
10 1 3 o 291.654 280.443 -85.39 1.54048 0.69
10 1 -3 o 8.273 7.955 72.09 1.54048 0.02
13 2 -1 o 169.996 163.279 -154.33 1.53901 0.40
4 3 4 o 188.053 178.933 -150.36 1.53083 0.44
8 7 -2 o 35.711 33.746 -33.57 1.52867 0.08
13 0 -2 o 451.614 426.763 31.79 1.52867 0.53
9 3 3 o 158.158 146.259 120.32 1.51889 0.37
9 3 -3 o 32.740 30.277 -37.86 1.51889 0.08
10 5 2 o 262.010 245.149 26.54 1.50756 0.61
12 2 -2 o 3.174 2.933 82.75 1.51801 0.01
12 4 -1 o 148.288 138.857 -131.41 1.50704 0.34
10 7 0 o 259.441 243.001 -17.13 1.50687 0.60
6 1 -4 o 8.845 8.243 132.67 1.50964 0.02
14 1 1 o 245.488 226.771 -10.78 1.49682 0.56
7 0 4 o 656.068 598.435 -105.27 1.48930 0.75
5 3 -4 o 60.750 55.413 -53.36 1.48930 0.14
11 4 -2 o 59.911 54.634 -11.43 1.48731 0.14
15 0 0 o 74.679 68.102 -67.36 1.48664 0.09
6 2 4 o 52.749 47.903 -25.91 1.47944 0.12
8 5 3 o 78.091 70.720 70.81 1.47829 0.18
8 5 -3 o 75.755 68.604 -35.26 1.47829 0.17
9 8 1 o 173.937 156.867 -61.81 1.47699 0.39
13 3 1 o 314.453 283.594 -89.24 1.47699 0.71
14 2 0 o 43.280 39.010 -137.27 1.47683 0.10
11 6 -1 o 292.707 268.690 63.62 1.45793 0.66
5 4 4 o 153.555 143.181 4.44 1.45098 0.34
9 7 2 o 276.340 259.217 163.03 1.44913 0.62
13 4 0 o 234.132 220.065 21.00 1.44852 0.52
8 0 -4 o 4.541 4.329 113.49 1.44185 0.01
14 0 2 o 448.584 427.781 -44.18 1.44004 0.50
10 6 -2 o 36.996 35.280 -130.40 1.44004 0.08
12 5 1 o 512.843 489.029 118.99 1.43959 1.13
7 2 -4 o 13.752 12.970 107.15 1.43289 0.03
12 0 3 o 420.524 395.601 102.50 1.43185 0.46
12 0 -3 o 65.580 61.694 -79.69 1.43185 0.07
13 2 2 o 303.445 285.032 54.05 1.43111 0.67
9 9 0 o 8.818 8.275 180.00 1.43052 0.01
8 1 4 o 392.988 382.559 67.86 1.41547 0.86
7 7 3 o 299.322 281.365 -133.55 1.42308 0.66
11 2 3 o 12.031 11.309 60.14 1.42308 0.03
11 2 -3 o 41.075 38.611 115.26 1.42308 0.09
6 4 -4 o 117.533 119.008 168.32 1.40699 0.25
12 4 2 o 26.154 26.436 -103.14 1.40531 0.06
15 1 -1 o 50.785 51.290 -137.52 1.40489 0.11
12 6 0 o 373.620 377.225 -127.03 1.40475 0.81
7 3 4 o 618.474 618.386 -170.55 1.39866 1.34
10 4 3 o 251.230 251.650 -74.90 1.39770 0.54
10 4 -3 o 11.959 11.979 177.94 1.39770 0.03
14 1 -2 o 87.564 87.883 -157.37 1.39701 0.19
10 8 -1 o 37.708 37.899 -142.70 1.39660 0.08
13 3 -2 o 17.645 18.297 -124.80 1.38085 0.04
9 8 -2 o 26.988 27.986 55.27 1.38085 0.06
11 7 1 o 195.914 205.355 -74.02 1.38845 0.42
14 3 -1 o 368.175 385.917 47.64 1.38845 0.79
9 1 -4 o 56.834 54.756 -74.81 1.36677 0.12
6 5 4 o 349.080 336.313 13.42 1.36677 0.74
11 6 2 o 103.204 99.305 -130.16 1.36523 0.22
16 0 1 o 187.940 180.831 -167.95 1.36485 0.20
9 6 3 o 3.795 3.695 28.88 1.35825 0.01
9 6 -3 o 3.223 3.138 -28.11 1.35825 0.01
13 5 -1 o 31.247 30.419 -133.92 1.35724 0.07
15 2 1 o 361.518 351.940 120.46 1.35724 0.76
10 0 4 o 2655.750 2355.236 -143.54 1.34424 2.79
8 3 -4 o 45.423 42.967 23.38 1.35162 0.10
2 0 5 o 247.031 217.195 31.80 1.33806 0.26
1 0 -5 o 46.255 41.319 172.57 1.34534 0.05
12 5 -2 o 69.725 65.065 114.65 1.35013 0.15
11 8 0 o 234.334 217.620 120.77 1.34964 0.49
16 1 0 o 72.845 67.649 104.25 1.34964 0.15
9 2 4 o 1546.178 1365.024 -2.75 1.33697 3.24
2 1 -5 o 34.638 31.882 64.52 1.33089 0.07
14 4 1 o 176.506 157.366 -28.35 1.33517 0.37
15 3 0 o 38.531 34.379 -88.65 1.33505 0.08
13 1 -3 o 12.969 12.092 103.19 1.32899 0.03
13 1 3 o 117.782 109.812 -97.21 1.32899 0.25
10 9 1 o 409.378 383.608 89.03 1.32804 0.86
7 5 -4 o 88.215 83.603 -149.34 1.32278 0.18
12 3 -3 o 13.018 12.593 -93.28 1.31505 0.03
12 3 3 o 31.352 30.328 57.94 1.31505 0.07
4 0 -5 o 204.940 201.439 -166.65 1.31005 0.21
10 8 2 o 173.001 167.743 -12.45 1.31448 0.36
3 1 5 o 133.464 128.161 -165.19 1.31689 0.28
15 1 2 o 257.662 244.553 157.82 1.32138 0.54
12 7 -1 o 192.795 187.198 -68.84 1.31413 0.40
8 4 4 o 382.838 369.129 174.92 1.31585 0.80
8 8 3 o 190.902 187.769 60.18 1.30824 0.40
3 2 -5 o 105.301 102.072 -42.95 1.30332 0.22
11 7 -2 o 1.651 1.623 86.31 1.30768 0.00
14 3 2 o 190.203 186.981 -102.51 1.30768 0.40
14 5 0 o 59.652 58.602 127.77 1.30723 0.12
13 6 1 o 15.699 15.013 -35.13 1.30065 0.03
10 2 -4 o 22.009 20.082 168.56 1.28920 0.05
11 0 -4 o 117.710 109.316 93.44 1.29571 0.12
11 5 -3 o 41.461 37.850 -27.17 1.28844 0.09
11 5 3 o 279.302 254.974 112.12 1.28844 0.58
4 2 5 o 133.930 123.781 -66.62 1.28374 0.28
16 0 -2 o 340.725 311.234 -4.64 1.28790 0.35
17 0 -1 o 155.993 142.555 87.92 1.28758 0.16
5 0 5 o 289.532 264.166 42.29 1.29017 0.30
10 10 0 o 427.122 390.397 0.00 1.28747 0.44
7 6 4 o 165.224 153.369 -81.39 1.28278 0.34
5 1 -5 o 171.499 162.917 23.31 1.27741 0.36
15 2 -2 o 23.137 21.612 127.29 1.28151 0.05
13 5 2 o 226.530 211.595 70.33 1.28151 0.47
16 2 -1 o 108.431 101.444 -110.93 1.28119 0.22
13 7 0 o 439.285 423.677 19.14 1.26858 0.91
11 1 4 o 457.492 440.040 81.95 1.27023 0.95
9 4 -4 o 18.162 17.470 14.10 1.27023 0.04
14 4 -2 o 59.909 58.074 -10.15 1.26288 0.12
11 9 -1 o 412.720 400.062 105.40 1.26257 0.86
15 4 -1 o 64.763 62.777 -112.63 1.26257 0.13
4 3 -5 o 395.363 383.011 -164.80 1.26501 0.82
10 3 4 o 282.133 272.571 -134.68 1.25805 0.59
6 1 5 o 81.388 78.332 178.88 1.25297 0.17
10 9 -2 o 55.931 53.998 -127.09 1.25684 0.12
12 8 1 o 206.454 199.296 172.52 1.25654 0.43
10 7 -3 o 149.367 143.274 117.26 1.25139 0.31
10 7 3 o 170.971 163.997 -74.96 1.25139 0.35
7 0 -5 o 819.839 763.845 -158.96 1.24127 0.85
5 3 5 o 195.713 182.345 16.53 1.24127 0.41
12 7 2 o 45.389 42.626 104.69 1.24503 0.09
17 1 1 o 180.046 172.316 -24.78 1.25060 0.37
8 6 -4 o 4.301 4.005 -85.85 1.24041 0.01
15 0 3 o 114.247 106.399 73.57 1.23973 0.12
15 0 -3 o 0.560 0.522 16.80 1.23973 0.00
6 2 -5 o 204.070 192.424 25.15 1.23554 0.43
16 3 1 o 87.499 81.541 -125.84 1.23897 0.18
18 0 0 o 150.891 140.632 -29.29 1.23887 0.16
9 5 4 o 628.809 595.977 41.42 1.23469 1.31
14 2 -3 o 116.517 110.941 -62.25 1.23403 0.24
14 2 3 o 11.713 11.152 37.41 1.23403 0.02
13 6 -2 o 19.279 18.421 -124.24 1.23355 0.04
14 6 -1 o 233.020 223.153 106.21 1.23327 0.49
17 2 0 o 57.054 54.680 -163.68 1.23317 0.12
12 1 -4 o 35.143 35.938 -64.51 1.22349 0.07
5 4 -5 o 49.539 50.520 114.40 1.21882 0.10
17 0 2 o 265.706 272.036 -52.91 1.22238 0.28
12 9 0 o 703.333 720.185 -142.36 1.22201 1.47
13 4 3 o 193.866 196.789 -134.03 1.21736 0.41
13 4 -3 o 212.368 215.570 112.43 1.21736 0.45
7 2 5 o 317.391 308.657 -140.76 1.20804 0.67
8 0 5 o 263.145 263.186 23.71 1.21340 0.28
16 2 2 o 243.836 247.108 17.08 1.21691 0.51
21 0 0 o 273.941 252.514 -89.22 1.06189 0.55
15 9 0 o 58.893 54.287 -42.13 1.06189 0.24
15 5 1 o 86.324 87.394 140.63 1.21664 0.18
16 4 0 o 94.244 95.380 25.88 1.21655 0.20
11 3 -4 o 18.189 18.130 -171.48 1.21259 0.04
14 4 4 o 414.356 382.489 -156.30 1.05925 1.77
9 9 3 o 70.262 67.754 167.53 1.20662 0.15
11 10 1 o 448.942 431.166 -20.77 1.20592 0.95
13 0 4 o 440.990 413.823 -25.85 1.20197 0.47
8 7 4 o 83.002 77.888 174.12 1.20197 0.18
8 7 -5 o 68.464 63.198 111.15 1.05979 0.29
13 0 -5 o 370.793 342.271 176.25 1.05979 0.78
12 11 -2 o 66.026 60.836 -34.75 1.06213 0.27
6 4 5 o 307.717 271.268 64.50 1.19240 0.66
12 8 -2 o 18.090 16.284 -3.93 1.19573 0.04
13 8 -1 o 74.545 66.983 -51.44 1.19547 0.16
8 1 -5 o 43.859 39.983 33.68 1.19755 0.09
15 4 2 o 118.448 110.417 153.37 1.20092 0.25
11 9 2 o 49.532 46.174 -136.54 1.20092 0.11
10 5 -4 o 0.037 0.033 73.94 1.19163 0.00
12 2 4 o 614.165 556.880 -134.52 1.19677 1.31
12 6 -3 o 111.249 97.510 -101.23 1.19103 0.24
12 6 3 o 54.956 48.169 -6.66 1.19103 0.12
4 4 6 o 41.219 38.043 80.03 1.06045 0.17
7 3 -5 o 262.918 229.405 -89.54 1.18732 0.57
17 1 -2 o 60.282 52.766 165.59 1.19061 0.13
15 6 0 o 491.557 429.884 -140.10 1.19027 1.05
11 4 4 o 217.258 189.076 53.83 1.18155 0.47
16 3 -2 o 3.018 2.621 -155.52 1.18056 0.01
19 3 1 o 187.068 170.835 -131.82 1.06558 0.71
17 6 -1 o 66.445 60.679 16.77 1.06558 0.25
14 7 1 o 179.239 156.504 -4.48 1.18530 0.39
18 1 -1 o 38.691 33.784 -3.41 1.18530 0.08
6 5 -5 o 351.949 311.431 125.81 1.16762 0.78
9 1 5 o 62.119 54.967 47.71 1.16762 0.14
14 6 2 o 458.909 397.823 -76.94 1.17562 1.00
11 11 0 o 235.669 206.300 0.00 1.17043 0.26
17 3 -1 o 98.094 85.059 121.14 1.17538 0.21
11 3 5 o 84.046 76.634 -91.60 1.06705 0.31
14 0 -4 o 225.396 211.362 115.43 1.15743 0.25
10 6 4 o 609.966 571.986 -124.39 1.15743 1.37
9 7 -4 o 50.479 46.236 -6.79 1.16214 0.11
13 5 -4 o 63.098 57.973 -71.73 1.07017 0.22
15 2 4 o 193.164 177.477 -86.16 1.07017 0.68
16 1 -3 o 62.719 58.912 122.09 1.15689 0.14
11 8 -3 o 86.516 81.263 -5.11 1.15689 0.19
16 1 3 o 23.454 22.030 -136.33 1.15689 0.05
11 8 3 o 18.552 17.426 154.53 1.15689 0.04
18 2 1 o 100.954 95.025 96.23 1.15163 0.23
12 10 -1 o 220.624 207.665 -142.65 1.15163 0.50
10 0 -5 o 282.240 266.063 -3.26 1.15348 0.32
19 0 1 o 248.303 233.583 179.32 1.15626 0.28
16 5 -1 o 283.375 266.575 -16.33 1.15626 0.64
8 3 5 o 147.684 138.133 -112.48 1.15814 0.33
15 5 -2 o 14.687 13.530 -118.55 1.16119 0.03
14 8 0 o 335.733 315.880 35.02 1.15618 0.76
12 9 -3 o 231.175 215.011 104.73 1.07345 0.78
12 9 3 o 468.856 436.072 -10.46 1.07345 1.59
16 4 3 o 306.885 281.485 178.15 1.06974 1.09
16 4 -3 o 25.258 23.168 -20.65 1.06974 0.09
13 2 -4 o 45.138 42.532 -48.93 1.15278 0.10
15 3 3 o 4.136 3.881 3.31 1.14766 0.01
15 3 -3 o 0.626 0.587 -55.59 1.14766 0.00
16 6 -2 o 1.958 1.819 -131.30 1.07314 0.01
19 1 0 o 20.943 19.552 100.93 1.14245 0.05
20 1 1 o 115.998 107.728 -14.42 1.07296 0.40
12 12 0 o 97.218 90.269 0.00 1.07289 0.17
13 9 1 o 22.218 20.840 -167.64 1.14705 0.05
9 2 -5 o 536.610 503.930 165.24 1.14888 1.23
11 10 -2 o 6.534 6.152 21.74 1.15186 0.01
12 4 -4 o 51.310 47.795 45.81 1.13917 0.12
16 0 4 o 0.159 0.148 -44.84 1.07389 0.00
5 2 -6 o 54.417 50.249 -6.28 1.07141 0.19
5 2 6 o 1.778 1.642 -58.99 1.07141 0.01
6 0 6 o 58.984 55.020 -110.77 1.07514 0.10
6 0 -6 o 467.271 435.874 -156.17 1.07514 0.78
14 7 -2 o 51.948 48.329 67.85 1.13385 0.12
18 1 2 o 348.042 323.796 144.73 1.13385 0.83
8 4 -5 o 560.374 522.278 7.38 1.13540 1.32
18 3 0 o 64.278 59.763 -113.08 1.13356 0.15
17 4 1 o 134.932 125.709 0.62 1.13805 0.32
7 5 5 o 158.795 147.933 25.88 1.13984 0.37
13 8 2 o 66.241 61.865 104.07 1.14275 0.15
17 2 3 o 30.879 28.818 34.00 1.08099 0.10
17 2 -3 o 130.281 121.587 -121.84 1.08099 0.41
14 1 4 o 78.134 72.783 115.87 1.13473 0.18
12 1 5 o 40.237 37.503 -3.24 1.07445 0.13
9 5 -5 o 62.106 58.006 -9.94 1.08202 0.19
15 7 2 o 51.653 48.179 -119.53 1.08450 0.16
14 5 -3 o 36.038 33.066 -42.88 1.12984 0.09
14 5 3 o 330.729 303.453 26.89 1.12984 0.79
11 0 5 o 847.314 767.660 -127.62 1.12238 1.04
17 3 2 o 232.164 209.704 -88.52 1.12516 0.57
18 4 -1 o 302.038 281.817 173.41 1.08431 0.92
15 8 1 o 57.682 53.279 135.76 1.08818 0.17
11 6 -4 o 39.346 36.408 -163.29 1.11750 0.10
15 7 -1 o 200.832 183.792 -156.26 1.12926 0.48
1 1 6 o 98.318 90.390 -43.91 1.11891 0.25
11 7 4 o 358.832 334.103 81.52 1.08528 1.08
14 3 -4 o 194.942 181.507 154.33 1.08528 0.59
13 3 4 o 442.249 399.973 47.89 1.12602 1.07
9 8 4 o 127.612 115.413 40.98 1.12602 0.31
11 1 -5 o 35.132 33.553 -56.84 1.10570 0.09
9 4 5 o 156.613 149.574 -143.84 1.10570 0.41
19 0 -2 o 32.494 30.892 -96.74 1.10835 0.04
16 5 2 o 394.513 375.062 77.38 1.10835 1.03
0 0 6 o 495.437 447.989 121.02 1.12316 0.20
10 8 -4 o 164.713 151.911 152.38 1.08915 0.48
12 11 1 o 313.503 299.586 140.65 1.10407 0.83
10 10 3 o 74.315 68.912 59.20 1.11701 0.19
3 3 6 o 185.218 171.809 -162.72 1.08657 0.55
15 1 -4 o 50.592 46.873 -51.68 1.09307 0.14
7 6 -5 o 373.481 350.136 -159.53 1.11394 0.95
4 1 6 o 50.984 47.431 33.08 1.09439 0.14
4 1 -6 o 124.264 115.603 25.57 1.09439 0.35
18 0 3 o 5.909 5.508 -103.65 1.08483 0.01
18 0 -3 o 127.621 118.954 6.17 1.08483 0.19
10 2 5 o 491.798 453.780 67.89 1.11814 1.23
16 6 1 o 92.157 85.653 -155.22 1.11645 0.23
17 5 0 o 339.728 315.837 54.13 1.11638 0.86
13 10 0 o 226.389 210.469 138.25 1.11638 0.57
12 5 4 o 137.911 130.864 -96.03 1.10918 0.36
2 2 6 o 80.683 76.984 10.20 1.10645 0.21
8 6 5 o 91.406 84.969 2.16 1.08586 0.27
3 0 6 o 241.107 228.028 179.70 1.11056 0.31
3 0 -6 o 427.082 403.915 -155.38 1.11056 0.55
17 4 -2 o 36.061 33.342 100.40 1.09228 0.10
13 7 3 o 388.044 370.839 -173.99 1.10461 1.03
13 7 -3 o 11.899 11.371 147.91 1.10461 0.03
10 3 -5 o 59.152 55.666 -156.80 1.09763 0.16
13 9 -2 o 68.696 65.193 179.10 1.10023 0.19
16 7 0 o 211.727 195.651 -146.49 1.09202 0.61
19 2 -1 o 99.267 92.888 -9.75 1.09604 0.28
14 9 -1 o 165.192 154.576 27.93 1.09604 0.46
12 10 2 o 8.459 8.084 -75.59 1.10427 0.02
18 2 -2 o 71.764 68.584 -10.04 1.10427 0.19
20 0 -1 o 314.336 298.130 -161.66 1.10003 0.43
