#------------------------------------------------------------------------------
#$Date: 2016-02-16 22:30:59 +0200 (Tue, 16 Feb 2016) $
#$Revision: 176467 $
#$URL: svn://www.crystallography.net/cod/cif/4/12/24/4122454.cif $
#------------------------------------------------------------------------------
#
# This file is available in the Crystallography Open Database (COD),
# http://www.crystallography.net/
#
# All data on this site have been placed in the public domain by the
# contributors.
#
data_4122454
loop_
_publ_author_name
'Kapelewski, Matthew T.'
'Geier, Stephen J.'
'Hudson, Matthew R.'
'St\"uck, David'
'Mason, Jarad A.'
'Nelson, Jocienne N.'
'Xiao, Dianne J.'
'Hulvey, Zeric'
'Gilmour, Elizabeth'
'FitzGerald, Stephen A.'
'Head-Gordon, Martin'
'Brown, Craig M.'
'Long, Jeffrey R.'
_publ_section_title
;
 M2(m-dobdc) (M = Mg, Mn, Fe, Co, Ni) Metal-Organic Frameworks Exhibiting
 Increased Charge Density and Enhanced H2 Binding at the Open Metal Sites.
;
_journal_issue                   34
_journal_name_full               'Journal of the American Chemical Society'
_journal_page_first              12119
_journal_paper_doi               10.1021/ja506230r
_journal_volume                  136
_journal_year                    2014
_chemical_formula_sum            'C4 H Co D4.49 O3'
_chemical_formula_weight         165.03
_chemical_name_systematic        ' ?'
_space_group_IT_number           160
_symmetry_cell_setting           trigonal
_symmetry_space_group_name_Hall  'R 3 -2"'
_symmetry_space_group_name_H-M   'R 3 m :H'
_audit_creation_date             2013-06-27T12:08
_audit_creation_method           'from EXP file using GSAS2CIF'
_audit_update_record
' 2013-06-27T12:08  Initial CIF as created by GSAS2CIF'
_cell_angle_alpha                90.0
_cell_angle_beta                 90.0
_cell_angle_gamma                120.0
_cell_formula_units_Z            18
_cell_length_a                   25.9008(11)
_cell_length_b                   25.9008
_cell_length_c                   6.8104(4)
_cell_volume                     3956.7(3)
_computing_structure_refinement  GSAS
_diffrn_radiation_probe          neutron
_diffrn_radiation_wavelength     2.078
_exptl_absorpt_correction_T_max  1.00000
_exptl_absorpt_correction_T_min  1.00000
_exptl_absorpt_process_details
;   GSAS Absorption/surface roughness correction: function number 0
 No correction is applied.
;
_pd_block_id                     2013-06-27T12:08|CO_PRIME_2P25D2_R||BT1
_pd_calc_method                  'Rietveld Refinement'
_pd_instr_location               ' ?'
_pd_meas_2theta_range_inc        0.05
_pd_meas_2theta_range_max        166.25
_pd_meas_2theta_range_min        1.5
_pd_meas_number_of_points        3296
_pd_phase_name                   Co_dobdc_prime_2.25_D2
_pd_proc_2theta_range_inc        0.05
_pd_proc_2theta_range_max        166.2726
_pd_proc_2theta_range_min        1.5226
_pd_proc_info_datetime           2013-06-27T12:08:45
_pd_proc_info_excluded_regions   ' ?'
_pd_proc_ls_background_function
;   GSAS Background function number 1 with 10 terms.
 Shifted Chebyshev function of 1st kind
      1:    893.873     2:   -162.696     3:    176.110     4:    20.9968    
      5:    85.0816     6:   -4.13760     7:    45.2158     8:    1.68342    
      9:    18.9309    10:   0.123730    
;
_pd_proc_ls_peak_cutoff          0.00050
_pd_proc_ls_profile_function
;
 CW Profile function number 3 with  19 terms
 Pseudovoigt profile coefficients as parameterized in
 P. Thompson, D.E. Cox & J.B. Hastings (1987). J. Appl. Cryst.,20,79-83.
 Asymmetry correction of L.W. Finger, D.E. Cox & A. P. Jephcoat (1994).
 J. Appl. Cryst.,27,892-900.
 Peak tails are ignored  where the intensity is below 0.0005 times the peak
   Aniso. broadening axis   0.0   0.0   1.0
;
_pd_proc_ls_prof_R_factor        0.0273
_pd_proc_ls_prof_wR_expected     0.0312
_pd_proc_ls_prof_wR_factor       0.0332
_pd_proc_number_of_points        3296
_pd_spec_mounting                ' ?'
_refine_ls_goodness_of_fit_all   1.07
_refine_ls_matrix_type           full
_refine_ls_number_parameters     71
_refine_ls_number_restraints     16
_refine_ls_R_Fsqd_factor         0.05108
_refine_ls_shift/su_max          11.70
_refine_ls_shift/su_mean         2.23
_reflns_d_resolution_high        1.059
_reflns_d_resolution_low         12.950
_reflns_limit_h_max              21
_reflns_limit_h_min              0
_reflns_limit_k_max              12
_reflns_limit_k_min              0
_reflns_limit_l_max              6
_reflns_limit_l_min              -6
_reflns_number_total             436
_cod_data_source_file            CO_PRIME_2P25D2_R.cif
_cod_data_source_block           CO_PRIME_2P25D2_R_publ
_cod_depositor_comments
;
The following automatic conversions were performed:

'_geom_bond_publ_flag' value 'N' changed to 'n' according to
/usr/data/users/saulius/crontab/automatic-downloads/rss-feeds/ACS/lib/dictionaries/cif_core.dic
dictionary named 'cif_core.dic' version 2.4.2 from 2011-04-26 (188
times).

'_geom_angle_publ_flag' value 'N' changed to 'n' according
to
/usr/data/users/saulius/crontab/automatic-downloads/rss-feeds/ACS/lib/dictionaries/cif_core.dic
dictionary named 'cif_core.dic' version 2.4.2 from 2011-04-26 (32
times).

Automatic conversion script
Id: cif_fix_values 2281 2013-09-26 08:29:07Z andrius 

 Adding full bibliography for 4122440--4122455.cif.
;
_cod_original_cell_volume        3956.7(4)
_cod_original_sg_symbol_H-M      'R 3 m'
_cod_original_formula_sum        'C4 H D4.49 Co O3'
_cod_database_code               4122454
#BEGIN Tags that were not found in dictionaries:
_gsas_exptl_extinct_corr_t_min   1.00000
_gsas_exptl_extinct_corr_t_max   1.00000
#END Tags that were not found in dictionaries
loop_
_symmetry_equiv_pos_site_id
_symmetry_equiv_pos_as_xyz
1 +x,+y,+z
2 -y,x-y,+z
3 y-x,-x,+z
4 y-x,+y,+z
5 -y,-x,+z
6 +x,x-y,+z
101 +x+1/3,+y+2/3,+z+2/3
102 -y+1/3,x-y+2/3,+z+2/3
103 y-x+1/3,-x+2/3,+z+2/3
104 y-x+1/3,+y+2/3,+z+2/3
105 -y+1/3,-x+2/3,+z+2/3
106 +x+1/3,x-y+2/3,+z+2/3
201 +x+2/3,+y+1/3,+z+1/3
202 -y+2/3,x-y+1/3,+z+1/3
203 y-x+2/3,-x+1/3,+z+1/3
204 y-x+2/3,+y+1/3,+z+1/3
205 -y+2/3,-x+1/3,+z+1/3
206 +x+2/3,x-y+1/3,+z+1/3
loop_
_atom_site_type_symbol
_atom_site_label
_atom_site_fract_x
_atom_site_fract_y
_atom_site_fract_z
_atom_site_occupancy
_atom_site_thermal_displace_type
_atom_site_U_iso_or_equiv
_atom_site_symmetry_multiplicity
C C1 0.6578(6) 0.8758(6) 0.8323(27) 1.0 Uiso 0.013(4) 18
C C2 0.6676(8) 0.8338(4) 0.7388(35) 1.0 Uiso 0.009(5) 9
C C6 0.6425(6) 0.8683(6) 0.0414(26) 1.0 Uiso 0.019(4) 18
C C11 0.6357(5) 0.9108(6) 0.1609(24) 1.0 Uiso 0.015(4) 18
Co Co2 0.3281(15) 0.3725(13) 0.565(5) 1.0 Uiso 0.003(8) 18
H H7 0.6761(14) 0.8380(7) 0.594(7) 1.0 Uiso 0.035(11) 9
O O9 0.6747(5) 0.9287(5) 0.7468(24) 1.0 Uiso 0.000(4) 18
O O12 0.6538(6) 0.9638(7) 0.0898(22) 1.0 Uiso 0.011(5) 18
O O15 0.6130(6) 0.8968(7) 0.3324(23) 1.0 Uiso 0.019(4) 18
C C2m 0.6295(8) 0.8147(4) 0.1369(28) 1.0 Uiso 0.008(6) 9
H H7m 0.6204(15) 0.8102(7) 0.267(7) 1.0 Uiso 0.018(9) 9
D D1 0.2059(5) 0.2157(5) 0.0010(20) 1.82(4) Uiso 0.089(6) 18
D D2 0.7756(7) 0.9478(6) 0.4234(26) 1.637(32) Uiso 0.104(5) 18
D D3 0.5760(10) 0.1521(20) 0.526(6) 1.05(9) Uiso 0.23(4) 9
D D4 0.5872(24) 0.174(5) 0.164(16) 1.03(15) Uiso 0.78(15) 9
loop_
_atom_type_symbol
_atom_type_number_in_cell
_atom_type_scat_length_neutron
_atom_type_scat_source
C 72.0 0.6646 International_Tables_Vol_C
Co 18.0 0.2490 International_Tables_Vol_C
H 18.0 -0.3739 International_Tables_Vol_C
O 54.0 0.5803 International_Tables_Vol_C
D 80.905 0.6671 International_Tables_Vol_C
loop_
_geom_angle_atom_site_label_1
_geom_angle_atom_site_label_2
_geom_angle_atom_site_label_3
_geom_angle
_geom_angle_site_symmetry_1
_geom_angle_site_symmetry_3
_geom_angle_publ_flag
C2 C1 C6 119.1(16) 1_555 1_556 n
C2 C1 O9 120.4(16) 1_555 1_555 n
C6 C1 O9 118.9(12) 1_556 1_555 n
C1 C2 C1 121.9(23) 1_555 6_565 n
C1 C2 H7 118.7(12) 1_555 1_555 n
C1 C2 H7 118.7(12) 6_565 1_555 n
C1 C6 C11 125.0(12) 1_554 1_555 n
C1 C6 C2m 119.5(14) 1_554 1_555 n
C11 C6 C2m 115.3(13) 1_555 1_555 n
C6 C11 O12 118.4(14) 1_555 1_555 n
C6 C11 O15 120.7(13) 1_555 1_555 n
O12 C11 O15 120.9(14) 1_555 1_555 n
O9 Co2 O9 171.8(25) 3_565 102_654 n
O9 Co2 O12 85.3(14) 3_565 102_655 n
O9 Co2 O12 95.5(12) 3_565 201_445 n
O9 Co2 O15 97.3(17) 3_565 3_565 n
O9 Co2 O12 86.9(18) 102_654 102_655 n
O9 Co2 O12 81.6(11) 102_654 201_445 n
O9 Co2 O15 90.4(15) 102_654 3_565 n
O12 Co2 O12 85.0(14) 102_655 201_445 n
O12 Co2 O15 175.3(17) 102_655 3_565 n
O12 Co2 O15 90.8(13) 201_445 3_565 n
C1 O9 Co2 130.5(12) 1_555 2_665 n
C1 O9 Co2 122.5(15) 1_555 203_565 n
Co2 O9 Co2 92.3(15) 2_665 203_565 n
C11 O12 Co2 128.8(13) 1_555 101_554 n
C11 O12 Co2 129.2(15) 1_555 203_564 n
Co2 O12 Co2 96.3(8) 101_554 203_564 n
C11 O15 Co2 126.5(13) 1_555 2_665 n
C6 C2m C6 119.4(17) 1_555 6_565 n
C6 C2m H7m 119.7(9) 1_555 1_555 n
C6 C2m H7m 119.7(9) 6_565 1_555 n
loop_
_geom_bond_atom_site_label_1
_geom_bond_atom_site_label_2
_geom_bond_distance
_geom_bond_site_symmetry_2
_geom_bond_publ_flag
C1 C2 1.388(16) 1_555 n
C1 C6 1.465(14) 1_556 n
C1 Co2 3.136(35) 2_665 n
C1 Co2 2.953(34) 203_565 n
C1 H7 2.07(4) 1_555 n
C1 O9 1.346(17) 1_555 n
C1 D1 3.336(18) 2_666 n
C1 D1 3.354(17) 101_555 n
C1 D2 3.854(23) 1_555 n
C1 D3 3.44(5) 202_555 n
C2 C1 1.388(16) 1_555 n
C2 C1 1.388(16) 6_565 n
C2 H7 1.01(6) 1_555 n
C2 D1 4.061(16) 2_666 n
C2 D1 4.061(16) 5_666 n
C2 D2 3.591(23) 1_555 n
C2 D2 3.591(23) 6_565 n
C2 D3 3.53(5) 202_555 n
C6 C1 1.465(14) 1_554 n
C6 C11 1.449(19) 1_555 n
C6 Co2 3.22(4) 203_564 n
C6 C2m 1.412(13) 1_555 n
C6 H7m 2.02(4) 1_555 n
C6 D1 3.456(15) 2_665 n
C6 D1 3.839(19) 101_554 n
C6 D2 3.974(21) 1_555 n
C6 D2 3.889(20) 103_564 n
C6 D3 3.35(5) 202_554 n
C11 C6 1.449(19) 1_555 n
C11 Co2 3.03(4) 2_665 n
C11 Co2 3.084(33) 101_554 n
C11 Co2 2.87(4) 203_564 n
C11 O12 1.301(17) 1_555 n
C11 O15 1.276(15) 1_555 n
C11 D1 3.510(15) 2_665 n
C11 D1 4.029(13) 101_554 n
C11 D1 4.106(15) 101_555 n
C11 D2 3.711(20) 1_555 n
C11 D2 3.183(16) 103_564 n
Co2 C1 3.136(35) 3_565 n
Co2 C1 2.953(34) 102_654 n
Co2 C6 3.22(4) 102_655 n
Co2 C11 3.03(4) 3_565 n
Co2 C11 2.87(4) 102_655 n
Co2 C11 3.084(33) 201_445 n
Co2 Co2 2.95(4) 103_554 n
Co2 Co2 2.95(4) 202_555 n
Co2 O9 2.090(31) 3_565 n
Co2 O9 2.002(29) 102_654 n
Co2 O12 3.291(33) 3_565 n
Co2 O12 1.86(4) 102_655 n
Co2 O12 2.097(32) 201_445 n
Co2 O15 2.10(4) 3_565 n
Co2 O15 3.32(4) 201_445 n
Co2 D1 5.331(33) 1_555 n
Co2 D1 4.742(32) 1_556 n
Co2 D1 2.232(32) 103_555 n
Co2 D1 4.272(31) 202_555 n
Co2 D2 4.057(34) 3_565 n
Co2 D2 4.24(4) 102_654 n
Co2 D2 4.503(33) 102_655 n
Co2 D2 4.80(4) 201_445 n
Co2 D3 4.89(4) 201_455 n
Co2 D4 4.78(8) 201_455 n
H7 C1 2.07(4) 1_555 n
H7 C1 2.07(4) 6_565 n
H7 C2 1.01(6) 1_555 n
H7 D2 2.957(32) 1_555 n
H7 D2 2.957(32) 6_565 n
O9 C1 1.346(17) 1_555 n
O9 Co2 2.090(31) 2_665 n
O9 Co2 2.002(29) 203_565 n
O9 D1 3.012(17) 2_666 n
O9 D1 3.137(18) 101_555 n
O9 D2 3.260(19) 1_555 n
O12 C11 1.301(17) 1_555 n
O12 Co2 3.291(33) 2_665 n
O12 Co2 2.097(32) 101_554 n
O12 Co2 1.86(4) 203_564 n
O12 D1 3.155(16) 2_665 n
O12 D1 3.907(18) 101_554 n
O12 D2 4.073(20) 1_555 n
O12 D2 3.325(18) 103_564 n
O15 C11 1.276(15) 1_555 n
O15 Co2 2.10(4) 2_665 n
O15 Co2 3.32(4) 101_554 n
O15 D1 2.880(18) 101_555 n
O15 D2 3.781(21) 1_555 n
O15 D2 3.176(18) 103_564 n
O15 D4 3.75(9) 202_555 n
C2m C6 1.412(13) 1_555 n
C2m C6 1.413(13) 6_565 n
C2m H7m 0.91(6) 1_555 n
C2m D2 4.118(21) 1_555 n
C2m D2 4.119(21) 6_565 n
C2m D3 3.20(5) 202_554 n
C2m D4 3.94(11) 202_555 n
H7m C6 2.02(4) 1_555 n
H7m C6 2.02(4) 6_565 n
H7m C2m 0.91(6) 1_555 n
H7m D2 3.959(30) 1_555 n
H7m D2 3.959(30) 6_565 n
H7m D3 3.65(6) 202_554 n
H7m D4 3.27(13) 202_555 n
D1 C1 3.336(18) 3_564 n
D1 C1 3.354(17) 201_444 n
D1 C2 4.061(16) 3_564 n
D1 C6 3.456(15) 3_565 n
D1 C6 3.839(19) 201_445 n
D1 C11 3.510(15) 3_565 n
D1 C11 4.106(15) 201_444 n
D1 C11 4.029(13) 201_445 n
D1 Co2 4.742(32) 1_554 n
D1 Co2 5.331(33) 1_555 n
D1 Co2 4.271(31) 103_554 n
D1 Co2 2.232(32) 202_554 n
D1 O9 3.012(17) 3_564 n
D1 O9 3.137(18) 201_444 n
D1 O12 3.155(16) 3_565 n
D1 O12 3.907(18) 201_445 n
D1 O15 2.880(18) 201_444 n
D1 D1 5.078(23) 4_555 n
D1 D1 5.840(21) 6_555 n
D1 D1 5.961(19) 103_554 n
D1 D1 5.961(19) 202_555 n
D1 D2 4.060(16) 3_564 n
D1 D2 3.046(18) 3_565 n
D1 D2 5.681(17) 5_664 n
D1 D2 5.007(15) 5_665 n
D1 D2 5.723(20) 201_444 n
D1 D3 3.246(24) 102_544 n
D1 D4 3.31(6) 102_544 n
D2 C1 3.854(23) 1_555 n
D2 C2 3.591(23) 1_555 n
D2 C6 3.974(21) 1_555 n
D2 C6 3.889(20) 202_665 n
D2 C11 3.711(20) 1_555 n
D2 C11 3.183(16) 202_665 n
D2 Co2 4.057(34) 2_665 n
D2 Co2 4.80(4) 101_554 n
D2 Co2 4.503(33) 203_564 n
D2 Co2 4.24(4) 203_565 n
D2 H7 2.957(32) 1_555 n
D2 O9 3.260(19) 1_555 n
D2 O12 4.073(20) 1_555 n
D2 O12 3.325(18) 202_665 n
D2 O15 3.781(21) 1_555 n
D2 O15 3.176(18) 202_665 n
D2 C2m 4.118(21) 1_555 n
D2 H7m 3.959(30) 1_555 n
D2 D1 3.046(18) 2_665 n
D2 D1 4.060(16) 2_666 n
D2 D1 5.007(15) 5_665 n
D2 D1 5.681(17) 5_666 n
D2 D1 5.723(20) 101_555 n
D2 D2 3.109(24) 6_565 n
D2 D3 3.916(27) 103_664 n
D2 D4 5.40(9) 103_664 n
D2 D4 4.54(7) 103_665 n
D3 C1 3.44(5) 103_554 n
D3 C1 3.44(5) 105_654 n
D3 C2 3.53(5) 103_554 n
D3 C6 3.35(5) 103_555 n
D3 C6 3.35(5) 105_655 n
D3 Co2 4.89(4) 101_544 n
D3 Co2 4.89(4) 104_544 n
D3 C2m 3.20(5) 103_555 n
D3 H7m 3.65(6) 103_555 n
D3 D1 3.246(24) 203_555 n
D3 D1 3.246(24) 205_555 n
D3 D2 3.916(27) 202_655 n
D3 D2 3.916(27) 206_455 n
D3 D4 2.51(9) 1_555 n
D3 D4 4.37(10) 1_556 n
D4 Co2 4.78(8) 101_544 n
D4 Co2 4.78(8) 104_544 n
D4 O15 3.75(9) 103_554 n
D4 O15 3.75(9) 105_654 n
D4 C2m 3.94(11) 103_554 n
D4 H7m 3.27(13) 103_554 n
D4 D1 3.31(6) 203_555 n
D4 D1 3.31(6) 205_555 n
D4 D2 4.54(7) 202_654 n
D4 D2 5.40(9) 202_655 n
D4 D2 4.54(7) 206_454 n
D4 D2 5.40(9) 206_455 n
D4 D3 4.37(10) 1_554 n
D4 D3 2.51(9) 1_555 n
loop_
_pd_meas_intensity_total
_pd_proc_ls_weight
_pd_proc_intensity_bkg_calc
_pd_calc_intensity_total
7920(190) 0.0 1839. .
7050(180) 0.0 1833. .
6800(180) 0.0 1826. .
5940(160) 0.0 1820. .
5430(160) 0.0 1814. .
4740(150) 0.0 1808. .
4730(150) 0.0 1802. .
4030(140) 0.0 1796. .
3880(130) 0.0 1790. .
3730(130) 0.0 1784. .
3710(130) 0.0 1778. .
3370(120) 0.0 1772. .
3450(130) 0.0 1766. .
3040(120) 0.0 1760. .
2940(120) 0.0 1755. .
2860(110) 0.0 1749. .
2940(120) 0.0 1743. .
2900(120) 0.0 1737. .
2760(110) 0.0 1732. .
2970(120) 0.0 1726. .
2930(120) 0.0 1721. .
2580(110) 0.0 1715. .
2880(110) 0.0 1710. .
2820(110) 0.0 1704. .
2760(110) 0.0 1699. .
2710(110) 0.0 1693. .
2830(110) 0.0 1688. .
2720(110) 0.0 1683. .
2570(110) 0.0 1677. .
2520(110) 0.0 1672. .
2580(110) 0.0 1667. .
2460(110) 0.0 1662. .
2540(110) 0.0 1656. .
2370(100) 0.0 1651. .
2390(100) 0.0 1646. .
2350(100) 0.0 1641. .
1971(94) 0.0 1636. .
2144(98) 0.0 1631. .
2270(100) 0.0 1626. .
1948(94) 0.0 1621. .
2044(96) 0.0 1616. .
2167(99) 0.0 1611. .
2080(97) 0.0 1607. .
2210(100) 0.0 1602. .
2030(96) 0.0 1597. .
2039(96) 0.0 1592. .
2185(99) 0.0 1587. .
1866(92) 0.0 1583. .
1948(94) 0.0 1578. .
1884(92) 0.0 1573. .
2012(95) 0.0 1569. .
1880(92) 0.0 1564. .
1848(91) 0.0 1560. .
1779(90) 0.0 1555. .
1788(90) 0.0 1551. .
1875(92) 0.0 1546. .
1628(86) 0.0 1542. .
1875(92) 0.0 1537. .
1697(87) 0.0 1533. .
1715(88) 0.0 1529. .
1802(90) 0.0 1524. .
1811(90) 0.0 1520. .
1660(86) 0.0 1516. .
1633(86) 0.0 1512. .
1583(84) 0.0 1507. .
1665(87) 0.0 1503. .
1501(82) 0.0 1499. .
1592(85) 0.0 1495. .
1583(84) 0.0 1491. .
1587(85) 0.0 1487. .
1597(85) 0.0 1483. .
1546(83) 0.0 1479. .
1464(81) 0.0 1475. .
1514(83) 0.0 1471. .
1482(82) 0.0 1467. .
1464(81) 0.0 1463. .
1569(84) 0.0 1459. .
1441(80) 0.0 1455. .
1482(82) 0.0 1451. .
1382(79) 0.0 1447. .
1405(79) 0.0 1444. .
1409(80) 0.0 1440. .
1341(78) 0.0 1436. .
1501(82) 0.0 1432. .
1455(81) 0.0 1429. .
1341(78) 0.0 1425. .
1510(82) 0.0 1421. .
1414(80) 0.0 1418. .
1314(77) 0.0 1414. .
1364(78) 0.0 1411. .
1373(79) 0.0 1407. .
1355(78) 0.0 1404. .
1574(84) 0.0 1400. .
1209(74) 0.0 1397. .
1514(83) 0.0 1393. .
1414(80) 0.0 1390. .
1355(78) 0.0 1386. .
1222(74) 0.0 1383. .
1464(81) 0.0 1380. .
1245(75) 0.0 1376. .
1449(55) 0.0 1373. .
1563(58) 0.0 1370. .
1494(56) 0.0 1366. .
1504(56) 0.0003189 1363. 1383.
1327(53) 0.000356 1360. 1381.
1498(56) 0.0003189 1357. 1379.
1428(55) 0.0003306 1354. 1377.
1432(55) 0.0003306 1350. 1375.
1359(54) 0.0003429 1347. 1373.
1441(55) 0.0003306 1344. 1371.
1407(55) 0.0003306 1341. 1369.
1389(54) 0.0003429 1338. 1368.
1398(54) 0.0003429 1335. 1366.
1288(52) 0.000370 1332. 1365.
1272(52) 0.000370 1329. 1364.
1334(53) 0.000356 1326. 1364.
1361(54) 0.0003429 1323. 1364.
1317(53) 0.000356 1320. 1364.
1416(55) 0.0003306 1317. 1365.
1495(56) 0.0003189 1314. 1366.
1378(54) 0.0003429 1311. 1369.
1432(55) 0.0003306 1309. 1374.
1500(56) 0.0003189 1306. 1383.
1481(56) 0.0003189 1303. 1399.
1642(59) 0.0002873 1300. 1426.
1594(58) 0.0002973 1297. 1468.
1555(57) 0.0003078 1295. 1526.
1678(60) 0.0002778 1292. 1600.
1799(62) 0.0002601 1289. 1690.
1828(62) 0.0002601 1286. 1794.
1984(65) 0.0002367 1284. 1909.
1942(64) 0.0002441 1281. 2034.
2254(69) 0.0002100 1278. 2170.
2185(68) 0.0002163 1276. 2317.
2370(71) 0.0001984 1273. 2477.
2560(74) 0.0001826 1271. 2650.
2673(76) 0.0001731 1268. 2840.
2858(78) 0.0001644 1265. 3047.
3003(80) 0.0001562 1263. 3276.
3326(85) 0.0001384 1260. 3529.
3423(86) 0.0001352 1258. 3812.
3780(90) 0.0001235 1255. 4132.
4280(96) 0.0001085 1253. 4495.
4680(100) 0.0000980 1250. 4915.
5100(110) 0.0000907 1248. 5409.
5780(110) 0.0000797 1246. 6004.
6700(120) 0.0000683 1243. 6745.
7690(130) 0.0000601 1241. 7690.
9310(140) 0.0000496 1238. 8903.
10600(150) 0.0000433 1236. 10394.
12460(170) 0.0000367 1234. 12032.
13810(170) 0.0000334 1231. 13466.
14460(180) 0.0000319 1229. 14157.
13550(170) 0.0000338 1227. 13591.
11570(160) 0.0000396 1225. 11670.
8820(140) 0.0000525 1222. 8960.
6150(120) 0.0000756 1220. 6292.
4454(98) 0.0001041 1218. 4213.
2930(79) 0.0001602 1216. 2867.
2141(68) 0.0002163 1214. 2121.
1790(62) 0.0002601 1211. 1753.
1614(58) 0.0002973 1209. 1579.
1439(55) 0.0003306 1207. 1490.
1335(53) 0.000356 1205. 1437.
1309(52) 0.000370 1203. 1399.
1367(54) 0.0003429 1201. 1369.
1261(51) 0.000384 1199. 1346.
1303(52) 0.000370 1197. 1326.
1314(53) 0.000356 1195. 1309.
1209(50) 0.000400 1193. 1295.
1267(52) 0.000370 1191. 1282.
1191(50) 0.000400 1189. 1271.
1227(51) 0.000384 1187. 1261.
1211(50) 0.000400 1185. 1253.
1212(50) 0.000400 1183. 1245.
1221(51) 0.000384 1181. 1238.
1242(51) 0.000384 1179. 1232.
1178(50) 0.000400 1177. 1226.
1081(48) 0.000434 1175. 1220.
1151(49) 0.000416 1173. 1215.
1108(48) 0.000434 1171. 1210.
1148(49) 0.000416 1169. 1206.
1155(49) 0.000416 1168. 1202.
1214(50) 0.000400 1166. 1198.
1131(49) 0.000416 1164. 1194.
1238(51) 0.000384 1162. 1190.
1151(49) 0.000416 1160. 1187.
1165(49) 0.000416 1159. 1184.
1234(51) 0.000384 1157. 1181.
1200(50) 0.000400 1155. 1178.
1151(49) 0.000416 1153. 1175.
1139(49) 0.000416 1152. 1172.
1126(48) 0.000434 1150. 1169.
1225(51) 0.000384 1148. 1166.
1160(49) 0.000416 1147. 1164.
1144(49) 0.000416 1145. 1161.
1187(68) 0.0002163 1143. 1159.
1144(67) 0.0002228 1142. 1157.
1214(69) 0.0002100 1140. 1154.
1082(65) 0.0002367 1138. 1152.
1119(48) 0.000434 1137. 1150.
1167(49) 0.000416 1135. 1148.
1158(49) 0.000416 1134. 1146.
1145(49) 0.000416 1132. 1144.
1097(48) 0.000434 1131. 1142.
1058(47) 0.000453 1129. 1140.
1101(48) 0.000434 1128. 1138.
1079(47) 0.000453 1126. 1136.
1097(48) 0.000434 1124. 1134.
1053(47) 0.000453 1123. 1132.
1125(48) 0.000434 1122. 1130.
1094(48) 0.000434 1120. 1128.
1200(50) 0.000400 1119. 1127.
1152(49) 0.000416 1117. 1125.
1176(49) 0.000416 1116. 1123.
1153(49) 0.000416 1114. 1122.
1108(48) 0.000434 1113. 1120.
1136(49) 0.000416 1111. 1118.
1138(49) 0.000416 1110. 1117.
1099(48) 0.000434 1109. 1115.
1206(50) 0.000400 1107. 1114.
1136(48) 0.000434 1106. 1112.
1093(48) 0.000434 1105. 1110.
1080(47) 0.000453 1103. 1109.
1096(48) 0.000434 1102. 1107.
1118(48) 0.000434 1101. 1106.
1111(48) 0.000434 1099. 1104.
1114(48) 0.000434 1098. 1103.
1162(49) 0.000416 1097. 1102.
1191(50) 0.000400 1096. 1100.
1127(48) 0.000434 1094. 1099.
1069(47) 0.000453 1093. 1097.
1142(49) 0.000416 1092. 1096.
1071(47) 0.000453 1091. 1095.
1096(48) 0.000434 1089. 1093.
1110(48) 0.000434 1088. 1092.
1124(48) 0.000434 1087. 1091.
1199(50) 0.000400 1086. 1090.
1166(49) 0.000416 1085. 1088.
1097(48) 0.000434 1083. 1087.
1162(49) 0.000416 1082. 1086.
1118(48) 0.000434 1081. 1085.
1087(47) 0.000453 1080. 1083.
1083(47) 0.000453 1079. 1082.
1173(49) 0.000416 1078. 1081.
1148(49) 0.000416 1076. 1080.
1143(49) 0.000416 1075. 1079.
1070(47) 0.000453 1074. 1078.
1107(48) 0.000434 1073. 1077.
1151(49) 0.000416 1072. 1076.
1110(48) 0.000434 1071. 1074.
1110(48) 0.000434 1070. 1073.
1130(48) 0.000434 1069. 1072.
1061(47) 0.000453 1068. 1071.
1034(46) 0.000473 1067. 1070.
1042(46) 0.000473 1066. 1069.
1143(49) 0.000416 1065. 1068.
1129(48) 0.000434 1064. 1067.
1104(48) 0.000434 1063. 1067.
1077(47) 0.000453 1062. 1066.
1097(48) 0.000434 1061. 1065.
1136(49) 0.000416 1060. 1064.
1116(48) 0.000434 1059. 1063.
1087(47) 0.000453 1058. 1062.
1034(46) 0.000473 1057. 1062.
944(44) 0.000517 1056. 1061.
1034(46) 0.000473 1055. 1061.
1089(47) 0.000453 1054. 1060.
1089(47) 0.000453 1053. 1060.
1046(46) 0.000473 1052. 1060.
1049(47) 0.000453 1051. 1060.
1054(47) 0.000453 1050. 1061.
1062(47) 0.000453 1050. 1062.
1056(47) 0.000453 1049. 1066.
1035(46) 0.000473 1048. 1071.
1100(48) 0.000434 1047. 1079.
1187(50) 0.000400 1046. 1089.
1077(47) 0.000453 1045. 1101.
1073(47) 0.000453 1044. 1117.
1141(49) 0.000416 1043. 1135.
1195(50) 0.000400 1043. 1158.
1143(49) 0.000416 1042. 1185.
1183(50) 0.000400 1041. 1220.
1284(52) 0.000370 1040. 1265.
1288(52) 0.000370 1039. 1322.
1277(52) 0.000370 1039. 1391.
1433(55) 0.0003306 1038. 1462.
1457(55) 0.0003306 1037. 1517.
1465(55) 0.0003306 1036. 1530.
1322(53) 0.000356 1035. 1482.
1269(51) 0.000384 1035. 1384.
1184(50) 0.000400 1034. 1274.
1160(49) 0.000416 1033. 1182.
1161(49) 0.000416 1032. 1118.
1121(48) 0.000434 1032. 1081.
1060(47) 0.000453 1031. 1062.
1036(67) 0.0002228 1030. 1052.
1085(47) 0.000453 1030. 1047.
1069(47) 0.000453 1029. 1043.
1033(46) 0.000473 1028. 1041.
994(45) 0.000494 1027. 1038.
1065(46) 0.000473 1027. 1037.
1090(47) 0.000453 1026. 1035.
1138(48) 0.000434 1025. 1034.
1085(47) 0.000453 1025. 1032.
1076(47) 0.000453 1024. 1031.
1011(45) 0.000494 1023. 1030.
1079(47) 0.000453 1023. 1030.
1036(46) 0.000473 1022. 1029.
1145(48) 0.000434 1021. 1028.
1124(48) 0.000434 1021. 1027.
1003(45) 0.000494 1020. 1027.
1044(46) 0.000473 1019. 1026.
1153(48) 0.000434 1019. 1026.
987(45) 0.000494 1018. 1026.
1014(45) 0.000494 1018. 1025.
1019(45) 0.000494 1017. 1025.
1046(46) 0.000473 1016. 1025.
1046(46) 0.000473 1016. 1025.
1027(46) 0.000473 1015. 1026.
1084(47) 0.000453 1015. 1027.
1098(47) 0.000453 1014. 1029.
951(44) 0.000517 1013. 1033.
1070(47) 0.000453 1013. 1039.
1057(46) 0.000473 1012. 1049.
1095(47) 0.000453 1012. 1062.
1117(48) 0.000434 1011. 1079.
1171(49) 0.000416 1011. 1100.
1156(48) 0.000434 1010. 1126.
1172(49) 0.000416 1009. 1160.
1303(52) 0.000370 1009. 1202.
1340(52) 0.000370 1008. 1258.
1390(53) 0.000356 1008. 1327.
1515(56) 0.0003189 1007. 1405.
1547(56) 0.0003189 1007. 1477.
1502(55) 0.0003306 1006. 1519.
1533(56) 0.0003189 1006. 1504.
1374(53) 0.000356 1005. 1424.
1262(51) 0.000384 1005. 1312.
1203(49) 0.000416 1004. 1204.
1110(47) 0.000453 1004. 1124.
993(45) 0.000494 1003. 1074.
1021(45) 0.000494 1003. 1046.
1029(46) 0.000473 1002. 1032.
1032(46) 0.000473 1002. 1025.
962(44) 0.000517 1001. 1021.
958(44) 0.000517 1001. 1018.
1010(45) 0.000494 1000. 1016.
985(45) 0.000494 1000. 1014.
997(45) 0.000494 999. 1012.
1061(46) 0.000473 999. 1011.
980(45) 0.000494 999. 1011.
1033(46) 0.000473 998. 1010.
995(45) 0.000494 998. 1009.
1054(46) 0.000473 997. 1009.
1022(46) 0.000473 997. 1009.
1003(45) 0.000494 996. 1009.
1027(46) 0.000473 996. 1009.
982(45) 0.000494 996. 1009.
1010(45) 0.000494 995. 1009.
1050(46) 0.000473 995. 1010.
998(45) 0.000494 994. 1011.
1003(45) 0.000494 994. 1012.
1022(45) 0.000494 993. 1014.
1035(46) 0.000473 993. 1016.
1024(46) 0.000473 993. 1020.
992(45) 0.000494 992. 1026.
1040(46) 0.000473 992. 1035.
1060(46) 0.000473 991. 1050.
1197(49) 0.000416 991. 1073.
1133(48) 0.000434 991. 1106.
1144(48) 0.000434 990. 1152.
1218(50) 0.000400 990. 1213.
1264(51) 0.000384 990. 1291.
1366(53) 0.000356 989. 1392.
1506(55) 0.0003306 989. 1523.
1637(58) 0.0002973 988. 1690.
1824(61) 0.0002687 988. 1887.
2159(67) 0.0002228 988. 2085.
2305(69) 0.0002100 987. 2228.
2211(68) 0.0002163 987. 2242.
2021(65) 0.0002367 987. 2087.
1791(61) 0.0002687 986. 1817.
1501(55) 0.0003306 986. 1539.
1185(49) 0.000416 986. 1320.
1184(49) 0.000416 985. 1179.
1099(47) 0.000453 985. 1100.
1043(46) 0.000473 985. 1059.
1015(45) 0.000494 984. 1039.
1027(46) 0.000473 984. 1027.
1033(46) 0.000473 984. 1019.
962(44) 0.000517 983. 1014.
967(44) 0.000517 983. 1009.
976(44) 0.000517 983. 1006.
1008(45) 0.000494 982. 1003.
946(44) 0.000517 982. 1001.
1014(43) 0.000541 982. 999.
996(43) 0.000541 982. 997.
960(42) 0.000567 981. 996.
1028(44) 0.000517 981. 994.
980(42) 0.000567 981. 993.
1001(43) 0.000541 980. 993.
977(42) 0.000567 980. 992.
965(42) 0.000567 980. 991.
1021(43) 0.000541 980. 991.
982(43) 0.000541 979. 991.
1012(43) 0.000541 979. 991.
1043(44) 0.000517 979. 992.
1051(44) 0.000517 978. 994.
1079(45) 0.000494 978. 997.
1036(44) 0.000517 978. 1002.
1044(44) 0.000517 978. 1010.
1057(44) 0.000517 977. 1021.
1032(44) 0.000517 977. 1037.
1032(44) 0.000517 977. 1058.
1106(45) 0.000494 977. 1086.
1131(46) 0.000473 976. 1122.
1169(46) 0.000473 976. 1165.
1255(48) 0.000434 976. 1210.
1215(47) 0.000453 976. 1244.
1191(47) 0.000453 975. 1253.
1197(47) 0.000453 975. 1224.
1195(47) 0.000453 975. 1167.
1151(46) 0.000473 975. 1105.
1098(45) 0.000494 974. 1055.
1076(45) 0.000494 974. 1022.
1002(43) 0.000541 974. 1004.
994(43) 0.000541 974. 994.
989(43) 0.000541 973. 989.
920(41) 0.000595 973. 986.
984(43) 0.000541 973. 984.
966(42) 0.000567 973. 983.
992(43) 0.000541 972. 981.
974(42) 0.000567 972. 980.
1003(43) 0.000541 972. 979.
973(42) 0.000567 972. 979.
982(43) 0.000541 972. 978.
976(42) 0.000567 971. 978.
938(42) 0.000567 971. 977.
1012(43) 0.000541 971. 977.
1005(43) 0.000541 971. 976.
956(42) 0.000567 970. 976.
934(41) 0.000595 970. 976.
998(43) 0.000541 970. 976.
1063(44) 0.000517 970. 975.
977(42) 0.000567 970. 975.
999(43) 0.000541 969. 975.
970(42) 0.000567 969. 976.
908(41) 0.000595 969. 976.
948(42) 0.000567 969. 977.
988(43) 0.000541 969. 979.
1001(43) 0.000541 968. 981.
1009(43) 0.000541 968. 985.
1018(43) 0.000541 968. 990.
998(43) 0.000541 968. 998.
1044(44) 0.000517 968. 1007.
1070(44) 0.000517 967. 1018.
1126(46) 0.000473 967. 1029.
1127(46) 0.000473 967. 1037.
1148(46) 0.000473 967. 1037.
1140(46) 0.000473 967. 1029.
1115(45) 0.000494 966. 1014.
1037(44) 0.000517 966. 1000.
1015(43) 0.000541 966. 989.
1021(43) 0.000541 966. 982.
973(42) 0.000567 966. 978.
997(43) 0.000541 966. 976.
982(43) 0.000541 965. 975.
940(42) 0.000567 965. 974.
916(41) 0.000595 965. 974.
922(41) 0.000595 965. 974.
924(41) 0.000595 965. 974.
961(42) 0.000567 964. 974.
963(42) 0.000567 964. 975.
1027(44) 0.000517 964. 975.
988(43) 0.000541 964. 976.
1002(43) 0.000541 964. 977.
988(43) 0.000541 964. 978.
885(40) 0.000625 963. 980.
960(42) 0.000567 963. 982.
986(43) 0.000541 963. 986.
989(43) 0.000541 963. 991.
1042(44) 0.000517 963. 1000.
1021(43) 0.000541 963. 1014.
995(43) 0.000541 962. 1036.
1037(44) 0.000517 962. 1068.
1089(45) 0.000494 962. 1113.
1146(46) 0.000473 962. 1173.
1145(46) 0.000473 962. 1251.
1263(48) 0.000434 962. 1340.
1327(50) 0.000400 961. 1426.
1307(49) 0.000416 961. 1480.
1354(50) 0.000400 961. 1471.
1250(48) 0.000434 961. 1390.
1189(47) 0.000453 961. 1275.
1107(45) 0.000494 961. 1167.
1022(43) 0.000541 961. 1089.
1033(43) 0.000541 960. 1041.
1020(43) 0.000541 960. 1015.
1065(44) 0.000517 960. 1002.
1050(43) 0.000541 960. 995.
998(42) 0.000567 960. 991.
942(41) 0.000595 960. 989.
994(42) 0.000567 959. 988.
978(42) 0.000567 959. 988.
1010(43) 0.000541 959. 988.
982(42) 0.000567 959. 989.
999(42) 0.000567 959. 990.
1051(43) 0.000541 959. 992.
1039(43) 0.000541 959. 995.
1021(43) 0.000541 958. 999.
1025(43) 0.000541 958. 1004.
1017(43) 0.000541 958. 1012.
978(42) 0.000567 958. 1022.
1035(43) 0.000541 958. 1039.
1066(44) 0.000517 958. 1067.
1053(44) 0.000517 958. 1111.
1162(46) 0.000473 957. 1180.
1228(47) 0.000453 957. 1283.
1359(50) 0.000400 957. 1431.
1538(53) 0.000356 957. 1635.
1760(57) 0.0003078 957. 1893.
2137(63) 0.0002520 957. 2185.
2347(66) 0.0002296 957. 2455.
2541(68) 0.0002163 956. 2613.
2459(67) 0.0002228 956. 2572.
2259(64) 0.0002441 956. 2331.
2051(61) 0.0002687 956. 1987.
1736(56) 0.0003189 956. 1652.
1419(51) 0.000384 956. 1393.
1239(47) 0.000453 956. 1223.
1143(45) 0.000494 955. 1125.
1031(43) 0.000541 955. 1071.
1010(43) 0.000541 955. 1042.
1029(43) 0.000541 955. 1024.
1003(42) 0.000567 955. 1012.
996(42) 0.000567 955. 1004.
995(42) 0.000567 955. 997.
951(41) 0.000595 955. 992.
990(42) 0.000567 954. 988.
1029(43) 0.000541 954. 985.
1016(43) 0.000541 954. 982.
1028(43) 0.000541 954. 981.
997(42) 0.000567 954. 980.
973(42) 0.000567 954. 980.
981(42) 0.000567 954. 980.
953(41) 0.000595 953. 982.
943(41) 0.000595 953. 987.
983(42) 0.000567 953. 995.
960(42) 0.000567 953. 1009.
949(41) 0.000595 953. 1028.
1061(44) 0.000517 953. 1055.
1040(43) 0.000541 953. 1088.
1016(43) 0.000541 952. 1123.
999(42) 0.000567 952. 1152.
1062(44) 0.000517 952. 1160.
1036(43) 0.000541 952. 1139.
1068(44) 0.000517 952. 1097.
973(42) 0.000567 952. 1052.
982(42) 0.000567 952. 1017.
1001(42) 0.000567 952. 994.
992(42) 0.000567 951. 980.
920(41) 0.000595 951. 973.
923(41) 0.000595 951. 968.
936(41) 0.000595 951. 966.
918(41) 0.000595 951. 964.
947(41) 0.000595 951. 963.
998(42) 0.000567 951. 962.
946(41) 0.000595 950. 961.
922(41) 0.000595 950. 961.
921(41) 0.000595 950. 960.
951(41) 0.000595 950. 960.
934(41) 0.000595 950. 959.
958(41) 0.000595 950. 959.
960(41) 0.000595 950. 959.
979(42) 0.000567 950. 958.
972(42) 0.000567 949. 958.
881(40) 0.000625 949. 958.
941(41) 0.000595 949. 958.
929(41) 0.000595 949. 958.
958(41) 0.000595 949. 958.
938(41) 0.000595 949. 958.
919(41) 0.000595 949. 958.
935(41) 0.000595 948. 958.
923(41) 0.000595 948. 958.
932(41) 0.000595 948. 958.
973(42) 0.000567 948. 958.
1016(43) 0.000541 948. 958.
937(41) 0.000595 948. 959.
1017(43) 0.000541 948. 959.
914(40) 0.000625 948. 959.
964(42) 0.000567 947. 960.
963(42) 0.000567 947. 961.
950(41) 0.000595 947. 961.
973(42) 0.000567 947. 962.
946(41) 0.000595 947. 963.
1000(41) 0.000595 947. 965.
986(40) 0.000625 947. 966.
974(40) 0.000625 946. 968.
964(40) 0.000625 946. 970.
967(40) 0.000625 946. 973.
1016(41) 0.000595 946. 977.
1046(42) 0.000567 946. 982.
1027(41) 0.000595 946. 990.
1029(41) 0.000595 946. 1002.
1028(41) 0.000595 946. 1020.
1089(43) 0.000541 945. 1050.
1069(42) 0.000567 945. 1098.
1246(46) 0.000473 945. 1170.
1283(46) 0.000473 945. 1271.
1400(49) 0.000416 945. 1402.
1517(51) 0.000384 945. 1549.
1717(54) 0.0003429 945. 1682.
1805(55) 0.0003306 944. 1753.
1696(54) 0.0003429 944. 1725.
1553(51) 0.000384 944. 1603.
1404(49) 0.000416 944. 1434.
1273(46) 0.000473 944. 1277.
1138(44) 0.000517 944. 1160.
1126(43) 0.000541 944. 1085.
1064(42) 0.000567 943. 1043.
1034(41) 0.000595 943. 1020.
1058(42) 0.000567 943. 1008.
1019(41) 0.000595 943. 1001.
1010(41) 0.000595 943. 998.
982(40) 0.000625 943. 997.
1030(41) 0.000595 943. 997.
1039(42) 0.000567 942. 999.
1062(42) 0.000567 942. 1003.
1079(42) 0.000567 942. 1010.
1008(41) 0.000595 942. 1020.
1004(41) 0.000595 942. 1036.
1063(42) 0.000567 942. 1062.
1166(44) 0.000517 942. 1107.
1253(46) 0.000473 941. 1179.
1347(48) 0.000434 941. 1289.
1391(48) 0.000434 941. 1448.
1680(53) 0.000356 941. 1655.
1822(56) 0.0003189 941. 1897.
2009(58) 0.0002973 941. 2125.
2093(60) 0.0002778 941. 2264.
2142(60) 0.0002778 940. 2242.
2048(59) 0.0002873 940. 2057.
1784(55) 0.0003306 940. 1783.
1468(50) 0.000400 940. 1517.
1329(47) 0.000453 940. 1315.
1255(46) 0.000473 940. 1183.
1180(44) 0.000517 940. 1106.
1034(41) 0.000595 939. 1065.
1004(41) 0.000595 939. 1042.
991(40) 0.000625 939. 1030.
973(40) 0.000625 939. 1023.
1000(41) 0.000595 939. 1020.
1035(41) 0.000595 939. 1020.
1053(42) 0.000567 939. 1022.
1030(41) 0.000595 938. 1028.
1036(41) 0.000595 938. 1040.
1072(42) 0.000567 938. 1059.
1080(42) 0.000567 938. 1092.
1136(43) 0.000541 938. 1149.
1195(45) 0.000494 938. 1243.
1396(48) 0.000434 938. 1391.
1544(51) 0.000384 937. 1600.
1774(55) 0.0003306 937. 1866.
2084(60) 0.0002778 937. 2165.
2333(63) 0.0002520 937. 2421.
2382(64) 0.0002441 937. 2523.
2215(61) 0.0002687 937. 2396.
1983(58) 0.0002973 937. 2087.
1678(53) 0.000356 936. 1741.
1405(49) 0.000416 936. 1458.
1219(45) 0.000494 936. 1265.
1105(43) 0.000541 936. 1148.
1101(43) 0.000541 936. 1082.
965(40) 0.000625 936. 1046.
1013(41) 0.000595 935. 1024.
1046(42) 0.000567 935. 1010.
1009(41) 0.000595 935. 1001.
1007(41) 0.000595 935. 994.
952(40) 0.000625 935. 990.
949(40) 0.000625 935. 988.
960(40) 0.000625 935. 992.
1016(41) 0.000595 934. 1000.
1053(42) 0.000567 934. 1013.
1063(42) 0.000567 934. 1034.
1164(44) 0.000517 934. 1060.
1151(44) 0.000517 934. 1088.
1119(43) 0.000541 934. 1107.
1077(42) 0.000567 933. 1107.
1117(43) 0.000541 933. 1085.
1127(43) 0.000541 933. 1050.
1018(41) 0.000595 933. 1017.
1017(41) 0.000595 933. 991.
980(40) 0.000625 933. 974.
987(40) 0.000625 932. 964.
944(39) 0.000657 932. 959.
952(31) 0.001041 932.2 955.0
944(37) 0.000730 932. 953.
979(37) 0.000730 932. 951.
966(37) 0.000730 932. 950.
952(37) 0.000730 932. 949.
996(38) 0.000693 931. 948.
974(37) 0.000730 931. 948.
929(37) 0.000730 931. 948.
998(38) 0.000693 931. 948.
985(38) 0.000693 931. 948.
1007(38) 0.000693 931. 948.
988(38) 0.000693 930. 949.
920(36) 0.000772 930. 951.
969(37) 0.000730 930. 955.
1034(39) 0.000657 930. 960.
982(38) 0.000693 930. 967.
989(38) 0.000693 930. 977.
986(38) 0.000693 929. 990.
1002(38) 0.000693 929. 1002.
1012(38) 0.000693 929. 1014.
987(38) 0.000693 929. 1019.
1037(39) 0.000657 929. 1014.
1009(38) 0.000693 929. 1001.
985(38) 0.000693 928. 986.
965(37) 0.000730 928. 974.
976(37) 0.000730 928. 966.
954(37) 0.000730 928. 962.
949(37) 0.000730 928. 961.
966(37) 0.000730 928. 962.
976(37) 0.000730 927. 965.
988(38) 0.000693 927. 970.
1042(39) 0.000657 927. 977.
1008(38) 0.000693 927. 988.
1007(38) 0.000693 927. 1007.
1065(39) 0.000657 927. 1038.
1156(41) 0.000595 926. 1089.
1234(42) 0.000567 926. 1168.
1351(44) 0.000517 926. 1276.
1487(46) 0.000473 926. 1406.
1638(49) 0.000416 926. 1536.
1722(50) 0.000400 926. 1623.
1598(48) 0.000434 925. 1620.
1517(47) 0.000453 925. 1517.
1383(45) 0.000494 925. 1368.
1265(43) 0.000541 925. 1228.
1150(41) 0.000595 925. 1123.
1128(40) 0.000625 925. 1055.
1016(38) 0.000693 924. 1015.
956(37) 0.000730 924. 992.
929(37) 0.000730 924. 979.
947(37) 0.000730 924. 971.
949(37) 0.000730 924. 965.
930(37) 0.000730 923. 961.
952(37) 0.000730 923. 958.
958(37) 0.000730 923. 956.
939(37) 0.000730 923. 954.
972(37) 0.000730 923. 953.
954(37) 0.000730 923. 952.
934(37) 0.000730 922. 952.
962(37) 0.000730 922. 952.
960(37) 0.000730 922. 953.
962(37) 0.000730 922. 954.
951(37) 0.000730 922. 956.
968(37) 0.000730 922. 960.
998(38) 0.000693 921. 964.
1011(38) 0.000693 921. 970.
991(38) 0.000693 921. 975.
956(37) 0.000730 921. 980.
948(37) 0.000730 921. 981.
1016(38) 0.000693 920. 980.
984(38) 0.000693 920. 977.
1015(38) 0.000693 920. 976.
1002(38) 0.000693 920. 977.
978(38) 0.000693 920. 980.
998(38) 0.000693 920. 984.
994(38) 0.000693 919. 990.
971(37) 0.000730 919. 999.
983(38) 0.000693 919. 1009.
992(38) 0.000693 919. 1024.
1076(39) 0.000657 919. 1043.
1075(39) 0.000657 918. 1071.
1113(40) 0.000625 918. 1112.
1200(42) 0.000567 918. 1174.
1268(43) 0.000541 918. 1264.
1455(46) 0.000473 918. 1393.
1656(49) 0.000416 918. 1572.
1862(52) 0.000370 917. 1813.
2088(55) 0.0003306 917. 2122.
2439(60) 0.0002778 917. 2488.
2829(64) 0.0002441 917. 2882.
3155(68) 0.0002163 917. 3241.
3173(68) 0.0002163 916. 3458.
3076(67) 0.0002228 916. 3367.
2765(64) 0.0002441 916. 2952.
2303(58) 0.0002973 916. 2419.
1865(52) 0.000370 916. 1948.
1618(48) 0.000434 916. 1603.
1387(45) 0.000494 915. 1380.
1292(43) 0.000541 915. 1250.
1219(42) 0.000567 915. 1178.
1094(38) 0.000693 915. 1141.
1059(37) 0.000730 915. 1124.
1078(37) 0.000730 914. 1124.
1152(39) 0.000657 914. 1142.
1212(40) 0.000625 914. 1183.
1249(40) 0.000625 914. 1254.
1357(42) 0.000567 914. 1360.
1508(44) 0.000517 914. 1499.
1586(46) 0.000473 913. 1660.
1705(47) 0.000453 913. 1823.
1884(50) 0.000400 913. 1946.
1884(50) 0.000400 913. 2008.
1930(50) 0.000400 913. 2010.
1857(49) 0.000416 912. 1928.
1721(47) 0.000453 912. 1752.
1515(44) 0.000517 912. 1543.
1307(41) 0.000595 912. 1360.
1170(39) 0.000657 912. 1225.
1089(38) 0.000693 911. 1137.
1057(37) 0.000730 911. 1084.
1035(37) 0.000730 911. 1055.
1017(36) 0.000772 911. 1039.
959(35) 0.000816 910.7 1032.9
1069(37) 0.000730 910. 1034.
1049(37) 0.000730 910. 1042.
1100(38) 0.000693 910. 1061.
1113(38) 0.000693 910. 1095.
1146(39) 0.000657 910. 1150.
1173(39) 0.000657 910. 1232.
1356(42) 0.000567 909. 1343.
1490(44) 0.000517 909. 1480.
1586(46) 0.000473 909. 1630.
1761(48) 0.000434 909. 1769.
1888(50) 0.000400 909. 1872.
1872(50) 0.000400 908. 1922.
1812(49) 0.000416 908. 1881.
1686(47) 0.000453 908. 1738.
1526(45) 0.000494 908. 1544.
1398(43) 0.000541 908. 1360.
1261(41) 0.000595 907. 1217.
1139(39) 0.000657 907. 1119.
1073(37) 0.000730 907. 1056.
985(36) 0.000772 907. 1018.
994(36) 0.000772 907. 995.
927(35) 0.000816 906.5 980.2
952(35) 0.000816 906.3 969.6
986(36) 0.000772 906. 962.
905(34) 0.000865 905.9 955.5
937(35) 0.000816 905.7 950.5
1001(36) 0.000772 906. 947.
944(35) 0.000816 905.3 943.2
921(35) 0.000816 905.1 940.6
949(35) 0.000816 904.9 938.4
951(35) 0.000816 904.8 936.6
887(34) 0.000865 904.6 935.2
939(35) 0.000816 904.4 934.1
971(36) 0.000772 904. 933.
919(35) 0.000816 904.0 932.9
924(35) 0.000816 903.8 932.8
954(35) 0.000816 903.6 933.3
991(36) 0.000772 903. 934.
942(35) 0.000816 903.2 935.2
950(35) 0.000816 903.0 937.0
951(35) 0.000816 902.8 939.6
982(36) 0.000772 903. 944.
1032(37) 0.000730 902. 950.
984(36) 0.000772 902. 960.
1026(37) 0.000730 902. 977.
1009(36) 0.000772 902. 1005.
1076(37) 0.000730 902. 1048.
1143(39) 0.000657 901. 1108.
1229(40) 0.000625 901. 1180.
1306(41) 0.000595 901. 1252.
1331(42) 0.000567 901. 1302.
1389(43) 0.000541 901. 1307.
1288(41) 0.000595 900. 1258.
1162(39) 0.000657 900. 1180.
1139(39) 0.000657 900. 1104.
1012(36) 0.000772 900. 1044.
974(36) 0.000772 900. 1003.
998(36) 0.000772 900. 978.
978(36) 0.000772 899. 964.
955(35) 0.000816 899.1 956.0
895(34) 0.000865 898.9 952.5
914(34) 0.000865 898.7 951.6
947(35) 0.000816 898.5 952.7
921(35) 0.000816 898.3 956.2
965(35) 0.000816 898.1 962.5
962(35) 0.000816 898.0 973.1
1000(36) 0.000772 898. 990.
1017(36) 0.000772 898. 1018.
1132(38) 0.000693 897. 1061.
1187(39) 0.000657 897. 1124.
1253(40) 0.000625 897. 1209.
1384(43) 0.000541 897. 1314.
1483(44) 0.000517 897. 1424.
1536(45) 0.000494 896. 1517.
1582(45) 0.000494 896. 1566.
1525(45) 0.000494 896. 1541.
1442(43) 0.000541 896. 1441.
1338(39) 0.000657 896. 1313.
1214(37) 0.000730 895. 1196.
1133(36) 0.000772 895. 1107.
1071(35) 0.000816 895.0 1046.6
982(34) 0.000865 894.8 1009.9
976(34) 0.000865 894.6 989.4
974(34) 0.000865 894.4 979.6
939(33) 0.000918 894.2 977.2
961(33) 0.000918 894.0 981.6
990(34) 0.000865 893.8 993.9
992(34) 0.000865 893.6 1016.2
1081(35) 0.000816 893.5 1051.1
1119(36) 0.000772 893. 1099.
1127(36) 0.000772 893. 1157.
1162(37) 0.000730 893. 1218.
1201(37) 0.000730 893. 1270.
1309(39) 0.000657 892. 1303.
1302(39) 0.000657 892. 1313.
1268(38) 0.000693 892. 1297.
1227(38) 0.000693 892. 1249.
1171(37) 0.000730 892. 1181.
1127(36) 0.000772 891. 1112.
1031(34) 0.000865 891.3 1054.5
1031(34) 0.000865 891.1 1013.1
986(34) 0.000865 890.9 986.2
974(34) 0.000865 890.7 970.5
972(34) 0.000865 890.5 962.4
971(33) 0.000918 890.3 959.8
929(33) 0.000918 890.1 961.7
939(33) 0.000918 889.9 968.7
966(33) 0.000918 889.7 983.1
1008(34) 0.000865 889.5 1009.4
1053(35) 0.000816 889.3 1053.1
1066(35) 0.000816 889.1 1119.3
1135(36) 0.000772 889. 1208.
1180(37) 0.000730 889. 1310.
1275(38) 0.000693 889. 1397.
1351(40) 0.000625 888. 1424.
1352(40) 0.000625 888. 1374.
1277(38) 0.000693 888. 1277.
1189(37) 0.000730 888. 1177.
1126(36) 0.000772 888. 1096.
1087(35) 0.000816 887.4 1037.1
1029(34) 0.000865 887.2 999.7
992(34) 0.000865 887.0 978.2
991(34) 0.000865 886.8 967.5
935(33) 0.000918 886.6 964.1
956(33) 0.000918 886.4 967.1
1042(35) 0.000816 886.2 976.9
1054(35) 0.000816 886.0 995.6
1038(35) 0.000816 885.8 1025.1
1074(35) 0.000816 885.6 1067.0
1103(36) 0.000772 885. 1119.
1166(37) 0.000730 885. 1174.
1212(37) 0.000730 885. 1220.
1279(38) 0.000693 885. 1256.
1263(38) 0.000693 885. 1284.
1237(38) 0.000693 884. 1297.
1221(38) 0.000693 884. 1273.
1218(38) 0.000693 884. 1213.
1142(36) 0.000772 884. 1142.
1086(35) 0.000816 883.7 1077.9
1016(34) 0.000865 883.5 1029.3
970(33) 0.000918 883.3 996.4
990(34) 0.000865 883.1 976.6
965(33) 0.000918 882.9 966.6
956(33) 0.000918 882.7 963.5
946(33) 0.000918 882.5 966.0
992(34) 0.000865 882.3 974.8
985(34) 0.000865 882.2 992.3
1033(35) 0.000816 882.0 1023.4
1080(35) 0.000816 881.8 1074.5
1156(37) 0.000730 882. 1152.
1228(38) 0.000693 881. 1257.
1365(40) 0.000625 881. 1382.
1431(41) 0.000595 881. 1501.
1492(42) 0.000567 881. 1564.
1533(42) 0.000567 881. 1537.
1490(42) 0.000567 880. 1436.
1375(40) 0.000625 880. 1309.
1294(39) 0.000657 880. 1192.
1143(36) 0.000772 880. 1101.
1100(36) 0.000772 880. 1038.
1006(34) 0.000865 879.5 997.5
902(32) 0.000977 879.3 973.2
919(33) 0.000918 879.1 959.6
973(34) 0.000865 878.9 952.9
942(33) 0.000918 878.7 951.6
915(32) 0.000977 878.5 955.9
904(32) 0.000977 878.3 966.9
993(34) 0.000865 878.1 986.3
1004(34) 0.000865 877.9 1015.0
1028(34) 0.000865 877.7 1052.0
1091(35) 0.000816 877.6 1092.9
1119(36) 0.000772 877. 1128.
1166(37) 0.000730 877. 1141.
1144(36) 0.000772 877. 1121.
1105(36) 0.000772 877. 1080.
1029(34) 0.000865 876.6 1034.6
1026(34) 0.000865 876.4 995.0
1030(33) 0.000918 876.2 965.4
997(32) 0.000977 876.0 945.1
948(31) 0.001041 875.8 932.3
922(31) 0.001041 875.7 924.8
980(32) 0.000977 875.5 920.7
931(31) 0.001041 875.3 919.0
891(30) 0.001111 875.1 919.1
879(30) 0.001111 874.9 921.3
892(30) 0.001111 874.7 926.0
938(31) 0.001041 874.5 934.0
905(31) 0.001041 874.3 946.0
1001(32) 0.000977 874.1 961.7
968(32) 0.000977 874.0 979.8
935(31) 0.001041 873.8 995.8
1036(33) 0.000918 873.6 1003.4
1003(32) 0.000977 873.4 999.3
1003(32) 0.000977 873.2 988.3
1033(33) 0.000918 873.0 976.9
970(32) 0.000977 872.8 969.6
1002(32) 0.000977 872.6 967.7
973(32) 0.000977 872.5 972.6
975(32) 0.000977 872.3 985.8
1008(32) 0.000977 872.1 1010.7
998(32) 0.000977 871.9 1053.1
1086(34) 0.000865 871.7 1121.6
1176(35) 0.000816 871.5 1225.2
1299(37) 0.000730 871. 1370.
1498(39) 0.000657 871. 1552.
1706(42) 0.000567 871. 1747.
1812(43) 0.000541 871. 1898.
1902(44) 0.000517 871. 1932.
1849(44) 0.000517 870. 1829.
1744(42) 0.000567 870. 1649.
1542(40) 0.000625 870. 1461.
1359(37) 0.000730 870. 1300.
1175(35) 0.000816 869.7 1176.3
1137(34) 0.000865 869.5 1089.5
1066(33) 0.000918 869.3 1032.3
995(32) 0.000977 869.1 996.0
967(32) 0.000977 868.9 973.1
920(31) 0.001041 868.7 958.8
926(31) 0.001041 868.6 950.2
909(31) 0.001041 868.4 946.1
958(31) 0.001041 868.2 946.0
943(31) 0.001041 868.0 950.1
958(31) 0.001041 867.8 957.8
954(31) 0.001041 867.6 968.1
969(32) 0.000977 867.5 978.2
1000(32) 0.000977 867.3 983.6
960(32) 0.000977 867.1 981.3
883(30) 0.001111 866.9 972.9
914(31) 0.001041 866.7 963.7
899(31) 0.001041 866.5 957.4
917(31) 0.001041 866.4 956.6
908(31) 0.001041 866.2 963.6
937(31) 0.001041 866.0 980.7
1017(32) 0.000977 865.8 1011.7
1005(32) 0.000977 865.6 1060.2
1121(34) 0.000865 865.5 1128.1
1203(35) 0.000816 865.3 1213.1
1261(36) 0.000772 865. 1304.
1354(37) 0.000730 865. 1375.
1398(38) 0.000693 865. 1393.
1326(37) 0.000730 865. 1346.
1244(36) 0.000772 864. 1261.
1169(35) 0.000816 864.2 1171.1
1106(34) 0.000865 864.0 1093.7
1027(33) 0.000918 863.8 1035.1
964(32) 0.000977 863.6 995.1
938(31) 0.001041 863.5 970.1
919(31) 0.001041 863.3 956.4
916(31) 0.001041 863.1 951.0
926(31) 0.001041 862.9 952.4
953(31) 0.001041 862.8 960.9
928(31) 0.001041 862.6 978.0
976(32) 0.000977 862.4 1005.6
1065(33) 0.000918 862.2 1045.0
1140(34) 0.000865 862.0 1095.2
1124(34) 0.000865 861.9 1150.7
1214(35) 0.000816 861.7 1198.7
1220(36) 0.000772 862. 1222.
1225(36) 0.000772 861. 1215.
1184(35) 0.000816 861.1 1194.5
1242(36) 0.000772 861. 1180.
1256(36) 0.000772 861. 1182.
1213(35) 0.000816 860.6 1200.9
1311(37) 0.000730 860. 1224.
1308(37) 0.000730 860. 1230.
1176(35) 0.000816 860.1 1204.1
1182(35) 0.000816 859.9 1153.1
1127(34) 0.000865 859.7 1094.9
1087(34) 0.000865 859.6 1042.6
987(32) 0.000977 859.4 1001.5
989(32) 0.000977 859.2 973.0
926(31) 0.001041 859.0 955.8
1002(32) 0.000977 858.9 948.8
932(31) 0.001041 858.7 950.7
976(32) 0.000977 858.5 961.2
1064(33) 0.000918 858.3 980.3
1062(33) 0.000918 858.2 1007.0
1069(32) 0.000977 858.0 1038.5
1128(33) 0.000918 857.8 1067.5
1132(33) 0.000918 857.6 1082.4
1156(33) 0.000918 857.5 1074.5
1124(33) 0.000918 857.3 1047.6
1065(32) 0.000977 857.1 1013.7
1056(32) 0.000977 856.9 981.8
955(30) 0.001111 856.8 956.3
989(31) 0.001041 856.6 938.2
963(30) 0.001111 856.4 927.0
972(31) 0.001041 856.2 921.7
932(30) 0.001111 856.1 921.0
897(29) 0.001189 855.9 923.9
925(30) 0.001111 855.7 929.7
947(30) 0.001111 855.6 937.6
933(30) 0.001111 855.4 946.6
953(30) 0.001111 855.2 956.1
1007(31) 0.001041 855.0 967.7
1004(31) 0.001041 854.9 984.0
1012(31) 0.001041 854.7 1007.0
1038(32) 0.000977 854.5 1035.9
1051(32) 0.000977 854.4 1066.3
1051(32) 0.000977 854.2 1089.8
1057(32) 0.000977 854.0 1096.8
1078(32) 0.000977 853.8 1086.1
1067(32) 0.000977 853.7 1067.1
1088(32) 0.000977 853.5 1051.5
1010(31) 0.001041 853.3 1047.5
1039(32) 0.000977 853.2 1059.7
1058(32) 0.000977 853.0 1089.8
1175(34) 0.000865 852.8 1136.4
1199(34) 0.000865 852.7 1193.6
1272(35) 0.000816 852.5 1249.5
1349(36) 0.000772 852. 1288.
1398(37) 0.000730 852. 1302.
1397(37) 0.000730 852. 1305.
1387(37) 0.000730 852. 1312.
1393(37) 0.000730 852. 1328.
1431(37) 0.000730 851. 1347.
1389(37) 0.000730 851. 1357.
1292(35) 0.000816 851.1 1342.5
1293(35) 0.000816 851.0 1294.9
1255(35) 0.000816 850.8 1225.2
1153(33) 0.000918 850.6 1152.3
1132(33) 0.000918 850.5 1088.6
1020(31) 0.001041 850.3 1039.2
1037(32) 0.000977 850.1 1004.6
927(30) 0.001111 850.0 983.3
975(31) 0.001041 849.8 973.5
951(30) 0.001111 849.6 974.3
972(31) 0.001041 849.5 985.8
970(31) 0.001041 849.3 1009.7
1003(31) 0.001041 849.1 1048.0
1146(33) 0.000918 849.0 1102.3
1145(33) 0.000918 848.8 1171.3
1291(35) 0.000816 848.6 1248.6
1272(35) 0.000816 848.5 1318.7
1371(36) 0.000772 848. 1357.
1350(36) 0.000772 848. 1343.
1322(36) 0.000772 848. 1286.
1263(35) 0.000816 847.8 1210.6
1145(33) 0.000918 847.7 1136.9
1096(33) 0.000918 847.5 1076.3
1043(32) 0.000977 847.3 1032.5
1007(31) 0.001041 847.2 1006.0
987(31) 0.001041 847.0 995.3
1011(31) 0.001041 846.8 999.1
1090(32) 0.000977 846.7 1016.0
1072(32) 0.000977 846.5 1044.5
1093(33) 0.000918 846.4 1081.8
1160(34) 0.000865 846.2 1122.2
1187(34) 0.000865 846.0 1154.9
1194(34) 0.000865 845.9 1167.5
1180(34) 0.000865 845.7 1155.8
1174(34) 0.000865 845.5 1128.6
1152(33) 0.000918 845.4 1097.8
1073(32) 0.000977 845.2 1071.9
1044(32) 0.000977 845.1 1056.6
1035(32) 0.000977 844.9 1056.2
1107(33) 0.000918 844.7 1073.9
1077(32) 0.000977 844.6 1111.6
1149(33) 0.000918 844.4 1169.6
1240(35) 0.000816 844.2 1245.4
1312(36) 0.000772 844. 1331.
1406(37) 0.000730 844. 1412.
1424(37) 0.000730 844. 1473.
1467(38) 0.000693 844. 1510.
1473(38) 0.000693 843. 1531.
1539(39) 0.000657 843. 1532.
1553(39) 0.000657 843. 1500.
1394(37) 0.000730 843. 1432.
1370(36) 0.000772 843. 1341.
1222(34) 0.000865 842.6 1247.3
1207(34) 0.000865 842.5 1163.7
1080(32) 0.000977 842.3 1096.3
1013(31) 0.001041 842.2 1046.9
996(31) 0.001041 842.0 1014.4
980(31) 0.001041 841.8 997.1
1006(31) 0.001041 841.7 993.8
970(31) 0.001041 841.5 1004.0
998(30) 0.001111 841.4 1028.2
1025(30) 0.001111 841.2 1067.2
1112(31) 0.001041 841.1 1120.5
1197(33) 0.000918 840.9 1184.6
1222(33) 0.000918 840.7 1250.5
1280(34) 0.000865 840.6 1301.5
1281(34) 0.000865 840.4 1319.2
1250(33) 0.000918 840.3 1297.9
1225(33) 0.000918 840.1 1247.7
1197(33) 0.000918 840.0 1183.4
1161(32) 0.000977 839.8 1117.7
1096(31) 0.001041 839.6 1059.7
1024(30) 0.001111 839.5 1014.1
994(30) 0.001111 839.3 981.8
958(29) 0.001189 839.2 961.5
963(29) 0.001189 839.0 950.6
946(29) 0.001189 838.9 946.1
918(29) 0.001189 838.7 944.2
945(29) 0.001189 838.5 940.9
884(28) 0.001276 838.4 933.6
923(29) 0.001189 838.2 922.7
925(29) 0.001189 838.1 910.6
895(28) 0.001276 837.9 899.1
896(28) 0.001276 837.8 889.2
875(28) 0.001276 837.6 881.3
867(28) 0.001276 837.5 875.3
909(28) 0.001276 837.3 870.8
888(28) 0.001276 837.1 867.4
828(27) 0.001372 837.0 865.0
860(28) 0.001276 836.8 863.2
859(28) 0.001276 836.7 861.8
831(27) 0.001372 836.5 860.9
867(28) 0.001276 836.4 860.3
872(28) 0.001276 836.2 860.0
868(28) 0.001276 836.1 860.3
864(28) 0.001276 835.9 861.2
875(28) 0.001276 835.8 862.9
882(28) 0.001276 835.6 865.6
885(28) 0.001276 835.4 869.2
890(28) 0.001276 835.3 873.8
864(28) 0.001276 835.1 878.9
870(28) 0.001276 835.0 883.4
880(28) 0.001276 834.8 885.9
901(28) 0.001276 834.7 885.3
878(28) 0.001276 834.5 881.9
899(28) 0.001276 834.4 877.1
867(28) 0.001276 834.2 872.1
830(27) 0.001372 834.1 867.9
872(28) 0.001276 833.9 864.7
872(28) 0.001276 833.8 862.7
931(29) 0.001189 833.6 861.9
841(27) 0.001372 833.5 862.2
843(27) 0.001372 833.3 863.5
849(27) 0.001372 833.1 865.8
848(27) 0.001372 833.0 869.0
851(27) 0.001372 832.8 873.1
877(28) 0.001276 832.7 877.7
920(29) 0.001189 832.5 882.4
898(28) 0.001276 832.4 886.8
863(28) 0.001276 832.2 891.0
892(28) 0.001276 832.1 896.1
931(29) 0.001189 831.9 903.6
887(28) 0.001276 831.8 915.1
928(29) 0.001189 831.6 931.9
898(28) 0.001276 831.5 954.5
958(29) 0.001189 831.3 982.9
1005(30) 0.001111 831.2 1015.2
1082(31) 0.001041 831.0 1047.8
1037(30) 0.001111 830.9 1075.8
1097(31) 0.001041 830.7 1097.4
1102(31) 0.001041 830.6 1112.5
1078(31) 0.001041 830.4 1120.0
1086(31) 0.001041 830.3 1116.2
1021(30) 0.001111 830.1 1099.4
1017(30) 0.001111 830.0 1073.5
1049(31) 0.001041 829.8 1044.9
970(29) 0.001189 829.7 1019.3
957(29) 0.001189 829.5 1001.5
952(29) 0.001189 829.4 994.1
983(30) 0.001111 829.2 998.2
986(30) 0.001111 829.1 1013.2
1013(30) 0.001111 828.9 1036.3
1051(31) 0.001041 828.8 1062.7
1058(31) 0.001041 828.6 1083.8
1080(31) 0.001041 828.5 1090.1
1007(30) 0.001111 828.3 1076.8
1040(30) 0.001111 828.2 1048.3
951(29) 0.001189 828.0 1013.4
926(29) 0.001189 827.9 979.2
913(28) 0.001276 827.7 949.6
912(28) 0.001276 827.6 925.9
901(28) 0.001276 827.4 908.1
876(28) 0.001276 827.3 895.7
851(27) 0.001372 827.1 887.6
868(28) 0.001276 827.0 883.1
855(28) 0.001276 826.8 881.8
846(27) 0.001372 826.7 883.3
855(28) 0.001276 826.5 888.0
847(27) 0.001372 826.4 896.0
908(28) 0.001276 826.2 907.6
924(40) 0.000625 826. 923.
931(28) 0.001276 825.9 940.8
953(28) 0.001276 825.8 959.8
1013(29) 0.001189 825.6 976.2
1023(29) 0.001189 825.5 985.2
972(28) 0.001276 825.3 983.4
947(28) 0.001276 825.2 972.3
990(29) 0.001189 825.0 956.5
994(29) 0.001189 824.9 940.5
961(28) 0.001276 824.7 927.4
894(27) 0.001372 824.6 918.9
918(27) 0.001372 824.4 916.1
915(27) 0.001372 824.3 919.9
883(27) 0.001372 824.2 931.2
949(28) 0.001276 824.0 951.0
997(29) 0.001189 823.9 980.3
1001(29) 0.001189 823.7 1019.7
1070(30) 0.001111 823.6 1068.4
1186(31) 0.001041 823.4 1123.4
1194(31) 0.001041 823.3 1178.2
1216(32) 0.000977 823.1 1222.2
1240(32) 0.000977 823.0 1245.9
1191(31) 0.001041 822.8 1244.3
1203(31) 0.001041 822.7 1218.6
1132(30) 0.001111 822.5 1174.5
1085(30) 0.001111 822.4 1121.3
1091(30) 0.001111 822.2 1068.5
1052(29) 0.001189 822.1 1022.8
976(28) 0.001276 821.9 987.0
947(28) 0.001276 821.8 961.9
916(27) 0.001372 821.6 946.7
916(27) 0.001372 821.5 940.1
961(28) 0.001276 821.3 939.8
970(28) 0.001276 821.2 943.8
950(28) 0.001276 821.0 949.8
914(27) 0.001372 820.9 955.0
970(28) 0.001276 820.8 955.9
967(28) 0.001276 820.6 950.5
942(28) 0.001276 820.5 939.0
949(28) 0.001276 820.3 924.1
922(28) 0.001276 820.2 908.6
887(27) 0.001372 820.0 894.1
890(27) 0.001372 819.9 881.7
869(27) 0.001372 819.7 871.7
880(27) 0.001372 819.6 864.0
863(27) 0.001372 819.4 858.5
852(26) 0.001479 819.3 854.9
908(27) 0.001372 819.1 852.7
877(27) 0.001372 819.0 851.8
843(26) 0.001479 818.8 852.0
840(26) 0.001479 818.7 853.1
854(26) 0.001479 818.5 855.0
863(27) 0.001372 818.4 857.2
869(27) 0.001372 818.2 859.4
874(27) 0.001372 818.1 860.9
816(26) 0.001479 818.0 861.1
807(26) 0.001479 817.8 860.0
861(27) 0.001372 817.7 858.2
876(27) 0.001372 817.5 856.6
854(26) 0.001479 817.4 855.7
889(27) 0.001372 817.2 856.2
891(27) 0.001372 817.1 858.2
875(27) 0.001372 816.9 862.0
872(27) 0.001372 816.8 867.6
895(27) 0.001372 816.6 874.9
892(27) 0.001372 816.5 883.4
880(27) 0.001372 816.3 892.0
859(27) 0.001372 816.2 899.2
873(27) 0.001372 816.0 903.5
886(27) 0.001372 815.9 904.4
901(27) 0.001372 815.7 903.1
883(27) 0.001372 815.6 902.2
898(27) 0.001372 815.4 903.8
890(27) 0.001372 815.3 909.6
936(28) 0.001276 815.2 920.6
945(28) 0.001276 815.0 937.1
978(28) 0.001276 814.9 958.6
1029(29) 0.001189 814.7 983.5
1029(29) 0.001189 814.6 1008.4
969(28) 0.001276 814.4 1028.2
992(29) 0.001189 814.3 1038.2
1057(29) 0.001189 814.1 1037.0
1057(29) 0.001189 814.0 1027.0
1037(29) 0.001189 813.8 1012.0
1023(29) 0.001189 813.7 994.2
999(29) 0.001189 813.5 975.0
985(28) 0.001276 813.4 955.5
929(28) 0.001276 813.2 936.5
910(27) 0.001372 813.1 918.5
875(27) 0.001372 812.9 902.2
871(27) 0.001372 812.8 888.2
867(27) 0.001372 812.6 877.0
853(26) 0.001479 812.5 868.7
866(27) 0.001372 812.3 863.1
848(26) 0.001479 812.2 860.0
835(26) 0.001479 812.0 859.2
870(27) 0.001372 811.9 860.6
865(27) 0.001372 811.7 863.7
879(27) 0.001372 811.6 868.4
893(27) 0.001372 811.5 873.8
907(27) 0.001372 811.3 879.0
893(27) 0.001372 811.2 882.8
888(27) 0.001372 811.0 883.8
900(27) 0.001372 810.9 881.9
886(27) 0.001372 810.7 878.3
897(27) 0.001372 810.6 874.3
883(27) 0.001372 810.4 871.1
896(27) 0.001372 810.3 869.4
907(27) 0.001372 810.1 869.3
908(27) 0.001372 810.0 870.5
911(27) 0.001372 809.8 872.5
894(27) 0.001372 809.7 874.6
886(27) 0.001372 809.5 876.2
892(27) 0.001372 809.4 877.8
913(27) 0.001372 809.2 879.4
927(28) 0.001276 809.1 881.3
895(27) 0.001372 808.9 882.9
835(26) 0.001479 808.8 883.4
883(27) 0.001372 808.6 882.4
900(27) 0.001372 808.5 880.4
886(27) 0.001372 808.3 878.6
937(28) 0.001276 808.2 878.4
874(27) 0.001372 808.0 880.9
873(27) 0.001372 807.9 887.0
864(27) 0.001372 807.7 897.2
900(27) 0.001372 807.6 911.7
967(28) 0.001276 807.4 930.0
955(28) 0.001276 807.3 951.1
967(28) 0.001276 807.1 972.6
1011(29) 0.001189 807.0 990.6
1013(29) 0.001189 806.8 1000.6
1051(30) 0.001111 806.7 999.3
995(29) 0.001189 806.5 987.4
1005(29) 0.001189 806.4 968.9
984(29) 0.001189 806.2 948.5
942(28) 0.001276 806.1 929.7
935(28) 0.001276 805.9 914.6
881(27) 0.001372 805.8 904.5
925(28) 0.001276 805.6 899.9
927(28) 0.001276 805.5 901.1
938(28) 0.001276 805.3 907.7
906(27) 0.001372 805.2 919.3
929(28) 0.001276 805.0 934.6
987(29) 0.001189 804.9 952.0
976(28) 0.001276 804.7 968.7
957(28) 0.001276 804.6 980.6
979(28) 0.001276 804.4 984.3
1049(29) 0.001189 804.3 978.4
1013(29) 0.001189 804.1 964.6
985(29) 0.001189 804.0 946.4
885(27) 0.001372 803.8 927.1
882(27) 0.001372 803.7 908.9
903(27) 0.001372 803.5 893.4
849(26) 0.001479 803.4 881.4
863(27) 0.001372 803.2 872.9
832(26) 0.001479 803.1 868.0
866(27) 0.001372 802.9 866.6
877(27) 0.001372 802.8 868.4
879(27) 0.001372 802.6 873.1
913(27) 0.001372 802.4 880.4
887(27) 0.001372 802.3 889.8
884(27) 0.001372 802.1 900.4
930(28) 0.001276 802.0 911.0
909(27) 0.001372 801.8 919.8
920(28) 0.001276 801.7 925.1
940(28) 0.001276 801.5 925.5
948(28) 0.001276 801.4 921.8
937(28) 0.001276 801.2 916.0
896(27) 0.001372 801.1 910.0
915(28) 0.001276 800.9 905.5
904(27) 0.001372 800.8 902.9
897(27) 0.001372 800.6 902.3
897(27) 0.001372 800.5 902.9
909(27) 0.001372 800.3 904.2
931(28) 0.001276 800.2 905.9
908(27) 0.001372 800.0 908.1
913(27) 0.001372 799.8 911.1
874(27) 0.001372 799.7 914.4
897(27) 0.001372 799.5 917.2
926(28) 0.001276 799.4 918.6
945(28) 0.001276 799.2 918.3
914(28) 0.001276 799.1 917.0
936(28) 0.001276 798.9 915.8
938(28) 0.001276 798.8 915.9
906(27) 0.001372 798.6 918.4
915(28) 0.001276 798.5 924.4
946(28) 0.001276 798.3 934.4
925(28) 0.001276 798.1 948.5
989(29) 0.001189 798.0 966.0
1024(29) 0.001189 797.8 985.2
1014(29) 0.001189 797.7 1003.1
989(29) 0.001189 797.5 1015.9
1037(29) 0.001189 797.4 1020.2
1014(29) 0.001189 797.2 1015.5
1030(29) 0.001189 797.1 1004.1
987(29) 0.001189 796.9 990.1
983(29) 0.001189 796.8 977.1
998(29) 0.001189 796.6 967.5
971(28) 0.001276 796.4 962.6
987(29) 0.001189 796.3 962.9
954(23) 0.001890 796.1 968.6
929(28) 0.001276 796.0 979.0
951(28) 0.001276 795.8 992.9
1002(29) 0.001189 795.7 1008.7
989(28) 0.001276 795.5 1025.7
1015(29) 0.001189 795.3 1043.9
1022(29) 0.001189 795.2 1063.8
1074(30) 0.001111 795.0 1085.0
1070(30) 0.001111 794.9 1105.7
1061(30) 0.001111 794.7 1123.3
1091(30) 0.001111 794.6 1135.9
1133(31) 0.001041 794.4 1144.1
1158(31) 0.001041 794.2 1150.1
1122(30) 0.001111 794.1 1156.5
1125(30) 0.001111 793.9 1165.4
1146(31) 0.001041 793.8 1177.9
1206(31) 0.001041 793.6 1193.7
1192(31) 0.001041 793.5 1210.7
1186(31) 0.001041 793.3 1225.1
1164(31) 0.001041 793.1 1234.1
1227(32) 0.000977 793.0 1237.2
1282(32) 0.000977 792.8 1236.0
1213(32) 0.000977 792.7 1231.2
1261(32) 0.000977 792.5 1221.3
1194(31) 0.001041 792.3 1203.4
1158(31) 0.001041 792.2 1175.4
1159(31) 0.001041 792.0 1138.0
1080(30) 0.001111 791.9 1095.1
1059(29) 0.001189 791.7 1051.3
1032(29) 0.001189 791.6 1010.4
987(28) 0.001276 791.4 974.4
958(28) 0.001276 791.2 944.3
872(27) 0.001372 791.1 920.3
907(27) 0.001372 790.9 901.8
848(26) 0.001479 790.8 888.3
893(27) 0.001372 790.6 878.8
848(26) 0.001479 790.4 872.7
871(27) 0.001372 790.3 868.8
895(27) 0.001372 790.1 866.4
851(26) 0.001479 790.0 864.7
865(27) 0.001372 789.8 862.8
901(27) 0.001372 789.6 860.6
851(26) 0.001479 789.5 858.0
879(27) 0.001372 789.3 855.0
870(27) 0.001372 789.1 852.1
821(26) 0.001479 789.0 849.3
828(26) 0.001479 788.8 847.2
852(26) 0.001479 788.7 846.1
836(26) 0.001479 788.5 846.3
842(26) 0.001479 788.3 848.0
814(26) 0.001479 788.2 851.4
847(26) 0.001479 788.0 856.8
862(27) 0.001372 787.9 864.2
861(27) 0.001372 787.7 873.6
888(27) 0.001372 787.5 884.8
952(28) 0.001276 787.4 897.4
947(28) 0.001276 787.2 910.7
934(28) 0.001276 787.0 923.9
965(28) 0.001276 786.9 936.2
949(28) 0.001276 786.7 947.1
956(28) 0.001276 786.6 956.7
949(28) 0.001276 786.4 965.7
989(28) 0.001276 786.2 974.2
976(28) 0.001276 786.1 981.5
1010(29) 0.001189 785.9 987.1
969(28) 0.001276 785.7 990.5
1026(29) 0.001189 785.6 991.7
963(28) 0.001276 785.4 990.6
972(28) 0.001276 785.2 986.7
1005(29) 0.001189 785.1 979.4
1007(29) 0.001189 784.9 968.5
974(28) 0.001276 784.8 954.3
887(27) 0.001372 784.6 938.0
884(27) 0.001372 784.4 920.8
863(27) 0.001372 784.3 903.8
916(27) 0.001372 784.1 887.7
894(27) 0.001372 783.9 873.3
881(27) 0.001372 783.8 860.8
843(26) 0.001479 783.6 850.6
826(26) 0.001479 783.4 842.3
866(27) 0.001372 783.3 835.7
812(26) 0.001479 783.1 830.6
808(26) 0.001479 782.9 826.4
825(26) 0.001479 782.8 822.9
825(26) 0.001479 782.6 819.9
823(26) 0.001479 782.4 817.2
826(26) 0.001479 782.3 815.0
796(26) 0.001479 782.1 813.0
809(26) 0.001479 781.9 811.5
795(26) 0.001479 781.8 810.3
813(26) 0.001479 781.6 809.6
827(26) 0.001479 781.4 809.3
849(26) 0.001479 781.3 809.4
805(26) 0.001479 781.1 810.0
800(26) 0.001479 780.9 811.2
813(26) 0.001479 780.8 813.0
798(26) 0.001479 780.6 815.4
800(26) 0.001479 780.4 818.5
837(26) 0.001479 780.3 822.2
854(26) 0.001479 780.1 826.4
840(36) 0.000772 780. 831.
864(26) 0.001479 779.8 834.9
846(26) 0.001479 779.6 838.4
862(26) 0.001479 779.4 840.6
850(26) 0.001479 779.3 841.5
842(25) 0.001600 779.1 841.2
816(25) 0.001600 778.9 840.2
824(25) 0.001600 778.8 839.4
855(26) 0.001479 778.6 839.1
846(26) 0.001479 778.4 839.7
836(25) 0.001600 778.3 841.1
872(26) 0.001479 778.1 843.3
865(26) 0.001479 777.9 845.8
889(26) 0.001479 777.7 848.3
854(26) 0.001479 777.6 850.1
849(26) 0.001479 777.4 851.0
858(26) 0.001479 777.2 850.6
859(26) 0.001479 777.1 849.2
826(25) 0.001600 776.9 847.4
881(26) 0.001479 776.7 845.7
847(26) 0.001479 776.6 845.0
808(25) 0.001600 776.4 845.6
842(25) 0.001600 776.2 848.1
865(26) 0.001479 776.0 852.5
868(26) 0.001479 775.9 859.1
859(26) 0.001479 775.7 867.7
884(26) 0.001479 775.5 878.0
899(26) 0.001479 775.4 889.1
910(27) 0.001372 775.2 900.2
926(27) 0.001372 775.0 910.1
896(26) 0.001479 774.9 917.7
911(27) 0.001372 774.7 922.7
885(26) 0.001479 774.5 924.9
913(27) 0.001372 774.3 924.7
896(26) 0.001479 774.2 922.8
907(26) 0.001479 774.0 920.3
923(27) 0.001372 773.8 918.2
937(27) 0.001372 773.7 917.4
944(27) 0.001372 773.5 918.2
914(27) 0.001372 773.3 920.6
870(26) 0.001479 773.1 923.9
930(27) 0.001372 773.0 927.1
918(27) 0.001372 772.8 929.2
962(27) 0.001372 772.6 929.4
928(27) 0.001372 772.5 927.4
933(27) 0.001372 772.3 923.8
860(26) 0.001479 772.1 919.6
845(26) 0.001479 771.9 915.9
913(27) 0.001372 771.8 913.5
929(27) 0.001372 771.6 913.0
904(26) 0.001479 771.4 914.2
917(27) 0.001372 771.2 916.8
949(27) 0.001372 771.1 919.5
911(27) 0.001372 770.9 921.5
941(27) 0.001372 770.7 922.0
937(27) 0.001372 770.6 921.0
915(27) 0.001372 770.4 918.9
860(26) 0.001479 770.2 916.1
875(26) 0.001479 770.0 912.7
890(26) 0.001479 769.9 908.6
882(26) 0.001479 769.7 903.5
865(26) 0.001479 769.5 897.7
839(25) 0.001600 769.3 891.5
872(26) 0.001479 769.2 885.4
839(25) 0.001600 769.0 880.0
865(26) 0.001479 768.8 875.7
870(26) 0.001479 768.6 872.8
844(26) 0.001479 768.5 871.5
833(25) 0.001600 768.3 871.5
857(26) 0.001479 768.1 872.4
863(26) 0.001479 767.9 873.4
863(26) 0.001479 767.8 873.6
826(25) 0.001600 767.6 872.3
848(26) 0.001479 767.4 869.3
892(26) 0.001479 767.2 864.9
856(26) 0.001479 767.1 860.0
830(25) 0.001600 766.9 855.4
880(26) 0.001479 766.7 851.5
879(26) 0.001479 766.5 848.7
840(25) 0.001600 766.4 847.2
849(26) 0.001479 766.2 846.7
834(25) 0.001600 766.0 846.9
832(25) 0.001600 765.8 847.3
821(25) 0.001600 765.7 847.4
861(26) 0.001479 765.5 846.8
849(26) 0.001479 765.3 845.4
825(25) 0.001600 765.1 843.2
820(25) 0.001600 765.0 840.2
826(25) 0.001600 764.8 836.9
807(25) 0.001600 764.6 833.5
856(26) 0.001479 764.4 830.5
841(25) 0.001600 764.3 828.3
828(25) 0.001600 764.1 827.3
831(25) 0.001600 763.9 827.5
832(25) 0.001600 763.7 829.2
821(25) 0.001600 763.6 832.4
833(25) 0.001600 763.4 837.0
820(25) 0.001600 763.2 843.0
858(26) 0.001479 763.0 849.9
885(26) 0.001479 762.9 857.5
881(26) 0.001479 762.7 864.9
881(26) 0.001479 762.5 871.5
892(26) 0.001479 762.3 876.4
897(26) 0.001479 762.2 879.2
881(26) 0.001479 762.0 879.6
923(27) 0.001372 761.8 878.2
901(26) 0.001479 761.6 875.8
864(26) 0.001479 761.4 873.7
943(27) 0.001372 761.3 872.7
892(26) 0.001479 761.1 873.7
909(27) 0.001372 760.9 877.4
895(26) 0.001479 760.7 884.1
908(27) 0.001372 760.6 893.8
888(26) 0.001479 760.4 906.5
968(27) 0.001372 760.2 921.6
1014(28) 0.001276 760.0 938.3
978(28) 0.001276 759.9 955.1
1004(28) 0.001276 759.7 970.3
1027(28) 0.001276 759.5 981.9
1031(28) 0.001276 759.3 988.7
1044(28) 0.001276 759.1 990.1
995(28) 0.001276 759.0 986.7
994(28) 0.001276 758.8 979.6
951(27) 0.001372 758.6 970.1
996(28) 0.001276 758.4 959.8
933(27) 0.001372 758.3 950.0
955(27) 0.001372 758.1 941.7
942(27) 0.001372 757.9 935.5
964(27) 0.001372 757.7 931.3
923(27) 0.001372 757.5 928.6
892(26) 0.001479 757.4 926.7
923(27) 0.001372 757.2 924.7
966(27) 0.001372 757.0 922.1
922(27) 0.001372 756.8 918.9
949(27) 0.001372 756.7 915.6
940(27) 0.001372 756.5 912.9
894(26) 0.001479 756.3 911.3
955(27) 0.001372 756.1 911.4
932(27) 0.001372 756.0 913.5
937(27) 0.001372 755.8 918.3
890(26) 0.001479 755.6 925.6
956(27) 0.001372 755.4 935.6
947(27) 0.001372 755.2 947.8
913(27) 0.001372 755.1 961.6
967(27) 0.001372 754.9 976.1
977(28) 0.001276 754.7 990.0
1012(28) 0.001276 754.5 1001.5
955(27) 0.001372 754.4 1008.2
1017(28) 0.001276 754.2 1008.4
966(27) 0.001372 754.0 1001.2
981(28) 0.001276 753.8 987.2
924(27) 0.001372 753.6 968.3
905(26) 0.001479 753.5 946.6
906(26) 0.001479 753.3 924.2
898(26) 0.001479 753.1 902.6
982(28) 0.001276 752.9 882.7
854(26) 0.001479 752.8 864.9
834(25) 0.001600 752.6 849.6
813(25) 0.001600 752.4 836.8
786(25) 0.001600 752.2 826.3
770(24) 0.001736 752.0 818.0
753(24) 0.001736 751.9 811.5
813(25) 0.001600 751.7 806.7
803(25) 0.001600 751.5 803.2
820(25) 0.001600 751.3 800.9
790(25) 0.001600 751.2 799.6
800(25) 0.001600 751.0 799.2
816(25) 0.001600 750.8 799.7
713(23) 0.001890 750.6 801.0
783(25) 0.001600 750.5 803.1
826(25) 0.001600 750.3 806.0
821(25) 0.001600 750.1 809.7
810(25) 0.001600 749.9 814.2
776(24) 0.001736 749.7 819.3
807(25) 0.001600 749.6 824.9
837(25) 0.001600 749.4 830.6
813(25) 0.001600 749.2 836.1
867(26) 0.001479 749.0 841.1
813(25) 0.001600 748.9 845.0
862(26) 0.001479 748.7 847.7
844(26) 0.001479 748.5 849.1
832(25) 0.001600 748.3 849.3
828(25) 0.001600 748.2 848.7
850(26) 0.001479 748.0 847.5
848(26) 0.001479 747.8 846.2
832(25) 0.001600 747.6 845.5
856(26) 0.001479 747.4 845.5
835(25) 0.001600 747.3 846.5
846(26) 0.001479 747.1 848.5
881(26) 0.001479 746.9 851.6
833(25) 0.001600 746.7 855.5
877(26) 0.001479 746.6 860.3
866(26) 0.001479 746.4 865.7
837(25) 0.001600 746.2 871.9
885(26) 0.001479 746.0 879.0
866(26) 0.001479 745.9 887.2
944(27) 0.001372 745.7 897.0
903(26) 0.001479 745.5 908.7
912(27) 0.001372 745.3 922.8
980(28) 0.001276 745.2 939.5
993(28) 0.001276 745.0 958.8
960(28) 0.001276 744.8 980.3
1016(29) 0.001189 744.6 1003.3
1047(30) 0.001111 744.5 1026.3
1078(30) 0.001111 744.3 1047.5
1068(30) 0.001111 744.1 1064.8
1076(30) 0.001111 743.9 1076.3
1125(31) 0.001041 743.8 1080.8
1111(30) 0.001111 743.6 1078.0
1105(30) 0.001111 743.4 1068.9
1140(31) 0.001041 743.2 1055.1
1052(30) 0.001111 743.1 1038.5
1067(30) 0.001111 742.9 1020.9
964(28) 0.001276 742.7 1003.5
976(28) 0.001276 742.5 987.1
1012(29) 0.001189 742.4 972.0
982(29) 0.001189 742.2 958.3
939(28) 0.001276 742.0 945.9
955(28) 0.001276 741.8 934.7
908(27) 0.001372 741.7 924.6
913(28) 0.001276 741.5 915.7
873(27) 0.001372 741.3 908.0
866(27) 0.001372 741.1 901.8
951(28) 0.001276 741.0 897.3
936(28) 0.001276 740.8 894.7
906(27) 0.001372 740.6 894.0
949(28) 0.001276 740.5 895.0
907(27) 0.001372 740.3 897.2
935(28) 0.001276 740.1 900.0
953(28) 0.001276 739.9 902.6
904(27) 0.001372 739.8 904.0
919(28) 0.001276 739.6 903.7
899(27) 0.001372 739.4 901.5
914(28) 0.001276 739.2 897.7
851(27) 0.001372 739.1 892.8
908(27) 0.001372 738.9 887.4
875(27) 0.001372 738.7 882.0
883(27) 0.001372 738.6 876.8
886(27) 0.001372 738.4 871.6
861(27) 0.001372 738.2 866.3
824(26) 0.001479 738.0 860.5
846(26) 0.001479 737.9 854.1
859(27) 0.001372 737.7 847.1
832(26) 0.001479 737.5 839.8
819(26) 0.001479 737.4 832.6
813(26) 0.001479 737.2 825.7
808(26) 0.001479 737.0 819.6
825(26) 0.001479 736.8 814.3
813(26) 0.001479 736.7 810.0
780(25) 0.001600 736.5 806.8
803(26) 0.001479 736.3 804.8
796(26) 0.001479 736.2 804.0
784(25) 0.001600 736.0 804.5
782(25) 0.001600 735.8 806.5
783(25) 0.001600 735.7 809.9
855(27) 0.001372 735.5 815.0
799(26) 0.001479 735.3 821.7
787(26) 0.001479 735.1 830.2
801(26) 0.001479 735.0 840.5
859(27) 0.001372 734.8 852.7
876(27) 0.001372 734.6 866.7
902(27) 0.001372 734.5 882.3
891(27) 0.001372 734.3 899.2
940(28) 0.001276 734.1 916.7
1006(29) 0.001189 734.0 934.4
920(28) 0.001276 733.8 951.5
994(29) 0.001189 733.6 967.2
1002(29) 0.001189 733.5 980.7
1022(29) 0.001189 733.3 991.5
1019(29) 0.001189 733.1 999.2
1036(29) 0.001189 733.0 1003.6
1071(30) 0.001111 732.8 1004.9
1027(29) 0.001189 732.6 1003.4
1034(29) 0.001189 732.5 999.3
1010(29) 0.001189 732.3 992.9
1048(30) 0.001111 732.1 984.3
972(28) 0.001276 732.0 973.7
981(29) 0.001189 731.8 961.3
941(28) 0.001276 731.6 947.8
961(28) 0.001276 731.5 933.7
927(28) 0.001276 731.3 919.3
866(27) 0.001372 731.1 905.2
901(27) 0.001372 731.0 891.7
876(27) 0.001372 730.8 879.4
850(27) 0.001372 730.7 868.4
799(26) 0.001479 730.5 859.2
843(26) 0.001479 730.3 851.9
856(27) 0.001372 730.2 846.7
801(26) 0.001479 730.0 843.4
797(26) 0.001479 729.8 842.0
860(27) 0.001372 729.7 842.3
757(25) 0.001600 729.5 843.8
810(26) 0.001479 729.3 846.2
830(26) 0.001479 729.2 848.8
810(26) 0.001479 729.0 851.0
855(27) 0.001372 728.9 852.1
825(26) 0.001479 728.7 851.6
825(26) 0.001479 728.5 849.4
837(26) 0.001479 728.4 845.5
831(26) 0.001479 728.2 840.3
832(27) 0.001372 728.1 834.3
815(26) 0.001479 727.9 828.1
851(27) 0.001372 727.7 822.0
792(26) 0.001479 727.6 816.3
791(26) 0.001479 727.4 811.2
795(26) 0.001479 727.3 806.8
765(26) 0.001479 727.1 802.9
743(25) 0.001600 726.9 799.5
786(26) 0.001479 726.8 796.5
777(26) 0.001479 726.6 793.7
821(26) 0.001479 726.5 791.3
796(26) 0.001479 726.3 789.1
816(26) 0.001479 726.1 787.3
783(26) 0.001479 726.0 786.0
778(26) 0.001479 725.8 785.4
794(26) 0.001479 725.7 785.4
783(26) 0.001479 725.5 786.3
811(26) 0.001479 725.4 788.1
772(26) 0.001479 725.2 790.8
768(26) 0.001479 725.1 794.6
821(26) 0.001479 724.9 799.4
808(26) 0.001479 724.7 805.2
778(26) 0.001479 724.6 811.9
809(26) 0.001479 724.4 819.4
836(27) 0.001372 724.3 827.4
781(26) 0.001479 724.1 835.6
845(27) 0.001372 724.0 843.5
773(26) 0.001479 723.8 850.5
817(26) 0.001479 723.7 856.1
840(27) 0.001372 723.5 859.7
874(27) 0.001372 723.4 861.1
856(27) 0.001372 723.2 860.4
843(27) 0.001372 723.1 857.8
805(26) 0.001479 722.9 854.0
844(27) 0.001372 722.7 849.5
901(28) 0.001276 722.6 844.7
871(27) 0.001372 722.4 839.9
822(26) 0.001479 722.3 835.4
837(27) 0.001372 722.1 831.2
839(27) 0.001372 722.0 827.4
786(26) 0.001479 721.8 824.1
845(27) 0.001372 721.7 821.3
849(27) 0.001372 721.5 819.2
812(26) 0.001479 721.4 817.8
866(27) 0.001372 721.2 817.4
833(27) 0.001372 721.1 818.0
809(26) 0.001479 720.9 819.5
823(26) 0.001479 720.8 822.0
847(27) 0.001372 720.7 825.4
839(27) 0.001372 720.5 829.4
888(27) 0.001372 720.4 834.0
862(27) 0.001372 720.2 839.0
861(27) 0.001372 720.1 844.3
869(27) 0.001372 719.9 849.5
866(27) 0.001372 719.8 854.6
840(27) 0.001372 719.6 859.3
855(27) 0.001372 719.5 863.6
899(28) 0.001276 719.3 867.6
881(27) 0.001372 719.2 871.6
812(26) 0.001479 719.0 875.9
801(26) 0.001479 718.9 881.1
898(28) 0.001276 718.8 887.5
863(27) 0.001372 718.6 895.5
868(27) 0.001372 718.5 905.2
892(28) 0.001276 718.3 916.6
962(29) 0.001189 718.2 929.4
940(28) 0.001276 718.0 943.3
1002(29) 0.001189 717.9 957.8
959(29) 0.001189 717.8 972.2
996(29) 0.001189 717.6 985.8
970(29) 0.001189 717.5 997.8
1013(29) 0.001189 717.3 1007.7
1035(30) 0.001111 717.2 1014.9
1033(30) 0.001111 717.1 1018.9
1007(29) 0.001189 716.9 1019.6
1012(29) 0.001189 716.8 1017.4
1036(30) 0.001111 716.6 1012.8
1021(29) 0.001189 716.5 1007.0
989(29) 0.001189 716.4 1000.9
1061(30) 0.001111 716.2 995.7
1085(30) 0.001111 716.1 992.1
997(29) 0.001189 716.0 990.6
1034(30) 0.001111 715.8 991.4
986(29) 0.001189 715.7 994.3
1000(29) 0.001189 715.5 999.0
1053(30) 0.001111 715.4 1004.8
1082(30) 0.001111 715.3 1010.7
1056(30) 0.001111 715.1 1015.5
1012(29) 0.001189 715.0 1017.9
1046(30) 0.001111 714.9 1017.0
1084(30) 0.001111 714.7 1012.0
1042(30) 0.001111 714.6 1003.2
1018(29) 0.001189 714.5 991.1
977(29) 0.001189 714.3 976.6
974(29) 0.001189 714.2 960.8
901(28) 0.001276 714.1 944.5
946(28) 0.001276 713.9 928.4
924(28) 0.001276 713.8 913.0
845(27) 0.001372 713.7 898.7
818(26) 0.001479 713.6 885.6
840(27) 0.001372 713.4 873.9
866(26) 0.001479 713.3 863.6
894(26) 0.001479 713.2 855.0
831(25) 0.001600 713.0 848.0
837(25) 0.001600 712.9 842.7
797(25) 0.001600 712.8 839.0
842(26) 0.001479 712.6 836.9
840(26) 0.001479 712.5 836.4
857(26) 0.001479 712.4 837.2
827(25) 0.001600 712.3 839.4
841(26) 0.001479 712.1 842.6
840(26) 0.001479 712.0 846.8
874(26) 0.001479 711.9 851.7
863(26) 0.001479 711.8 857.3
865(26) 0.001479 711.6 863.1
875(26) 0.001479 711.5 869.2
887(26) 0.001479 711.4 875.0
883(26) 0.001479 711.3 880.6
872(26) 0.001479 711.1 885.7
887(26) 0.001479 711.0 890.2
928(27) 0.001372 710.9 894.2
908(27) 0.001372 710.8 897.9
925(27) 0.001372 710.7 901.6
868(26) 0.001479 710.5 905.4
937(27) 0.001372 710.4 909.5
964(27) 0.001372 710.3 914.0
898(26) 0.001479 710.2 918.7
906(27) 0.001372 710.1 923.5
952(27) 0.001372 709.9 928.0
928(27) 0.001372 709.8 932.0
974(28) 0.001276 709.7 935.3
964(27) 0.001372 709.6 937.6
972(27) 0.001372 709.5 938.8
966(27) 0.001372 709.3 938.5
955(27) 0.001372 709.2 936.7
982(28) 0.001276 709.1 933.2
949(27) 0.001372 709.0 927.9
952(27) 0.001372 708.9 921.2
934(27) 0.001372 708.8 913.3
910(27) 0.001372 708.7 904.5
914(27) 0.001372 708.5 895.1
908(27) 0.001372 708.4 885.5
840(26) 0.001479 708.3 875.9
857(26) 0.001479 708.2 866.5
859(26) 0.001479 708.1 857.5
862(26) 0.001479 708.0 849.2
873(26) 0.001479 707.9 841.6
821(25) 0.001600 707.8 834.9
818(25) 0.001600 707.6 829.1
806(25) 0.001600 707.5 824.2
815(25) 0.001600 707.4 820.3
831(25) 0.001600 707.3 817.1
822(25) 0.001600 707.2 814.6
803(25) 0.001600 707.1 812.5
832(25) 0.001600 707.0 810.7
790(25) 0.001600 706.9 808.8
814(25) 0.001600 706.8 806.8
797(25) 0.001600 706.7 804.5
765(24) 0.001736 706.6 802.0
770(24) 0.001736 706.5 799.1
787(25) 0.001600 706.4 796.0
774(24) 0.001736 706.2 792.8
750(24) 0.001736 706.1 789.6
795(25) 0.001600 706.0 786.5
812(25) 0.001600 705.9 783.6
771(24) 0.001736 705.8 781.1
753(24) 0.001736 705.7 779.0
761(24) 0.001736 705.6 777.3
790(25) 0.001600 705.5 776.2
745(24) 0.001736 705.4 775.6
752(24) 0.001736 705.3 775.7
763(24) 0.001736 705.2 776.3
746(24) 0.001736 705.1 777.4
794(25) 0.001600 705.0 779.0
773(24) 0.001736 704.9 781.0
751(24) 0.001736 704.8 783.4
748(24) 0.001736 704.7 786.0
789(25) 0.001600 704.6 788.9
803(25) 0.001600 704.5 792.1
796(25) 0.001600 704.4 795.4
791(25) 0.001600 704.3 799.1
817(25) 0.001600 704.2 803.1
817(25) 0.001600 704.1 807.4
820(25) 0.001600 704.0 812.1
776(25) 0.001600 704.0 817.2
799(25) 0.001600 703.9 822.5
797(25) 0.001600 703.8 828.1
830(25) 0.001600 703.7 833.7
813(25) 0.001600 703.6 839.4
820(25) 0.001600 703.5 845.0
829(25) 0.001600 703.4 850.6
856(26) 0.001479 703.3 856.3
865(26) 0.001479 703.2 862.0
833(25) 0.001600 703.1 867.9
851(26) 0.001479 703.0 874.1
885(26) 0.001479 702.9 880.5
889(26) 0.001479 702.9 887.0
894(26) 0.001479 702.8 893.5
932(27) 0.001372 702.7 899.8
926(27) 0.001372 702.6 905.8
919(37) 0.000730 703. 911.
934(27) 0.001372 702.4 915.6
929(27) 0.001372 702.3 919.0
998(28) 0.001276 702.2 921.1
954(27) 0.001372 702.2 921.9
980(27) 0.001372 702.1 921.3
974(27) 0.001372 702.0 919.3
925(27) 0.001372 701.9 916.1
968(27) 0.001372 701.8 911.7
950(27) 0.001372 701.7 906.5
889(26) 0.001479 701.7 900.6
903(26) 0.001479 701.6 894.5
901(26) 0.001479 701.5 888.4
904(26) 0.001479 701.4 882.6
895(26) 0.001479 701.3 877.2
879(26) 0.001479 701.2 872.5
912(27) 0.001372 701.2 868.3
880(26) 0.001479 701.1 864.6
895(26) 0.001479 701.0 861.3
880(26) 0.001479 700.9 858.0
873(26) 0.001479 700.9 854.6
844(25) 0.001600 700.8 850.9
812(25) 0.001600 700.7 846.8
845(26) 0.001479 700.6 842.3
852(26) 0.001479 700.5 837.6
822(25) 0.001600 700.5 832.8
804(25) 0.001600 700.4 828.1
816(25) 0.001600 700.3 823.7
792(25) 0.001600 700.2 819.9
766(24) 0.001736 700.2 816.8
780(24) 0.001736 700.1 814.5
759(24) 0.001736 700.0 813.2
788(25) 0.001600 700.0 812.8
805(25) 0.001600 699.9 813.4
764(24) 0.001736 699.8 814.9
743(24) 0.001736 699.7 817.3
801(25) 0.001600 699.7 820.4
822(25) 0.001600 699.6 824.1
828(25) 0.001600 699.5 828.2
789(25) 0.001600 699.5 832.4
774(24) 0.001736 699.4 836.5
787(25) 0.001600 699.3 840.1
822(25) 0.001600 699.3 843.2
834(25) 0.001600 699.2 845.6
829(25) 0.001600 699.1 847.3
851(26) 0.001479 699.1 848.4
853(26) 0.001479 699.0 849.1
825(25) 0.001600 698.9 849.3
820(25) 0.001600 698.9 849.2
806(25) 0.001600 698.8 849.0
818(25) 0.001600 698.7 848.5
810(25) 0.001600 698.7 847.7
846(26) 0.001479 698.6 846.7
861(26) 0.001479 698.6 845.5
843(25) 0.001600 698.5 843.9
820(25) 0.001600 698.4 842.2
818(25) 0.001600 698.4 840.3
830(25) 0.001600 698.3 838.4
819(25) 0.001600 698.3 836.7
837(25) 0.001600 698.2 835.3
825(25) 0.001600 698.1 834.3
813(25) 0.001600 698.1 833.8
831(25) 0.001600 698.0 833.7
821(25) 0.001600 698.0 834.2
820(25) 0.001600 697.9 835.0
813(25) 0.001600 697.8 836.1
836(25) 0.001600 697.8 837.2
862(26) 0.001479 697.7 838.1
851(26) 0.001479 697.7 838.7
836(25) 0.001600 697.6 838.7
844(25) 0.001600 697.6 838.2
880(26) 0.001479 697.5 837.1
878(26) 0.001479 697.5 835.4
874(26) 0.001479 697.4 833.2
844(25) 0.001600 697.4 830.7
866(26) 0.001479 697.3 828.0
838(25) 0.001600 697.3 825.2
866(26) 0.001479 697.2 822.4
837(25) 0.001600 697.2 819.7
835(25) 0.001600 697.1 817.2
826(25) 0.001600 697.1 814.8
801(25) 0.001600 697.0 812.5
790(25) 0.001600 697.0 810.2
794(25) 0.001600 696.9 807.9
815(25) 0.001600 696.9 805.6
815(25) 0.001600 696.8 803.1
786(25) 0.001600 696.8 800.6
783(25) 0.001600 696.7 798.0
791(25) 0.001600 696.7 795.4
788(25) 0.001600 696.6 792.8
788(25) 0.001600 696.6 790.3
794(25) 0.001600 696.5 788.0
779(24) 0.001736 696.5 785.9
793(25) 0.001600 696.5 784.0
770(24) 0.001736 696.4 782.3
761(24) 0.001736 696.4 780.8
781(25) 0.001600 696.3 779.6
767(24) 0.001736 696.3 778.7
764(24) 0.001736 696.3 778.1
750(24) 0.001736 696.2 777.7
775(24) 0.001736 696.2 777.8
767(24) 0.001736 696.1 778.1
763(24) 0.001736 696.1 778.9
773(24) 0.001736 696.1 780.0
766(24) 0.001736 696.0 781.5
790(25) 0.001600 696.0 783.4
811(25) 0.001600 695.9 785.7
816(25) 0.001600 695.9 788.2
808(25) 0.001600 695.9 791.1
795(25) 0.001600 695.8 794.2
838(25) 0.001600 695.8 797.4
828(25) 0.001600 695.8 800.6
805(25) 0.001600 695.7 803.8
818(25) 0.001600 695.7 806.8
838(25) 0.001600 695.7 809.7
842(25) 0.001600 695.6 812.5
833(25) 0.001600 695.6 815.2
837(25) 0.001600 695.6 817.9
837(25) 0.001600 695.5 820.8
815(25) 0.001600 695.5 823.9
835(25) 0.001600 695.5 827.4
803(25) 0.001600 695.4 831.3
822(25) 0.001600 695.4 835.8
864(26) 0.001479 695.4 840.7
851(26) 0.001479 695.4 846.2
867(26) 0.001479 695.3 852.1
881(26) 0.001479 695.3 858.4
868(26) 0.001479 695.3 865.0
843(25) 0.001600 695.2 871.8
873(26) 0.001479 695.2 878.6
912(26) 0.001479 695.2 885.4
932(27) 0.001372 695.2 891.9
910(26) 0.001479 695.1 897.9
935(27) 0.001372 695.1 903.3
946(27) 0.001372 695.1 907.7
920(27) 0.001372 695.1 911.0
907(26) 0.001479 695.0 913.0
944(27) 0.001372 695.0 913.6
971(27) 0.001372 695.0 912.7
922(27) 0.001372 695.0 910.6
896(26) 0.001479 694.9 907.3
916(26) 0.001479 694.9 903.0
916(26) 0.001479 694.9 897.8
910(26) 0.001479 694.9 892.1
863(26) 0.001479 694.9 885.9
838(25) 0.001600 694.8 879.4
850(26) 0.001479 694.8 872.7
864(26) 0.001479 694.8 865.8
834(25) 0.001600 694.8 858.8
831(25) 0.001600 694.8 851.7
860(26) 0.001479 694.8 844.7
864(26) 0.001479 694.7 837.7
837(25) 0.001600 694.7 830.8
856(26) 0.001479 694.7 824.3
854(26) 0.001479 694.7 818.1
854(26) 0.001479 694.7 812.4
860(26) 0.001479 694.7 807.3
827(25) 0.001600 694.6 802.9
829(25) 0.001600 694.6 799.2
848(25) 0.001600 694.6 796.4
838(25) 0.001600 694.6 794.3
825(25) 0.001600 694.6 793.2
808(25) 0.001600 694.6 792.9
857(26) 0.001479 694.6 793.6
841(25) 0.001600 694.5 795.3
852(26) 0.001479 694.5 797.8
842(25) 0.001600 694.5 801.4
904(26) 0.001479 694.5 805.9
901(26) 0.001479 694.5 811.3
868(26) 0.001479 694.5 817.6
856(26) 0.001479 694.5 824.8
869(26) 0.001479 694.5 832.8
881(26) 0.001479 694.5 841.5
909(26) 0.001479 694.5 850.8
916(26) 0.001479 694.4 860.6
888(26) 0.001479 694.4 870.7
856(26) 0.001479 694.4 881.0
896(26) 0.001479 694.4 891.0
935(27) 0.001372 694.4 900.7
967(27) 0.001372 694.4 909.7
956(27) 0.001372 694.4 917.8
913(26) 0.001479 694.4 924.8
967(27) 0.001372 694.4 930.4
972(27) 0.001372 694.4 934.6
928(27) 0.001372 694.4 937.4
964(27) 0.001372 694.4 939.0
994(28) 0.001276 694.4 939.4
975(27) 0.001372 694.4 938.9
938(27) 0.001372 694.4 937.7
973(27) 0.001372 694.4 935.8
992(28) 0.001276 694.4 933.5
934(27) 0.001372 694.4 930.7
939(27) 0.001372 694.4 927.5
982(27) 0.001372 694.4 923.8
932(27) 0.001372 694.4 919.8
935(27) 0.001372 694.4 915.3
915(26) 0.001479 694.4 910.5
921(27) 0.001372 694.4 905.3
919(27) 0.001372 694.4 899.8
893(26) 0.001479 694.4 894.2
891(26) 0.001479 694.4 888.5
886(27) 0.001372 694.4 882.8
845(26) 0.001479 694.4 877.3
877(27) 0.001372 694.4 872.0
859(26) 0.001479 694.4 867.1
871(27) 0.001372 694.4 862.6
864(26) 0.001479 694.4 858.5
846(26) 0.001479 694.4 854.8
871(27) 0.001372 694.4 851.5
850(26) 0.001479 694.4 848.5
859(26) 0.001479 694.4 845.9
842(26) 0.001479 694.4 843.6
875(27) 0.001372 694.4 841.5
860(26) 0.001479 694.4 839.8
834(26) 0.001479 694.4 838.4
846(26) 0.001479 694.4 837.4
838(26) 0.001479 694.4 836.8
804(25) 0.001600 694.4 836.7
808(26) 0.001479 694.4 837.1
864(26) 0.001479 694.4 838.1
804(25) 0.001600 694.5 839.6
860(26) 0.001479 694.5 841.6
852(26) 0.001479 694.5 844.0
840(26) 0.001479 694.5 846.9
870(26) 0.001479 694.5 850.2
847(26) 0.001479 694.5 853.7
861(26) 0.001479 694.5 857.5
859(26) 0.001479 694.5 861.5
878(27) 0.001372 694.5 865.6
866(26) 0.001479 694.5 869.8
866(26) 0.001479 694.6 874.0
905(27) 0.001372 694.6 878.0
854(26) 0.001479 694.6 881.9
885(27) 0.001372 694.6 885.6
875(27) 0.001372 694.6 889.0
880(27) 0.001372 694.6 892.1
884(27) 0.001372 694.6 894.9
890(27) 0.001372 694.6 897.6
884(27) 0.001372 694.6 900.2
916(27) 0.001372 694.7 902.8
910(27) 0.001372 694.7 905.6
925(27) 0.001372 694.7 908.7
930(27) 0.001372 694.7 912.1
952(28) 0.001276 694.7 916.0
896(27) 0.001372 694.7 920.3
909(27) 0.001372 694.7 925.0
910(27) 0.001372 694.8 929.9
937(28) 0.001276 694.8 935.1
949(28) 0.001276 694.8 940.3
901(27) 0.001372 694.8 945.3
916(27) 0.001372 694.8 950.0
984(28) 0.001276 694.8 954.2
954(28) 0.001276 694.9 957.7
961(28) 0.001276 694.9 960.6
944(28) 0.001276 694.9 962.7
983(28) 0.001276 694.9 964.1
963(28) 0.001276 694.9 965.0
961(28) 0.001276 694.9 965.3
989(28) 0.001276 695.0 965.2
992(28) 0.001276 695.0 964.7
994(28) 0.001276 695.0 963.9
994(28) 0.001276 695.0 962.9
987(28) 0.001276 695.0 961.7
966(28) 0.001276 695.1 960.5
949(28) 0.001276 695.1 959.3
961(28) 0.001276 695.1 958.1
1002(28) 0.001276 695.1 957.2
971(28) 0.001276 695.1 956.6
985(28) 0.001276 695.2 956.4
976(28) 0.001276 695.2 956.6
983(28) 0.001276 695.2 957.2
977(28) 0.001276 695.2 958.2
998(28) 0.001276 695.2 959.4
1037(29) 0.001189 695.3 960.8
1010(29) 0.001189 695.3 962.3
981(28) 0.001276 695.3 963.5
1001(28) 0.001276 695.3 964.4
987(28) 0.001276 695.3 964.7
1016(29) 0.001189 695.4 964.4
1005(29) 0.001189 695.4 963.2
970(28) 0.001276 695.4 961.1
978(28) 0.001276 695.4 958.0
1002(28) 0.001276 695.5 953.9
969(28) 0.001276 695.5 948.9
975(28) 0.001276 695.5 943.0
985(28) 0.001276 695.5 936.5
947(28) 0.001276 695.5 929.5
965(28) 0.001276 695.6 922.1
922(27) 0.001372 695.6 914.7
906(27) 0.001372 695.6 907.3
915(27) 0.001372 695.6 900.1
913(27) 0.001372 695.7 893.2
961(28) 0.001276 695.7 886.7
892(27) 0.001372 695.7 880.7
859(26) 0.001479 695.7 875.3
844(26) 0.001479 695.8 870.3
835(26) 0.001479 695.8 865.8
827(26) 0.001479 695.8 861.7
822(26) 0.001479 695.8 858.0
848(26) 0.001479 695.9 854.5
833(21) 0.002268 695.9 851.3
858(27) 0.001372 695.9 848.1
871(27) 0.001372 695.9 845.0
786(26) 0.001479 696.0 841.9
868(27) 0.001372 696.0 838.8
831(27) 0.001372 696.0 835.6
847(27) 0.001372 696.0 832.4
844(27) 0.001372 696.1 829.3
840(27) 0.001372 696.1 826.2
863(27) 0.001372 696.1 823.3
813(26) 0.001479 696.2 820.5
753(25) 0.001600 696.2 817.9
786(26) 0.001479 696.2 815.6
765(26) 0.001479 696.2 813.6
805(26) 0.001479 696.3 811.9
834(27) 0.001372 696.3 810.5
799(26) 0.001479 696.3 809.5
822(26) 0.001479 696.3 808.9
820(26) 0.001479 696.4 808.7
809(26) 0.001479 696.4 808.9
811(26) 0.001479 696.4 809.5
769(26) 0.001479 696.5 810.5
791(26) 0.001479 696.5 811.9
780(26) 0.001479 696.5 813.8
776(26) 0.001479 696.5 815.9
829(27) 0.001372 696.6 818.4
832(27) 0.001372 696.6 821.2
819(26) 0.001479 696.6 824.1
842(27) 0.001372 696.7 827.2
815(26) 0.001479 696.7 830.4
771(26) 0.001479 696.7 833.5
801(26) 0.001479 696.7 836.6
860(27) 0.001372 696.8 839.5
852(27) 0.001372 696.8 842.3
836(27) 0.001372 696.8 844.9
892(28) 0.001276 696.9 847.4
840(27) 0.001372 696.9 849.7
845(27) 0.001372 696.9 851.8
863(27) 0.001372 696.9 853.9
869(27) 0.001372 697.0 855.8
864(27) 0.001372 697.0 857.7
874(27) 0.001372 697.0 859.4
888(28) 0.001276 697.1 860.9
854(27) 0.001372 697.1 862.2
840(27) 0.001372 697.1 863.2
856(27) 0.001372 697.1 863.9
866(27) 0.001372 697.2 864.0
902(28) 0.001276 697.2 863.7
849(27) 0.001372 697.2 862.8
827(27) 0.001372 697.3 861.4
870(27) 0.001372 697.3 859.3
817(26) 0.001479 697.3 856.8
870(27) 0.001372 697.3 853.7
870(27) 0.001372 697.4 850.3
842(27) 0.001372 697.4 846.6
825(27) 0.001372 697.4 842.8
803(26) 0.001479 697.5 838.9
835(27) 0.001372 697.5 835.1
829(27) 0.001372 697.5 831.3
821(26) 0.001479 697.6 827.9
776(26) 0.001479 697.6 824.7
778(26) 0.001479 697.6 821.9
761(25) 0.001600 697.6 819.6
793(26) 0.001479 697.7 817.7
768(26) 0.001479 697.7 816.4
839(27) 0.001372 697.7 815.7
766(26) 0.001479 697.8 815.5
803(26) 0.001479 697.8 816.0
769(26) 0.001479 697.8 817.1
767(26) 0.001479 697.8 818.9
805(26) 0.001479 697.9 821.4
784(26) 0.001479 697.9 824.5
775(26) 0.001479 697.9 828.3
742(25) 0.001600 698.0 832.7
774(26) 0.001479 698.0 837.8
791(26) 0.001479 698.0 843.5
795(26) 0.001479 698.0 849.8
816(26) 0.001479 698.1 856.6
812(26) 0.001479 698.1 864.1
839(27) 0.001372 698.1 872.0
836(27) 0.001372 698.2 880.3
860(27) 0.001372 698.2 889.0
874(27) 0.001372 698.2 898.1
884(27) 0.001372 698.2 907.4
925(28) 0.001276 698.3 916.8
928(28) 0.001276 698.3 926.4
955(29) 0.001189 698.3 936.0
882(27) 0.001372 698.4 945.6
959(29) 0.001189 698.4 955.0
1000(29) 0.001189 698.4 964.2
994(29) 0.001189 698.4 973.2
982(29) 0.001189 698.5 981.9
1016(29) 0.001189 698.5 990.1
1059(30) 0.001111 698.5 997.9
1025(30) 0.001111 698.6 1005.1
1025(30) 0.001111 698.6 1011.9
1062(30) 0.001111 698.6 1018.1
1071(30) 0.001111 698.6 1023.7
1067(30) 0.001111 698.7 1028.8
1043(30) 0.001111 698.7 1033.2
1010(29) 0.001189 698.7 1036.9
1096(30) 0.001111 698.8 1040.0
1068(29) 0.001189 698.8 1042.4
1079(29) 0.001189 698.8 1044.0
1057(29) 0.001189 698.8 1044.9
1067(29) 0.001189 698.9 1045.0
1110(30) 0.001111 698.9 1044.4
1057(29) 0.001189 698.9 1043.1
1035(29) 0.001189 698.9 1041.3
1036(29) 0.001189 699.0 1038.9
1082(29) 0.001189 699.0 1036.0
1119(30) 0.001111 699.0 1032.8
1028(29) 0.001189 699.0 1029.3
1057(29) 0.001189 699.1 1025.5
1024(29) 0.001189 699.1 1021.5
1052(29) 0.001189 699.1 1017.2
1040(29) 0.001189 699.2 1012.7
1015(29) 0.001189 699.2 1008.0
1008(28) 0.001276 699.2 1002.8
1005(28) 0.001276 699.2 997.2
974(28) 0.001276 699.3 991.2
1011(29) 0.001189 699.3 984.6
997(28) 0.001276 699.3 977.5
968(28) 0.001276 699.3 969.9
981(28) 0.001276 699.4 961.9
923(27) 0.001372 699.4 953.4
955(28) 0.001276 699.4 944.7
939(27) 0.001372 699.4 935.8
938(27) 0.001372 699.5 926.8
895(27) 0.001372 699.5 917.8
850(26) 0.001479 699.5 909.0
891(27) 0.001372 699.5 900.3
880(27) 0.001372 699.6 892.0
861(26) 0.001479 699.6 884.0
866(26) 0.001479 699.6 876.4
844(26) 0.001479 699.6 869.3
857(26) 0.001479 699.7 862.7
797(25) 0.001600 699.7 856.6
796(25) 0.001600 699.7 851.0
819(26) 0.001479 699.7 845.9
777(25) 0.001600 699.7 841.4
832(26) 0.001479 699.8 837.5
807(25) 0.001600 699.8 834.1
809(26) 0.001479 699.8 831.2
783(25) 0.001600 699.8 828.9
770(25) 0.001600 699.9 827.1
788(25) 0.001600 699.9 825.7
799(25) 0.001600 699.9 824.9
783(25) 0.001600 699.9 824.4
766(25) 0.001600 699.9 824.4
787(25) 0.001600 700.0 824.8
812(26) 0.001479 700.0 825.4
835(26) 0.001479 700.0 826.4
785(25) 0.001600 700.0 827.5
797(25) 0.001600 700.1 828.9
772(25) 0.001600 700.1 830.4
807(25) 0.001600 700.1 831.9
797(25) 0.001600 700.1 833.5
877(27) 0.001372 700.1 835.2
813(26) 0.001479 700.2 836.7
828(26) 0.001479 700.2 838.3
794(25) 0.001600 700.2 839.8
840(26) 0.001479 700.2 841.2
860(26) 0.001479 700.2 842.6
859(26) 0.001479 700.3 844.0
848(26) 0.001479 700.3 845.4
826(26) 0.001479 700.3 846.7
825(26) 0.001479 700.3 848.1
840(26) 0.001479 700.3 849.5
848(26) 0.001479 700.4 850.9
901(27) 0.001372 700.4 852.3
828(26) 0.001479 700.4 853.7
832(26) 0.001479 700.4 855.1
833(26) 0.001479 700.4 856.4
851(26) 0.001479 700.4 857.7
903(27) 0.001372 700.5 858.8
835(26) 0.001479 700.5 859.8
861(26) 0.001479 700.5 860.6
874(27) 0.001372 700.5 861.3
896(27) 0.001372 700.5 861.8
843(26) 0.001479 700.6 862.1
891(27) 0.001372 700.6 862.3
882(27) 0.001372 700.6 862.3
846(26) 0.001479 700.6 862.3
840(26) 0.001479 700.6 862.2
872(26) 0.001479 700.6 862.1
792(25) 0.001600 700.7 862.1
884(27) 0.001372 700.7 862.0
922(27) 0.001372 700.7 862.1
867(26) 0.001479 700.7 862.3
860(26) 0.001479 700.7 862.7
848(26) 0.001479 700.7 863.2
814(26) 0.001479 700.8 863.9
847(26) 0.001479 700.8 864.8
864(26) 0.001479 700.8 865.9
835(26) 0.001479 700.8 867.1
909(27) 0.001372 700.8 868.5
842(26) 0.001479 700.8 870.1
848(26) 0.001479 700.8 871.9
876(27) 0.001372 700.9 873.7
907(38) 0.000693 701. 876.
896(26) 0.001479 700.9 877.8
878(26) 0.001479 700.9 879.9
892(26) 0.001479 700.9 882.2
889(26) 0.001479 700.9 884.5
877(26) 0.001479 700.9 886.9
891(26) 0.001479 701.0 889.4
936(27) 0.001372 701.0 891.9
972(27) 0.001372 701.0 894.4
985(28) 0.001276 701.0 896.9
946(27) 0.001372 701.0 899.4
929(27) 0.001372 701.0 901.8
982(27) 0.001372 701.0 904.2
937(27) 0.001372 701.1 906.5
970(27) 0.001372 701.1 908.7
952(27) 0.001372 701.1 910.8
937(27) 0.001372 701.1 912.8
981(27) 0.001372 701.1 914.7
999(28) 0.001276 701.1 916.4
991(28) 0.001276 701.1 917.9
997(28) 0.001276 701.1 919.4
1004(28) 0.001276 701.2 920.6
1008(28) 0.001276 701.2 921.7
992(28) 0.001276 701.2 922.7
980(27) 0.001372 701.2 923.5
938(27) 0.001372 701.2 924.1
929(27) 0.001372 701.2 924.5
991(28) 0.001276 701.2 924.8
975(27) 0.001372 701.2 924.9
987(28) 0.001276 701.3 924.8
968(27) 0.001372 701.3 924.6
973(27) 0.001372 701.3 924.3
955(27) 0.001372 701.3 923.9
960(27) 0.001372 701.3 923.4
967(27) 0.001372 701.3 922.7
983(27) 0.001372 701.3 922.0
958(27) 0.001372 701.3 921.2
981(27) 0.001372 701.4 920.3
939(27) 0.001372 701.4 919.4
974(27) 0.001372 701.4 918.5
971(27) 0.001372 701.4 917.7
960(27) 0.001372 701.4 916.8
978(27) 0.001372 701.4 916.1
988(28) 0.001276 701.4 915.5
998(28) 0.001276 701.4 915.1
973(27) 0.001372 701.4 914.9
944(27) 0.001372 701.5 914.9
943(27) 0.001372 701.5 915.1
946(27) 0.001372 701.5 915.5
918(27) 0.001372 701.5 916.2
947(27) 0.001372 701.5 917.1
945(27) 0.001372 701.5 918.2
945(27) 0.001372 701.5 919.5
922(27) 0.001372 701.5 921.0
949(27) 0.001372 701.6 922.6
930(27) 0.001372 701.6 924.3
936(27) 0.001372 701.6 926.0
947(27) 0.001372 701.6 927.8
938(27) 0.001372 701.6 929.7
945(27) 0.001372 701.6 931.5
940(27) 0.001372 701.6 933.4
948(27) 0.001372 701.6 935.3
986(28) 0.001276 701.6 937.3
999(28) 0.001276 701.7 939.3
904(26) 0.001479 701.7 941.3
918(27) 0.001372 701.7 943.3
998(28) 0.001276 701.7 945.4
977(27) 0.001372 701.7 947.6
947(27) 0.001372 701.7 949.7
972(27) 0.001372 701.7 951.8
981(27) 0.001372 701.7 953.9
953(27) 0.001372 701.8 955.9
986(28) 0.001276 701.8 957.7
987(28) 0.001276 701.8 959.3
975(27) 0.001372 701.8 960.8
963(27) 0.001372 701.8 961.9
970(27) 0.001372 701.8 962.8
969(27) 0.001372 701.8 963.2
946(27) 0.001372 701.9 963.3
950(27) 0.001372 701.9 963.1
954(27) 0.001372 701.9 962.3
947(27) 0.001372 701.9 961.2
974(27) 0.001372 701.9 959.6
948(27) 0.001372 701.9 957.6
966(27) 0.001372 701.9 955.2
987(28) 0.001276 702.0 952.4
985(28) 0.001276 702.0 949.2
929(27) 0.001372 702.0 945.8
934(27) 0.001372 702.0 942.1
920(27) 0.001372 702.0 938.3
894(26) 0.001479 702.0 934.3
904(26) 0.001479 702.1 930.3
909(26) 0.001479 702.1 926.3
949(27) 0.001372 702.1 922.4
906(26) 0.001479 702.1 918.6
892(26) 0.001479 702.1 914.9
883(26) 0.001479 702.1 911.5
905(26) 0.001479 702.2 908.3
904(26) 0.001479 702.2 905.3
875(26) 0.001479 702.2 902.7
930(22) 0.002066 702.2 900.3
900(26) 0.001479 702.2 898.3
879(26) 0.001479 702.3 896.5
903(26) 0.001479 702.3 895.1
876(26) 0.001479 702.3 893.9
846(25) 0.001600 702.3 893.0
866(26) 0.001479 702.3 892.3
894(26) 0.001479 702.4 891.8
907(26) 0.001479 702.4 891.6
848(25) 0.001600 702.4 891.5
891(26) 0.001479 702.4 891.5
914(26) 0.001479 702.4 891.7
903(26) 0.001479 702.5 892.0
928(27) 0.001372 702.5 892.3
879(26) 0.001479 702.5 892.7
889(26) 0.001479 702.5 893.1
939(27) 0.001372 702.6 893.5
928(27) 0.001372 702.6 893.9
897(26) 0.001479 702.6 894.2
922(27) 0.001372 702.6 894.5
888(26) 0.001479 702.7 894.6
901(26) 0.001479 702.7 894.6
888(26) 0.001479 702.7 894.6
894(26) 0.001479 702.8 894.4
908(26) 0.001479 702.8 894.1
925(27) 0.001372 702.8 893.6
915(26) 0.001479 702.8 893.1
876(26) 0.001479 702.9 892.5
913(26) 0.001479 702.9 891.8
871(26) 0.001479 702.9 891.0
866(26) 0.001479 703.0 890.2
884(26) 0.001479 703.0 889.3
883(26) 0.001479 703.0 888.4
872(26) 0.001479 703.1 887.5
893(26) 0.001479 703.1 886.6
874(26) 0.001479 703.1 885.6
863(26) 0.001479 703.2 884.7
868(26) 0.001479 703.2 883.6
867(26) 0.001479 703.3 882.6
834(25) 0.001600 703.3 881.5
873(26) 0.001479 703.3 880.4
866(26) 0.001479 703.4 879.2
886(26) 0.001479 703.4 877.9
901(26) 0.001479 703.5 876.6
921(27) 0.001372 703.5 875.2
888(26) 0.001479 703.5 873.7
866(26) 0.001479 703.6 872.3
856(26) 0.001479 703.6 870.7
850(25) 0.001600 703.7 869.2
867(26) 0.001479 703.7 867.6
897(26) 0.001479 703.8 866.0
846(25) 0.001600 703.8 864.5
842(25) 0.001600 703.9 863.0
853(26) 0.001479 703.9 861.5
866(26) 0.001479 704.0 860.2
861(26) 0.001479 704.0 858.9
842(25) 0.001600 704.1 857.7
878(26) 0.001479 704.1 856.6
855(26) 0.001479 704.2 855.6
859(26) 0.001479 704.2 854.8
854(26) 0.001479 704.3 854.0
877(26) 0.001479 704.3 853.4
884(26) 0.001479 704.4 852.9
840(25) 0.001600 704.5 852.5
865(26) 0.001479 704.5 852.2
857(26) 0.001479 704.6 852.0
861(26) 0.001479 704.7 851.8
878(26) 0.001479 704.7 851.7
854(26) 0.001479 704.8 851.7
855(26) 0.001479 704.8 851.6
799(25) 0.001600 704.9 851.6
833(25) 0.001600 705.0 851.6
849(25) 0.001600 705.1 851.6
844(25) 0.001600 705.1 851.6
835(25) 0.001600 705.2 851.6
844(25) 0.001600 705.3 851.6
863(26) 0.001479 705.3 851.6
828(25) 0.001600 705.4 851.6
831(25) 0.001600 705.5 851.5
840(25) 0.001600 705.6 851.5
836(25) 0.001600 705.6 851.5
835(25) 0.001600 705.7 851.5
802(25) 0.001600 705.8 851.5
831(25) 0.001600 705.9 851.5
801(25) 0.001600 706.0 851.5
847(25) 0.001600 706.1 851.6
865(26) 0.001479 706.2 851.6
867(26) 0.001479 706.2 851.7
858(26) 0.001479 706.3 851.8
853(26) 0.001479 706.4 851.9
851(25) 0.001600 706.5 852.0
858(26) 0.001479 706.6 852.0
830(25) 0.001600 706.7 852.1
840(25) 0.001600 706.8 852.2
832(25) 0.001600 706.9 852.2
840(25) 0.001600 707.0 852.2
844(25) 0.001600 707.1 852.3
822(25) 0.001600 707.2 852.3
845(25) 0.001600 707.3 852.3
845(25) 0.001600 707.4 852.4
826(25) 0.001600 707.5 852.5
839(26) 0.001479 707.6 852.7
821(26) 0.001479 707.8 852.9
868(26) 0.001479 707.9 853.1
872(26) 0.001479 708.0 853.5
845(26) 0.001479 708.1 853.9
852(26) 0.001479 708.2 854.4
840(26) 0.001479 708.3 855.0
836(26) 0.001479 708.5 855.8
865(26) 0.001479 708.6 856.6
845(26) 0.001479 708.7 857.5
845(26) 0.001479 708.8 858.5
857(26) 0.001479 709.0 859.5
833(26) 0.001479 709.1 860.7
857(26) 0.001479 709.2 861.9
825(26) 0.001479 709.4 863.2
843(26) 0.001479 709.5 864.5
867(26) 0.001479 709.7 865.9
849(26) 0.001479 709.8 867.3
843(26) 0.001479 710.0 868.7
873(26) 0.001479 710.1 870.1
877(26) 0.001479 710.2 871.6
874(26) 0.001479 710.4 873.0
892(27) 0.001372 710.6 874.4
931(27) 0.001372 710.7 875.9
872(26) 0.001479 710.9 877.3
874(26) 0.001479 711.0 878.8
921(27) 0.001372 711.2 880.3
916(27) 0.001372 711.4 881.7
890(27) 0.001372 711.5 883.2
890(27) 0.001372 711.7 884.7
874(26) 0.001479 711.9 886.2
867(26) 0.001479 712.0 887.7
896(27) 0.001372 712.2 889.3
873(26) 0.001479 712.4 890.8
901(27) 0.001372 712.6 892.4
884(27) 0.001372 712.8 894.0
883(26) 0.001479 712.9 895.6
894(27) 0.001372 713.1 897.1
958(28) 0.001276 713.3 898.7
910(27) 0.001372 713.5 900.2
930(27) 0.001372 713.7 901.7
941(27) 0.001372 713.9 903.1
946(27) 0.001372 714.1 904.5
910(27) 0.001372 714.3 905.8
917(27) 0.001372 714.5 907.0
952(28) 0.001276 714.7 908.1
934(27) 0.001372 715.0 909.1
943(27) 0.001372 715.2 910.0
937(27) 0.001372 715.4 910.7
925(27) 0.001372 715.6 911.4
931(27) 0.001372 715.8 911.9
896(27) 0.001372 716.1 912.3
891(27) 0.001372 716.3 912.6
909(27) 0.001372 716.5 912.7
919(27) 0.001372 716.8 912.7
907(27) 0.001372 717.0 912.6
922(27) 0.001372 717.3 912.3
898(27) 0.001372 717.5 912.0
927(27) 0.001372 717.8 911.4
935(27) 0.001372 718.0 910.8
906(27) 0.001372 718.3 910.0
951(27) 0.001372 718.5 909.1
950(27) 0.001372 718.8 908.0
906(27) 0.001372 719.1 906.8
906(27) 0.001372 719.3 905.5
910(27) 0.001372 719.6 904.0
895(27) 0.001372 719.9 902.5
925(27) 0.001372 720.2 900.8
903(27) 0.001372 720.4 899.0
908(27) 0.001372 720.7 897.1
877(26) 0.001479 721.0 895.2
913(27) 0.001372 721.3 893.2
909(27) 0.001372 721.6 891.1
920(27) 0.001372 721.9 889.0
920(27) 0.001372 722.2 886.9
854(26) 0.001479 722.5 884.8
858(26) 0.001479 722.8 882.7
862(26) 0.001479 723.1 880.6
879(26) 0.001479 723.5 878.5
887(27) 0.001372 723.8 876.6
897(27) 0.001372 724.1 874.6
867(26) 0.001479 724.4 872.8
840(26) 0.001479 724.8 871.0
860(26) 0.001479 725.1 869.4
844(26) 0.001479 725.5 867.8
883(26) 0.001479 725.8 866.4
866(26) 0.001479 726.2 865.0
876(26) 0.001479 726.5 863.8
841(26) 0.001479 726.9 862.6
822(26) 0.001479 727.2 861.6
850(26) 0.001479 727.6 860.7
848(26) 0.001479 728.0 859.9
863(26) 0.001479 728.4 859.2
857(26) 0.001479 728.8 858.7
873(26) 0.001479 729.1 858.2
858(26) 0.001479 729.5 857.9
854(26) 0.001479 729.9 857.6
820(26) 0.001479 730.3 857.5
834(26) 0.001479 730.7 857.5
858(26) 0.001479 731.1 857.6
869(27) 0.001372 731.5 857.7
842(26) 0.001479 732.0 858.0
829(26) 0.001479 732.4 858.4
856(26) 0.001479 732.8 858.9
850(26) 0.001479 733.3 859.6
854(26) 0.001479 733.7 860.3
837(26) 0.001479 734.1 861.1
876(27) 0.001372 734.6 862.1
852(26) 0.001479 735.0 863.1
898(27) 0.001372 735.5 864.3
884(27) 0.001372 736.0 865.6
863(27) 0.001372 736.4 866.9
866(27) 0.001372 736.9 868.4
897(27) 0.001372 737.4 870.0
880(27) 0.001372 737.9 871.7
857(26) 0.001479 738.3 873.4
887(27) 0.001372 738.8 875.3
905(27) 0.001372 739.3 877.2
895(27) 0.001372 739.8 879.2
906(27) 0.001372 740.4 881.3
889(27) 0.001372 740.9 883.4
868(27) 0.001372 741.4 885.6
859(26) 0.001479 741.9 887.8
865(27) 0.001372 742.4 890.0
889(27) 0.001372 743.0 892.2
881(27) 0.001372 743.5 894.4
879(27) 0.001372 744.1 896.6
876(27) 0.001372 744.6 898.8
942(28) 0.001276 745.2 900.9
946(28) 0.001276 745.8 902.9
923(27) 0.001372 746.3 904.9
886(27) 0.001372 746.9 906.8
903(27) 0.001372 747.5 908.6
904(27) 0.001372 748.1 910.3
933(28) 0.001276 748.7 911.9
912(27) 0.001372 749.3 913.4
918(27) 0.001372 749.9 914.7
937(28) 0.001276 750.5 915.9
909(27) 0.001372 751.1 917.0
904(27) 0.001372 751.8 917.9
937(28) 0.001276 752.4 918.7
926(27) 0.001372 753.1 919.4
915(27) 0.001372 753.7 920.0
952(28) 0.001276 754.4 920.4
933(28) 0.001276 755.0 920.7
925(27) 0.001372 755.7 920.9
927(27) 0.001372 756.4 921.0
921(27) 0.001372 757.0 921.0
899(27) 0.001372 757.7 920.9
931(28) 0.001276 758.4 920.7
915(27) 0.001372 759.1 920.4
927(27) 0.001372 759.9 920.0
926(27) 0.001372 760.6 919.6
941(28) 0.001276 761.3 919.2
950(28) 0.001276 762.0 918.6
924(27) 0.001372 762.8 918.1
886(27) 0.001372 763.5 917.4
924(27) 0.001372 764.3 916.8
927(27) 0.001372 765.0 916.1
944(28) 0.001276 765.8 915.4
939(28) 0.001276 766.6 914.6
935(28) 0.001276 767.4 913.9
944(28) 0.001276 768.2 913.1
946(28) 0.001276 769.0 912.3
917(27) 0.001372 769.8 911.5
882(27) 0.001372 770.6 910.6
893(27) 0.001372 771.4 909.8
915(27) 0.001372 772.2 909.0
944(28) 0.001276 773.1 908.2
899(27) 0.001372 773.9 907.4
880(27) 0.001372 774.8 906.6
898(27) 0.001372 775.6 905.8
913(27) 0.001372 776.5 905.1
898(27) 0.001372 777.4 904.4
892(27) 0.001372 778.3 903.7
907(27) 0.001372 779.2 903.1
878(27) 0.001372 780.1 902.6
891(27) 0.001372 781.0 902.1
913(27) 0.001372 781.9 901.6
882(27) 0.001372 782.8 901.3
901(27) 0.001372 783.8 901.0
908(27) 0.001372 784.7 900.7
913(27) 0.001372 785.7 900.6
891(27) 0.001372 786.7 900.5
868(27) 0.001372 787.6 900.6
901(27) 0.001372 788.6 900.7
882(27) 0.001372 789.6 900.9
867(27) 0.001372 790.6 901.3
852(26) 0.001479 791.6 901.7
867(27) 0.001372 792.7 902.2
888(27) 0.001372 793.7 902.8
853(26) 0.001479 794.7 903.5
890(27) 0.001372 795.8 904.4
898(27) 0.001372 796.8 905.3
888(27) 0.001372 797.9 906.3
876(27) 0.001372 799.0 907.5
871(27) 0.001372 800.1 908.7
884(27) 0.001372 801.2 910.0
903(27) 0.001372 802.3 911.5
893(22) 0.002066 803.4 913.0
878(27) 0.001372 804.5 914.6
885(27) 0.001372 805.7 916.4
906(28) 0.001276 806.8 918.2
912(28) 0.001276 808.0 920.1
887(27) 0.001372 809.2 922.1
909(28) 0.001276 810.3 924.2
916(28) 0.001276 811.5 926.3
890(27) 0.001372 812.7 928.6
899(28) 0.001276 813.9 930.9
899(28) 0.001276 815.2 933.3
911(28) 0.001276 816.4 935.8
913(28) 0.001276 817.7 938.4
923(28) 0.001276 818.9 941.1
983(29) 0.001189 820.2 943.8
954(28) 0.001276 821.5 946.6
909(28) 0.001276 822.7 949.5
915(28) 0.001276 824.0 952.4
956(28) 0.001276 825.4 955.5
959(28) 0.001276 826.7 958.6
941(28) 0.001276 828.0 961.7
957(28) 0.001276 829.4 964.9
974(29) 0.001189 830.7 968.2
971(29) 0.001189 832.1 971.5
979(29) 0.001189 833.5 974.9
927(28) 0.001276 834.9 978.4
931(28) 0.001276 836.3 981.9
1020(29) 0.001189 837.7 985.4
1023(29) 0.001189 839.1 989.0
1001(29) 0.001189 840.6 992.7
1020(29) 0.001189 842.0 996.3
993(29) 0.001189 843.5 1000.0
1005(29) 0.001189 845.0 1003.8
1044(30) 0.001111 846.5 1007.5
1028(29) 0.001189 848.0 1011.3
1020(29) 0.001189 849.5 1015.1
1039(29) 0.001189 851.0 1018.9
1058(30) 0.001111 852.6 1022.7
1063(30) 0.001111 854.1 1026.5
1050(30) 0.001111 855.7 1030.4
1021(29) 0.001189 857.3 1034.2
1037(29) 0.001189 858.9 1038.0
1051(30) 0.001111 860.5 1041.8
1058(30) 0.001111 862.1 1045.6
1067(30) 0.001111 863.7 1049.4
1087(30) 0.001111 865.4 1053.2
1063(30) 0.001111 867.0 1056.9
1051(30) 0.001111 868.7 1060.6
1065(30) 0.001111 870.4 1064.3
1053(30) 0.001111 872.1 1067.9
1089(30) 0.001111 873.8 1071.5
1145(31) 0.001041 875.6 1075.1
1142(31) 0.001041 877.3 1078.6
1114(30) 0.001111 879.1 1082.0
1141(31) 0.001041 880.9 1085.4
1125(31) 0.001041 882.6 1088.8
1103(30) 0.001111 884.4 1092.0
1073(30) 0.001111 886.3 1095.2
1100(30) 0.001111 888.1 1098.3
1131(31) 0.001041 889.9 1101.3
1125(31) 0.001041 891.8 1104.2
1123(31) 0.001041 893.7 1107.0
1098(30) 0.001111 895.6 1109.7
1129(31) 0.001041 897.5 1112.3
1149(31) 0.001041 899.4 1114.7
1139(31) 0.001041 901.4 1117.1
1141(31) 0.001041 903.3 1119.3
1142(31) 0.001041 905.3 1121.5
1129(31) 0.001041 907.3 1123.5
1139(31) 0.001041 909.3 1125.3
1143(31) 0.001041 911.3 1127.1
1146(31) 0.001041 913.3 1128.7
1155(31) 0.001041 915.4 1130.2
1148(31) 0.001041 917.4 1131.6
1160(31) 0.001041 919.5 1132.9
1172(31) 0.001041 921.6 1134.1
1157(31) 0.001041 923.7 1135.1
1158(31) 0.001041 925.9 1136.1
1161(31) 0.001041 928.0 1137.0
1155(31) 0.001041 930.2 1137.8
1165(31) 0.001041 932.4 1138.6
1174(31) 0.001041 934.6 1139.3
1171(31) 0.001041 936.8 1139.9
1150(31) 0.001041 939.0 1140.5
1135(31) 0.001041 941.3 1141.0
1158(31) 0.001041 943.6 1141.5
1174(31) 0.001041 945.8 1141.9
1179(31) 0.001041 948.1 1142.4
1163(31) 0.001041 950.5 1142.8
1158(31) 0.001041 952.8 1143.2
1166(31) 0.001041 955.2 1143.7
1112(30) 0.001111 957.5 1144.1
1102(30) 0.001111 959.9 1144.5
1128(31) 0.001041 962.3 1145.0
1146(31) 0.001041 964.8 1145.5
1148(31) 0.001041 967.2 1146.0
1129(31) 0.001041 969.7 1146.5
1131(31) 0.001041 972.2 1147.1
1102(30) 0.001111 974.7 1147.7
1105(30) 0.001111 977.2 1148.3
1152(32) 0.000977 979.8 1149.0
1165(32) 0.000977 982.3 1149.7
1120(31) 0.001041 984.9 1150.5
1154(32) 0.000977 987.5 1151.3
1180(32) 0.000977 990.1 1152.2
1178(32) 0.000977 992.8 1153.1
1174(32) 0.000977 995.4 1154.1
1180(32) 0.000977 998.1 1155.1
1150(32) 0.000977 1000.8 1156.2
1128(32) 0.000977 1003.5 1157.4
1165(32) 0.000977 1006.3 1158.6
1160(32) 0.000977 1009.0 1159.8
1147(32) 0.000977 1011.8 1161.1
1159(32) 0.000977 1014.6 1162.4
1160(32) 0.000977 1017.4 1163.8
1180(32) 0.000977 1020.3 1165.3
1159(32) 0.000977 1023.1 1166.8
1146(32) 0.000977 1026.0 1168.4
1155(32) 0.000977 1028.9 1170.0
1159(32) 0.000977 1031.9 1171.6
1155(32) 0.000977 1034.8 1173.4
1179(32) 0.000977 1037.8 1175.1
1222(33) 0.000918 1040.8 1176.9
1206(33) 0.000918 1043.8 1178.8
1155(32) 0.000977 1046.8 1180.7
1152(32) 0.000977 1049.9 1182.6
1174(32) 0.000977 1053.0 1184.6
1175(32) 0.000977 1056.1 1186.7
1156(32) 0.000977 1059.2 1188.7
1197(32) 0.000977 1062.4 1190.9
1208(33) 0.000918 1065.5 1193.0
1241(33) 0.000918 1068.7 1195.2
1183(32) 0.000977 1071.9 1197.5
1185(32) 0.000977 1075.2 1199.8
1229(33) . . .
1253(33) . . .
1220(33) . . .
1257(33) . . .
1297(34) . . .
1263(33) . . .
1253(33) . . .
1236(33) . . .
1237(33) . . .
1221(33) . . .
1225(33) . . .
1243(33) . . .
1257(33) . . .
1244(33) . . .
1248(33) . . .
1202(32) . . .
1232(33) . . .
1299(34) . . .
1309(34) . . .
1310(34) . . .
1277(33) . . .
1230(33) . . .
1279(33) . . .
1349(34) . . .
1350(34) . . .
1312(34) . . .
1309(34) . . .
1268(33) . . .
1337(34) . . .
1347(34) . . .
1352(34) . . .
1340(34) . . .
1348(34) . . .
1341(34) . . .
1350(34) . . .
1374(35) . . .
1375(35) . . .
1405(35) . . .
1363(34) . . .
1390(35) . . .
1404(35) . . .
1384(35) . . .
1397(35) . . .
1379(35) . . .
1433(35) . . .
1404(35) . . .
1365(34) . . .
1448(35) . . .
1437(35) . . .
1447(35) . . .
1445(35) . . .
1422(35) . . .
1431(35) . . .
1450(35) . . .
1456(35) . . .
1452(35) . . .
1443(35) . . .
1471(36) . . .
1547(36) . . .
1522(36) . . .
1532(36) . . .
1526(36) . . .
1498(36) . . .
1485(36) . . .
1496(36) . . .
1549(36) . . .
1469(51) . . .
1505(52) . . .
1521(52) . . .
1586(53) . . .
1595(53) . . .
1594(53) . . .
1602(53) . . .
1662(54) . . .
1550(53) . . .
1591(53) . . .
1577(53) . . .
1572(53) . . .
1623(54) . . .
1653(54) . . .
1612(53) . . .
1558(53) . . .
1644(54) . . .
1600(53) . . .
1672(54) . . .
1686(55) . . .
1655(54) . . .
1651(54) . . .
1612(53) . . .
1650(54) . . .
1677(54) . . .
1731(55) . . .
1770(56) . . .
1751(55) . . .
1748(55) . . .
1704(55) . . .
1720(55) . . .
1686(55) . . .
1748(55) . . .
1709(55) . . .
1724(55) . . .
1767(56) . . .
1805(56) . . .
1770(56) . . .
1789(56) . . .
1890(57) . . .
1770(56) . . .
1729(55) . . .
1775(56) . . .
1877(57) . . .
1846(57) . . .
1842(57) . . .
1814(56) . . .
1875(57) . . .
1766(56) . . .
1808(56) . . .
1886(57) . . .
1898(58) . . .
1871(57) . . .
1807(56) . . .
1860(57) . . .
1922(58) . . .
1886(57) . . .
1958(58) . . .
1880(57) . . .
2058(60) . . .
1921(58) . . .
1856(57) . . .
1852(57) . . .
1938(58) . . .
1978(59) . . .
1958(58) . . .
1942(58) . . .
1898(58) . . .
2011(59) . . .
1910(58) . . .
1991(59) . . .
2042(59) . . .
2034(59) . . .
2017(59) . . .
2036(59) . . .
2006(59) . . .
2001(59) . . .
2043(59) . . .
2053(60) . . .
2073(60) . . .
2034(59) . . .
2059(60) . . .
2046(60) . . .
2110(60) . . .
2012(59) . . .
2045(59) . . .
2127(61) . . .
2029(59) . . .
2099(60) . . .
2047(60) . . .
2128(61) . . .
2061(60) . . .
2126(61) . . .
2167(61) . . .
2183(61) . . .
2200(62) . . .
2129(61) . . .
2148(61) . . .
2143(61) . . .
2150(61) . . .
loop_
_refln_index_h
_refln_index_k
_refln_index_l
_refln_observed_status
_refln_F_squared_meas
_refln_F_squared_calc
_refln_phase_calc
_refln_d_spacing
_gsas_i100_meas
1 1 0 o 933.157 934.251 -180.00 12.95034 100.00
3 0 0 o 84.878 87.181 -27.61 7.47688 3.05
1 0 1 o 127.845 113.141 55.39 6.51666 3.50
2 2 0 o 1.302 1.338 -180.00 6.47517 0.04
2 0 -1 o 336.299 342.647 134.60 5.82120 7.38
2 1 1 o 48.651 43.803 -16.33 5.30947 1.78
4 1 0 o 25.942 12.227 21.16 4.89477 0.81
3 1 -1 o 82.309 106.456 -67.70 4.59324 2.27
4 0 1 o 528.128 561.147 -125.48 4.32901 6.49
3 3 0 o 224.186 232.316 180.00 4.31678 2.74
3 2 1 o 23.821 50.452 178.53 4.10569 0.53
5 0 -1 o 260.431 249.858 40.52 3.74638 2.42
6 0 0 o 260.102 252.498 -70.28 3.73844 2.41
4 2 -1 o 207.910 211.640 -159.90 3.59881 3.58
5 2 0 o 231.344 236.070 -44.62 3.59178 3.97
5 1 1 o 514.510 554.092 34.16 3.46742 8.26
1 0 -2 o 144.331 116.584 24.54 3.36663 1.10
2 0 2 o 7.138 5.098 -84.68 3.25833 0.05
4 3 1 o 31.791 28.335 -25.27 3.24274 0.45
4 4 0 o 1.004 0.919 180.00 3.23759 0.01
2 1 -2 o 330.613 297.389 -163.13 3.15985 4.45
6 1 -1 o 12.421 10.761 -32.93 3.05674 0.16
3 1 2 o 148.995 146.697 63.07 2.98702 1.81
7 1 0 o 1138.416 1190.788 126.14 2.97101 13.66
4 0 -2 o 434.578 461.607 31.99 2.91060 2.51
5 3 -1 o 67.646 72.884 94.82 2.89947 0.78
7 0 1 o 641.989 691.699 -165.00 2.89947 3.68
3 2 -2 o 142.910 145.500 104.41 2.83976 1.58
6 2 1 o 360.821 367.883 -157.88 2.82942 3.96
6 3 0 o 105.352 106.947 -83.82 2.82600 1.15
5 0 2 o 522.748 469.276 -24.83 2.71233 2.65
4 2 2 o 58.123 53.643 -149.88 2.65473 0.57
5 4 1 o 398.057 382.461 39.15 2.64628 3.86
5 1 -2 o 109.122 115.854 -63.69 2.60065 1.03
8 0 -1 o 253.416 265.709 6.92 2.59270 1.18
5 5 0 o 126.191 131.380 0.00 2.59007 0.59
7 2 -1 o 312.672 339.579 -166.79 2.54225 2.82
4 3 -2 o 117.123 115.362 -74.08 2.50172 1.03
9 0 0 o 425.048 437.931 -36.80 2.49230 1.85
8 1 1 o 336.285 336.209 -17.32 2.44961 2.84
8 2 0 o 159.677 156.938 -54.75 2.44739 1.35
6 1 2 o 12.526 13.307 124.40 2.41328 0.10
6 4 -1 o 180.974 173.853 7.45 2.40693 1.48
7 3 1 o 70.630 70.499 106.03 2.36640 0.56
7 0 -2 o 702.989 716.956 98.89 2.33361 2.72
5 3 2 o 494.135 503.953 -160.57 2.33361 3.83
7 4 0 o 20.267 19.690 109.39 2.32595 0.16
6 2 -2 o 46.288 58.264 -149.29 2.29662 0.35
0 0 3 o 2487.967 2699.672 90.61 2.27014 3.06
1 1 3 o 275.569 270.748 -81.90 2.23604 1.98
6 5 1 o 239.179 218.267 -110.55 2.22263 1.70
9 1 -1 o 76.944 70.217 19.17 2.22263 0.55
5 4 -2 o 239.049 188.694 -39.02 2.19539 1.67
3 0 3 o 54.437 51.062 141.52 2.17222 0.19
3 0 -3 o 8.682 8.144 61.96 2.17222 0.03
8 0 2 o 7.989 7.797 89.19 2.16450 0.03
8 3 -1 o 153.883 155.116 -168.47 2.15991 1.04
6 6 0 o 68.346 69.114 180.00 2.15839 0.23
2 2 3 o 342.225 318.105 128.61 2.14229 2.29
7 2 2 o 103.078 95.458 59.69 2.13489 0.69
10 0 1 o 759.495 725.086 79.06 2.13049 2.52
10 1 0 o 8.628 8.312 138.13 2.12902 0.06
9 2 1 o 526.536 516.591 -151.13 2.10223 3.41
8 1 -2 o 298.098 275.647 -102.80 2.07914 1.90
9 3 0 o 29.458 28.070 136.89 2.07371 0.19
7 5 -1 o 40.390 41.195 -164.41 2.04893 0.25
4 1 3 o 135.086 138.428 -28.43 2.05943 0.85
4 1 -3 o 268.142 274.776 17.13 2.05943 1.68
6 4 2 o 521.736 530.627 -32.69 2.05285 3.25
7 3 -2 o 446.432 460.809 89.79 2.02753 2.72
8 4 1 o 108.828 109.256 63.01 2.02376 0.66
3 3 3 o 68.180 70.557 -159.05 2.00924 0.41
8 5 0 o 46.507 44.564 139.66 1.97491 0.27
11 0 -1 o 46.295 49.016 41.82 1.95347 0.13
6 0 -3 o 175.238 192.960 -96.01 1.94040 0.50
6 0 3 o 124.817 137.440 97.70 1.94040 0.35
9 1 2 o 62.340 70.946 -65.67 1.93489 0.35
6 5 -2 o 147.738 168.133 -120.38 1.93489 0.84
10 2 -1 o 46.367 54.003 -153.20 1.93161 0.26
7 6 1 o 1.972 2.602 56.13 1.91048 0.01
5 2 -3 o 247.084 292.929 177.65 1.91898 1.38
5 2 3 o 29.055 34.446 44.68 1.91898 0.16
8 3 2 o 191.048 192.207 -171.68 1.89310 1.04
10 0 -2 o 711.379 721.985 55.21 1.87319 1.91
11 1 1 o 221.557 226.854 -19.99 1.87021 1.19
9 4 -1 o 44.086 45.140 -21.28 1.87021 0.24
12 0 0 o 73.904 75.778 177.66 1.86922 0.20
4 4 3 o 19.354 19.346 -53.55 1.85874 0.10
9 2 -2 o 151.067 144.951 -53.01 1.85390 0.80
7 7 0 o 6.782 6.258 0.00 1.85005 0.02
11 2 0 o 6.138 5.663 -12.40 1.85005 0.03
10 3 1 o 33.238 33.854 -88.74 1.83239 0.17
7 1 -3 o 89.314 87.082 47.44 1.80383 0.45
7 1 3 o 207.070 201.896 -132.26 1.80383 1.05
7 5 2 o 92.979 96.767 135.11 1.81703 0.48
8 4 -2 o 88.019 85.457 99.59 1.79941 0.44
10 4 0 o 57.536 57.932 -76.36 1.79589 0.29
8 6 -1 o 100.607 85.261 49.26 1.77972 0.50
6 3 3 o 29.936 23.338 -48.42 1.76982 0.15
6 3 -3 o 29.313 22.853 -4.96 1.76982 0.14
9 5 1 o 80.113 69.512 -43.83 1.76315 0.39
11 0 2 o 708.245 646.442 120.86 1.74946 1.72
10 2 2 o 290.701 275.442 -41.98 1.73371 1.39
12 1 -1 o 29.784 28.952 -172.99 1.73135 0.14
9 6 0 o 177.442 171.410 -18.20 1.71531 0.84
5 5 3 o 72.731 71.551 63.67 1.70720 0.34
7 6 -2 o 8.738 8.523 -135.70 1.71838 0.04
11 3 -1 o 111.347 110.060 8.76 1.70121 0.52
1 0 4 o 70.609 68.924 -75.10 1.69772 0.16
9 4 2 o 152.694 149.071 54.35 1.68890 0.70
11 1 -2 o 217.537 212.375 -139.47 1.68890 1.00
2 0 -4 o 25.617 25.761 -4.43 1.68332 0.06
9 0 3 o 163.480 174.799 32.69 1.67829 0.37
9 0 -3 o 130.349 139.374 79.83 1.67829 0.30
8 7 1 o 222.273 239.410 132.08 1.67259 1.01
13 0 1 o 233.205 251.185 -177.51 1.67259 0.53
2 1 4 o 135.731 144.037 120.41 1.66927 0.62
8 2 3 o 124.717 129.213 94.07 1.66437 0.56
8 2 -3 o 346.393 358.882 -103.88 1.66437 1.56
10 3 -2 o 76.550 77.805 -169.81 1.66089 0.34
12 2 1 o 459.263 463.887 142.61 1.65881 2.07
13 1 0 o 69.823 70.469 36.65 1.65812 0.31
10 5 -1 o 43.878 43.075 45.81 1.64537 0.20
12 3 0 o 19.929 19.431 166.12 1.63159 0.09
3 1 -4 o 21.973 21.903 -178.26 1.64221 0.10
4 0 4 o 309.615 297.954 -58.80 1.62917 0.68
7 4 -3 o 164.192 160.835 117.29 1.62460 0.72
7 4 3 o 23.740 23.255 -136.12 1.62460 0.10
8 6 2 o 108.523 107.622 -81.45 1.62137 0.47
11 4 1 o 155.268 155.011 -2.11 1.61944 0.68
8 8 0 o 46.023 46.051 180.00 1.61879 0.10
3 2 4 o 48.824 49.028 -47.95 1.61643 0.21
9 5 -2 o 15.672 15.639 -5.55 1.60881 0.07
5 0 -4 o 203.224 184.183 13.97 1.59182 0.43
12 1 2 o 26.611 24.166 -170.73 1.58454 0.11
9 7 -1 o 160.741 164.065 -128.27 1.57105 0.67
11 5 0 o 91.624 84.752 116.37 1.58214 0.39
4 2 -4 o 11.215 10.680 -146.32 1.57993 0.05
5 1 4 o 141.896 147.153 105.26 1.56830 0.59
6 6 3 o 18.431 19.143 -12.49 1.56423 0.08
11 3 2 o 159.089 166.788 179.19 1.56134 0.66
10 6 1 o 0.298 0.315 -81.39 1.55961 0.00
14 0 -1 o 198.937 210.206 20.94 1.55961 0.41
10 1 3 o 186.358 199.296 -66.26 1.55294 0.77
10 1 -3 o 8.875 9.491 54.05 1.55294 0.04
13 2 -1 o 119.233 137.239 -133.16 1.54842 0.49
4 3 4 o 49.676 58.705 -156.22 1.54579 0.20
8 7 -2 o 17.524 19.518 39.37 1.53913 0.07
13 0 -2 o 283.611 315.878 42.19 1.53913 0.58
9 3 3 o 68.979 72.595 143.38 1.53108 0.28
9 3 -3 o 8.913 9.380 -115.53 1.53108 0.04
12 2 -2 o 58.664 61.415 101.01 1.52837 0.24
6 1 -4 o 3.472 3.476 126.09 1.52423 0.01
10 5 2 o 88.867 81.397 19.28 1.51784 0.36
14 1 1 o 463.091 416.250 -11.74 1.50596 1.85
12 4 -1 o 167.856 150.574 -178.22 1.51625 0.67
10 7 0 o 5.820 5.190 -132.98 1.51572 0.02
5 3 -4 o 67.097 61.898 -51.94 1.50354 0.27
7 0 4 o 248.554 229.292 -56.24 1.50354 0.50
11 4 -2 o 229.975 219.502 -11.17 1.49741 0.91
15 0 0 o 78.225 74.925 -93.04 1.49538 0.15
6 2 4 o 51.708 50.121 -142.80 1.49351 0.20
8 5 -3 o 47.537 48.222 41.72 1.48999 0.19
8 5 3 o 18.204 18.467 76.11 1.48999 0.07
13 3 1 o 312.991 332.625 -105.35 1.48600 1.23
9 8 1 o 242.172 257.363 -70.11 1.48600 0.95
14 2 0 o 63.083 67.359 -112.77 1.48551 0.25
9 7 2 o 44.595 45.212 153.06 1.45890 0.17
11 6 -1 o 95.886 105.458 65.71 1.46682 0.37
13 4 0 o 77.073 77.137 41.56 1.45703 0.30
8 0 -4 o 114.922 113.468 -128.84 1.45530 0.22
5 4 4 o 96.525 103.205 -8.04 1.46458 0.37
14 0 2 o 285.223 272.433 -26.81 1.44973 0.55
10 6 -2 o 135.761 129.674 -109.96 1.44973 0.52
12 5 1 o 665.896 633.698 114.66 1.44835 2.55
7 2 -4 o 95.142 90.601 136.96 1.44620 0.36
12 0 -3 o 78.497 75.414 -145.92 1.44300 0.15
12 0 3 o 231.701 222.600 92.71 1.44300 0.44
13 2 2 o 148.398 142.284 27.13 1.44073 0.57
9 9 0 o 1.277 1.211 180.00 1.43893 0.00
11 2 -3 o 86.577 82.893 85.41 1.43413 0.33
7 7 3 o 159.711 152.914 164.18 1.43413 0.61
11 2 3 o 108.592 103.971 169.83 1.43413 0.41
6 4 -4 o 1.793 1.949 155.12 1.41988 0.01
8 1 4 o 183.763 190.360 54.92 1.42849 0.70
12 4 2 o 113.277 111.760 -93.14 1.41471 0.43
15 1 -1 o 12.636 12.263 77.44 1.41343 0.05
12 6 0 o 235.399 227.573 -123.02 1.41300 0.88
7 3 4 o 338.402 324.871 174.72 1.41142 1.27
10 4 3 o 264.613 259.495 -45.59 1.40845 0.99
10 4 -3 o 90.138 88.394 -56.66 1.40845 0.34
14 1 -2 o 71.775 73.379 -107.46 1.40634 0.27
10 8 -1 o 96.062 101.424 -88.99 1.40508 0.36
11 7 1 o 171.430 200.607 -90.53 1.39688 0.64
14 3 -1 o 90.273 105.637 39.02 1.39688 0.34
9 8 -2 o 37.677 41.243 96.07 1.39005 0.14
13 3 -2 o 25.353 27.753 -150.78 1.39005 0.09
6 5 4 o 276.867 298.125 2.65 1.37904 1.02
9 1 -4 o 74.520 80.241 -15.23 1.37904 0.27
11 6 2 o 82.532 80.370 -179.23 1.37430 0.30
16 0 1 o 65.631 62.707 147.27 1.37313 0.12
9 6 3 o 47.327 44.414 -59.88 1.36856 0.17
9 6 -3 o 9.909 9.299 79.60 1.36856 0.04
15 2 1 o 227.938 224.018 127.21 1.36547 0.83
13 5 -1 o 18.070 17.759 -87.21 1.36547 0.07
8 3 -4 o 25.258 25.516 45.02 1.36367 0.09
1 0 -5 o 8.768 8.796 -52.68 1.35958 0.02
12 5 -2 o 219.312 218.981 112.96 1.35908 0.80
11 8 0 o 142.008 139.654 97.95 1.35756 0.52
16 1 0 o 58.710 57.737 103.41 1.35756 0.21
10 0 4 o 1277.008 1238.078 -162.60 1.35617 2.33
2 1 -5 o 65.537 66.189 114.64 1.34484 0.24
2 0 5 o 53.957 50.889 35.94 1.35215 0.10
14 4 1 o 53.503 54.564 -32.08 1.34325 0.19
15 3 0 o 7.597 7.751 -159.16 1.34289 0.03
9 2 4 o 982.715 941.100 -21.92 1.34879 3.57
13 1 -3 o 20.805 20.782 -19.36 1.33898 0.08
13 1 3 o 30.636 30.603 -100.49 1.33898 0.11
10 9 1 o 145.018 142.048 71.43 1.33609 0.52
7 5 -4 o 255.876 248.485 -163.30 1.33439 0.92
3 1 5 o 77.978 74.439 169.43 1.33056 0.28
15 1 2 o 236.301 225.179 171.02 1.33010 0.85
8 4 4 o 481.032 457.742 173.25 1.32737 1.73
8 8 3 o 122.439 130.955 70.48 1.31802 0.44
3 2 -5 o 27.146 29.687 -37.97 1.31674 0.10
12 3 -3 o 90.444 87.695 -143.09 1.32490 0.33
12 3 3 o 59.766 57.949 18.02 1.32490 0.22
14 3 2 o 23.396 25.767 -167.82 1.31629 0.08
11 7 -2 o 16.805 18.508 -150.91 1.31629 0.06
4 0 -5 o 33.982 33.450 -86.63 1.32360 0.06
10 8 2 o 44.084 43.641 18.42 1.32314 0.16
14 5 0 o 20.150 22.584 16.51 1.31491 0.07
12 7 -1 o 25.447 25.538 -49.42 1.32209 0.09
13 6 1 o 67.914 76.131 -22.90 1.30852 0.24
11 0 -4 o 51.377 56.632 35.33 1.30693 0.09
5 0 5 o 433.811 462.038 12.57 1.30333 0.78
10 2 -4 o 114.172 114.735 -179.11 1.30033 0.41
5 1 -5 o 42.496 42.936 23.43 1.29033 0.15
11 5 -3 o 71.514 68.592 84.07 1.29800 0.26
11 5 3 o 245.355 235.330 120.06 1.29800 0.88
13 5 2 o 143.362 146.749 65.34 1.28990 0.51
15 2 -2 o 40.871 41.837 145.91 1.28990 0.15
4 2 5 o 79.680 75.260 -104.31 1.29678 0.29
16 2 -1 o 142.223 150.473 -81.79 1.28893 0.51
16 0 -2 o 224.439 211.307 10.98 1.29635 0.40
17 0 -1 o 271.552 254.936 154.41 1.29536 0.49
10 10 0 o 387.332 363.780 0.00 1.29503 0.69
7 6 4 o 30.983 29.298 -67.24 1.29382 0.11
9 4 -4 o 40.638 47.899 -13.69 1.28110 0.15
11 1 4 o 263.741 310.863 80.68 1.28110 0.94
4 3 -5 o 112.231 125.241 -138.66 1.27771 0.40
10 3 4 o 99.336 94.394 -130.13 1.26874 0.35
13 7 0 o 209.931 227.749 28.57 1.27604 0.75
6 1 5 o 68.738 67.034 167.92 1.26545 0.25
10 9 -2 o 17.941 17.606 -68.85 1.26505 0.06
12 8 1 o 138.965 138.302 167.00 1.26413 0.50
14 4 -2 o 113.259 111.192 -44.03 1.27113 0.40
15 4 -1 o 8.716 8.411 -81.59 1.27020 0.03
11 9 -1 o 227.808 219.823 107.36 1.27020 0.81
10 7 -3 o 0.704 0.721 74.01 1.26057 0.00
10 7 3 o 66.238 67.858 -62.19 1.26057 0.24
17 1 1 o 33.019 32.999 -75.42 1.25815 0.12
6 2 -5 o 41.129 38.423 63.05 1.24770 0.15
5 3 5 o 150.174 139.400 -14.03 1.25354 0.54
7 0 -5 o 186.989 173.574 -166.98 1.25354 0.33
16 3 1 o 112.758 105.145 -72.19 1.24644 0.40
12 7 2 o 20.914 19.395 -0.95 1.25315 0.07
18 0 0 o 131.729 122.782 7.32 1.24615 0.24
9 5 4 o 582.911 542.295 33.74 1.24507 2.09
8 6 -4 o 33.004 30.751 3.93 1.25086 0.12
14 2 -3 o 147.462 135.658 -29.37 1.24303 0.53
14 2 3 o 3.481 3.203 -152.60 1.24303 0.01
15 0 3 o 134.149 125.423 23.83 1.24879 0.24
15 0 -3 o 120.560 112.718 132.86 1.24879 0.22
13 6 -2 o 2.088 1.875 -11.94 1.24158 0.01
14 6 -1 o 192.880 169.429 132.87 1.24071 0.69
17 2 0 o 90.186 78.548 -131.27 1.24042 0.32
15 6 -3 o 83.972 83.971 141.25 1.05901 0.62
15 6 3 o 173.390 173.387 -70.67 1.05901 1.28
12 9 0 o 833.280 723.956 -143.22 1.22919 3.00
12 1 -4 o 11.700 9.180 -165.07 1.23371 0.04
13 4 -3 o 81.309 74.076 131.33 1.22620 0.29
13 4 3 o 128.866 117.402 -173.68 1.22620 0.46
8 0 5 o 80.761 74.591 25.99 1.22517 0.15
14 10 1 o 35.366 34.981 -56.53 1.06111 0.25
16 2 2 o 264.014 244.973 -0.91 1.22480 0.95
5 4 -5 o 129.335 108.762 165.76 1.23069 0.47
7 1 6 o 31.825 31.639 63.60 1.06032 0.23
7 1 -6 o 112.648 111.988 77.64 1.06032 0.81
15 5 1 o 29.700 27.836 133.16 1.22397 0.11
17 0 2 o 62.784 53.253 -28.13 1.23032 0.11
16 4 0 o 153.276 144.106 49.23 1.22369 0.55
11 3 -4 o 20.883 19.835 -66.16 1.22267 0.08
7 2 5 o 258.058 250.009 -172.02 1.21972 0.93
11 10 1 o 122.510 121.736 4.49 1.21318 0.44
13 0 4 o 655.857 652.555 -23.23 1.21191 1.19
8 7 4 o 98.535 98.039 -147.25 1.21191 0.36
10 5 5 o 84.711 83.281 82.13 1.06189 0.59
14 9 2 o 7.044 6.939 75.09 1.06166 0.05
19 2 2 o 24.661 24.291 121.09 1.06166 0.17
8 1 -5 o 4.396 4.358 68.08 1.20904 0.02
9 9 3 o 143.314 141.675 -155.24 1.21535 0.52
11 9 2 o 22.108 21.897 -96.00 1.20869 0.08
15 4 2 o 8.497 8.415 -166.43 1.20869 0.03
12 2 4 o 764.527 748.584 -148.75 1.20664 2.79
10 9 4 o 114.711 110.959 -98.84 1.06384 0.77
17 1 -2 o 21.484 19.997 173.92 1.19830 0.08
6 4 5 o 447.582 426.507 21.72 1.20381 1.64
12 8 -2 o 5.659 5.374 46.26 1.20346 0.02
15 6 0 o 614.159 576.075 -137.94 1.19726 2.26
13 8 -1 o 116.312 109.656 -60.42 1.20267 0.43
10 5 -4 o 23.433 21.881 84.18 1.20144 0.09
20 0 2 o 881.053 847.398 -30.52 1.06524 2.89
12 6 -3 o 135.639 125.835 -107.33 1.19960 0.50
12 6 3 o 75.979 70.487 -35.65 1.19960 0.28
7 3 -5 o 423.737 393.799 -38.07 1.19864 1.56
14 7 1 o 24.751 24.902 32.78 1.19243 0.09
18 1 -1 o 84.896 85.414 18.43 1.19243 0.31
13 11 -1 o 88.023 84.754 61.37 1.06469 0.58
20 2 0 o 240.293 231.534 69.92 1.06451 1.59
11 4 4 o 281.618 287.347 39.86 1.19123 1.04
14 6 2 o 240.475 251.857 -98.96 1.18320 0.90
17 3 -1 o 118.071 123.214 150.16 1.18245 0.44
16 3 -2 o 58.050 60.957 160.52 1.18817 0.22
12 2 -5 o 449.444 432.304 48.72 1.06548 2.93
9 1 5 o 107.465 115.397 9.94 1.17862 0.40
6 5 -5 o 380.929 409.045 146.92 1.17862 1.43
9 7 -4 o 21.235 25.740 -108.58 1.17157 0.08
11 11 0 o 205.775 228.188 0.00 1.17730 0.39
15 9 0 o 95.099 93.988 -36.89 1.06813 0.60
21 0 0 o 172.264 170.250 -119.40 1.06813 0.54
14 4 4 o 94.668 92.458 -159.47 1.06745 0.60
8 3 5 o 194.717 216.455 -133.27 1.16897 0.74
15 5 -2 o 33.191 36.444 10.67 1.16866 0.13
14 0 -4 o 86.325 89.010 44.39 1.16680 0.16
10 6 4 o 535.268 551.921 -140.88 1.16680 2.04
13 0 -5 o 182.788 184.723 176.86 1.06911 0.56
8 7 -5 o 8.860 8.954 128.06 1.06911 0.05
9 2 -5 o 816.919 838.398 -169.62 1.15956 3.15
16 1 3 o 13.344 13.299 163.99 1.16512 0.05
16 1 -3 o 31.707 31.599 153.72 1.16512 0.12
11 8 -3 o 104.292 103.936 22.00 1.16512 0.40
11 8 3 o 70.518 70.278 -179.93 1.16512 0.27
11 10 -2 o 3.429 3.544 145.17 1.15926 0.01
12 11 -2 o 52.287 52.526 -59.05 1.06886 0.32
10 0 -5 o 738.562 729.569 23.47 1.16424 1.41
18 2 1 o 37.562 39.516 96.09 1.15855 0.15
12 10 -1 o 169.243 178.046 163.97 1.15855 0.65
17 6 -1 o 33.128 35.913 3.21 1.07196 0.20
19 3 1 o 64.467 69.888 -103.77 1.07196 0.38
16 5 -1 o 386.481 380.505 -9.53 1.16321 1.48
19 0 1 o 46.122 45.409 110.38 1.16321 0.09
14 8 0 o 325.233 320.275 25.47 1.16298 1.25
4 4 6 o 45.224 48.223 13.20 1.07115 0.27
13 2 -4 o 6.174 6.103 -127.08 1.16210 0.02
7 5 5 o 149.965 168.309 52.42 1.15038 0.59
15 3 3 o 49.465 56.232 -77.19 1.15581 0.19
15 3 -3 o 1.009 1.147 -126.19 1.15581 0.00
13 8 2 o 147.359 164.110 122.09 1.15008 0.58
19 1 0 o 10.374 11.282 46.59 1.14916 0.04
13 9 1 o 11.949 14.026 -99.16 1.15394 0.05
12 4 -4 o 13.279 14.150 84.29 1.14831 0.05
11 3 5 o 167.481 174.627 -74.94 1.07647 0.95
14 7 -2 o 32.564 30.674 -93.80 1.14111 0.13
18 1 2 o 140.832 132.658 152.48 1.14111 0.56
8 4 -5 o 406.327 414.030 25.58 1.14587 1.61
13 3 4 o 324.457 274.748 19.34 1.13500 1.32
9 8 4 o 125.574 106.335 20.21 1.13500 0.51
18 3 0 o 175.094 161.134 -133.72 1.14021 0.70
20 1 1 o 42.830 42.728 -59.68 1.07939 0.23
17 4 1 o 57.664 57.992 66.71 1.14489 0.23
12 12 0 o 118.511 118.392 0.00 1.07920 0.33
14 1 4 o 97.193 96.397 108.90 1.14382 0.39
13 5 -4 o 1.703 1.713 1.14 1.07849 0.01
15 2 4 o 76.029 76.483 -132.27 1.07849 0.42
16 0 4 o 59.268 58.996 -44.22 1.08225 0.16
11 0 5 o 1002.556 858.511 -125.19 1.13264 2.06
14 5 -3 o 99.271 86.251 10.80 1.13782 0.40
14 5 3 o 366.265 318.229 24.47 1.13782 1.48
17 3 2 o 92.580 79.502 -137.11 1.13235 0.38
11 6 -4 o 15.189 14.295 -77.47 1.12638 0.06
1 1 6 o 9.606 8.426 -98.35 1.13073 0.04
16 4 -3 o 1.396 1.434 13.82 1.07717 0.01
16 4 3 o 167.610 172.227 160.73 1.07717 0.94
15 7 -1 o 152.945 129.950 -167.93 1.13604 0.62
12 9 -3 o 292.914 290.832 125.21 1.08091 1.58
12 9 3 o 299.241 297.114 -20.41 1.08091 1.62
0 0 6 o 130.032 110.107 45.80 1.13507 0.09
17 2 -3 o 57.728 57.894 -101.55 1.08852 0.29
17 2 3 o 5.525 5.541 122.97 1.08852 0.03
16 5 2 o 345.453 344.542 74.17 1.11543 1.50
19 0 -2 o 11.206 11.176 172.37 1.11543 0.02
10 10 3 o 416.754 400.790 42.79 1.12487 1.75
12 1 5 o 2.613 2.621 104.20 1.08398 0.01
7 6 -5 o 216.616 210.511 -158.67 1.12408 0.91
16 6 -2 o 102.267 101.713 132.06 1.07996 0.56
9 5 -5 o 26.357 25.730 -13.08 1.09166 0.13
10 2 5 o 661.357 603.737 67.73 1.12833 2.75
8 6 5 o 125.401 122.510 -22.26 1.09556 0.60
15 7 2 o 106.496 104.149 -60.39 1.09140 0.53
2 2 6 o 115.670 115.607 29.56 1.11802 0.50
16 6 1 o 48.326 47.480 -147.61 1.12315 0.20
12 5 4 o 165.302 165.183 -143.85 1.11796 0.71
13 10 0 o 297.929 293.380 136.84 1.12294 1.26
17 5 0 o 304.149 299.504 42.20 1.12294 1.29
3 0 -6 o 177.916 176.411 -145.72 1.12221 0.38
3 0 6 o 158.602 157.261 -139.22 1.12221 0.34
5 2 -6 o 13.743 13.682 -30.30 1.08231 0.07
5 2 6 o 14.072 14.009 65.27 1.08231 0.07
18 4 -1 o 516.339 507.331 168.63 1.09081 2.57
6 0 6 o 162.418 164.220 -117.80 1.08611 0.42
6 0 -6 o 287.269 290.457 -119.95 1.08611 0.74
17 4 -2 o 14.765 15.101 -136.08 1.09924 0.07
15 8 1 o 7.381 7.171 -108.49 1.09470 0.04
10 3 -5 o 0.921 0.943 -109.64 1.10751 0.00
13 7 -3 o 16.542 16.636 174.17 1.11235 0.07
13 7 3 o 214.821 216.039 170.07 1.11235 0.95
16 7 0 o 163.995 165.909 175.19 1.09843 0.78
13 9 -2 o 29.498 30.259 107.36 1.10724 0.13
14 3 -4 o 42.071 40.776 153.90 1.09377 0.21
11 7 4 o 500.892 485.467 49.98 1.09377 2.44
3 3 6 o 233.167 233.644 -164.81 1.09775 1.11
19 2 -1 o 188.398 197.875 -1.63 1.10261 0.87
14 9 -1 o 178.950 187.952 3.93 1.10261 0.83
9 4 5 o 193.175 192.576 -141.64 1.11570 0.84
11 1 -5 o 41.114 40.986 -80.77 1.11570 0.18
10 8 -4 o 54.914 54.980 165.84 1.09769 0.26
18 2 -2 o 184.446 185.761 -13.12 1.11131 0.82
12 10 2 o 9.331 9.398 -65.60 1.11131 0.04
20 0 -1 o 462.878 477.508 -151.44 1.10663 1.05
15 1 -4 o 18.135 18.979 -62.07 1.10166 0.08
4 1 -6 o 107.598 111.885 53.18 1.10573 0.49
4 1 6 o 53.051 55.165 39.76 1.10573 0.24
12 11 1 o 193.661 195.219 109.32 1.11069 0.86
18 0 -3 o 113.986 110.814 17.52 1.09239 0.28
18 0 3 o 8.629 8.389 27.89 1.09239 0.02
