#------------------------------------------------------------------------------
#$Date: 2016-03-22 22:11:28 +0200 (Tue, 22 Mar 2016) $
#$Revision: 179034 $
#$URL: svn://www.crystallography.net/cod/cif/4/12/32/4123292.cif $
#------------------------------------------------------------------------------
#
# This file is available in the Crystallography Open Database (COD),
# http://www.crystallography.net/
#
# All data on this site have been placed in the public domain by the
# contributors.
#
data_4123292
loop_
_publ_author_name
'McGuirk, C. Michael'
'Katz, Michael J.'
'Stern, Charlotte L.'
'Sarjeant, Amy A.'
'Hupp, Joseph T.'
'Farha, Omar K.'
'Mirkin, Chad A.'
_publ_section_title
;
 Turning on catalysis: incorporation of a hydrogen-bond-donating
 squaramide moiety into a zr metal-organic framework.
;
_journal_issue                   2
_journal_name_full               'Journal of the American Chemical Society'
_journal_page_first              919
_journal_page_last               925
_journal_paper_doi               10.1021/ja511403t
_journal_volume                  137
_journal_year                    2015
_chemical_formula_moiety         'C28 H18 F6 N2 O6, C2 H6 O S'
_chemical_formula_sum            'C30 H24 F6 N2 O7 S'
_chemical_formula_weight         670.57
_chemical_name_systematic
;
 ?
;
_space_group_crystal_system      monoclinic
_space_group_IT_number           14
_space_group_name_Hall           '-P 2ybc'
_space_group_name_H-M_alt        'P 1 21/c 1'
_symmetry_space_group_name_Hall  '-P 2ybc'
_symmetry_space_group_name_H-M   'P 1 21/c 1'
_atom_sites_solution_hydrogens   mixed
_atom_sites_solution_primary     dual
_audit_creation_date             2014-08-25
_audit_creation_method
;
Olex2 1.2
(compiled 2014.07.22 svn.r2960 for OlexSys, GUI svn.r4862)
;
_cell_angle_alpha                90
_cell_angle_beta                 94.455(2)
_cell_angle_gamma                90
_cell_formula_units_Z            4
_cell_length_a                   10.6680(4)
_cell_length_b                   35.2141(14)
_cell_length_c                   7.6499(3)
_cell_measurement_reflns_used    9760
_cell_measurement_temperature    100(2)
_cell_measurement_theta_max      66.389
_cell_measurement_theta_min      2.510
_cell_volume                     2865.11(19)
_computing_cell_refinement       'SAINT V7.23A (Bruker, 2005)'
_computing_data_collection       'APEX2 V2.1-4 (Bruker, 2007)'
_computing_data_reduction        'Bruker SAINT'
_computing_molecular_graphics    'Olex2 (Dolomanov et al., 2009)'
_computing_publication_material  'Olex2 (Dolomanov et al., 2009)'
_computing_structure_refinement  'XL (Sheldrick, 2008)'
_computing_structure_solution    'XM (Sheldrick, 2008)'
_diffrn_ambient_temperature      99.99
_diffrn_detector_area_resol_mean 8
_diffrn_measured_fraction_theta_full 0.956
_diffrn_measured_fraction_theta_max 0.986
_diffrn_measurement_device_type  'Bruker Kappa APEX CCD area detector'
_diffrn_measurement_method       '\w and \f scans'
_diffrn_radiation_monochromator  'Quazar optics'
_diffrn_radiation_type           CuK\a
_diffrn_radiation_wavelength     1.54178
_diffrn_reflns_av_R_equivalents  0.0177
_diffrn_reflns_av_unetI/netI     0.0195
_diffrn_reflns_Laue_measured_fraction_full 0.956
_diffrn_reflns_Laue_measured_fraction_max 0.986
_diffrn_reflns_limit_h_max       12
_diffrn_reflns_limit_h_min       -9
_diffrn_reflns_limit_k_max       41
_diffrn_reflns_limit_k_min       -39
_diffrn_reflns_limit_l_max       9
_diffrn_reflns_limit_l_min       -6
_diffrn_reflns_number            13880
_diffrn_reflns_point_group_measured_fraction_full 0.956
_diffrn_reflns_point_group_measured_fraction_max 0.986
_diffrn_reflns_theta_full        67.679
_diffrn_reflns_theta_max         66.428
_diffrn_reflns_theta_min         2.509
_diffrn_source                   'sealed tube'
_exptl_absorpt_coefficient_mu    1.835
_exptl_absorpt_correction_T_max  0.7528
_exptl_absorpt_correction_T_min  0.6844
_exptl_absorpt_correction_type   multi-scan
_exptl_absorpt_process_details
;
SADABS-2012/1 (Bruker,2012) was used for absorption correction.
wR2(int) was 0.0354 before and 0.0284 after correction.
The Ratio of minimum to maximum transmission is 0.9091.
The \l/2 correction factor is 0.0015.
;
_exptl_crystal_colour            colourless
_exptl_crystal_colour_primary    colourless
_exptl_crystal_density_diffrn    1.555
_exptl_crystal_description       block
_exptl_crystal_F_000             1376
_exptl_crystal_size_max          0.108
_exptl_crystal_size_mid          0.086
_exptl_crystal_size_min          0.038
_refine_diff_density_max         0.504
_refine_diff_density_min         -0.818
_refine_diff_density_rms         0.048
_refine_ls_extinction_method     none
_refine_ls_goodness_of_fit_ref   1.037
_refine_ls_hydrogen_treatment    mixed
_refine_ls_matrix_type           full
_refine_ls_number_parameters     543
_refine_ls_number_reflns         4961
_refine_ls_number_restraints     666
_refine_ls_restrained_S_all      1.007
_refine_ls_R_factor_all          0.0474
_refine_ls_R_factor_gt           0.0432
_refine_ls_shift/su_max          0.001
_refine_ls_shift/su_mean         0.000
_refine_ls_structure_factor_coef Fsqd
_refine_ls_weighting_details
'w=1/[\s^2^(Fo^2^)+(0.0318P)^2^+3.6874P] where P=(Fo^2^+2Fc^2^)/3'
_refine_ls_weighting_scheme      calc
_refine_ls_wR_factor_gt          0.0987
_refine_ls_wR_factor_ref         0.1017
_reflns_Friedel_coverage         0.000
_reflns_number_gt                4523
_reflns_number_total             4961
_reflns_threshold_expression     'I > 2\s(I)'
_cod_data_source_file            ja511403t_si_002.cif
_cod_data_source_block           n3683
_cod_depositor_comments
'Adding full bibliography for 4123292--4123293.cif.'
_cod_database_code               4123292
#BEGIN Tags that were not found in dictionaries:
_shelxl_version_number           2014-3
_shelx_space_group_comment
;
The symmetry employed for this shelxl refinement is uniquely defined
by the following loop, which should always be used as a source of
symmetry information in preference to the above space-group names.
They are only intended as comments.
;
_shelx_estimated_absorpt_t_max   0.934
_shelx_estimated_absorpt_t_min   0.826
_olex2_refinement_description
;
1. Fixed Uiso
 At 1.2 times of:
  All C(H) groups
 At 1.5 times of:
  All C(H,H,H) groups, All C(H,H,H,H,H,H) groups
2. Restrained distances
 C22-C21 \\sim C23-C22 \\sim C24-C23 \\sim C25-C24 \\sim C26-C25 \\sim C26-C21
\\sim C26A-C21A \\sim C22A-
 C21A \\sim C23A-C22A \\sim C24A-C23A \\sim C25A-C24A \\sim C26A-C25A
 with sigma of 0.02
 N2-C21A \\sim N2-C21
 with sigma of 0.02
 C27-C23 \\sim C27A-C23A \\sim C28-C25 \\sim C28A-C25A
 with sigma of 0.02
 F2-C27 \\sim F1-C27 \\sim F2A-C27A \\sim F3-C27 \\sim F3A-C27A \\sim F1A-C27A
\\sim F5A-C28A \\sim F6A-
 C28A \\sim F4A-C28A \\sim F6-C28 \\sim F4-C28
 with sigma of 0.02
 F6A-F5A \\sim F2A-F1A \\sim F2-F1 \\sim F5A-F4A \\sim F1-F3 \\sim F1A-F3A
\\sim F4-F6 \\sim F4A-F6A \\sim F3-
 F2 \\sim F3A-F2A
 with sigma of 0.02
 S1-O7 \\sim S1A-O7
 with sigma of 0.02
 S1-C29 \\sim S1-C30 \\sim S1A-C30 \\sim S1A-C29A
 with sigma of 0.02
3. Uiso/Uaniso restraints and constraints
Uanis(C29) = Uanis(S1) = Uanis(O7) = Uanis(C30) = Uanis(S1A) = Uanis(C29A)
4. Rigid body (RIGU) restrains
 All non-hydrogen atoms
 with sigma for 1-2 distances of 0.004 and sigma for 1-3 distances of 0.004
5. Others
 Sof(C21A)=Sof(C22A)=Sof(H22A)=Sof(C23A)=Sof(C24A)=Sof(H24A)=Sof(C25A)=
 Sof(C26A)=Sof(H26A)=Sof(C27A)=Sof(C28A)=Sof(F1A)=Sof(F2A)=Sof(F3A)=Sof(F5A)=
 Sof(F6A)=Sof(F4A)=1-FVAR(1)
 Sof(F3)=Sof(C21)=Sof(F1)=Sof(F2)=Sof(C26)=Sof(H26)=Sof(F6)=Sof(C22)=Sof(H22)=
 Sof(F4)=Sof(C25)=Sof(C23)=Sof(C24)=Sof(H24)=Sof(C27)=Sof(C28)=Sof(F5)=FVAR(1)
 Sof(H30D)=Sof(H30E)=Sof(H30F)=Sof(S1A)=Sof(C29A)=Sof(H29D)=Sof(H29E)=
 Sof(H29F)=1-FVAR(2)
 Sof(S1)=Sof(H30A)=Sof(H30B)=Sof(H30C)=Sof(C29)=Sof(H29A)=Sof(H29B)=Sof(H29C)=
 FVAR(2)
6.a Me refined with riding coordinates:
 C30(H30A,H30B,H30C), C30(H30D,H30E,H30F)
6.b Aromatic/amide H refined with riding coordinates:
 C9(H9), C17(H17), C18(H18), C14(H14), C15(H15), C6(H6), C8(H8), C26(H26),
 C22(H22), C24(H24), C22A(H22A), C24A(H24A), C26A(H26A)
6.c Idealised Me refined as rotating group:
 C12(H12A,H12B,H12C), C20(H20A,H20B,H20C), C29(H29A,H29B,H29C), C29A(H29D,H29E,
 H29F)
;
_shelx_res_file
;
TITL n3683 in P21/c #14
CELL 1.54178 10.668 35.2141 7.6499 90 94.455 90
ZERR 4 0.0004 0.0014 0.0003 0 0.002 0
LATT 1
SYMM -X,0.5+Y,0.5-Z

SFAC C H F N O S
UNIT 120 96 24 8 28 4
SADI C22 C21 C23 C22 C24 C23 C25 C24 C26 C25 C26 C21 C26A C21A C22A C21A =
 C23A C22A C24A C23A C25A C24A C26A C25A
SADI N2 C21A N2 C21
SADI C27 C23 C27A C23A C28 C25 C28A C25A
SADI F2 C27 F1 C27 F2A C27A F3 C27 F3A C27A F1A C27A F5A C28A F6A C28A F4A =
 C28A F6 C28 F4 C28
SADI F6A F5A F2A F1A F2 F1 F5A F4A F1 F3 F1A F3A F4 F6 F4A F6A F3 F2 F3A F2A
SADI S1 O7 S1A O7
SADI S1 C29 S1 C30 S1A C30 S1A C29A
RIGU
EADP C29 S1 O7 C30 S1A C29A

L.S. 10 0 0
PLAN  20
SIZE 0.038 0.086 0.108
TEMP -173.16
fmap 2 53
ACTA
BOND $H
CONF
WPDB -2
REM <HKL>Y:/Amy/n3683/small/n3683.hkl</HKL>

WGHT    0.031800    3.687400
FVAR       0.09252   0.51686   0.54201
O3    5    0.300026    0.790248   -0.620760    11.00000    0.02376    0.02520 =
         0.02093   -0.00745   -0.00431    0.00100
O6    5    1.026160    0.777797    0.508443    11.00000    0.02311    0.03337 =
         0.02270    0.00074    0.00003    0.00197
PART 1
F3    3    0.365803    1.102235    0.292070    21.00000    0.03448    0.02447 =
         0.02311    0.00722    0.00368    0.00774
PART 0
O5    5    0.911557    0.816529    0.665354    11.00000    0.02304    0.03902 =
         0.02264   -0.00927   -0.00241   -0.00196
N1    4    0.497595    0.876747    0.020617    11.00000    0.01885    0.01468 =
         0.01998   -0.00197   -0.00221   -0.00162
N2    4    0.535501    0.960359    0.155427    11.00000    0.02551    0.01501 =
         0.01963   -0.00253    0.00129    0.00178
C1    1    0.413952    0.904450    0.041260    11.00000    0.01782    0.02149 =
         0.01326    0.00038    0.00006   -0.00113
C11   1    0.300336    0.820744   -0.517196    11.00000    0.02434    0.02038 =
         0.02155   -0.00279    0.00193   -0.00406
C5    1    0.476289    0.844143   -0.086302    11.00000    0.02195    0.01495 =
         0.01808   -0.00043    0.00314   -0.00469
C9    1    0.537618    0.781547   -0.171775    11.00000    0.02274    0.01484 =
         0.02191    0.00059    0.00278   -0.00158
AFIX  43
H9    2    0.586997    0.759335   -0.150501    11.00000   -1.20000
AFIX   0
C10   1    0.551480    0.811652   -0.052492    11.00000    0.02057    0.01646 =
         0.01842    0.00144    0.00426   -0.00360
O4    5    0.245284    0.849653   -0.556075    11.00000    0.06637    0.02645 =
         0.03445   -0.00665   -0.02254    0.01306
C17   1    0.852180    0.787466    0.214802    11.00000    0.02017    0.02255 =
         0.02368   -0.00264    0.00201   -0.00044
AFIX  43
H17   2    0.930386    0.775826    0.196286    11.00000   -1.20000
AFIX   0
C19   1    0.932418    0.796359    0.522901    11.00000    0.02251    0.02262 =
         0.02028    0.00017    0.00261   -0.00569
C18   1    0.762864    0.792008    0.076105    11.00000    0.02552    0.01982 =
         0.01829   -0.00339    0.00334   -0.00172
AFIX  43
H18   2    0.781058    0.783914   -0.037656    11.00000   -1.20000
AFIX   0
C14   1    0.621366    0.819865    0.269622    11.00000    0.01982    0.01510 =
         0.02219    0.00012    0.00284   -0.00157
AFIX  43
H14   2    0.541787    0.830467    0.289263    11.00000   -1.20000
AFIX   0
C16   1    0.828263    0.799870    0.381980    11.00000    0.02199    0.01681 =
         0.02132    0.00001    0.00190   -0.00423
C15   1    0.711783    0.815995    0.409074    11.00000    0.02465    0.01799 =
         0.01766   -0.00051    0.00300   -0.00407
AFIX  43
H15   2    0.694420    0.824310    0.522838    11.00000   -1.20000
AFIX   0
C13   1    0.645883    0.808343    0.100217    11.00000    0.02234    0.01112 =
         0.02043    0.00120    0.00164   -0.00397
O1    5    0.187434    0.887237   -0.016095    11.00000    0.02080    0.09067 =
         0.02870   -0.01473    0.00212   -0.01970
O2    5    0.223204    0.975970    0.102393    11.00000    0.04257    0.06949 =
         0.03285    0.00418    0.00590    0.03975
C6    1    0.391718    0.845585   -0.233330    11.00000    0.02286    0.01520 =
         0.02085    0.00157    0.00219   -0.00211
AFIX  43
H6    2    0.340185    0.867382   -0.253790    11.00000   -1.20000
AFIX   0
PART 1
C21   1    0.567048    0.994693    0.242958    21.00000    0.01720    0.01194 =
         0.01217    0.00158    0.00214    0.00334
F1    3    0.301289    1.061679    0.473886    21.00000    0.03394    0.01827 =
         0.02835    0.00221    0.01610    0.00504
F2    3    0.443305    1.103127    0.556960    21.00000    0.04371    0.02234 =
         0.02459   -0.01181    0.00255    0.00820
PART 0
C8    1    0.454760    0.783024   -0.319090    11.00000    0.02477    0.01674 =
         0.01967   -0.00326    0.00455   -0.00501
AFIX  43
H8    2    0.447635    0.762153   -0.397924    11.00000   -1.20000
AFIX   0
C7    1    0.381560    0.815392   -0.351347    11.00000    0.02151    0.01829 =
         0.01849   -0.00026    0.00303   -0.00524
C2    1    0.275784    0.908057    0.023952    11.00000    0.01837    0.05188 =
         0.01524   -0.00254    0.00051   -0.00064
C4    1    0.429054    0.941712    0.103911    11.00000    0.02142    0.01966 =
         0.01307    0.00115    0.00054    0.00467
C12   1    0.227270    0.793763   -0.787578    11.00000    0.02490    0.03463 =
         0.01995   -0.00594   -0.00386   -0.00078
AFIX 137
H12A  2    0.270815    0.810766   -0.864225    11.00000   -1.50000
H12B  2    0.144211    0.804215   -0.768984    11.00000   -1.50000
H12C  2    0.217493    0.768690   -0.842541    11.00000   -1.50000
AFIX   0
PART 1
C26   1    0.692170    1.004082    0.283530    21.00000    0.01623    0.01338 =
         0.01575    0.00109    0.00199    0.00163
AFIX  43
H26   2    0.756303    0.987478    0.250115    21.00000   -1.20000
AFIX   0
PART 0
C3    1    0.292430    0.949069    0.083250    11.00000    0.02476    0.04528 =
         0.01604    0.00153    0.00160    0.01351
PART 1
F6    3    0.884089    1.083236    0.422120    21.00000    0.02848    0.02044 =
         0.05192   -0.00217   -0.00565   -0.00553
C22   1    0.472948    1.019514    0.288825    21.00000    0.01516    0.01873 =
         0.01584    0.00206    0.00201    0.00028
AFIX  43
H22   2    0.386961    1.013851    0.258284    21.00000   -1.20000
AFIX   0
F4    3    0.907134    1.030076    0.559355    21.00000    0.03305    0.04294 =
         0.03739    0.01295   -0.01211   -0.00267
PART 0
C20   1    1.015209    0.817039    0.800300    11.00000    0.02499    0.05507 =
         0.02427   -0.01039   -0.00406   -0.00569
AFIX 137
H20A  2    1.089890    0.827811    0.752067    11.00000   -1.50000
H20B  2    1.033374    0.791063    0.840682    11.00000   -1.50000
H20C  2    0.992272    0.832587    0.899164    11.00000   -1.50000
AFIX   0
PART 1
C25   1    0.724749    1.037327    0.372053    21.00000    0.02059    0.01739 =
         0.01638    0.00358   -0.00166    0.00178
C23   1    0.506796    1.052780    0.380187    21.00000    0.01876    0.01799 =
         0.01444    0.00095    0.00117    0.00194
C24   1    0.632534    1.061747    0.423448    21.00000    0.02063    0.01727 =
         0.01597    0.00021   -0.00066    0.00117
AFIX  43
H24   2    0.654751    1.084231    0.487138    21.00000   -1.20000
AFIX   0
C27   1    0.405523    1.079595    0.426151    21.00000    0.02650    0.01580 =
         0.01684    0.00122    0.00259    0.00324
C28   1    0.861518    1.046640    0.410513    21.00000    0.02272    0.01549 =
         0.03173   -0.00146   -0.00847    0.00112
PART 0
PART 2
C21A  1    0.533449    0.996011    0.240340   -21.00000    0.01815    0.01702 =
         0.01520    0.00055    0.00078   -0.00035
C22A  1    0.430054    1.018015    0.273036   -21.00000    0.02198    0.01408 =
         0.01869    0.00260    0.00593    0.00264
AFIX  43
H22A  2    0.347463    1.010045    0.234251   -21.00000   -1.20000
AFIX   0
C23A  1    0.449648    1.051919    0.363567   -21.00000    0.02906    0.01681 =
         0.01769    0.00507    0.00776    0.00123
C24A  1    0.569148    1.063584    0.424575   -21.00000    0.03067    0.01274 =
         0.01808   -0.00128    0.00624    0.00285
AFIX  43
H24A  2    0.580424    1.086499    0.489432   -21.00000   -1.20000
AFIX   0
C25A  1    0.672042    1.041596    0.390328   -21.00000    0.02538    0.01772 =
         0.01850   -0.00125    0.00295    0.00073
C26A  1    0.653936    1.007846    0.297122   -21.00000    0.01967    0.01740 =
         0.01880    0.00072    0.00487    0.00362
AFIX  43
H26A  2    0.724361    0.992831    0.272228   -21.00000   -1.20000
AFIX   0
C27A  1    0.337647    1.076574    0.394357   -21.00000    0.03369    0.01973 =
         0.02317   -0.00022    0.01042    0.00515
C28A  1    0.801233    1.053482    0.450934   -21.00000    0.02955    0.02568 =
         0.02513   -0.00135    0.00122   -0.00343
F1A   3    0.228020    1.058276    0.370316   -21.00000    0.03816    0.03049 =
         0.11952   -0.01212    0.03453    0.00048
F2A   3    0.344783    1.091009    0.554174   -21.00000    0.08936    0.06897 =
         0.02310   -0.00583    0.00648    0.05522
F3A   3    0.328471    1.105968    0.284368   -21.00000    0.03750    0.03265 =
         0.02955    0.01159    0.00451    0.01067
F5A   3    0.806681    1.071893    0.603803   -21.00000    0.05496    0.03767 =
         0.01882   -0.00581    0.00033   -0.02050
F6A   3    0.850441    1.077134    0.337359   -21.00000    0.04580    0.06240 =
         0.02509    0.00334    0.00279   -0.02805
F4A   3    0.880576    1.024264    0.472161   -21.00000    0.03924    0.03910 =
         0.08901   -0.02397   -0.03047    0.00305
PART 0
PART 1
F5    3    0.932117    1.032934    0.287155    21.00000    0.02422    0.04508 =
         0.04722   -0.01475    0.00278   -0.00532

S1    6    0.855848    0.896921    0.045148    31.00000    0.01585    0.04218 =
         0.04108    0.00587    0.00205    0.00391
PART 0
O7    5    0.728646    0.910935    0.100203    11.00000    0.01585    0.04218 =
         0.04108    0.00587    0.00205    0.00391
C30   1    0.947820    0.892167    0.247190    11.00000    0.01585    0.04218 =
         0.04108    0.00587    0.00205    0.00391
PART 1
AFIX  33
H30A  2    1.032115    0.883201    0.225129    31.00000   -1.50000
H30B  2    0.954227    0.916845    0.306425    31.00000   -1.50000
H30C  2    0.907950    0.873827    0.321683    31.00000   -1.50000
AFIX  33
PART 0
PART 2
H30D  2    1.037068    0.889990    0.226623   -31.00000   -1.50000
H30E  2    0.937890    0.910129    0.342987   -31.00000   -1.50000
H30F  2    0.915596    0.867234    0.278800   -31.00000   -1.50000
AFIX   0
PART 0
PART 1
C29   1    0.921246    0.937307   -0.054918    31.00000    0.01585    0.04218 =
         0.04108    0.00587    0.00205    0.00391
AFIX 137
H29A  2    0.875294    0.942097   -0.168723    31.00000   -1.50000
H29B  2    1.009958    0.932498   -0.071933    31.00000   -1.50000
H29C  2    0.914435    0.959527    0.020895    31.00000   -1.50000
AFIX   0
PART 0
PART 2
S1A   6    0.866210    0.908019    0.062044   -31.00000    0.01585    0.04218 =
         0.04108    0.00587    0.00205    0.00391
C29A  1    0.934757    0.953872    0.080776   -31.00000    0.01585    0.04218 =
         0.04108    0.00587    0.00205    0.00391
AFIX 137
H29D  2    0.893595    0.970661   -0.008323   -31.00000   -1.50000
H29E  2    1.024615    0.952125    0.063328   -31.00000   -1.50000
H29F  2    0.923932    0.964165    0.197670   -31.00000   -1.50000
AFIX   0

PART 0
H1    2    0.577559    0.882306    0.049781    11.00000    0.02859
H2    2    0.606623    0.948018    0.139694    11.00000    0.02994
HKLF 4

REM  n3683 in P21/c #14
REM R1 =  0.0432 for    4523 Fo > 4sig(Fo)  and  0.0474 for all    4961 data
REM    543 parameters refined using    666 restraints

END

WGHT      0.0318      3.6875

REM Highest difference peak  0.504,  deepest hole -0.818,  1-sigma level  0.048
Q1    1   0.9162  0.8977  0.3367  11.00000  0.05    0.50
Q2    1   0.8784  0.8971  0.1738  11.00000  0.05    0.46
Q3    1   0.8842  0.9209  0.0473  11.00000  0.05    0.36
Q4    1   0.7065  0.9239  0.0414  11.00000  0.05    0.35
Q5    1   0.9432  0.9609  0.1468  11.00000  0.05    0.34
Q6    1   0.7274  0.8989  0.1733  11.00000  0.05    0.29
Q7    1   0.9468  0.9390  0.0232  11.00000  0.05    0.28
Q8    1   0.1967  0.9589  0.1510  11.00000  0.05    0.25
Q9    1   1.0016  0.8937  0.2083  11.00000  0.05    0.23
Q10   1   0.8921  0.9174 -0.0900  11.00000  0.05    0.23
Q11   1   0.4333  0.9217  0.1129  11.00000  0.05    0.23
Q12   1   0.8746  1.0615  0.5921  11.00000  0.05    0.23
Q13   1   0.8428  1.0433  0.6040  11.00000  0.05    0.21
Q14   1   0.3444  0.8988  0.0315  11.00000  0.05    0.21
Q15   1   0.8821  0.9454  0.1671  11.00000  0.05    0.21
Q16   1   0.5678  0.7993 -0.1336  11.00000  0.05    0.19
Q17   1   0.4969  0.8179 -0.0359  11.00000  0.05    0.19
Q18   1   0.3664  0.8209 -0.4387  11.00000  0.05    0.19
Q19   1   0.9171  1.0611  0.3326  11.00000  0.05    0.18
Q20   1   0.4065  0.8386 -0.1251  11.00000  0.05    0.18
;
_shelx_res_checksum              53911
_shelx_hkl_file
;
   0   0   1   -0.23    0.01
   0   0   2  159.83    3.40
   0   0   3   -0.03    0.02
   0   0   4    0.90    0.04
   0   0   5    0.01    0.02
   0   0   5   -0.01    0.03
   0   0   5   -0.03    0.02
   0   0   6   20.19    0.40
   0   0   6   19.85    0.47
   0   0   6   19.43    0.51
   0   0   6   20.20    0.45
   0   0   7    0.02    0.04
   0   0   8    0.51    0.07
   0   0   9   -0.02    0.03
   0   1   1    0.53    0.02
   0  -1   1    0.54    0.02
   0   1   2   45.25    0.95
   0  -1   2   44.55    0.96
   0   1   3   30.58    0.65
   0  -1   3   30.26    0.65
   0   1   4    2.95    0.08
   0  -1   4    3.04    0.08
   0   1   5    2.15    0.07
   0   1   5    2.26    0.06
   0   1   5    2.22    0.10
   0  -1   5    2.27    0.07
   0  -1   5    2.19    0.10
   0  -1   5    2.17    0.06
   0   1   6    3.93    0.10
   0   1   6    3.99    0.12
   0   1   6    4.06    0.15
   0   1   6    4.11    0.11
   0  -1   6    3.92    0.12
   0  -1   6    3.83    0.10
   0  -1   6    3.84    0.14
   0  -1   6    3.99    0.12
   0   1   7    0.41    0.06
   0  -1   7    0.53    0.08
   0   1   8    0.95    0.08
   0  -1   8    0.93    0.08
   0   1   9    0.23    0.04
   0  -1   9    0.22    0.04
   0   2   0   58.70    1.25
   0   2   1   -0.07    0.01
   0  -2   1   -0.05    0.02
   0   2   2   15.96    0.34
   0  -2   2   15.80    0.34
   0   2   3   89.40    1.89
   0  -2   3   88.28    1.89
   0   2   4    1.45    0.05
   0  -2   4    1.49    0.05
   0   2   5   28.88    0.64
   0   2   5   28.86    0.56
   0   2   5   29.70    0.72
   0  -2   5   28.30    0.72
   0  -2   5   29.15    0.64
   0  -2   5   29.48    0.57
   0   2   6   18.93    0.38
   0   2   6   19.40    0.44
   0   2   6   19.43    0.50
   0  -2   6   19.85    0.44
   0  -2   6   19.29    0.45
   0  -2   6   18.99    0.50
   0  -2   6   19.10    0.39
   0   2   7    0.57    0.08
   0  -2   7    0.58    0.08
   0   2   8    0.04    0.04
   0  -2   8   -0.02    0.04
   0   2   9    0.44    0.05
   0  -2   9    0.47    0.05
   0   3   0   -0.05    0.01
   0   3   1    0.86    0.03
   0  -3   1    0.85    0.03
   0   3   2  328.09    7.04
   0  -3   2  334.98    7.04
   0   3   3    4.26    0.10
   0  -3   3    4.30    0.11
   0   3   4   17.34    0.38
   0  -3   4   17.26    0.38
   0   3   5    4.58    0.15
   0   3   5    4.65    0.12
   0   3   5    4.48    0.10
   0  -3   5    4.31    0.14
   0  -3   5    4.58    0.12
   0   3   6    0.04    0.02
   0   3   6    0.11    0.04
   0   3   6    0.03    0.02
   0  -3   6    0.03    0.03
   0  -3   6    0.05    0.02
   0  -3   6    0.03    0.04
   0  -3   6    0.04    0.03
   0   3   7   12.98    0.36
   0   3   8    0.04    0.04
   0  -3   8    0.02    0.04
   0  -3   9    0.16    0.04
   0   4   0    2.92    0.08
   0  -4   0    2.73    0.08
   0   4   1    2.61    0.06
   0  -4   1    2.69    0.07
   0   4   2  121.12    2.57
   0  -4   2  120.88    2.57
   0   4   3    5.04    0.12
   0  -4   3    4.96    0.12
   0   4   4   20.16    0.44
   0  -4   4   19.94    0.44
   0   4   5    0.03    0.02
   0   4   5    0.03    0.04
   0   4   5    0.03    0.02
   0  -4   5    0.08    0.03
   0  -4   5    0.03    0.02
   0   4   6    1.01    0.05
   0   4   6    1.03    0.08
   0   4   6    1.10    0.05
   0  -4   6    1.05    0.08
   0  -4   6    0.92    0.06
   0  -4   6    1.06    0.06
   0   4   7   12.53    0.34
   0  -4   7   12.49    0.35
   0   4   8    2.01    0.10
   0  -4   8    1.92    0.10
   0  -4   9    0.48    0.05
   0   5   0   -0.56    0.01
   0  -5   0   -0.57    0.01
   0   5  -1  162.19    3.52
   0   5   1  167.56    3.53
   0  -5   1  167.22    3.52
   0   5   2  357.67    7.58
   0  -5   2  356.26    7.59
   0   5   3   58.36    1.24
   0  -5   3   58.32    1.25
   0   5   4   20.81    0.46
   0  -5   4   20.78    0.46
   0   5   5    8.89    0.18
   0   5   5    8.66    0.25
   0   5   5    8.54    0.21
   0  -5   5    8.62    0.24
   0  -5   5    8.82    0.21
   0   5   6    3.18    0.10
   0   5   6    3.25    0.13
   0   5   6    3.36    0.09
   0  -5   6    3.30    0.10
   0  -5   6    3.27    0.11
   0  -5   6    3.32    0.13
   0   5   7   16.27    0.34
   0   5   7   16.49    0.43
   0  -5   7   16.08    0.43
   0   5   8    5.38    0.17
   0  -5   8    5.65    0.18
   0  -5   9    0.47    0.05
   0   6   0   33.30    0.69
   0  -6   0   31.31    0.69
   0   6  -1    0.04    0.02
   0   6   1    0.03    0.01
   0  -6   1    0.03    0.02
   0   6   2  182.18    3.92
   0   6   2  184.32    5.13
   0  -6   2  186.76    3.91
   0   6   3    1.82    0.06
   0  -6   3    1.75    0.06
   0   6   4    3.16    0.09
   0  -6   4    3.24    0.09
   0   6   5    5.12    0.11
   0   6   5    5.14    0.13
   0   6   5    5.19    0.16
   0  -6   5    5.12    0.14
   0  -6   5    5.17    0.16
   0  -6   5    4.89    0.14
   0  -6   5    4.83    0.12
   0   6   6    0.02    0.02
   0   6   6   -0.01    0.02
   0   6   6   -0.02    0.04
   0  -6   6    0.06    0.03
   0  -6   6    0.00    0.03
   0  -6   6    0.08    0.04
   0   6   7   34.51    0.70
   0   6   7   36.71    0.89
   0  -6   7   35.69    0.83
   0  -6   7   36.26    0.89
   0   6   8    2.13    0.10
   0  -6   8    2.26    0.11
   0   7   0   -0.03    0.01
   0  -7   0   -0.02    0.02
   0   7   1   38.32    0.82
   0   7  -1   38.83    0.82
   0  -7   1   37.89    0.82
   0   7   2   21.45    0.46
   0   7   2   21.44    0.61
   0  -7   2   21.02    0.46
   0   7   3    0.47    0.03
   0  -7   3    0.47    0.04
   0   7   4   13.75    0.31
   0  -7   4   13.57    0.31
   0   7   5    2.99    0.07
   0   7   5    3.00    0.12
   0   7   5    3.01    0.09
   0  -7   5    2.96    0.09
   0  -7   5    2.91    0.10
   0  -7   5    2.99    0.11
   0   7   6   22.73    0.59
   0   7   6   23.67    0.52
   0   7   6   22.82    0.46
   0  -7   6   23.42    0.59
   0  -7   6   23.05    0.52
   0  -7   6   23.02    0.54
   0   7   7   11.97    0.34
   0  -7   7   12.08    0.34
   0  -7   7   12.61    0.30
   0   7   8   -0.04    0.04
   0  -7   8    0.02    0.04
   0   8   0  609.41   12.64
   0  -8   0  582.54   12.64
   0   8  -1   55.41    1.16
   0   8   1   53.32    1.16
   0  -8   1   55.06    1.16
   0   8   2   23.58    0.51
   0   8   2   23.04    0.66
   0  -8   2   23.64    0.51
   0   8   3    7.24    0.17
   0  -8   3    7.32    0.17
   0   8   4  119.07    2.53
   0  -8   4  119.08    2.54
   0   8   5   15.82    0.31
   0   8   5   15.41    0.37
   0   8   5   16.26    0.36
   0   8   5   15.50    0.41
   0  -8   5   15.37    0.41
   0  -8   5   15.71    0.36
   0  -8   5   15.75    0.38
   0   8   6    2.73    0.12
   0   8   6    2.65    0.07
   0  -8   6    2.75    0.10
   0  -8   6    2.72    0.12
   0   8   7    3.17    0.13
   0  -8   7    2.99    0.13
   0  -8   7    3.18    0.10
   0   8   8    0.23    0.05
   0  -8   8    0.30    0.05
   0   9   0    0.01    0.02
   0  -9   0    0.08    0.02
   0   9  -1   87.31    1.82
   0   9   1   85.26    1.82
   0  -9   1   84.66    1.82
   0   9   2    4.79    0.15
   0   9   2    4.80    0.12
   0  -9   2    4.80    0.12
   0   9   3   10.85    0.25
   0  -9   3   10.88    0.25
   0   9   4    7.50    0.17
   0  -9   4    7.01    0.18
   0   9   5    0.02    0.02
   0   9   5    0.01    0.02
   0   9   5    0.07    0.04
   0   9   5    0.00    0.02
   0  -9   5    0.03    0.04
   0  -9   5    0.05    0.03
   0  -9   5    0.01    0.03
   0   9   6    6.36    0.14
   0   9   6    6.07    0.20
   0  -9   6    6.43    0.20
   0  -9   6    6.35    0.17
   0   9   7    0.66    0.08
   0  -9   7    0.72    0.08
   0  -9   7    0.71    0.05
   0   9   8    1.00    0.07
   0  -9   8    1.05    0.08
   0 -10   0  387.36    8.22
   0  10   1    9.82    0.22
   0  10  -1    9.81    0.22
   0 -10   1    9.48    0.22
   0  10   2    1.13    0.05
   0  10   2    1.30    0.06
   0 -10   2    1.16    0.05
   0  10   3   10.76    0.25
   0 -10   3   11.18    0.25
   0  10   4   39.34    0.84
   0 -10   4   38.34    0.85
   0  10   5    0.84    0.04
   0  10   5    0.96    0.05
   0  10   5    0.89    0.05
   0  10   5    0.81    0.07
   0 -10   5    0.93    0.06
   0 -10   5    0.93    0.08
   0 -10   5    0.89    0.06
   0  10   6    0.43    0.05
   0  10   6    0.40    0.04
   0 -10   6    0.42    0.06
   0 -10   6    0.52    0.05
   0  10   7    0.06    0.04
   0 -10   7    0.11    0.05
   0 -10   7    0.08    0.03
   0  10   8    0.80    0.07
   0 -10   8    0.81    0.07
   0  11   0    0.03    0.02
   0 -11   0    0.03    0.02
   0  11   1    7.15    0.17
   0  11  -1    7.25    0.17
   0 -11   1    7.19    0.17
   0  11   2    6.75    0.16
   0  11   2    6.73    0.21
   0 -11   2    7.34    0.17
   0  11   3   45.04    0.97
   0 -11   3   45.15    0.97
   0  11   4    7.24    0.17
   0 -11   4    7.12    0.18
   0  11   5    3.22    0.12
   0  11   5    3.05    0.08
   0  11   5    2.86    0.09
   0  11   5    2.94    0.09
   0 -11   5    2.63    0.10
   0 -11   5    2.96    0.10
   0 -11   5    2.99    0.12
   0 -11   5    3.02    0.10
   0  11   6   21.93    0.44
   0  11   6   21.84    0.57
   0 -11   6   23.16    0.58
   0 -11   6   22.44    0.53
   0  11   7    0.00    0.04
   0 -11   7    0.00    0.03
   0 -11   7    0.02    0.04
   0  11   8    2.53    0.10
   0 -11   8    2.78    0.11
   0  12   0   42.06    0.90
   0 -12   0   41.74    0.90
   0  12   1   13.57    0.30
   0  12  -1   13.38    0.30
   0  12   1   12.51    0.38
   0 -12   1   13.55    0.30
   0  12   2    1.53    0.07
   0  12   2    1.28    0.05
   0 -12   2    1.35    0.06
   0  12   3   68.67    1.46
   0 -12   3   68.12    1.47
   0  12   4    4.88    0.13
   0 -12   4    5.01    0.14
   0  12   5   17.04    0.38
   0  12   5   16.67    0.43
   0  12   5   16.35    0.39
   0  12   5   16.14    0.33
   0 -12   5   17.05    0.40
   0 -12   5   16.61    0.39
   0 -12   5   16.69    0.43
   0 -12   5   16.44    0.40
   0  12   6    8.21    0.18
   0  12   6    8.31    0.25
   0 -12   6    8.64    0.25
   0 -12   6    8.92    0.23
   0  12   7    0.09    0.04
   0 -12   7    0.26    0.04
   0 -12   7    0.21    0.05
   0  12   8    1.42    0.08
   0 -12   8    1.57    0.09
   0  13   0    0.02    0.02
   0 -13   0   -0.03    0.02
   0  13   1   29.08    0.86
   0  13   1   30.60    0.66
   0  13  -1   30.92    0.66
   0 -13   1   31.39    0.66
   0  13   2    0.99    0.05
   0  13   2    1.00    0.05
   0 -13   2    1.00    0.05
   0  13   3   24.01    0.53
   0 -13   3   24.45    0.54
   0  13   4    3.70    0.10
   0 -13   4    3.67    0.11
   0  13   5    0.72    0.04
   0  13   5    0.60    0.05
   0  13   5    0.67    0.05
   0  13   5    0.58    0.07
   0 -13   5    0.66    0.06
   0 -13   5    0.69    0.06
   0 -13   5    0.74    0.06
   0 -13   5    0.70    0.07
   0  13   6    1.75    0.06
   0  13   6    1.86    0.10
   0 -13   6    1.71    0.08
   0 -13   6    1.85    0.10
   0  13   7    0.01    0.04
   0 -13   7    0.03    0.03
   0 -13   7    0.06    0.04
   0 -13   8    0.74    0.07
   0  14   0   19.37    0.42
   0 -14   0   18.57    0.42
   0  14   1    7.66    0.23
   0  14   1    7.51    0.18
   0 -14   1    7.85    0.18
   0  14   2    2.55    0.10
   0  14   2    2.62    0.08
   0 -14   2    2.95    0.09
   0  14   3   27.41    0.60
   0 -14   3   27.13    0.60
   0  14   4    2.18    0.07
   0 -14   4    2.04    0.08
   0 -14   4    2.23    0.09
   0  14   5    5.25    0.14
   0  14   5    5.11    0.12
   0  14   5    4.98    0.17
   0  14   5    5.26    0.14
   0 -14   5    5.31    0.15
   0 -14   5    5.00    0.17
   0 -14   5    5.26    0.15
   0 -14   5    5.38    0.15
   0  14   6    1.21    0.06
   0  14   6    1.21    0.08
   0 -14   6    1.18    0.07
   0 -14   6    1.19    0.09
   0  14   7    8.78    0.26
   0 -14   7    9.64    0.27
   0 -14   7    9.01    0.23
   0 -14   8    0.08    0.04
   0  15   0   -0.02    0.02
   0  15  -1   22.23    0.49
   0  15   1   22.09    0.49
   0 -15   1   22.79    0.49
   0  15   2   13.60    0.32
   0 -15   2   14.43    0.32
   0  15   3    0.22    0.03
   0 -15   3    0.23    0.03
   0  15   4    0.06    0.02
   0  15   4    0.02    0.02
   0  15   4    0.01    0.02
   0 -15   4    0.09    0.04
   0 -15   4    0.03    0.03
   0 -15   4    0.04    0.03
   0  15   5    5.85    0.15
   0  15   5    5.78    0.18
   0  15   5    5.61    0.13
   0  15   5    5.51    0.15
   0 -15   5    5.54    0.16
   0 -15   5    5.62    0.18
   0 -15   5    5.59    0.16
   0 -15   5    5.45    0.16
   0  15   6   15.80    0.42
   0 -15   6   15.76    0.43
   0 -15   6   16.44    0.39
   0  15   7    2.45    0.11
   0 -15   7    2.71    0.09
   0 -15   7    2.63    0.12
   0 -15   8    1.51    0.08
   0  16   0   40.74    0.88
   0  16   1    6.80    0.17
   0 -16   1    7.38    0.18
   0  16   2    4.89    0.13
   0 -16   2    4.99    0.13
   0  16   3    3.25    0.10
   0 -16   3    3.28    0.10
   0  16   4    1.55    0.06
   0  16   4    1.49    0.07
   0  16   4    1.50    0.06
   0 -16   4    1.58    0.08
   0 -16   4    1.57    0.08
   0 -16   4    1.58    0.07
   0  16   5    3.99    0.12
   0  16   5    4.11    0.12
   0  16   5    4.35    0.11
   0 -16   5    4.16    0.15
   0 -16   5    4.19    0.13
   0 -16   5    4.15    0.13
   0  16   6    0.57    0.07
   0 -16   6    0.76    0.06
   0 -16   6    0.60    0.08
   0 -16   7    4.53    0.16
   0 -16   7    4.27    0.13
   0 -16   8    2.79    0.10
   0  17   0    0.06    0.02
   0  17   1    0.89    0.05
   0 -17   1    0.95    0.05
   0  17   2    1.51    0.06
   0 -17   2    1.49    0.07
   0  17   3    8.23    0.20
   0 -17   3    7.69    0.20
   0  17   4    0.42    0.05
   0  17   4    0.45    0.04
   0 -17   4    0.48    0.05
   0 -17   4    0.48    0.06
   0 -17   4    0.46    0.06
   0  17   5    0.05    0.03
   0  17   5    0.02    0.03
   0 -17   5    0.06    0.04
   0 -17   5    0.08    0.03
   0 -17   5    0.01    0.03
   0 -17   6    1.46    0.08
   0 -17   6    1.33    0.10
   0 -17   7    1.17    0.09
   0 -17   7    1.15    0.06
   0 -17   8   -0.02    0.03
   0  18   0    6.89    0.17
   0  18   1   23.92    0.53
   0  18   2    3.86    0.11
   0 -18   2    3.76    0.11
   0  18   3   33.39    0.71
   0 -18   3   31.24    0.72
   0  18   4   19.50    0.43
   0  18   4   18.66    0.45
   0 -18   4   18.92    0.44
   0 -18   4   18.80    0.49
   0 -18   4   18.75    0.46
   0  18   5    1.43    0.07
   0 -18   5    1.60    0.08
   0 -18   5    1.37    0.09
   0 -18   6    1.84    0.11
   0 -18   6    2.17    0.09
   0 -18   7    9.08    0.26
   0 -18   7    9.35    0.24
   0 -18   8    0.48    0.05
   0  19   0   -0.02    0.02
   0  19   1    7.48    0.18
   0  19   2    3.57    0.11
   0  19   3    0.18    0.03
   0  19   3    0.10    0.03
   0 -19   3    0.19    0.03
   0 -19   3    0.08    0.03
   0  19   4    0.47    0.05
   0  19   4    0.41    0.05
   0 -19   4    0.56    0.06
   0 -19   4    0.45    0.06
   0 -19   4    0.45    0.07
   0  19   5    0.11    0.03
   0 -19   5    0.15    0.04
   0 -19   5    0.10    0.04
   0 -19   6    0.25    0.05
   0 -19   6    0.16    0.04
   0 -19   7    2.41    0.11
   0 -19   7    2.33    0.09
   0  20   0   27.58    0.61
   0  20   1    0.45    0.04
   0  20   2    0.53    0.05
   0  20   3    4.81    0.14
   0  20   3    4.47    0.13
   0 -20   3    4.66    0.15
   0  20   4    0.30    0.04
   0  20   4    0.27    0.04
   0 -20   4    0.39    0.05
   0 -20   4    0.32    0.05
   0  20   5    2.81    0.10
   0 -20   5    3.07    0.12
   0 -20   5    3.09    0.13
   0 -20   6   14.52    0.37
   0 -20   6   14.71    0.39
   0 -20   7    1.77    0.08
   0 -20   7    2.07    0.10
   0  21   0    0.04    0.02
   0  21   1    9.02    0.22
   0  21   2    4.18    0.12
   0  21   3    2.69    0.09
   0  21   3    2.89    0.10
   0 -21   3    2.95    0.11
   0  21   4    0.37    0.05
   0  21   4    0.36    0.05
   0 -21   4    0.32    0.05
   0 -21   4    0.30    0.04
   0  21   5    0.50    0.05
   0 -21   5    0.47    0.05
   0 -21   5    0.42    0.06
   0 -21   6   10.56    0.30
   0 -21   6   10.66    0.28
   0 -21   7    0.08    0.04
   0 -21   7    0.19    0.03
   0  22   1    0.68    0.05
   0  22   2    0.04    0.03
   0  22   2    0.03    0.03
   0 -22   2    0.01    0.03
   0  22   3    6.78    0.18
   0  22   3    6.74    0.18
   0 -22   3    6.52    0.19
   0  22   4    0.60    0.05
   0 -22   4    0.59    0.07
   0 -22   4    0.58    0.07
   0  22   5    0.15    0.03
   0 -22   5    0.17    0.05
   0 -22   5    0.08    0.04
   0 -22   6    0.79    0.08
   0 -22   6    0.68    0.07
   0 -22   7   -0.03    0.04
   0 -22   7    0.03    0.03
   0  23   1    0.53    0.05
   0  23   1    0.50    0.06
   0  23   2   11.24    0.29
   0  23   2   11.89    0.28
   0 -23   2   11.93    0.30
   0  23   3    0.09    0.03
   0  23   3    0.10    0.03
   0 -23   3    0.10    0.04
   0  23   4    0.40    0.05
   0 -23   4    0.63    0.07
   0 -23   4    0.58    0.07
   0  23   5    1.42    0.07
   0 -23   5    1.44    0.09
   0 -23   5    1.48    0.09
   0 -23   6    3.01    0.11
   0 -23   6    3.02    0.12
   0 -23   7    0.42    0.05
   0 -23   7    0.42    0.05
   0  24   0   13.33    0.34
   0  24   1   -0.03    0.03
   0  24   1    0.01    0.03
   0  24  -1   -0.03    0.03
   0 -24   1    0.04    0.04
   0  24   2    4.09    0.13
   0  24   2    4.13    0.12
   0 -24   2    3.83    0.13
   0  24   3    1.60    0.07
   0  24   3    1.66    0.08
   0 -24   3    1.41    0.09
   0  24   4    2.85    0.10
   0 -24   4    2.78    0.12
   0  24   5   15.41    0.37
   0 -24   5   15.03    0.38
   0 -24   5   14.97    0.40
   0 -24   6    0.05    0.04
   0 -24   6    0.02    0.04
   0 -24   7    0.88    0.05
   0  25   0    0.02    0.03
   0  25   1    3.47    0.12
   0  25  -1    3.33    0.12
   0 -25   1    3.20    0.12
   0  25   2   12.59    0.31
   0  25   2   12.45    0.30
   0 -25   2   11.22    0.31
   0  25   3    0.01    0.03
   0  25   3    0.01    0.03
   0 -25   3    0.02    0.04
   0  25   4   16.40    0.40
   0 -25   4   16.49    0.41
   0  25   5    7.79    0.21
   0 -25   5    7.79    0.22
   0 -25   6    8.07    0.22
   0 -25   7    0.04    0.03
   0  26   0    6.23    0.18
   0  26  -1    8.17    0.23
   0  26   1    8.65    0.23
   0 -26   1    8.27    0.23
   0  26   2    2.47    0.10
   0  26   2    2.39    0.09
   0 -26   2    2.56    0.11
   0  26   3    0.62    0.06
   0 -26   3    0.57    0.07
   0  26   4    0.99    0.07
   0 -26   4    1.01    0.08
   0  26   5    2.46    0.09
   0 -26   5    2.62    0.11
   0 -26   5    2.31    0.10
   0 -26   6   -0.03    0.03
   0  27   0    0.00    0.04
   0  27  -1   11.12    0.30
   0  27   1   11.21    0.29
   0 -27   1   11.62    0.30
   0  27   2    0.85    0.06
   0  27   2    0.98    0.07
   0  27   3    0.03    0.03
   0 -27   3   -0.02    0.04
   0  27   4    0.43    0.06
   0 -27   4    0.48    0.06
   0  27   5    0.57    0.05
   0 -27   5    0.64    0.07
   0 -27   5    0.66    0.07
   0 -27   6    3.10    0.11
   0  28   0    6.50    0.19
   0  28  -1    9.74    0.26
   0  28   1    9.86    0.26
   0 -28   1    9.43    0.26
   0  28   2   18.49    0.47
   0 -28   2   19.79    0.47
   0  28   3    4.95    0.15
   0 -28   3    4.53    0.16
   0  28   4    1.91    0.09
   0 -28   4    1.93    0.10
   0  28   5    0.11    0.03
   0 -28   5    0.11    0.04
   0 -28   5    0.14    0.04
   0 -28   6    1.89    0.08
   0  29   0   -0.03    0.04
   0  29  -1    3.38    0.13
   0  29   1    3.36    0.12
   0 -29   1    3.01    0.12
   0  29   2    0.68    0.07
   0  29  -2    0.60    0.07
   0 -29   2    0.63    0.07
   0  29   3    0.21    0.04
   0 -29   3    0.10    0.04
   0  29   4   12.49    0.32
   0 -29   4   12.57    0.33
   0  29   5    1.36    0.06
   0 -29   5    1.48    0.08
   0 -29   5    1.47    0.08
   0 -29   6    2.64    0.09
   0  30   0   15.90    0.40
   0  30   1    3.59    0.13
   0  30  -1    3.42    0.13
   0  30   2    0.19    0.04
   0  30  -2    0.12    0.04
   0 -30   2    0.20    0.05
   0  30   3    2.68    0.11
   0 -30   3    2.75    0.12
   0  30   4    1.10    0.07
   0 -30   4    1.04    0.08
   0  30   5    0.30    0.04
   0 -30   5    0.17    0.04
   0 -30   5    0.21    0.04
   0 -30   6    0.13    0.03
   0  31   0    0.01    0.04
   0  31  -1    7.51    0.22
   0  31   1    7.68    0.22
   0  31  -2    0.61    0.07
   0  31   2    0.68    0.07
   0 -31   2    0.69    0.08
   0  31   3    0.01    0.03
   0 -31   3   -0.03    0.04
   0  31   4    0.99    0.06
   0 -31   4    1.09    0.08
   0  31   5    1.36    0.06
   0 -31   5    1.44    0.08
   0 -31   5    1.59    0.08
   0 -31   6    4.45    0.13
   0  32   0   22.65    0.55
   0  32   1    0.09    0.04
   0  32  -1    0.14    0.04
   0  32   2    2.16    0.10
   0  32  -2    2.11    0.10
   0 -32   2    2.01    0.11
   0  32   3    0.02    0.03
   0 -32   3    0.07    0.04
   0  32   4    0.40    0.05
   0 -32   4    0.47    0.05
   0 -32   5    1.86    0.08
   0 -32   5    1.97    0.09
   0  33   0    0.04    0.04
   0  33   1    0.04    0.04
   0  33  -1    0.08    0.04
   0  33   2    0.44    0.06
   0  33  -2    0.34    0.05
   0 -33   2    0.48    0.06
   0  33   3    0.02    0.03
   0 -33   3   -0.03    0.04
   0  33   4    2.86    0.10
   0 -33   4    3.35    0.12
   0 -33   5    0.06    0.03
   0  34   0    1.37    0.09
   0  34  -1    0.01    0.04
   0  34   1    0.00    0.04
   0  34   2    2.11    0.09
   0  34  -2    1.81    0.10
   0 -34   2    1.78    0.10
   0  34   3    1.52    0.08
   0 -34   3    1.57    0.09
   0  34   4    0.48    0.05
   0 -34   4    0.63    0.06
   0 -34   5    3.00    0.10
   0  35   0    0.01    0.04
   0  35  -1    2.85    0.12
   0  35   1    2.72    0.11
   0  35   2    0.35    0.05
   0  35  -2    0.32    0.05
   0 -35   2    0.25    0.05
   0  35   3    2.59    0.10
   0 -35   3    2.49    0.11
   0  35   4    0.03    0.03
   0 -35   4    0.03    0.04
   0 -35   4    0.04    0.03
   0  36   0    8.91    0.24
   0  36   1    6.80    0.20
   0  36  -1    7.16    0.20
   0  36  -2    0.07    0.04
   0  36   2    0.07    0.04
   0 -36   2    0.01    0.04
   0  36   3    0.01    0.03
   0 -36   3    0.05    0.04
   0  36   4    0.32    0.04
   0 -36   4    0.35    0.04
   0 -36   4    0.28    0.04
   0  37   0    0.06    0.04
   0  37   1    0.22    0.04
   0  37  -1    0.22    0.04
   0  37   2    1.01    0.07
   0 -37   2    0.83    0.07
   0  37   3    0.43    0.05
   0 -37   3    0.54    0.06
   0 -37   4    1.64    0.07
   0 -37   4    1.60    0.07
   0  38   0   12.14    0.31
   0  38  -1    1.09    0.07
   0  38   1    1.10    0.07
   0  38   2    1.43    0.07
   0  38   3    2.85    0.09
   0 -38   3    2.70    0.10
   0  39   0    0.01    0.03
   0  39  -1    3.95    0.13
   0  39   1    3.96    0.13
   0  39   2    0.99    0.06
   0  39   3    0.77    0.05
   0  40   0   -0.01    0.03
   0  40  -1    0.10    0.03
   0  40   1    0.06    0.03
   0  40   2    1.24    0.06
   0  41   0    0.01    0.03
   0  41   1    1.20    0.06
   0  41  -1    1.18    0.07
  -1   0   9   -0.01    0.03
  -1   0   8    0.81    0.08
  -1   0   7   -0.03    0.04
  -1   0   7    0.00    0.03
  -1   0   6    0.56    0.05
  -1   0   6    0.54    0.07
  -1   0   6    0.47    0.05
  -1   0   5   -0.01    0.02
  -1   0   5    0.05    0.04
  -1   0   4    1.08    0.05
  -1   0   3   -0.02    0.02
  -1   0   2    8.35    0.19
  -1   0   2    8.38    0.25
   1   0  -1   -0.23    0.01
  -1   0   1   -0.22    0.01
   1   0  -1   -0.24    0.01
   1   0   0  128.59    2.73
   1   0   2   22.51    0.49
   1   0   2   23.54    0.49
   1   0   3   -0.07    0.01
   1   0   4   28.00    0.61
   1   0   5    0.01    0.02
   1   0   5    0.02    0.03
   1   0   6   13.29    0.30
   1   0   6   13.01    0.35
   1   0   6   12.75    0.26
   1   0   7    0.01    0.02
   1   0   7    0.05    0.04
   1   0   8    0.06    0.04
  -1   1   9    0.00    0.03
  -1  -1   9    0.02    0.03
  -1   1   8    0.77    0.08
  -1  -1   8    0.72    0.08
  -1   1   7    3.79    0.12
  -1   1   7    3.78    0.15
  -1  -1   7    3.86    0.12
  -1  -1   7    3.67    0.15
  -1   1   6   -0.02    0.02
  -1   1   6    0.08    0.03
  -1   1   6    0.01    0.04
  -1  -1   6    0.04    0.03
  -1  -1   6   -0.03    0.04
  -1  -1   6    0.02    0.03
  -1   1   5    0.49    0.04
  -1   1   5    0.40    0.06
  -1  -1   5    0.50    0.04
  -1  -1   5    0.44    0.06
  -1   1   4    0.09    0.02
  -1  -1   4    0.05    0.02
  -1   1   3    0.29    0.03
  -1  -1   3    0.28    0.03
  -1   1   2    0.52    0.05
  -1   1   2    0.45    0.03
  -1  -1   2    0.43    0.03
   1   1  -1   21.92    0.48
  -1   1   1   22.68    0.48
  -1  -1   1   22.75    0.48
   1  -1  -1   22.96    0.48
   1   1   0    2.80    0.06
   1  -1   0    2.78    0.06
   1  -1   1    6.21    0.13
   1  -1   1    6.06    0.13
   1   1   2    7.82    0.17
   1   1   2    7.98    0.17
   1  -1   2    8.02    0.17
   1  -1   2    7.73    0.17
   1   1   3    0.58    0.03
   1  -1   3    0.56    0.03
   1   1   4    6.80    0.16
   1  -1   4    6.80    0.16
   1   1   5    1.84    0.06
   1   1   5    1.74    0.09
   1  -1   5    1.93    0.06
   1  -1   5    1.88    0.09
   1  -1   5    1.87    0.05
   1   1   6   16.00    0.42
   1   1   6   16.01    0.36
   1   1   6   15.53    0.32
   1  -1   6   15.69    0.42
   1  -1   6   15.97    0.32
   1  -1   6   15.44    0.36
   1   1   7    2.81    0.08
   1   1   7    2.95    0.12
   1  -1   7    3.03    0.13
   1  -1   7    2.95    0.08
   1   1   8    2.73    0.11
   1  -1   8    2.83    0.12
  -1   2   9    5.33    0.16
  -1  -2   9    5.38    0.16
  -1   2   8    5.11    0.17
  -1  -2   8    5.22    0.17
  -1   2   7    3.48    0.14
  -1   2   7    3.41    0.11
  -1  -2   7    3.48    0.14
  -1  -2   7    3.35    0.11
  -1   2   6    1.08    0.06
  -1   2   6    1.18    0.06
  -1   2   6    1.11    0.08
  -1  -2   6    1.08    0.06
  -1  -2   6    1.12    0.06
  -1  -2   6    1.15    0.09
  -1   2   5   11.44    0.31
  -1   2   5   11.59    0.27
  -1  -2   5   11.38    0.31
  -1  -2   5   11.25    0.27
  -1   2   4    0.04    0.02
  -1  -2   4    0.04    0.02
  -1   2   3    5.97    0.14
  -1  -2   3    6.07    0.14
  -1   2   2   52.29    1.09
  -1   2   2   51.56    1.42
   1   2  -2   48.30    1.09
  -1  -2   2   51.34    1.09
   1   2  -1   45.73    0.98
  -1   2   1   46.04    0.98
   1  -2  -1   46.79    0.98
  -1  -2   1   45.74    0.98
   1   2   0   18.00    0.38
   1  -2   0   18.10    0.39
   1  -2   1    0.53    0.02
   1  -2   1    0.52    0.02
   1   2   2    4.17    0.09
   1   2   2    4.25    0.09
   1  -2   2    4.06    0.10
   1  -2   2    4.23    0.10
   1   2   3    5.03    0.12
   1  -2   3    5.03    0.12
   1   2   4   20.92    0.45
   1  -2   4   20.66    0.45
   1   2   5   23.78    0.53
   1   2   5   23.72    0.60
   1  -2   5   23.86    0.60
   1  -2   5   24.45    0.47
   1  -2   5   24.06    0.53
   1   2   6    0.61    0.04
   1   2   6    0.62    0.04
   1   2   6    0.52    0.07
   1  -2   6    0.55    0.07
   1  -2   6    0.55    0.04
   1  -2   6    0.64    0.05
   1   2   7    1.87    0.06
   1   2   7    2.02    0.11
   1  -2   7    2.00    0.11
   1  -2   7    1.82    0.06
   1   2   8    0.84    0.04
   1   2   8    0.72    0.07
   1  -2   8    0.79    0.08
  -1   3   9    0.43    0.05
  -1  -3   9    0.37    0.05
  -1   3   8    0.43    0.06
  -1  -3   8    0.56    0.08
  -1   3   7    3.26    0.13
  -1   3   7    3.02    0.10
  -1  -3   7    2.97    0.10
  -1  -3   7    3.05    0.13
  -1   3   6    0.26    0.03
  -1   3   6    0.19    0.03
  -1   3   6    0.18    0.05
  -1  -3   6    0.22    0.03
  -1  -3   6    0.13    0.04
  -1  -3   6    0.23    0.04
  -1   3   5    0.11    0.04
  -1   3   5    0.14    0.03
  -1  -3   5    0.11    0.03
  -1  -3   5    0.15    0.04
  -1   3   4    2.25    0.07
  -1  -3   4    2.31    0.07
  -1   3   3   44.88    0.96
  -1  -3   3   44.80    0.96
   1   3  -2  100.37    2.17
  -1   3   2  104.99    2.84
  -1   3   2  102.95    2.17
  -1  -3   2  100.57    2.17
  -1   3   1   33.71    0.72
   1   3  -1   33.75    0.72
   1  -3  -1   34.05    0.72
  -1  -3   1   34.38    0.72
   1   3   0   10.25    0.22
   1  -3   0    9.95    0.22
   1   3   1    3.21    0.07
   1   3   1    3.22    0.07
   1  -3   1    3.26    0.07
   1   3   2    0.35    0.02
   1   3   2    0.37    0.02
   1  -3   2    0.36    0.02
   1  -3   2    0.37    0.02
   1   3   3    0.01    0.01
   1  -3   3    0.02    0.02
   1   3   4    0.13    0.02
   1  -3   4    0.11    0.02
   1   3   5    2.13    0.10
   1   3   5    2.36    0.06
   1   3   5    2.36    0.07
   1  -3   5    2.21    0.10
   1  -3   5    2.33    0.07
   1  -3   5    2.47    0.06
   1   3   6    0.28    0.04
   1   3   6    0.27    0.05
   1   3   6    0.31    0.03
   1  -3   6    0.26    0.05
   1  -3   6    0.27    0.03
   1  -3   6    0.34    0.03
   1   3   7    8.61    0.19
   1   3   7    9.20    0.26
   1  -3   7    8.75    0.19
   1  -3   7    9.42    0.27
   1   3   8    0.06    0.04
   1   3   8    0.10    0.02
   1  -3   8    0.05    0.04
  -1   4   9    0.03    0.03
  -1  -4   9    0.02    0.03
  -1   4   8    0.93    0.08
  -1  -4   8    0.87    0.08
  -1   4   7    3.09    0.10
  -1   4   7    3.06    0.13
  -1  -4   7    2.97    0.10
  -1  -4   7    2.93    0.13
  -1   4   6    2.48    0.09
  -1   4   6    2.35    0.09
  -1   4   6    2.24    0.11
  -1  -4   6    2.35    0.09
  -1  -4   6    2.19    0.11
  -1  -4   6    2.40    0.09
  -1   4   5   -0.01    0.03
  -1   4   5    0.03    0.02
  -1  -4   5    0.04    0.02
  -1  -4   5    0.07    0.04
  -1  -4   5    0.03    0.03
  -1   4   4   14.79    0.33
  -1  -4   4   14.97    0.34
  -1   4   3   23.84    0.52
  -1  -4   3   23.61    0.52
  -1   4   2  268.03    7.57
  -1   4   2  278.06    5.79
   1   4  -2  266.20    5.79
  -1  -4   2  276.57    5.78
  -1   4   1    8.35    0.18
   1   4  -1    8.14    0.18
  -1  -4   1    8.42    0.18
   1  -4  -1    8.33    0.18
  -1   4   0    3.42    0.08
   1   4   0    3.32    0.08
   1  -4   0    3.43    0.08
   1   4   1    9.18    0.20
   1   4   1    9.30    0.20
   1  -4   1    9.34    0.20
   1   4   2    6.70    0.15
   1   4   2    6.73    0.15
   1  -4   2    6.69    0.15
   1  -4   2    6.34    0.15
   1   4   3    7.36    0.17
   1  -4   3    7.77    0.17
   1   4   4    3.87    0.10
   1  -4   4    3.95    0.10
   1   4   5    3.06    0.09
   1   4   5    3.21    0.07
   1   4   5    3.13    0.12
   1  -4   5    3.10    0.12
   1  -4   5    3.01    0.09
   1  -4   5    3.04    0.08
   1   4   6    2.19    0.11
   1   4   6    2.44    0.07
   1   4   6    2.61    0.08
   1  -4   6    2.42    0.08
   1  -4   6    2.41    0.11
   1  -4   6    2.23    0.07
   1   4   7    0.05    0.02
   1   4   7    0.06    0.04
   1  -4   7    0.05    0.05
   1  -4   7    0.06    0.03
   1   4   8    0.97    0.07
   1   4   8    1.07    0.04
   1  -4   8    0.96    0.08
  -1  -5   9    4.84    0.15
  -1   5   8    1.11    0.08
  -1  -5   8    1.10    0.08
  -1   5   7    5.65    0.15
  -1   5   7    5.58    0.19
  -1  -5   7    5.68    0.16
  -1  -5   7    5.51    0.19
  -1   5   6    7.92    0.24
  -1   5   6    7.89    0.20
  -1   5   6    7.91    0.21
  -1  -5   6    8.02    0.24
  -1  -5   6    7.76    0.21
  -1  -5   6    8.18    0.21
  -1   5   5    1.06    0.07
  -1   5   5    1.07    0.05
  -1  -5   5    1.11    0.07
  -1  -5   5    1.06    0.06
  -1  -5   5    1.16    0.06
  -1   5   4    7.09    0.17
  -1  -5   4    7.21    0.18
  -1   5   3    0.02    0.02
  -1  -5   3    0.02    0.02
  -1   5   2   35.45    0.98
   1   5  -2   34.14    0.75
  -1   5   2   35.51    0.75
  -1  -5   2   34.42    0.75
   1   5  -1  114.23    2.45
  -1   5   1  116.80    2.45
  -1  -5   1  115.10    2.45
   1  -5  -1  115.08    2.44
  -1   5   0    9.89    0.21
   1   5   0    9.91    0.21
   1  -5   0    9.43    0.21
   1   5   1   35.72    0.77
   1   5   1   36.46    0.77
   1  -5   1   36.20    0.77
   1   5   2   42.58    0.92
   1   5   2   44.66    0.92
   1  -5   2   43.04    0.93
   1   5   3  101.08    2.14
   1  -5   3  100.70    2.14
   1   5   4   28.39    0.61
   1  -5   4   28.27    0.62
   1   5   5    0.25    0.02
   1   5   5    0.21    0.04
   1   5   5    0.24    0.03
   1  -5   5    0.27    0.03
   1  -5   5    0.22    0.04
   1  -5   5    0.28    0.04
   1   5   6    0.32    0.03
   1   5   6    0.44    0.05
   1   5   6    0.36    0.04
   1  -5   6    0.36    0.04
   1  -5   6    0.40    0.04
   1  -5   6    0.28    0.05
   1   5   7    2.42    0.07
   1   5   7    2.42    0.11
   1  -5   7    2.37    0.08
   1  -5   7    2.68    0.12
   1   5   8    1.34    0.08
   1   5   8    1.32    0.05
   1  -5   8    1.52    0.09
  -1  -6   9    0.01    0.03
  -1   6   8    9.26    0.27
  -1  -6   8    9.80    0.27
  -1   6   7    2.07    0.08
  -1   6   7    2.21    0.11
  -1  -6   7    2.18    0.11
  -1  -6   7    2.13    0.09
  -1   6   6    0.96    0.06
  -1   6   6    1.02    0.06
  -1   6   6    1.01    0.08
  -1  -6   6    0.96    0.06
  -1  -6   6    1.00    0.09
  -1  -6   6    1.06    0.06
  -1   6   5    2.51    0.10
  -1   6   5    2.54    0.08
  -1   6   5    2.33    0.09
  -1  -6   5    2.45    0.08
  -1  -6   5    2.46    0.09
  -1  -6   5    2.59    0.11
  -1   6   4   14.53    0.33
  -1  -6   4   14.49    0.33
  -1   6   3    8.58    0.26
  -1   6   3    8.27    0.19
  -1  -6   3    8.34    0.20
  -1   6   2   37.43    1.03
  -1   6   2   35.95    0.79
   1   6  -2   36.70    0.79
  -1  -6   2   36.59    0.79
  -1   6   1    5.64    0.13
   1   6  -1    5.67    0.13
   1  -6  -1    5.71    0.13
  -1  -6   1    5.57    0.13
   1   6   0   19.77    0.42
  -1   6   0   19.56    0.43
   1  -6   0   20.00    0.43
   1   6   1   47.29    0.99
   1   6   1   45.90    0.99
   1  -6   1   46.90    0.99
   1   6   2    1.46    0.04
   1   6   2    1.41    0.04
   1  -6   2    1.51    0.05
   1   6   3    8.03    0.18
   1  -6   3    7.93    0.18
   1   6   4    4.74    0.12
   1  -6   4    4.72    0.12
   1   6   5    1.82    0.06
   1   6   5    1.87    0.05
   1   6   5    1.79    0.09
   1  -6   5    1.94    0.07
   1  -6   5    1.79    0.07
   1  -6   5    1.87    0.06
   1   6   6    8.90    0.26
   1   6   6    9.06    0.19
   1  -6   6    8.73    0.19
   1  -6   6    8.67    0.26
   1   6   7    0.20    0.05
   1   6   7    0.24    0.03
   1  -6   7    0.25    0.05
   1   6   8    0.43    0.06
   1   6   8    0.60    0.04
   1  -6   8    0.57    0.07
  -1   7   8    0.83    0.07
  -1  -7   8    0.83    0.08
  -1   7   7    5.11    0.18
  -1  -7   7    5.22    0.18
  -1  -7   7    5.38    0.15
  -1   7   6   16.66    0.44
  -1   7   6   16.80    0.39
  -1   7   6   16.74    0.40
  -1  -7   6   16.58    0.39
  -1  -7   6   17.25    0.44
  -1  -7   6   16.62    0.41
  -1   7   5    2.72    0.08
  -1   7   5    3.03    0.10
  -1   7   5    2.72    0.11
  -1   7   5    3.00    0.09
  -1  -7   5    3.09    0.10
  -1  -7   5    2.88    0.11
  -1  -7   5    3.00    0.10
  -1   7   4    0.10    0.02
  -1  -7   4    0.10    0.03
  -1   7   3   31.28    0.92
  -1   7   3   35.18    0.70
  -1  -7   3   30.63    0.70
  -1   7   2   13.98    0.31
   1   7  -2   13.76    0.31
  -1   7   2   13.80    0.40
  -1  -7   2   13.96    0.31
  -1   7   1    3.94    0.10
   1   7  -1    4.34    0.10
  -1  -7   1    4.22    0.10
   1  -7  -1    4.14    0.10
   1   7   0   76.33    1.60
  -1   7   0   74.31    1.60
   1  -7   0   76.15    1.61
   1   7   1    0.29    0.02
   1  -7   1    0.28    0.03
   1   7   2   10.44    0.23
   1   7   2   10.86    0.23
   1  -7   2   10.74    0.24
   1   7   3   19.68    0.43
   1  -7   3   19.85    0.43
   1   7   4    4.12    0.10
   1  -7   4    4.12    0.11
   1   7   5    0.04    0.02
   1   7   5    0.06    0.02
   1   7   5    0.05    0.04
   1  -7   5    0.07    0.04
   1  -7   5    0.01    0.02
   1  -7   5    0.00    0.02
   1  -7   5    0.10    0.03
   1   7   6    0.56    0.07
   1   7   6    0.45    0.03
   1  -7   6    0.45    0.07
   1  -7   6    0.58    0.04
   1   7   7    2.48    0.07
   1   7   7    2.33    0.11
   1   7   8    0.80    0.04
   1   7   8    0.80    0.07
   1  -7   8    0.92    0.08
  -1   8   8    1.49    0.09
  -1  -8   8    1.69    0.09
  -1   8   7    0.02    0.04
  -1  -8   7   -0.03    0.03
  -1  -8   7    0.01    0.05
  -1   8   6    5.00    0.14
  -1   8   6    4.71    0.16
  -1  -8   6    4.90    0.15
  -1  -8   6    4.96    0.15
  -1  -8   6    4.96    0.17
  -1   8   5   43.52    1.04
  -1   8   5   42.65    0.93
  -1   8   5   41.83    0.98
  -1  -8   5   43.67    0.94
  -1  -8   5   41.97    0.98
  -1  -8   5   44.19    1.04
  -1   8   4   16.48    0.37
  -1  -8   4   16.35    0.37
  -1   8   3   92.86    2.58
  -1   8   3   91.27    1.96
  -1  -8   3   92.64    1.97
   1   8  -2   13.00    0.30
  -1   8   2   13.52    0.30
  -1   8   2   13.58    0.39
  -1  -8   2   13.60    0.30
  -1   8   1   33.37    0.72
   1   8  -1   33.38    0.72
  -1  -8   1   33.63    0.72
   1  -8  -1   32.95    0.72
  -1   8   0    0.58    0.03
   1   8   0    0.61    0.03
  -1  -8   0    0.55    0.03
   1  -8   0    0.64    0.03
   1   8   1   24.64    0.52
  -1   8  -1   23.71    0.53
   1  -8   1   24.71    0.53
   1   8   2   25.62    0.54
   1   8   2   23.82    0.54
   1  -8   2   25.92    0.54
   1   8   3    1.46    0.05
   1  -8   3    1.42    0.05
   1   8   4    4.86    0.12
   1  -8   4    4.91    0.13
   1   8   5    4.97    0.12
   1   8   5    4.45    0.15
   1   8   5    4.75    0.10
   1  -8   5    4.87    0.11
   1  -8   5    4.86    0.16
   1  -8   5    4.73    0.14
   1  -8   5    4.83    0.13
   1   8   6    0.04    0.02
   1   8   6    0.01    0.04
   1  -8   6    0.01    0.04
   1  -8   6    0.03    0.02
   1  -8   6    0.02    0.03
   1   8   7    1.92    0.10
   1   8   7    1.88    0.06
   1  -8   7    1.84    0.10
   1   8   8    0.03    0.02
   1   8   8    0.04    0.04
   1  -8   8    0.00    0.04
  -1   9   8    0.46    0.07
  -1  -9   8    0.47    0.06
  -1   9   7   16.88    0.44
  -1  -9   7   16.95    0.41
  -1  -9   7   16.50    0.45
  -1   9   6    5.61    0.19
  -1   9   6    5.76    0.16
  -1  -9   6    5.99    0.19
  -1  -9   6    5.80    0.17
  -1   9   5   13.72    0.36
  -1   9   5   13.31    0.33
  -1   9   5   13.47    0.31
  -1  -9   5   13.65    0.32
  -1  -9   5   13.38    0.33
  -1  -9   5   13.48    0.36
  -1   9   4    0.81    0.05
  -1  -9   4    0.74    0.05
  -1   9   3   94.51    2.63
  -1   9   3   92.36    2.01
  -1  -9   3   95.73    2.01
  -1   9   2   40.23    0.86
  -1   9   2   39.44    1.12
   1   9  -2   40.04    0.86
  -1  -9   2   39.76    0.86
  -1   9   1    0.72    0.04
   1   9  -1    0.72    0.04
   1  -9  -1    0.68    0.04
  -1  -9   1    0.67    0.04
   1   9   0  238.54    5.00
  -1   9   0  237.27    5.01
   1  -9   0  233.19    4.98
  -1  -9   0  230.03    4.97
  -1   9  -1    0.05    0.02
   1   9   1    0.00    0.02
   1  -9   1    0.07    0.02
   1   9   2    9.28    0.21
   1  -9   2    9.29    0.21
   1   9   3    0.10    0.02
   1  -9   3    0.05    0.02
   1   9   4    6.51    0.16
   1  -9   4    6.74    0.16
   1   9   5    2.94    0.11
   1   9   5    3.04    0.07
   1   9   5    3.19    0.09
   1  -9   5    2.91    0.08
   1  -9   5    3.05    0.10
   1  -9   5    3.01    0.09
   1  -9   5    3.05    0.12
   1   9   6   34.67    0.87
   1   9   6   35.79    0.69
   1  -9   6   35.72    0.81
   1  -9   6   35.70    0.88
   1   9   7    0.87    0.08
   1   9   7    1.00    0.05
   1  -9   7    0.91    0.09
   1   9   8    6.86    0.20
   1   9   8    7.32    0.16
   1  -9   8    7.32    0.21
  -1  10   8    4.49    0.15
  -1 -10   8    4.52    0.15
  -1  10   7    0.21    0.05
  -1 -10   7    0.14    0.05
  -1 -10   7    0.10    0.03
  -1  10   6    1.50    0.09
  -1  10   6    1.29    0.07
  -1 -10   6    1.44    0.10
  -1 -10   6    1.29    0.07
  -1  10   5    0.17    0.03
  -1  10   5    0.18    0.03
  -1  10   5    0.28    0.05
  -1 -10   5    0.10    0.03
  -1 -10   5    0.16    0.04
  -1 -10   5    0.19    0.03
  -1  10   4   15.24    0.34
  -1 -10   4   14.86    0.35
  -1  10   3   25.76    0.73
  -1  10   3   24.29    0.55
  -1 -10   3   25.51    0.55
   1  10  -2    3.70    0.10
  -1  10   2    3.93    0.13
  -1  10   2    4.00    0.10
  -1 -10   2    3.96    0.10
  -1  10   1   59.20    1.24
   1  10  -1   58.33    1.24
   1 -10  -1   56.90    1.24
  -1 -10   1   57.79    1.24
  -1  10   0    7.79    0.18
   1  10   0    7.56    0.17
  -1 -10   0    7.52    0.17
   1 -10   0    7.60    0.18
  -1  10  -1   45.12    0.98
   1  10   1   45.67    0.98
   1 -10   1   46.42    0.98
   1  10   2   15.06    0.34
   1 -10   2   15.90    0.34
   1  10   3    8.90    0.20
   1 -10   3    8.73    0.21
   1  10   4    0.10    0.02
   1 -10   4    0.08    0.02
   1  10   5    5.15    0.11
   1  10   5    4.83    0.16
   1  10   5    5.29    0.13
   1 -10   5    5.15    0.12
   1 -10   5    5.30    0.17
   1 -10   5    5.13    0.15
   1 -10   5    5.27    0.14
   1 -10   5    5.15    0.14
   1  10   6    0.10    0.02
   1  10   6    0.10    0.04
   1 -10   6    0.06    0.04
   1 -10   6    0.02    0.03
   1  10   7    0.37    0.04
   1  10   7    0.41    0.05
   1 -10   7    0.30    0.06
   1  10   8    0.08    0.02
   1 -10   8    0.08    0.04
  -1  11   8    0.72    0.07
  -1 -11   8    0.78    0.08
  -1  11   7    0.27    0.05
  -1 -11   7    0.34    0.06
  -1 -11   7    0.25    0.04
  -1  11   6    6.26    0.18
  -1  11   6    6.75    0.21
  -1 -11   6    6.83    0.21
  -1 -11   6    6.45    0.19
  -1  11   5    1.44    0.08
  -1  11   5    1.18    0.06
  -1  11   5    1.19    0.06
  -1 -11   5    1.20    0.07
  -1 -11   5    1.19    0.07
  -1 -11   5    1.30    0.08
  -1  11   4   13.38    0.30
  -1 -11   4   12.89    0.31
  -1  11   3   19.15    0.43
  -1  11   3   19.74    0.57
  -1 -11   3   19.87    0.44
   1  11  -2    0.02    0.02
  -1  11   2    0.02    0.02
  -1  11   2    0.01    0.03
  -1 -11   2    0.01    0.02
   1  11  -1   -0.02    0.02
  -1  11   1   -0.02    0.02
   1 -11  -1   -0.07    0.02
  -1 -11   1    0.01    0.02
  -1  11   0   10.97    0.24
   1  11   0   10.87    0.24
  -1 -11   0   10.44    0.24
   1 -11   0   10.83    0.24
  -1  11  -1   78.76    1.69
   1  11   1   78.88    1.69
   1 -11   1   80.58    1.69
   1  11   2    3.55    0.09
   1 -11   2    3.55    0.10
   1  11   3   41.28    0.89
   1 -11   3   41.91    0.90
   1  11   4    6.69    0.16
   1 -11   4    6.79    0.17
   1  11   5   14.00    0.29
   1  11   5   14.98    0.33
   1 -11   5   14.17    0.35
   1 -11   5   14.30    0.34
   1 -11   5   14.22    0.38
   1 -11   5   14.92    0.35
   1  11   6    4.67    0.11
   1  11   6    4.69    0.16
   1 -11   6    4.71    0.14
   1 -11   6    4.95    0.17
   1  11   7    4.39    0.15
   1  11   7    4.65    0.11
   1 -11   7    4.51    0.16
   1 -11   8    2.90    0.12
  -1  12   8    0.20    0.04
  -1 -12   8    0.16    0.04
  -1  12   7    0.48    0.06
  -1 -12   7    0.47    0.06
  -1 -12   7    0.50    0.06
  -1  12   6   11.43    0.29
  -1  12   6   12.05    0.33
  -1 -12   6   12.04    0.33
  -1 -12   6   11.76    0.30
  -1  12   5    0.02    0.03
  -1  12   5   -0.01    0.02
  -1  12   5    0.04    0.04
  -1 -12   5    0.06    0.03
  -1 -12   5    0.02    0.03
  -1 -12   5    0.00    0.04
  -1  12   4   42.23    0.92
  -1 -12   4   42.01    0.92
  -1  12   3    0.97    0.07
  -1  12   3    1.12    0.05
  -1 -12   3    1.08    0.06
  -1  12   2    2.15    0.09
  -1  12   2    2.10    0.07
  -1 -12   2    2.17    0.07
  -1  12   1   28.00    0.61
   1  12  -1   27.80    0.61
   1 -12  -1   27.70    0.61
  -1 -12   1   27.89    0.61
  -1  12   0   10.99    0.24
   1  12   0   10.65    0.24
   1 -12   0   10.51    0.24
  -1 -12   0    9.91    0.24
   1  12   1    0.71    0.04
  -1  12  -1    0.69    0.04
   1 -12   1    0.77    0.04
   1  12   2    1.42    0.05
   1 -12   2    1.46    0.06
   1  12   3    5.61    0.13
   1 -12   3    5.37    0.14
   1  12   4   15.13    0.34
   1 -12   4   15.49    0.35
   1  12   5    1.89    0.07
   1  12   5    1.80    0.05
   1 -12   5    1.87    0.08
   1 -12   5    1.89    0.09
   1 -12   5    1.69    0.07
   1 -12   5    1.80    0.07
   1  12   6    2.88    0.08
   1 -12   6    3.08    0.10
   1 -12   6    3.04    0.13
   1  12   7    1.96    0.06
   1 -12   7    1.85    0.11
   1 -12   8    2.80    0.11
  -1 -13   8    0.55    0.07
  -1  13   7    0.54    0.07
  -1 -13   7    0.53    0.06
  -1 -13   7    0.70    0.08
  -1  13   6   17.14    0.44
  -1  13   6   16.28    0.40
  -1 -13   6   16.50    0.44
  -1 -13   6   17.12    0.41
  -1  13   5    0.25    0.03
  -1  13   5    0.21    0.05
  -1  13   5    0.28    0.04
  -1 -13   5    0.19    0.04
  -1 -13   5    0.27    0.04
  -1 -13   5    0.25    0.04
  -1 -13   5    0.24    0.05
  -1  13   4    4.63    0.12
  -1 -13   4    4.34    0.13
  -1  13   3   28.99    0.64
  -1  13   3   29.50    0.84
  -1 -13   3   29.45    0.64
  -1  13   2    0.97    0.05
  -1  13   2    0.78    0.06
  -1 -13   2    0.88    0.05
  -1  13   1    0.09    0.02
   1  13  -1    0.07    0.02
  -1 -13   1    0.13    0.03
  -1  13   0   14.48    0.33
   1  13   0   14.66    0.33
   1 -13   0   14.83    0.33
   1  13   1    1.04    0.04
   1 -13   1    1.08    0.05
   1  13   2   44.10    0.97
   1 -13   2   46.12    0.97
   1  13   3   22.06    0.48
   1 -13   3   21.41    0.48
   1  13   4   30.11    0.58
   1  13   4   30.22    0.66
   1 -13   4   30.37    0.67
   1  13   5    0.66    0.04
   1  13   5    0.67    0.04
   1 -13   5    0.70    0.05
   1 -13   5    0.67    0.05
   1 -13   5    0.65    0.07
   1  13   6    4.38    0.11
   1 -13   6    4.67    0.14
   1 -13   6    4.53    0.16
   1  13   7    0.42    0.04
   1 -13   7    0.38    0.06
   1 -13   8    1.02    0.08
  -1 -14   8    4.96    0.14
  -1 -14   8    5.34    0.16
  -1  14   7    0.01    0.04
  -1 -14   7    0.01    0.04
  -1 -14   7   -0.01    0.03
  -1  14   6   13.72    0.34
  -1  14   6   13.87    0.37
  -1 -14   6   14.45    0.35
  -1 -14   6   13.53    0.38
  -1  14   5    1.23    0.06
  -1  14   5    1.23    0.08
  -1  14   5    1.19    0.06
  -1 -14   5    1.19    0.07
  -1 -14   5    1.26    0.07
  -1 -14   5    1.21    0.08
  -1 -14   5    1.13    0.07
  -1  14   4    9.70    0.23
  -1 -14   4    9.47    0.23
  -1 -14   4    9.16    0.24
  -1  14   3    0.00    0.02
  -1  14   3    0.01    0.03
  -1 -14   3    0.01    0.03
  -1  14   2    0.11    0.02
  -1  14   2    0.12    0.03
  -1 -14   2    0.19    0.03
   1  14  -1   48.07    1.03
  -1  14   1   48.08    1.03
  -1 -14   1   47.98    1.03
  -1  14   0    3.09    0.09
   1  14   0    3.06    0.09
   1 -14   0    3.03    0.09
   1  14   1    0.11    0.02
   1 -14   1    0.09    0.03
   1  14   2   49.32    1.09
   1 -14   2   51.98    1.09
   1  14   3    0.27    0.03
   1 -14   3    0.25    0.03
   1  14   4   11.03    0.26
   1  14   4   11.47    0.22
   1 -14   4   11.43    0.30
   1 -14   4   11.01    0.26
   1 -14   4   10.25    0.27
   1  14   5    0.03    0.02
   1  14   5    0.02    0.02
   1 -14   5    0.00    0.03
   1 -14   5    0.09    0.04
   1 -14   5    0.02    0.03
   1  14   6    1.12    0.05
   1 -14   6    1.33    0.07
   1 -14   6    1.20    0.09
   1  14   7    0.04    0.02
   1 -14   7    0.10    0.05
   1 -14   8    0.28    0.05
  -1 -15   8    0.03    0.04
  -1  15   7    0.62    0.07
  -1 -15   7    0.50    0.06
  -1 -15   7    0.62    0.08
  -1  15   6    2.24    0.11
  -1  15   6    2.22    0.09
  -1 -15   6    2.30    0.10
  -1 -15   6    2.14    0.11
  -1  15   5    0.40    0.05
  -1  15   5    0.41    0.05
  -1  15   5    0.44    0.05
  -1 -15   5    0.33    0.05
  -1 -15   5    0.32    0.04
  -1 -15   5    0.41    0.05
  -1 -15   5    0.42    0.06
  -1  15   4    0.88    0.06
  -1  15   4    0.97    0.06
  -1 -15   4    0.96    0.06
  -1 -15   4    0.96    0.06
  -1  15   3    2.82    0.11
  -1  15   3    2.84    0.09
  -1 -15   3    3.12    0.10
  -1  15   2   32.84    0.94
  -1  15   2   33.39    0.72
  -1 -15   2   33.48    0.73
   1  15  -1    0.40    0.04
  -1  15   1    0.45    0.04
  -1  15   0   23.65    0.51
   1  15   0   22.73    0.51
   1 -15   0   22.80    0.51
   1  15   1    4.78    0.12
   1 -15   1    4.82    0.13
   1  15   2    7.33    0.18
   1 -15   2    7.41    0.18
   1  15   3   16.87    0.37
   1 -15   3   15.79    0.37
   1  15   4    0.08    0.02
   1  15   4    0.07    0.02
   1 -15   4    0.06    0.04
   1 -15   4    0.11    0.03
   1 -15   4    0.10    0.03
   1  15   5    0.12    0.02
   1  15   5    0.15    0.03
   1 -15   5    0.11    0.04
   1 -15   5    0.16    0.03
   1 -15   5    0.15    0.03
   1  15   6    0.92    0.05
   1 -15   6    0.90    0.06
   1 -15   6    0.97    0.09
   1  15   7    0.08    0.02
   1 -15   7    0.08    0.05
   1 -15   8    0.07    0.04
  -1 -16   8   12.61    0.33
  -1 -16   7    1.08    0.08
  -1 -16   7    1.12    0.07
  -1  16   6    6.64    0.21
  -1  16   6    6.89    0.18
  -1 -16   6    6.68    0.21
  -1 -16   6    6.72    0.19
  -1  16   5    0.01    0.03
  -1  16   5   -0.01    0.03
  -1  16   5    0.03    0.04
  -1 -16   5    0.02    0.03
  -1 -16   5    0.04    0.04
  -1 -16   5    0.00    0.03
  -1 -16   5    0.02    0.03
  -1  16   4    1.83    0.09
  -1  16   4    1.80    0.07
  -1  16   4    1.74    0.07
  -1 -16   4    1.81    0.08
  -1 -16   4    1.84    0.08
  -1 -16   4    1.74    0.09
  -1  16   3    2.92    0.09
  -1  16   3    2.70    0.11
  -1 -16   3    2.71    0.09
  -1  16   2    5.73    0.15
  -1  16   2    5.69    0.19
  -1 -16   2    5.97    0.15
  -1  16   1   20.89    0.47
   1  16  -1   21.60    0.47
  -1  16   0   19.71    0.44
   1  16   0   19.55    0.43
   1 -16   0   19.52    0.44
   1  16   1    1.86    0.06
   1 -16   1    1.80    0.07
   1  16   2   64.14    1.40
   1 -16   2   66.23    1.40
   1  16   3    1.05    0.05
   1 -16   3    1.04    0.06
   1  16   4   13.81    0.28
   1  16   4   13.96    0.32
   1  16   4   13.36    0.33
   1 -16   4   13.85    0.33
   1 -16   4   13.74    0.36
   1 -16   4   13.83    0.34
   1  16   5    0.49    0.04
   1  16   5    0.43    0.04
   1 -16   5    0.59    0.07
   1 -16   5    0.56    0.06
   1 -16   5    0.53    0.05
   1  16   6    1.00    0.05
   1 -16   6    1.11    0.07
   1 -16   6    0.98    0.09
   1  16   7    2.05    0.07
   1 -16   7    2.05    0.11
   1 -16   8    0.34    0.05
  -1 -17   8    5.23    0.16
  -1 -17   7    0.02    0.04
  -1 -17   7    0.07    0.03
  -1  17   6    6.05    0.17
  -1 -17   6    5.67    0.19
  -1 -17   6    5.79    0.18
  -1  17   5    0.01    0.03
  -1  17   5   -0.01    0.03
  -1  17   5    0.03    0.04
  -1 -17   5    0.10    0.04
  -1 -17   5    0.00    0.04
  -1 -17   5    0.00    0.03
  -1 -17   5   -0.04    0.03
  -1  17   4   11.53    0.27
  -1  17   4   11.13    0.28
  -1 -17   4   10.99    0.27
  -1 -17   4   10.72    0.28
  -1 -17   4   10.86    0.30
  -1  17   3    5.12    0.18
  -1  17   3    5.70    0.14
  -1 -17   3    5.23    0.15
  -1  17   2    0.12    0.03
  -1  17   2    0.02    0.02
   1  17  -1   10.04    0.24
  -1  17   1    9.95    0.24
   1  17   0    0.19    0.03
  -1  17   0    0.22    0.03
   1  17   1    5.03    0.13
   1 -17   1    5.25    0.14
   1  17   2   12.78    0.29
   1 -17   2   12.59    0.30
   1  17   3    3.69    0.10
   1 -17   3    3.66    0.11
   1  17   4    2.13    0.07
   1  17   4    1.96    0.07
   1  17   4    2.19    0.06
   1 -17   4    2.09    0.09
   1 -17   4    1.95    0.08
   1 -17   4    2.03    0.10
   1  17   5    3.29    0.09
   1 -17   5    3.02    0.11
   1 -17   5    3.42    0.13
   1  17   6    0.00    0.02
   1 -17   6   -0.02    0.03
   1 -17   6    0.06    0.04
   1 -17   7    0.01    0.04
   1 -17   7   -0.02    0.02
   1 -17   8    0.37    0.05
  -1 -18   8    0.25    0.04
  -1 -18   7    1.27    0.07
  -1 -18   7    1.31    0.09
  -1  18   6   -0.01    0.03
  -1 -18   6   -0.01    0.04
  -1 -18   6    0.00    0.04
  -1  18   5    4.97    0.15
  -1 -18   5    5.18    0.17
  -1 -18   5    5.09    0.16
  -1 -18   5    4.57    0.15
  -1  18   4    6.77    0.18
  -1  18   4    6.66    0.19
  -1 -18   4    7.32    0.20
  -1  18   3    8.86    0.22
  -1  18   2    2.44    0.08
   1  18  -1   51.78    1.13
  -1  18   1   52.47    1.13
   1  18   0   21.69    0.49
  -1  18   0   22.84    0.50
   1  18   1    0.07    0.02
   1 -18   1    0.08    0.03
   1  18   2   10.40    0.24
   1 -18   2    9.95    0.25
   1  18   3    0.71    0.05
   1 -18   3    0.78    0.06
   1 -18   3    0.77    0.06
   1  18   4    0.39    0.03
   1  18   4    0.31    0.03
   1  18   4    0.33    0.04
   1 -18   4    0.39    0.06
   1 -18   4    0.38    0.05
   1 -18   4    0.32    0.04
   1  18   5   11.59    0.25
   1 -18   5   12.14    0.31
   1 -18   5   12.18    0.33
   1  18   6    0.75    0.05
   1 -18   6    0.77    0.06
   1 -18   6    0.76    0.08
   1 -18   7    0.01    0.04
   1 -18   7    0.05    0.03
   1 -18   8    3.22    0.11
  -1 -19   7    0.55    0.07
  -1 -19   7    0.55    0.06
  -1  19   6    2.08    0.08
  -1 -19   6    1.95    0.11
  -1 -19   6    1.95    0.09
  -1  19   5    0.72    0.06
  -1 -19   5    0.82    0.07
  -1 -19   5    0.70    0.07
  -1 -19   5    0.67    0.08
  -1  19   4    0.52    0.05
  -1  19   4    0.57    0.05
  -1 -19   4    0.56    0.06
  -1  19   3    0.06    0.03
  -1  19   3    0.05    0.03
  -1 -19   3    0.09    0.03
  -1  19   2   11.34    0.27
  -1  19   1   21.17    0.48
   1  19   0    2.25    0.08
   1  19   1    3.46    0.10
   1  19   2    0.66    0.04
   1 -19   2    0.63    0.05
   1  19   3    0.08    0.03
   1  19   3    0.04    0.02
   1  19   3    0.07    0.02
   1 -19   3    0.07    0.03
   1 -19   3    0.00    0.04
   1 -19   3    0.04    0.03
   1  19   4   16.41    0.39
   1  19   4   16.50    0.38
   1  19   4   16.37    0.33
   1 -19   4   16.78    0.40
   1 -19   4   16.46    0.43
   1 -19   4   16.31    0.39
   1  19   5    6.74    0.15
   1 -19   5    7.09    0.20
   1 -19   5    6.71    0.21
   1  19   6    6.84    0.16
   1 -19   6    6.83    0.19
   1 -19   6    6.49    0.21
   1 -19   7    0.98    0.08
   1 -19   7    0.95    0.05
  -1 -20   7    0.04    0.04
  -1 -20   7    0.04    0.03
  -1  20   6    0.10    0.03
  -1 -20   6    0.02    0.04
  -1 -20   6    0.05    0.04
  -1  20   5    0.16    0.04
  -1 -20   5    0.14    0.04
  -1 -20   5    0.12    0.04
  -1 -20   5    0.13    0.05
  -1  20   4    0.38    0.04
  -1  20   4    0.40    0.04
  -1 -20   4    0.40    0.05
  -1  20   3    7.88    0.20
  -1  20   3    8.03    0.21
  -1 -20   3    7.93    0.22
  -1  20   2    1.59    0.07
  -1  20   1   11.48    0.27
   1  20   0   13.92    0.32
   1  20   1   55.20    1.19
   1  20   2    7.57    0.18
   1 -20   2    7.14    0.19
   1  20   3    6.24    0.17
   1  20   3    6.16    0.16
   1 -20   3    6.72    0.18
   1 -20   3    5.82    0.19
   1 -20   3    6.13    0.17
   1  20   4    1.01    0.05
   1  20   4    0.97    0.05
   1  20   4    1.05    0.06
   1 -20   4    1.03    0.07
   1 -20   4    1.10    0.07
   1 -20   4    0.89    0.08
   1  20   5    0.63    0.05
   1 -20   5    0.84    0.07
   1 -20   5    0.74    0.08
   1 -20   6    2.63    0.12
   1 -20   6    2.86    0.11
   1 -20   7    1.80    0.09
   1 -20   7    1.55    0.07
  -1 -21   7    9.88    0.27
  -1 -21   7    9.94    0.25
  -1  21   6    3.04    0.10
  -1 -21   6    2.93    0.12
  -1 -21   6    3.09    0.12
  -1  21   5    0.40    0.06
  -1 -21   5    0.44    0.06
  -1 -21   5    0.55    0.07
  -1  21   4    4.56    0.14
  -1  21   4    4.34    0.14
  -1 -21   4    4.45    0.15
  -1  21   3    3.50    0.12
  -1  21   3    3.58    0.11
  -1  21   2    0.00    0.02
  -1  21   2    0.06    0.03
  -1  21   1    2.05    0.08
   1  21   0    1.35    0.06
   1  21   1   16.27    0.37
   1  21   2    4.16    0.13
   1  21   2    4.30    0.12
   1 -21   2    4.20    0.14
   1  21   3   27.66    0.65
   1  21   3   27.45    0.62
   1 -21   3   27.35    0.63
   1 -21   3   29.63    0.66
   1 -21   3   27.49    0.69
   1  21   4    0.04    0.03
   1  21   4    0.04    0.03
   1 -21   4    0.03    0.03
   1 -21   4    0.07    0.03
   1 -21   4    0.06    0.04
   1 -21   5    0.01    0.04
   1 -21   5    0.16    0.04
   1 -21   6    2.62    0.10
   1 -21   6    2.48    0.12
   1 -21   7    1.43    0.06
   1 -21   7    1.43    0.08
  -1 -22   7    0.00    0.03
  -1  22   6    0.45    0.05
  -1 -22   6    0.39    0.05
  -1  22   5    0.48    0.06
  -1 -22   5    0.40    0.05
  -1 -22   5    0.56    0.07
  -1  22   4    0.55    0.06
  -1  22   4    0.59    0.06
  -1 -22   4    0.63    0.07
  -1  22   3    4.48    0.14
  -1  22   3    4.08    0.13
  -1 -22   3    4.31    0.14
  -1  22   2    3.91    0.12
  -1  22   2    4.09    0.13
  -1 -22   2    4.08    0.14
   1  22   0    4.47    0.13
   1  22   1   15.10    0.35
   1  22   2    3.47    0.11
   1  22   2    3.57    0.11
   1 -22   2    3.72    0.13
   1  22   3    9.14    0.23
   1  22   3    9.68    0.24
   1 -22   3    9.09    0.26
   1 -22   3    9.69    0.25
   1  22   4    2.69    0.10
   1 -22   4    2.79    0.11
   1 -22   4    2.83    0.12
   1 -22   5    1.24    0.08
   1 -22   5    1.25    0.09
   1 -22   6    3.12    0.13
   1 -22   6    3.17    0.11
   1 -22   7    0.21    0.04
   1 -22   7    0.28    0.04
  -1 -23   7    0.29    0.04
  -1  23   6    0.03    0.03
  -1 -23   6    0.04    0.04
  -1  23   5    5.52    0.16
  -1 -23   5    5.17    0.17
  -1 -23   5    5.26    0.17
  -1  23   4    2.72    0.10
  -1 -23   4    2.74    0.11
  -1  23   3    1.83    0.08
  -1  23   3    1.73    0.08
  -1 -23   3    1.97    0.09
   1  23  -2    3.51    0.13
  -1  23   2    3.71    0.12
  -1  23   2    3.81    0.12
  -1 -23   2    3.97    0.13
  -1  23   1   18.64    0.45
   1  23  -1   18.39    0.45
   1  23   0   18.69    0.44
   1  23   0   19.73    0.46
   1  23   1    8.40    0.22
   1  23   1    8.23    0.21
   1  23   2    0.62    0.05
   1  23   2    0.60    0.06
   1 -23   2    0.66    0.07
   1  23   3    0.14    0.03
   1  23   3    0.12    0.03
   1 -23   3    0.12    0.04
   1 -23   3    0.23    0.04
   1  23   4    6.22    0.17
   1 -23   4    5.84    0.19
   1 -23   4    6.21    0.18
   1 -23   5    0.94    0.08
   1 -23   5    0.97    0.07
   1 -23   6    1.42    0.09
   1 -23   6    1.18    0.07
   1 -23   7    1.54    0.08
   1 -23   7    1.60    0.06
  -1 -24   7    3.09    0.10
  -1  24   6    0.03    0.03
  -1 -24   6    0.06    0.04
  -1  24   5    1.46    0.08
  -1 -24   5    1.51    0.09
  -1 -24   5    1.27    0.08
  -1  24   4    4.07    0.13
  -1 -24   4    4.14    0.14
  -1  24   3    1.33    0.07
  -1  24   3    1.35    0.07
  -1 -24   3    1.39    0.09
   1  24  -2   -0.01    0.03
  -1  24   2    0.01    0.03
  -1  24   2    0.01    0.03
  -1 -24   2    0.05    0.03
  -1  24   1    0.08    0.03
   1  24  -1    0.05    0.04
  -1  24   0    0.38    0.05
   1  24   0    0.38    0.04
   1  24   1    0.59    0.06
   1  24   1    0.60    0.05
  -1  24  -1    0.63    0.07
   1 -24   1    0.57    0.07
   1  24   2    0.22    0.04
   1  24   2    0.21    0.03
   1 -24   2    0.20    0.04
   1  24   3    0.90    0.06
   1  24   3    0.93    0.06
   1 -24   3    0.81    0.07
   1 -24   3    0.88    0.07
   1  24   4    0.59    0.05
   1 -24   4    0.48    0.07
   1 -24   4    0.58    0.07
   1 -24   5    8.61    0.24
   1 -24   5    8.72    0.26
   1 -24   6   18.38    0.47
   1 -24   6   18.33    0.44
   1 -24   7    1.99    0.08
  -1 -25   7    4.14    0.12
  -1  25   6    1.69    0.07
  -1 -25   6    1.79    0.09
  -1  25   5    0.00    0.03
  -1 -25   5   -0.02    0.04
  -1 -25   5   -0.02    0.04
  -1  25   4    0.20    0.04
  -1 -25   4    0.18    0.04
  -1  25   3    0.27    0.04
  -1  25   3    0.20    0.04
  -1 -25   3    0.21    0.05
   1  25  -2    0.78    0.07
  -1  25   2    0.65    0.06
  -1 -25   2    0.78    0.07
   1  25  -1   30.23    0.71
  -1  25   1   29.72    0.70
  -1  25   0    0.88    0.07
   1  25   0    1.04    0.07
   1  25   1    0.75    0.06
   1  25   1    0.67    0.05
  -1  25  -1    0.76    0.07
   1 -25   1    0.70    0.07
   1  25   2    1.10    0.07
   1  25   2    1.13    0.06
   1 -25   2    1.05    0.08
   1  25   3    2.09    0.09
   1 -25   3    2.05    0.10
   1 -25   3    2.32    0.10
   1  25   4    0.56    0.05
   1 -25   4    0.58    0.07
   1 -25   4    0.40    0.06
   1 -25   5    2.88    0.11
   1 -25   5    2.72    0.12
   1 -25   6   -0.01    0.03
   1 -25   6    0.02    0.04
  -1 -26   7    4.74    0.13
  -1  26   6    0.02    0.02
  -1 -26   6   -0.01    0.03
  -1  26   5    2.07    0.09
  -1 -26   5    2.04    0.10
  -1 -26   5    1.86    0.09
  -1  26   4    1.47    0.08
  -1 -26   4    1.55    0.09
  -1  26   3    4.39    0.14
  -1  26   2    0.04    0.03
   1  26  -2    0.01    0.04
  -1 -26   2    0.07    0.04
   1  26  -1    1.71    0.09
  -1  26   1    1.71    0.09
  -1  26   0    0.05    0.03
   1  26   0   -0.01    0.03
   1  26   1    0.00    0.03
  -1  26  -1   -0.02    0.04
   1  26   1    0.03    0.03
   1 -26   1    0.07    0.04
   1  26   2    1.75    0.08
   1  26   2    1.82    0.08
   1 -26   2    1.86    0.09
   1  26   3    1.80    0.08
   1 -26   3    1.97    0.10
   1 -26   3    1.59    0.09
   1  26   4    0.69    0.06
   1 -26   4    0.56    0.08
   1 -26   4    0.67    0.07
   1 -26   5   -0.01    0.04
   1 -26   5    0.02    0.04
   1 -26   6    1.39    0.08
   1 -26   6    1.30    0.07
  -1 -27   6    0.06    0.04
  -1  27   5    0.18    0.04
  -1 -27   5    0.18    0.05
  -1 -27   5    0.18    0.04
  -1  27   4    2.41    0.10
  -1 -27   4    2.37    0.11
  -1  27   3    7.86    0.22
  -1 -27   3    7.38    0.22
  -1  27   2    0.28    0.04
   1  27  -2    0.28    0.05
  -1 -27   2    0.29    0.05
  -1  27   1    5.55    0.17
   1  27  -1    5.45    0.17
   1  27   0    2.32    0.10
  -1  27   0    2.29    0.10
  -1  27  -1    1.76    0.09
   1  27   1    1.78    0.09
   1 -27   1    1.69    0.09
   1  27   2    1.74    0.08
   1  27   2    1.68    0.08
   1 -27   2    1.55    0.09
   1  27   3    0.30    0.04
   1 -27   3    0.16    0.04
   1  27   4    8.85    0.22
   1 -27   4    8.03    0.25
   1 -27   4    8.61    0.24
   1 -27   5    0.40    0.05
   1 -27   5    0.34    0.05
   1 -27   6    0.11    0.03
   1 -27   6    0.07    0.04
  -1 -28   6    2.10    0.09
  -1  28   5    1.10    0.07
  -1 -28   5    1.24    0.08
  -1 -28   5    1.30    0.08
  -1  28   4    0.57    0.06
  -1 -28   4    0.72    0.08
  -1  28   3    0.02    0.03
  -1 -28   3   -0.07    0.04
  -1  28   2    0.13    0.04
   1  28  -2    0.19    0.05
  -1 -28   2    0.14    0.04
  -1  28   1    2.00    0.10
   1  28  -1    1.86    0.10
   1  28   0    1.25    0.08
  -1  28   0    1.29    0.08
  -1  28  -1    2.04    0.10
   1  28   1    2.05    0.09
   1 -28   1    1.97    0.10
   1  28   2    3.87    0.13
   1 -28   2    4.22    0.14
   1  28   3    1.42    0.08
   1 -28   3    1.41    0.09
   1  28   4    3.21    0.11
   1 -28   4    3.29    0.12
   1 -28   5    0.57    0.06
   1 -28   6   -0.04    0.03
  -1 -29   6    0.16    0.04
  -1  29   5    0.29    0.04
  -1 -29   5    0.24    0.05
  -1 -29   5    0.20    0.04
  -1  29   4    3.96    0.13
  -1 -29   4    4.09    0.15
  -1  29   3    2.94    0.11
  -1 -29   3    2.92    0.12
  -1  29   2    0.70    0.07
   1  29  -2    0.59    0.07
  -1 -29   2    0.65    0.07
  -1  29   1   15.97    0.40
   1  29  -1   16.02    0.40
   1  29   0    3.52    0.13
  -1  29   0    3.14    0.13
   1  29   1    6.14    0.18
  -1  29  -1    5.96    0.19
   1 -29   1    5.94    0.19
   1  29   2    5.66    0.17
   1 -29   2    5.71    0.18
   1  29   3    2.36    0.10
   1 -29   3    2.26    0.11
   1  29   4    0.07    0.03
   1 -29   4    0.10    0.04
   1 -29   5    0.38    0.05
   1 -29   5    0.46    0.06
   1 -29   6    0.56    0.05
  -1 -30   6   -0.01    0.03
  -1  30   5    0.08    0.03
  -1 -30   5    0.03    0.04
  -1 -30   5    0.00    0.04
  -1  30   4    0.97    0.07
  -1 -30   4    1.07    0.08
  -1  30   3    0.17    0.04
  -1 -30   3    0.11    0.05
   1  30  -2    0.07    0.04
  -1  30   2    0.04    0.04
  -1 -30   2    0.06    0.04
   1  30  -1    0.42    0.05
  -1  30   1    0.42    0.05
   1  30   0    4.52    0.15
  -1  30   0    4.60    0.15
   1  30   1    5.70    0.17
  -1  30  -1    5.31    0.17
   1 -30   1    5.26    0.17
   1  30   2   -0.02    0.03
   1 -30   2    0.04    0.04
   1  30   3    0.48    0.06
   1 -30   3    0.47    0.06
   1  30   4    0.00    0.03
   1 -30   4   -0.06    0.04
   1 -30   5    0.08    0.04
   1 -30   5    0.09    0.04
   1 -30   6    0.03    0.03
  -1 -31   6    0.10    0.03
  -1  31   5    0.18    0.03
  -1 -31   5    0.22    0.04
  -1  31   4    4.76    0.14
  -1 -31   4    4.62    0.16
  -1  31   3    0.08    0.04
  -1 -31   3    0.03    0.04
  -1  31   2    0.49    0.07
   1  31  -2    0.34    0.05
  -1 -31   2    0.49    0.06
   1  31  -1    6.35    0.19
  -1  31   1    6.47    0.19
   1  31   0    1.38    0.09
  -1  31   0    1.39    0.08
  -1  31  -1    0.65    0.07
   1  31   1    0.80    0.07
   1 -31   1    0.81    0.08
   1  31   2    4.43    0.14
   1 -31   2    4.01    0.15
   1  31   3    1.55    0.08
   1 -31   3    1.69    0.09
   1  31   4    0.17    0.03
   1 -31   4    0.20    0.05
   1 -31   5    1.46    0.08
   1 -31   5    1.57    0.08
  -1  32   5    0.09    0.03
  -1 -32   5    0.02    0.03
  -1  32   4    0.04    0.03
  -1 -32   4    0.02    0.04
  -1  32   3    0.08    0.04
  -1 -32   3    0.04    0.04
  -1  32   2    1.21    0.08
   1  32  -2    1.13    0.08
  -1 -32   2    1.35    0.09
   1  32  -1    0.27    0.05
  -1  32   1    0.32    0.05
   1  32   0   11.15    0.29
  -1  32   0   10.57    0.29
  -1  32  -1    0.05    0.04
   1  32   1    0.03    0.04
   1 -32   1    0.08    0.04
   1  32   2    1.32    0.08
   1 -32   2    1.33    0.09
   1  32   3    1.44    0.08
   1 -32   3    1.77    0.09
   1  32   4    0.18    0.03
   1 -32   4    0.18    0.04
   1 -32   5    0.14    0.04
   1 -32   5    0.20    0.04
  -1  33   5    0.51    0.04
  -1 -33   5    0.55    0.06
  -1  33   4    0.54    0.06
  -1 -33   4    0.69    0.07
  -1 -33   4    0.66    0.07
  -1  33   3    1.00    0.07
  -1 -33   3    1.11    0.08
   1  33  -2    0.87    0.08
  -1  33   2    0.97    0.07
  -1  33   1    3.02    0.12
   1  33  -1    3.15    0.12
  -1  33   0    1.11    0.08
   1  33   0    1.26    0.08
  -1  33  -1    0.19    0.05
   1  33   1    0.21    0.04
   1 -33   1    0.22    0.05
   1  33   2    0.66    0.07
   1 -33   2    0.90    0.08
   1  33   3    4.89    0.15
   1 -33   3    5.19    0.16
   1  33   4    0.01    0.03
   1 -33   4   -0.01    0.04
   1 -33   5    0.05    0.03
   1 -33   5   -0.02    0.03
  -1 -34   5    0.65    0.06
  -1  34   4    2.48    0.09
  -1 -34   4    2.36    0.10
  -1 -34   4    2.55    0.10
  -1  34   3    0.28    0.04
  -1 -34   3    0.26    0.05
  -1  34   2    1.46    0.08
   1  34  -2    1.43    0.09
  -1  34   1    1.14    0.08
   1  34  -1    1.12    0.08
   1  34   0    2.10    0.10
  -1  34   0    2.14    0.10
   1  34   1    4.67    0.16
  -1  34  -1    4.99    0.16
   1 -34   1    5.32    0.17
   1  34   2    0.13    0.04
   1 -34   2    0.10    0.05
   1  34   3    5.53    0.16
   1 -34   3    6.00    0.18
   1  34   4    0.07    0.03
   1 -34   4    0.06    0.04
   1 -34   5    1.12    0.06
  -1  35   4    2.71    0.09
  -1 -35   4    2.73    0.10
  -1 -35   4    2.68    0.10
  -1  35   3    0.27    0.04
  -1 -35   3    0.37    0.05
   1  35  -2    0.14    0.04
  -1  35   2    0.07    0.04
   1  35  -1    0.02    0.04
  -1  35   1   -0.01    0.03
   1  35   0    1.90    0.10
  -1  35   0    1.92    0.10
  -1  35  -1    0.76    0.07
   1  35   1    0.67    0.07
   1 -35   1    0.68    0.08
   1  35   2    0.19    0.04
   1 -35   2    0.19    0.05
   1  35   3   -0.03    0.03
   1 -35   3    0.00    0.04
   1  35   4    0.42    0.04
   1 -35   4    0.54    0.06
  -1  36   4    3.59    0.11
  -1 -36   4    3.28    0.11
  -1 -36   4    3.64    0.12
  -1  36   3    0.03    0.03
  -1 -36   3   -0.08    0.03
  -1  36   2    3.45    0.12
   1  36  -2    3.19    0.12
   1  36  -1    8.04    0.22
  -1  36   1    7.71    0.22
   1  36   0    2.83    0.11
  -1  36   0    2.85    0.11
  -1  36  -1    3.77    0.13
   1  36   1    4.08    0.13
   1  36   2    0.04    0.03
   1 -36   2    0.01    0.04
   1  36   3    2.22    0.08
   1 -36   3    2.16    0.09
   1 -36   4    0.99    0.06
   1 -36   4    0.99    0.06
  -1  37   4    4.83    0.13
  -1 -37   4    4.78    0.14
  -1  37   3    0.07    0.03
  -1 -37   3    0.04    0.03
  -1 -37   3    0.06    0.04
  -1  37   2    0.53    0.06
   1  37  -2    0.44    0.06
  -1  37   1    0.29    0.04
   1  37  -1    0.33    0.05
  -1  37   0    0.21    0.04
   1  37   0    0.14    0.04
  -1  37  -1    0.09    0.04
   1  37   1    0.09    0.04
   1  37   2    3.74    0.12
   1 -37   2    3.64    0.13
   1  37   3    0.17    0.03
   1 -37   3    0.10    0.04
   1 -37   4    0.15    0.03
   1 -37   4    0.13    0.03
  -1  38   3    1.05    0.06
  -1 -38   3    1.07    0.07
  -1 -38   3    1.05    0.06
   1  38  -2    0.35    0.05
  -1  38   2    0.38    0.04
   1  38  -1    0.02    0.03
  -1  38   1    0.02    0.03
   1  38   0    0.31    0.05
  -1  38   0    0.42    0.05
  -1  38  -1    0.08    0.04
   1  38   1    0.01    0.03
   1  38   2    0.27    0.04
   1 -38   2    0.19    0.04
   1  38   3    3.48    0.10
   1 -38   3    3.31    0.11
  -1  39   3    0.11    0.03
  -1  39   2    1.46    0.07
   1  39  -2    1.34    0.07
  -1  39   1    1.22    0.07
   1  39  -1    1.28    0.07
   1  39   0    0.49    0.06
  -1  39   0    0.56    0.06
  -1  39  -1    0.18    0.04
   1  39   1    0.18    0.04
   1  39   2    0.46    0.05
   1 -39   2    0.35    0.04
  -1  40   2    1.94    0.08
   1  40  -1    1.09    0.06
  -1  40   1    1.11    0.06
  -1  40   0    0.41    0.05
   1  40   0    0.49    0.05
  -1  40  -1    0.41    0.05
   1  40   1    0.35    0.05
   1  40   2    1.26    0.06
   1  41  -1    0.08    0.03
  -1  41   1    0.17    0.03
  -1  41   0    0.28    0.04
   1  41   0    0.36    0.05
   1  41   1    2.32    0.08
  -2   0   9   -0.01    0.03
  -2   0   8    8.45    0.22
  -2   0   8    8.81    0.25
  -2   0   7    0.00    0.04
  -2   0   7   -0.01    0.03
  -2   0   6    0.10    0.04
  -2   0   6    0.14    0.03
  -2   0   6    0.18    0.03
  -2   0   5    0.01    0.03
  -2   0   5    0.03    0.04
  -2   0   5    0.00    0.03
  -2   0   4    0.11    0.02
  -2   0   3    0.04    0.02
  -2   0   3    0.16    0.04
  -2   0   2  159.13    4.42
  -2   0   2  159.51    3.38
   2   0  -1   -0.02    0.02
  -2   0   1   -0.02    0.02
   2   0   0    2.64    0.06
   2   0   1   -0.08    0.01
   2   0   1   -0.11    0.01
   2   0   3    0.00    0.01
   2   0   3    0.00    0.01
   2   0   4   75.64    1.61
   2   0   5   -0.01    0.02
   2   0   5    0.02    0.03
   2   0   5   -0.01    0.01
   2   0   6   44.58    0.85
   2   0   6   43.26    1.07
   2   0   7   -0.02    0.02
   2   0   7    0.04    0.04
   2   0   8    2.19    0.10
   2   0   8    2.21    0.06
  -2   1   9    0.22    0.04
  -2  -1   9    0.23    0.04
  -2   1   8    4.20    0.12
  -2   1   8    4.34    0.15
  -2  -1   8    4.25    0.12
  -2  -1   8    4.29    0.15
  -2   1   7    1.61    0.08
  -2   1   7    1.38    0.10
  -2  -1   7    1.36    0.10
  -2  -1   7    1.59    0.07
  -2   1   6    0.11    0.04
  -2   1   6    0.13    0.03
  -2   1   6    0.18    0.03
  -2  -1   6    0.14    0.04
  -2  -1   6    0.13    0.03
  -2  -1   6    0.17    0.03
  -2   1   5    4.17    0.14
  -2   1   5    4.07    0.13
  -2   1   5    4.17    0.12
  -2  -1   5    4.30    0.12
  -2  -1   5    4.28    0.14
  -2  -1   5    4.43    0.13
  -2   1   4    0.03    0.02
  -2  -1   4    0.05    0.02
  -2   1   3    8.58    0.20
  -2   1   3    8.55    0.27
  -2  -1   3    8.57    0.20
   2   1  -2    0.54    0.04
  -2   1   2    0.61    0.04
   2  -1  -2    0.70    0.04
  -2  -1   2    0.67    0.04
  -2  -1   2    0.71    0.05
   2   1  -1    0.12    0.02
  -2   1   1    0.12    0.02
   2  -1  -1    0.27    0.03
  -2  -1   1    0.09    0.02
   2   1   0   16.38    0.35
   2  -1   0   16.42    0.35
   2  -1   1   13.61    0.29
   2  -1   1   13.43    0.29
   2  -1   2    0.04    0.01
   2  -1   2    0.02    0.01
   2   1   3    0.58    0.02
   2   1   3    0.56    0.02
   2  -1   3    0.54    0.02
   2   1   4    7.83    0.18
   2  -1   4    7.74    0.18
   2   1   5    9.65    0.26
   2   1   5    9.59    0.19
   2   1   5    9.43    0.22
   2  -1   5    9.44    0.22
   2  -1   5    9.19    0.26
   2  -1   5    9.70    0.19
   2   1   6    4.91    0.16
   2   1   6    4.86    0.11
   2  -1   6    4.89    0.11
   2  -1   6    4.75    0.16
   2   1   7    3.78    0.14
   2   1   7    3.78    0.09
   2  -1   7    3.83    0.10
   2  -1   7    3.78    0.15
   2   1   8    2.12    0.06
   2   1   8    1.94    0.09
   2  -1   8    1.95    0.09
   2  -1   8    2.02    0.06
  -2   2   9    1.70    0.08
  -2  -2   9    1.87    0.08
  -2   2   8    3.26    0.13
  -2   2   8    2.90    0.10
  -2  -2   8    2.87    0.09
  -2  -2   8    3.11    0.13
  -2   2   7   13.36    0.33
  -2   2   7   13.59    0.37
  -2  -2   7   13.55    0.37
  -2  -2   7   12.98    0.33
  -2   2   6    1.20    0.07
  -2   2   6    0.96    0.06
  -2   2   6    1.03    0.08
  -2  -2   6    1.08    0.06
  -2  -2   6    1.15    0.07
  -2  -2   6    1.14    0.08
  -2   2   5    0.19    0.03
  -2   2   5    0.17    0.03
  -2   2   5    0.17    0.04
  -2  -2   5    0.18    0.04
  -2  -2   5    0.15    0.03
  -2  -2   5    0.13    0.03
  -2   2   4   38.09    0.83
  -2  -2   4   38.35    0.83
  -2   2   3   16.37    0.37
  -2   2   3   17.40    0.49
  -2  -2   3   16.81    0.37
   2   2  -2    6.50    0.15
  -2   2   2    6.76    0.20
  -2   2   2    6.66    0.15
   2  -2  -2    6.60    0.15
  -2  -2   2    6.50    0.15
  -2  -2   2    6.43    0.20
  -2   2   1    0.21    0.03
   2   2  -1    0.29    0.03
   2  -2  -1    0.29    0.03
  -2  -2   1    0.31    0.03
   2   2   0    6.55    0.14
   2  -2   0    6.34    0.14
   2  -2   1  214.23    4.54
   2  -2   1  214.16    4.55
   2  -2   2   24.97    0.54
   2  -2   2   25.28    0.54
   2   2   3   96.84    2.03
   2   2   3   95.68    2.03
   2  -2   3   95.22    2.03
   2   2   4   25.56    0.55
   2  -2   4   25.29    0.55
   2   2   5    0.65    0.03
   2   2   5    0.60    0.06
   2   2   5    0.67    0.02
   2  -2   5    0.62    0.03
   2  -2   5    0.53    0.06
   2  -2   5    0.65    0.04
   2   2   6   13.18    0.26
   2   2   6   12.77    0.35
   2  -2   6   12.66    0.35
   2   2   7   23.53    0.47
   2   2   7   23.64    0.60
   2  -2   7   23.66    0.47
   2  -2   7   23.63    0.60
   2   2   8    0.09    0.02
   2   2   8    0.09    0.04
   2  -2   8    0.08    0.02
   2  -2   8    0.09    0.04
  -2   3   9   -0.02    0.03
  -2  -3   9    0.04    0.03
  -2   3   8    0.82    0.08
  -2  -3   8    0.80    0.05
  -2  -3   8    0.80    0.08
  -2   3   7    4.90    0.14
  -2   3   7    4.71    0.17
  -2  -3   7    4.84    0.14
  -2  -3   7    4.54    0.17
  -2   3   6    1.17    0.07
  -2   3   6    1.30    0.08
  -2   3   6    1.13    0.06
  -2  -3   6    1.16    0.07
  -2  -3   6    1.17    0.09
  -2  -3   6    1.14    0.07
  -2   3   5   11.55    0.31
  -2   3   5   11.09    0.28
  -2   3   5   11.36    0.27
  -2  -3   5   11.68    0.31
  -2  -3   5   11.05    0.28
  -2  -3   5   11.17    0.27
  -2   3   4    1.87    0.07
  -2  -3   4    2.02    0.07
  -2   3   3    1.04    0.07
  -2   3   3    1.09    0.05
  -2  -3   3    1.05    0.05
  -2   3   2    0.02    0.02
  -2   3   2    0.07    0.03
   2   3  -2    0.04    0.02
  -2  -3   2    0.05    0.03
  -2  -3   2    0.01    0.02
   2  -3  -2    0.04    0.02
  -2   3   1   55.05    1.16
   2   3  -1   54.51    1.16
  -2  -3   1   54.45    1.16
   2  -3  -1   54.77    1.17
   2   3   0   39.39    0.84
   2  -3   0   40.05    0.85
   2   3   1    4.95    0.11
   2   3   1    5.05    0.11
   2  -3   1    4.90    0.11
   2  -3   1    4.98    0.11
   2  -3   2   30.13    0.65
   2  -3   2   30.45    0.65
   2   3   3    2.99    0.07
   2   3   3    2.94    0.07
   2  -3   3    3.16    0.08
   2   3   4   14.22    0.31
   2  -3   4   14.34    0.32
   2   3   5    2.45    0.05
   2   3   5    2.36    0.10
   2   3   5    2.35    0.07
   2  -3   5    2.40    0.06
   2  -3   5    2.38    0.10
   2  -3   5    2.32    0.07
   2   3   6    4.74    0.10
   2   3   6    4.49    0.16
   2  -3   6    4.79    0.16
   2   3   7    0.70    0.04
   2   3   7    0.77    0.08
   2  -3   7    0.73    0.08
   2  -3   7    0.73    0.04
   2   3   8    0.14    0.02
   2   3   8    0.08    0.04
   2  -3   8    0.06    0.04
   2  -3   8    0.09    0.02
  -2   4   9    1.43    0.07
  -2  -4   9    1.55    0.07
  -2   4   8    3.32    0.13
  -2  -4   8    3.45    0.13
  -2  -4   8    3.20    0.10
  -2   4   7    3.14    0.13
  -2   4   7    3.06    0.11
  -2  -4   7    3.28    0.14
  -2  -4   7    3.08    0.11
  -2   4   6   10.07    0.25
  -2   4   6    9.82    0.28
  -2   4   6    9.51    0.24
  -2  -4   6    9.87    0.25
  -2  -4   6    9.46    0.25
  -2  -4   6   10.17    0.28
  -2   4   5    0.62    0.05
  -2   4   5    0.58    0.05
  -2   4   5    0.49    0.06
  -2  -4   5    0.64    0.05
  -2  -4   5    0.70    0.06
  -2  -4   5    0.55    0.07
  -2   4   4   60.06    1.29
  -2  -4   4   60.25    1.30
  -2   4   3    5.11    0.13
  -2   4   3    5.27    0.17
  -2  -4   3    5.07    0.13
  -2   4   2    4.47    0.11
  -2   4   2    4.26    0.15
  -2  -4   2    4.27    0.14
   2  -4  -2    4.34    0.11
  -2  -4   2    4.49    0.11
   2   4  -1  958.29   21.48
  -2   4   1 1000.00   20.68
   2  -4  -1  951.33   21.74
  -2  -4   1  992.99   20.68
   2   4   0   14.63    0.31
   2  -4   0   13.89    0.31
   2   4   1   38.37    0.80
   2   4   1   37.28    0.81
   2  -4   1   38.24    0.81
   2  -4   2    0.24    0.02
   2  -4   2    0.24    0.02
   2   4   3   17.71    0.38
   2   4   3   17.93    0.38
   2  -4   3   17.78    0.39
   2   4   4    4.93    0.11
   2  -4   4    4.83    0.12
   2   4   5    1.94    0.04
   2   4   5    1.97    0.09
   2   4   5    1.82    0.06
   2  -4   5    1.85    0.06
   2  -4   5    1.90    0.09
   2  -4   5    1.98    0.05
   2   4   6    2.05    0.06
   2   4   6    2.08    0.10
   2  -4   6    1.94    0.10
   2   4   7    4.06    0.15
   2   4   7    4.10    0.10
   2  -4   7    4.13    0.10
   2  -4   7    4.41    0.16
   2   4   8    3.00    0.08
   2   4   8    2.87    0.11
   2  -4   8    2.93    0.12
   2  -4   8    3.02    0.08
  -2   5   9    0.04    0.03
  -2  -5   9    0.05    0.03
  -2   5   8    1.74    0.10
  -2  -5   8    1.92    0.07
  -2  -5   8    1.75    0.10
  -2   5   7    4.61    0.14
  -2   5   7    4.08    0.16
  -2  -5   7    4.12    0.16
  -2  -5   7    4.63    0.14
  -2   5   6    5.34    0.16
  -2   5   6    5.61    0.15
  -2   5   6    5.38    0.18
  -2  -5   6    5.14    0.16
  -2  -5   6    5.22    0.15
  -2  -5   6    5.72    0.18
  -2   5   5    0.01    0.03
  -2   5   5    0.05    0.03
  -2   5   5    0.02    0.02
  -2  -5   5    0.05    0.03
  -2  -5   5    0.05    0.04
  -2  -5   5    0.04    0.03
  -2   5   4   15.34    0.34
  -2  -5   4   14.93    0.35
  -2   5   3    0.24    0.04
  -2   5   3    0.37    0.04
  -2  -5   3    0.36    0.04
  -2   5   2    0.10    0.02
   2   5  -2    0.08    0.02
   2  -5  -2    0.12    0.02
  -2  -5   2    0.12    0.02
  -2   5   1  137.72    2.92
   2   5  -1  136.58    2.94
  -2  -5   1  139.27    2.92
   2  -5  -1  138.11    2.92
   2   5   0   23.92    0.52
   2  -5   0   24.77    0.52
   2   5   1   58.51    1.26
   2   5   1   59.58    1.26
   2  -5   1   59.89    1.26
   2   5   2    6.68    0.15
   2   5   2    6.89    0.15
   2  -5   2    6.93    0.15
   2  -5   2    6.68    0.15
   2   5   3    1.03    0.03
   2   5   3    1.02    0.03
   2  -5   3    1.02    0.04
   2   5   4   11.19    0.25
   2  -5   4   11.11    0.25
   2   5   5   20.69    0.53
   2   5   5   21.26    0.46
   2   5   5   21.18    0.41
   2  -5   5   21.40    0.54
   2  -5   5   21.56    0.47
   2  -5   5   21.48    0.42
   2   5   6    0.06    0.02
   2   5   6    0.03    0.04
   2  -5   6    0.07    0.04
   2   5   7    1.11    0.05
   2   5   7    1.14    0.08
   2  -5   7    1.17    0.05
   2  -5   7    1.04    0.09
   2   5   8    0.27    0.04
   2   5   8    0.30    0.03
   2  -5   8    0.25    0.05
  -2   6   8    0.01    0.04
  -2  -6   8    0.01    0.04
  -2  -6   8   -0.04    0.02
  -2   6   7    0.91    0.06
  -2   6   7    0.90    0.09
  -2  -6   7    0.83    0.09
  -2  -6   7    0.93    0.07
  -2   6   6    0.76    0.08
  -2   6   6    0.95    0.06
  -2   6   6    0.81    0.06
  -2  -6   6    0.85    0.06
  -2  -6   6    0.89    0.06
  -2  -6   6    0.69    0.08
  -2   6   5    1.00    0.06
  -2   6   5    1.03    0.06
  -2   6   5    1.14    0.07
  -2  -6   5    1.14    0.06
  -2  -6   5    1.13    0.08
  -2  -6   5    1.06    0.06
  -2   6   4   41.02    0.88
  -2  -6   4   40.01    0.88
  -2   6   3   11.50    0.35
  -2   6   3   11.49    0.27
  -2  -6   3   11.86    0.27
  -2   6   2    5.48    0.13
   2   6  -2    5.50    0.13
  -2   6   2    5.68    0.18
  -2  -6   2    5.51    0.13
   2  -6  -2    5.33    0.13
  -2   6   1  234.14    4.89
   2   6  -1  229.18    4.89
   2  -6  -1  227.60    4.89
  -2  -6   1  229.79    4.89
   2   6   0   12.78    0.28
  -2   6   0   13.05    0.28
   2  -6   0   12.74    0.28
   2   6   1   53.91    1.17
   2   6   1   55.46    1.17
   2  -6   1   56.12    1.17
   2   6   2    6.25    0.14
   2   6   2    6.20    0.14
   2  -6   2    6.30    0.14
   2   6   3   26.71    0.57
   2  -6   3   27.10    0.58
   2   6   4   27.99    0.60
   2  -6   4   27.69    0.60
   2   6   5    2.41    0.10
   2   6   5    2.62    0.07
   2  -6   5    2.57    0.07
   2  -6   5    2.73    0.11
   2  -6   5    2.58    0.08
   2   6   6    2.89    0.12
   2   6   6    2.84    0.07
   2  -6   6    2.80    0.12
   2   6   7    0.10    0.02
   2   6   7    0.09    0.04
   2  -6   7    0.04    0.04
   2  -6   7    0.08    0.02
   2   6   8    0.00    0.03
   2   6   8    0.04    0.02
   2  -6   8    0.01    0.04
  -2   7   8    2.09    0.10
  -2  -7   8    2.09    0.10
  -2  -7   8    1.91    0.08
  -2   7   7    4.48    0.13
  -2   7   7    4.58    0.16
  -2  -7   7    4.47    0.16
  -2  -7   7    4.16    0.14
  -2   7   6    1.62    0.08
  -2   7   6    1.62    0.09
  -2  -7   6    1.53    0.08
  -2  -7   6    1.77    0.08
  -2  -7   6    1.66    0.10
  -2   7   5   14.44    0.34
  -2   7   5   14.77    0.38
  -2   7   5   14.31    0.35
  -2  -7   5   14.18    0.35
  -2  -7   5   14.44    0.34
  -2  -7   5   14.22    0.38
  -2   7   4   26.81    0.59
  -2  -7   4   26.53    0.59
  -2   7   3   25.86    0.75
  -2   7   3   25.70    0.57
  -2  -7   3   26.76    0.57
  -2   7   2    0.05    0.03
   2   7  -2    0.01    0.02
  -2   7   2    0.03    0.02
   2  -7  -2    0.03    0.02
  -2  -7   2    0.00    0.02
  -2   7   1  132.23    2.84
   2   7  -1  131.67    2.85
  -2  -7   1  133.21    2.83
   2  -7  -1  137.79    2.84
  -2   7   0    0.25    0.03
   2   7   0    0.25    0.03
   2  -7   0    0.22    0.03
   2   7   1    4.87    0.11
   2   7   1    4.90    0.11
   2  -7   1    5.04    0.12
   2   7   2    7.82    0.17
   2   7   2    7.92    0.17
   2  -7   2    7.75    0.18
   2   7   3    6.48    0.14
   2  -7   3    6.30    0.15
   2   7   4    0.23    0.02
   2  -7   4    0.28    0.03
   2   7   5    0.27    0.03
   2   7   5    0.31    0.02
   2  -7   5    0.31    0.04
   2  -7   5    0.25    0.03
   2  -7   5    0.34    0.05
   2   7   6   10.33    0.21
   2   7   6    9.91    0.28
   2  -7   6   10.03    0.29
   2   7   7    0.78    0.04
   2   7   7    0.73    0.07
   2  -7   7    0.69    0.08
   2  -7   7    0.70    0.04
   2   7   8    0.04    0.02
   2  -7   8    0.01    0.04
  -2   8   8    0.09    0.04
  -2  -8   8    0.01    0.03
  -2  -8   8    0.06    0.04
  -2   8   7    4.44    0.13
  -2   8   7    4.06    0.16
  -2  -8   7    4.22    0.16
  -2  -8   7    4.21    0.14
  -2   8   6    1.99    0.10
  -2   8   6    1.98    0.08
  -2  -8   6    1.98    0.11
  -2  -8   6    2.03    0.09
  -2   8   5    7.35    0.19
  -2   8   5    7.24    0.22
  -2   8   5    7.26    0.20
  -2  -8   5    7.34    0.19
  -2  -8   5    7.41    0.22
  -2  -8   5    7.38    0.20
  -2   8   4    2.10    0.07
  -2  -8   4    2.07    0.08
  -2   8   3    1.35    0.08
  -2   8   3    1.22    0.05
  -2  -8   3    1.39    0.06
  -2   8   2   18.77    0.54
   2   8  -2   18.57    0.41
  -2   8   2   18.70    0.41
  -2  -8   2   18.22    0.41
  -2   8   1    0.30    0.03
  -2  -8   1    0.27    0.03
   2  -8  -1    0.31    0.04
  -2   8   0   25.31    0.55
   2   8   0   25.75    0.55
   2  -8   0   25.41    0.55
   2   8   1   38.91    0.85
   2   8   1   39.34    0.85
   2  -8   1   40.79    0.85
   2   8   2    1.04    0.03
   2   8   2    1.05    0.04
   2  -8   2    1.15    0.04
   2   8   3   12.57    0.27
   2  -8   3   12.57    0.28
   2   8   4    7.74    0.18
   2  -8   4    7.85    0.19
   2   8   5    5.39    0.13
   2  -8   5    5.19    0.12
   2  -8   5    5.31    0.14
   2   8   6    2.44    0.11
   2   8   6    2.52    0.07
   2  -8   6    2.45    0.11
   2   8   7    0.16    0.02
   2  -8   7    0.26    0.05
   2  -8   7    0.10    0.03
   2   8   8    4.27    0.10
   2  -8   8    4.26    0.15
  -2   9   8    0.22    0.05
  -2  -9   8    0.19    0.05
  -2  -9   8    0.16    0.03
  -2   9   7    0.00    0.04
  -2   9   7    0.08    0.03
  -2  -9   7   -0.02    0.03
  -2  -9   7    0.15    0.05
  -2   9   6    0.75    0.08
  -2   9   6    0.54    0.06
  -2  -9   6    0.65    0.06
  -2  -9   6    0.63    0.08
  -2   9   5    2.15    0.10
  -2   9   5    2.07    0.08
  -2   9   5    2.01    0.08
  -2  -9   5    2.19    0.10
  -2  -9   5    2.11    0.08
  -2  -9   5    2.02    0.09
  -2   9   4    3.74    0.11
  -2  -9   4    3.62    0.11
  -2   9   3   20.57    0.59
  -2   9   3   19.71    0.45
  -2  -9   3   20.27    0.45
  -2   9   2    3.99    0.14
   2   9  -2    4.12    0.11
  -2   9   2    4.15    0.11
  -2  -9   2    4.22    0.11
   2   9  -1  393.12    8.22
  -2   9   1  379.64    8.22
  -2  -9   1  385.51    8.21
   2  -9  -1  387.94    8.20
  -2   9   0   19.76    0.43
   2   9   0   19.31    0.43
   2  -9   0   19.76    0.43
   2   9   1   18.49    0.42
   2   9   1   19.62    0.42
   2  -9   1   19.95    0.42
   2   9   2   16.55    0.36
   2  -9   2   16.57    0.36
   2   9   3   18.41    0.40
   2  -9   3   18.19    0.40
   2   9   4    0.32    0.03
   2  -9   4    0.33    0.04
   2   9   5    0.02    0.01
   2   9   5    0.02    0.02
   2  -9   5   -0.01    0.03
   2  -9   5    0.06    0.02
   2  -9   5    0.03    0.02
   2   9   6   33.00    0.64
   2  -9   6   33.45    0.83
   2   9   7    0.70    0.04
   2  -9   7    0.65    0.08
   2   9   8    0.12    0.02
   2  -9   8    0.09    0.04
  -2  10   8   17.38    0.45
  -2 -10   8   16.91    0.41
  -2 -10   8   17.86    0.45
  -2  10   7    0.21    0.04
  -2  10   7    0.26    0.05
  -2 -10   7    0.20    0.05
  -2 -10   7    0.18    0.04
  -2  10   6   15.06    0.38
  -2  10   6   15.17    0.41
  -2 -10   6   15.42    0.38
  -2 -10   6   15.94    0.41
  -2  10   5   15.65    0.38
  -2  10   5   15.73    0.37
  -2  10   5   15.79    0.41
  -2 -10   5   15.69    0.37
  -2 -10   5   15.95    0.41
  -2 -10   5   15.64    0.39
  -2  10   4    3.02    0.09
  -2 -10   4    2.93    0.10
  -2  10   3   15.03    0.45
  -2  10   3   14.97    0.34
  -2 -10   3   15.17    0.34
  -2  10   2    0.68    0.06
  -2  10   2    0.76    0.04
   2  10  -2    0.78    0.04
  -2 -10   2    0.93    0.05
   2  10  -1    2.37    0.07
  -2  10   1    2.32    0.07
   2 -10  -1    2.36    0.07
  -2 -10   1    2.33    0.07
   2  10   0   20.10    0.43
  -2  10   0   19.24    0.43
   2 -10   0   19.30    0.43
   2  10   1    5.95    0.14
   2 -10   1    5.85    0.14
   2  10   2    4.28    0.10
   2 -10   2    4.38    0.11
   2  10   3    5.13    0.12
   2 -10   3    5.06    0.13
   2  10   4   26.66    0.58
   2 -10   4   27.09    0.59
   2  10   5    0.22    0.02
   2  10   5    0.25    0.03
   2 -10   5    0.23    0.03
   2 -10   5    0.24    0.03
   2 -10   5    0.28    0.03
   2 -10   5    0.18    0.04
   2 -10   5    0.22    0.03
   2  10   6   30.27    0.59
   2 -10   6   31.05    0.77
   2  10   7    0.01    0.02
   2 -10   7    0.02    0.04
   2  10   8    3.28    0.08
   2 -10   8    3.33    0.12
  -2  11   8    2.25    0.10
  -2 -11   8    2.39    0.08
  -2 -11   8    2.23    0.10
  -2  11   7    9.03    0.28
  -2  11   7    9.84    0.25
  -2 -11   7    9.42    0.28
  -2 -11   7   10.02    0.25
  -2  11   6    2.67    0.12
  -2  11   6    2.49    0.10
  -2 -11   6    2.56    0.12
  -2 -11   6    2.77    0.11
  -2  11   5    0.20    0.03
  -2  11   5    0.17    0.03
  -2  11   5    0.11    0.04
  -2 -11   5    0.20    0.04
  -2 -11   5    0.24    0.05
  -2 -11   5    0.21    0.04
  -2  11   4   13.65    0.31
  -2 -11   4   13.04    0.31
  -2  11   3    0.92    0.05
  -2  11   3    0.81    0.07
  -2 -11   3    0.98    0.05
  -2  11   2    0.01    0.02
  -2  11   2   -0.01    0.03
   2  11  -2    0.02    0.02
  -2 -11   2    0.02    0.02
   2  11  -1    0.38    0.04
  -2  11   1    0.45    0.04
  -2 -11   1    0.40    0.04
   2 -11  -1    0.37    0.04
   2  11   0    3.75    0.09
  -2  11   0    3.56    0.10
   2 -11   0    3.73    0.10
   2  11   1   21.43    0.48
   2 -11   1   22.52    0.48
   2  11   2    1.03    0.04
   2 -11   2    1.04    0.05
   2  11   3   10.98    0.24
   2 -11   3   10.45    0.25
   2  11   4    0.56    0.03
   2  11   4    0.70    0.02
   2 -11   4    0.67    0.04
   2  11   5   18.78    0.40
   2  11   5   18.48    0.36
   2 -11   5   18.11    0.42
   2 -11   5   18.54    0.37
   2 -11   5   18.05    0.47
   2 -11   5   18.00    0.43
   2 -11   5   18.01    0.43
   2  11   6    1.96    0.06
   2 -11   6    1.99    0.11
   2  11   7    0.27    0.03
   2 -11   7    0.26    0.05
   2  11   8    0.55    0.03
   2 -11   8    0.56    0.06
  -2 -12   8    0.16    0.04
  -2 -12   8    0.21    0.03
  -2  12   7    7.41    0.22
  -2  12   7    7.20    0.20
  -2 -12   7    7.15    0.20
  -2 -12   7    7.80    0.23
  -2  12   6   10.97    0.28
  -2  12   6   11.33    0.31
  -2 -12   6   10.98    0.29
  -2 -12   6   11.29    0.31
  -2  12   5    5.19    0.15
  -2  12   5    5.30    0.15
  -2  12   5    5.17    0.17
  -2 -12   5    5.18    0.17
  -2 -12   5    5.09    0.16
  -2 -12   5    4.96    0.15
  -2  12   4    3.79    0.11
  -2 -12   4    3.67    0.11
  -2  12   3    1.95    0.07
  -2  12   3    1.91    0.09
  -2 -12   3    1.93    0.07
   2  12  -2   18.09    0.41
  -2  12   2   18.34    0.53
  -2  12   2   18.31    0.41
  -2 -12   2   18.61    0.41
  -2  12   1    4.97    0.13
   2  12  -1    4.92    0.13
   2 -12  -1    5.04    0.13
   2  12   0    9.78    0.23
  -2  12   0   10.31    0.23
   2 -12   0    9.88    0.23
   2  12   1    1.07    0.04
   2 -12   1    1.10    0.05
   2  12   2    2.37    0.07
   2 -12   2    2.39    0.07
   2  12   3   12.04    0.27
   2 -12   3   11.85    0.28
   2  12   4    1.98    0.05
   2  12   4    1.86    0.06
   2 -12   4    1.85    0.09
   2 -12   4    1.95    0.07
   2  12   5    0.44    0.03
   2  12   5    0.41    0.03
   2 -12   5    0.44    0.04
   2 -12   5    0.50    0.05
   2 -12   5    0.47    0.07
   2 -12   5    0.35    0.04
   2  12   6   11.20    0.23
   2 -12   6   11.50    0.32
   2  12   7    7.05    0.15
   2 -12   7    6.89    0.22
   2  12   8    0.12    0.02
   2 -12   8    0.06    0.04
  -2 -13   8    0.36    0.05
  -2 -13   8    0.40    0.04
  -2  13   7    3.84    0.15
  -2  13   7    3.92    0.12
  -2 -13   7    3.90    0.15
  -2 -13   7    4.13    0.13
  -2  13   6   22.50    0.56
  -2  13   6   22.29    0.52
  -2 -13   6   21.63    0.53
  -2 -13   6   21.14    0.56
  -2  13   5    5.85    0.17
  -2  13   5    5.82    0.16
  -2  13   5    6.03    0.19
  -2 -13   5    5.84    0.17
  -2 -13   5    5.79    0.17
  -2 -13   5    6.03    0.19
  -2  13   4    2.19    0.08
  -2  13   4    2.37    0.09
  -2 -13   4    2.19    0.09
  -2 -13   4    2.22    0.09
  -2 -13   4    2.33    0.09
  -2  13   3   10.82    0.34
  -2  13   3   11.01    0.26
  -2 -13   3   11.17    0.26
   2  13  -2    0.84    0.05
  -2  13   2    0.94    0.07
  -2  13   2    0.88    0.05
  -2 -13   2    0.98    0.05
  -2  13   1    0.46    0.04
   2  13  -1    0.44    0.04
   2 -13  -1    0.50    0.04
  -2  13   0   48.28    1.04
   2  13   0   47.07    1.04
   2 -13   0   49.78    1.04
   2  13   1    0.08    0.02
   2 -13   1    0.13    0.03
   2  13   2   42.19    0.91
   2 -13   2   42.61    0.92
   2  13   3    7.99    0.18
   2 -13   3    7.67    0.19
   2  13   4    3.84    0.10
   2  13   4    3.75    0.08
   2 -13   4    3.84    0.11
   2 -13   4    4.02    0.12
   2 -13   4    3.88    0.14
   2  13   5   12.95    0.29
   2  13   5   12.99    0.26
   2 -13   5   12.71    0.35
   2 -13   5   12.82    0.30
   2 -13   5   12.21    0.31
   2  13   6    1.64    0.05
   2 -13   6    1.81    0.10
   2  13   7    1.92    0.06
   2 -13   7    2.04    0.11
   2  13   8   -0.01    0.02
   2 -13   8   -0.01    0.04
  -2 -14   8    6.76    0.18
  -2 -14   8    6.80    0.20
  -2  14   7    2.30    0.09
  -2  14   7    2.36    0.11
  -2 -14   7    2.42    0.10
  -2 -14   7    2.42    0.11
  -2  14   6    1.33    0.09
  -2  14   6    1.29    0.07
  -2 -14   6    1.14    0.08
  -2 -14   6    1.37    0.09
  -2  14   5    0.53    0.07
  -2  14   5    0.44    0.05
  -2  14   5    0.45    0.05
  -2 -14   5    0.49    0.06
  -2 -14   5    0.52    0.06
  -2  14   4   27.86    0.61
  -2  14   4   26.99    0.63
  -2  14   4   27.48    0.67
  -2 -14   4   27.23    0.64
  -2 -14   4   26.84    0.64
  -2 -14   4   26.60    0.61
  -2  14   3    2.29    0.08
  -2  14   3    2.41    0.10
  -2 -14   3    2.19    0.08
  -2  14   2   38.59    0.85
  -2  14   2   39.67    1.11
   2  14  -1   52.30    1.13
  -2  14   1   52.69    1.13
   2  14   0   10.95    0.25
   2 -14   0   10.91    0.25
   2  14   1  101.84    2.22
   2 -14   1  106.63    2.22
   2  14   2    0.75    0.04
   2 -14   2    0.78    0.05
   2  14   3   14.73    0.32
   2 -14   3   14.06    0.33
   2  14   4    5.54    0.14
   2  14   4    5.58    0.11
   2  14   4    5.68    0.17
   2 -14   4    5.21    0.15
   2 -14   4    5.39    0.17
   2 -14   4    5.21    0.15
   2  14   5    3.61    0.10
   2  14   5    3.62    0.09
   2 -14   5    3.72    0.11
   2 -14   5    3.55    0.11
   2 -14   5    3.66    0.14
   2  14   6    0.93    0.04
   2 -14   6    1.09    0.06
   2 -14   6    0.97    0.09
   2  14   7    0.03    0.02
   2 -14   7    0.01    0.04
   2  14   8    0.21    0.02
   2 -14   8    0.17    0.04
  -2 -15   8    0.01    0.02
  -2 -15   8   -0.02    0.03
  -2  15   7    3.01    0.10
  -2 -15   7    3.09    0.11
  -2 -15   7    3.13    0.12
  -2  15   6    0.90    0.08
  -2  15   6    0.82    0.06
  -2 -15   6    0.75    0.08
  -2 -15   6    0.88    0.07
  -2  15   5    9.27    0.25
  -2  15   5    9.61    0.24
  -2  15   5    9.78    0.27
  -2 -15   5    9.58    0.27
  -2 -15   5    9.75    0.26
  -2  15   4   10.07    0.27
  -2  15   4    9.91    0.25
  -2  15   4    9.79    0.24
  -2 -15   4    9.33    0.26
  -2  15   3    0.01    0.02
  -2  15   3    0.03    0.03
  -2  15   2   13.54    0.40
  -2  15   2   13.47    0.31
   2  15  -1   50.86    1.09
  -2  15   1   49.96    1.09
   2  15   0    0.11    0.02
   2 -15   0    0.11    0.03
   2  15   1    4.40    0.12
   2 -15   1    4.63    0.12
   2  15   2    0.04    0.02
   2 -15   2    0.10    0.03
   2  15   3    9.28    0.22
   2 -15   3    9.65    0.23
   2  15   4    4.24    0.14
   2  15   4    4.15    0.09
   2  15   4    4.17    0.11
   2 -15   4    4.02    0.12
   2 -15   4    3.96    0.14
   2 -15   4    4.18    0.13
   2  15   5   13.36    0.31
   2  15   5   13.37    0.27
   2 -15   5   13.12    0.36
   2 -15   5   13.32    0.33
   2 -15   5   13.59    0.33
   2  15   6    8.33    0.18
   2 -15   6    8.83    0.22
   2 -15   6    8.32    0.26
   2  15   7    1.96    0.06
   2 -15   7    1.83    0.10
   2  15   8    0.05    0.02
   2 -15   8    0.07    0.04
  -2 -16   8    4.90    0.13
  -2 -16   8    4.86    0.15
  -2  16   7    2.00    0.08
  -2 -16   7    2.25    0.10
  -2 -16   7    2.13    0.09
  -2  16   6    0.01    0.03
  -2 -16   6   -0.02    0.04
  -2 -16   6    0.08    0.04
  -2  16   5    1.81    0.08
  -2  16   5    1.76    0.08
  -2  16   5    1.78    0.10
  -2 -16   5    1.85    0.09
  -2  16   4    8.36    0.22
  -2  16   4    8.27    0.21
  -2  16   4    8.48    0.24
  -2 -16   4    8.28    0.23
  -2  16   3   11.26    0.35
  -2  16   3   11.74    0.27
  -2  16   2    1.04    0.06
  -2  16   2    1.14    0.07
   2  16  -1   48.69    1.05
  -2  16   1   48.91    1.05
   2  16   0    0.52    0.04
   2 -16   0    0.57    0.05
   2  16   1   21.84    0.49
   2 -16   1   22.70    0.50
   2  16   2    7.98    0.19
   2 -16   2    7.58    0.19
   2  16   3    9.91    0.23
   2 -16   3   10.05    0.24
   2  16   4   18.90    0.37
   2  16   4   19.24    0.42
   2 -16   4   18.74    0.48
   2 -16   4   18.17    0.45
   2 -16   4   18.56    0.43
   2  16   5    1.84    0.06
   2 -16   5    1.65    0.08
   2  16   6   10.04    0.21
   2 -16   6   10.61    0.26
   2 -16   6    9.93    0.29
   2  16   7    0.58    0.04
   2 -16   7    0.58    0.07
   2 -16   8    1.44    0.08
  -2 -17   8    1.47    0.06
  -2  17   7    5.35    0.15
  -2 -17   7    5.48    0.16
  -2 -17   7    5.59    0.17
  -2  17   6   10.79    0.27
  -2 -17   6   10.07    0.29
  -2 -17   6   10.11    0.28
  -2  17   5    3.69    0.12
  -2 -17   5    3.58    0.13
  -2  17   4    1.36    0.07
  -2  17   4    1.26    0.07
  -2 -17   4    1.26    0.08
  -2  17   3    2.12    0.08
  -2  17   3    2.07    0.10
  -2  17   2    1.40    0.08
  -2  17   2    1.31    0.06
  -2  17   1   67.87    1.46
   2  17  -1   67.66    1.46
   2  17   0   16.03    0.37
   2 -17   0   16.81    0.37
   2  17   1    0.05    0.02
   2 -17   1    0.13    0.03
   2  17   2    8.42    0.20
   2 -17   2    8.28    0.21
   2  17   3    1.77    0.06
   2  17   3    1.72    0.05
   2 -17   3    1.68    0.07
   2 -17   3    1.71    0.08
   2 -17   3    1.83    0.09
   2  17   4    1.96    0.06
   2  17   4    1.89    0.07
   2 -17   4    1.77    0.08
   2 -17   4    1.87    0.10
   2 -17   4    2.07    0.08
   2  17   5    5.01    0.12
   2 -17   5    5.10    0.15
   2 -17   5    5.31    0.18
   2  17   6    6.11    0.14
   2 -17   6    5.82    0.20
   2 -17   6    5.98    0.17
   2  17   7    1.95    0.06
   2 -17   7    2.16    0.10
   2 -17   8    1.25    0.07
  -2 -18   8    6.07    0.16
  -2  18   7    4.95    0.14
  -2 -18   7    5.30    0.16
  -2  18   6   -0.01    0.03
  -2 -18   6    0.06    0.04
  -2  18   5   -0.01    0.03
  -2 -18   5    0.04    0.04
  -2  18   4    5.82    0.16
  -2  18   4    5.64    0.16
  -2 -18   4    5.42    0.17
  -2  18   3    0.02    0.03
  -2  18   3   -0.01    0.03
  -2  18   3    0.01    0.03
  -2  18   2    9.03    0.23
  -2  18   2    9.32    0.29
   2  18  -1    8.64    0.21
   2  18   0   19.09    0.43
   2  18   1   23.36    0.51
   2 -18   1   22.81    0.52
   2  18   2   10.84    0.25
   2 -18   2   10.20    0.25
   2  18   3    5.94    0.15
   2  18   3    6.20    0.13
   2 -18   3    6.23    0.16
   2 -18   3    5.92    0.18
   2 -18   3    5.80    0.17
   2  18   4    2.64    0.07
   2  18   4    2.72    0.08
   2 -18   4    2.70    0.10
   2 -18   4    2.80    0.10
   2 -18   4    2.63    0.11
   2  18   5    9.08    0.19
   2 -18   5    9.16    0.27
   2 -18   5    8.94    0.24
   2  18   6    1.88    0.06
   2 -18   6    1.90    0.08
   2 -18   6    1.74    0.11
   2  18   7    4.13    0.10
   2 -18   7    4.47    0.15
  -2  19   7    0.06    0.03
  -2 -19   7    0.04    0.04
  -2  19   6    0.13    0.04
  -2 -19   6    0.15    0.04
  -2  19   5    0.17    0.04
  -2 -19   5    0.19    0.04
  -2 -19   5    0.16    0.04
  -2  19   4    0.29    0.04
  -2  19   4    0.30    0.04
  -2 -19   4    0.32    0.05
  -2  19   3   22.60    0.51
  -2  19   3   21.40    0.63
  -2  19   3   21.80    0.49
  -2 -19   3   20.55    0.52
  -2  19   2    1.36    0.07
  -2  19   2    1.35    0.08
   2  19  -1   14.03    0.33
   2  19   0    2.74    0.09
   2  19   1    7.94    0.19
   2 -19   1    7.60    0.20
   2  19   2    5.87    0.15
   2 -19   2    5.66    0.16
   2  19   3    0.58    0.04
   2  19   3    0.49    0.04
   2  19   3    0.51    0.04
   2 -19   3    0.55    0.06
   2 -19   3    0.41    0.05
   2 -19   3    0.57    0.05
   2  19   4   10.77    0.22
   2  19   4   10.92    0.26
   2 -19   4   11.00    0.28
   2 -19   4   10.51    0.30
   2 -19   4   10.89    0.27
   2  19   5    3.38    0.09
   2 -19   5    3.57    0.14
   2 -19   5    3.64    0.12
   2  19   6    1.24    0.05
   2 -19   6    1.36    0.10
   2 -19   6    1.23    0.07
   2  19   7    0.25    0.03
   2 -19   7    0.31    0.05
  -2  20   7    2.46    0.08
  -2 -20   7    2.59    0.10
  -2  20   6    8.20    0.22
  -2 -20   6    8.36    0.23
  -2  20   5    8.35    0.23
  -2 -20   5    8.36    0.23
  -2 -20   5    8.04    0.23
  -2  20   4   36.51    0.86
  -2  20   4   35.21    0.82
  -2 -20   4   39.31    0.87
  -2  20   3    2.79    0.10
  -2  20   3    2.86    0.10
  -2 -20   3    2.70    0.11
  -2  20   2    0.81    0.06
   2  20  -1    0.21    0.03
   2  20   0   15.46    0.35
   2  20   1    0.22    0.03
   2 -20   1    0.21    0.04
   2  20   2   -0.03    0.02
   2 -20   2    0.03    0.03
   2 -20   2    0.01    0.03
   2  20   3    3.47    0.11
   2  20   3    3.80    0.09
   2  20   3    3.57    0.11
   2 -20   3    3.66    0.12
   2 -20   3    3.62    0.13
   2 -20   3    3.84    0.12
   2  20   4    5.47    0.12
   2  20   4    5.28    0.14
   2 -20   4    5.51    0.18
   2 -20   4    4.80    0.16
   2 -20   4    5.17    0.15
   2  20   5    1.77    0.06
   2 -20   5    1.98    0.09
   2 -20   5    1.91    0.11
   2  20   6    0.71    0.04
   2 -20   6    0.74    0.08
   2 -20   6    0.74    0.06
   2  20   7    0.50    0.04
   2 -20   7    0.64    0.07
  -2 -21   7    8.29    0.22
  -2  21   6   17.44    0.43
  -2 -21   6   18.03    0.44
  -2  21   5    0.45    0.06
  -2 -21   5    0.51    0.07
  -2 -21   5    0.54    0.07
  -2  21   4    1.58    0.08
  -2  21   4    1.50    0.08
  -2 -21   4    1.59    0.09
  -2  21   3    5.43    0.16
  -2  21   3    5.27    0.15
  -2 -21   3    5.69    0.17
  -2  21   2    0.21    0.04
   2  21   0   23.94    0.54
   2  21   1    2.21    0.08
   2  21   2    3.19    0.10
   2  21   2    3.07    0.10
   2 -21   2    3.28    0.11
   2 -21   2    2.90    0.10
   2  21   3    6.11    0.14
   2  21   3    6.18    0.16
   2  21   3    6.38    0.17
   2 -21   3    6.38    0.18
   2 -21   3    6.23    0.17
   2 -21   3    6.02    0.19
   2  21   4    0.30    0.03
   2 -21   4    0.30    0.04
   2 -21   4    0.22    0.05
   2  21   5   12.54    0.26
   2 -21   5   12.53    0.32
   2 -21   5   12.44    0.35
   2  21   6    0.50    0.04
   2 -21   6    0.43    0.05
   2 -21   6    0.46    0.06
   2 -21   7    0.78    0.07
  -2 -22   7    0.16    0.04
  -2  22   6    0.28    0.04
  -2 -22   6    0.34    0.05
  -2  22   5    1.52    0.08
  -2 -22   5    1.31    0.09
  -2 -22   5    1.44    0.09
  -2  22   4    0.01    0.03
  -2 -22   4   -0.02    0.04
  -2  22   3    0.99    0.07
  -2  22   3    0.89    0.06
   2  22  -3    1.00    0.08
  -2 -22   3    1.00    0.08
   2  22  -2   23.95    0.58
  -2  22   2   24.79    0.58
  -2 -22   2   23.76    0.58
   2  22  -1    3.74    0.13
   2  22   0    4.66    0.13
   2  22   1    0.69    0.05
   2  22   1    0.62    0.05
   2 -22   1    0.63    0.06
   2  22   2    5.15    0.15
   2  22   2    5.06    0.14
   2 -22   2    5.42    0.16
   2  22   3    8.38    0.21
   2  22   3    8.37    0.22
   2 -22   3    8.33    0.22
   2 -22   3    8.11    0.24
   2 -22   3    8.70    0.23
   2  22   4    2.23    0.07
   2 -22   4    2.38    0.11
   2 -22   4    2.07    0.10
   2  22   5    0.39    0.04
   2 -22   5    0.45    0.06
   2 -22   5    0.51    0.06
   2  22   6    3.76    0.10
   2 -22   6    3.80    0.12
   2 -22   6    3.92    0.14
   2 -22   7    0.28    0.05
  -2 -23   7    1.05    0.06
  -2  23   6   -0.01    0.03
  -2 -23   6    0.02    0.04
  -2  23   5    0.00    0.03
  -2 -23   5    0.00    0.04
  -2 -23   5   -0.01    0.04
  -2  23   4    2.92    0.11
  -2 -23   4    2.67    0.12
   2  23  -3   13.91    0.36
  -2  23   3   14.15    0.35
  -2 -23   3   13.36    0.35
   2  23  -2    2.80    0.11
  -2  23   2    2.81    0.11
  -2 -23   2    2.71    0.11
   2  23  -1    0.03    0.04
  -2  23   1    0.07    0.04
   2  23   0    5.60    0.15
   2  23   0    5.51    0.16
   2  23   1    1.67    0.08
   2  23   1    1.81    0.07
   2 -23   1    1.66    0.09
   2  23   2    6.97    0.18
   2  23   2    6.92    0.19
   2 -23   2    7.10    0.20
   2  23   3    3.43    0.11
   2  23   3    3.62    0.11
   2 -23   3    3.71    0.12
   2 -23   3    3.30    0.13
   2 -23   4    0.78    0.08
   2 -23   4    0.98    0.07
   2 -23   5    2.90    0.13
   2 -23   5    3.02    0.11
   2 -23   6    3.48    0.11
   2 -23   6    3.72    0.14
   2 -23   7    0.00    0.03
  -2 -24   7    3.05    0.10
  -2  24   6    0.05    0.03
  -2 -24   6    0.05    0.04
  -2  24   5    0.09    0.04
  -2 -24   5    0.04    0.04
  -2 -24   5    0.00    0.04
  -2  24   4    6.88    0.20
  -2 -24   4    7.17    0.21
   2  24  -3    6.95    0.21
  -2  24   3    6.76    0.20
  -2 -24   3    7.25    0.21
  -2  24   2   18.65    0.45
   2  24  -2   18.52    0.45
  -2 -24   2   18.16    0.46
  -2  24   1    2.24    0.10
   2  24  -1    2.34    0.10
   2  24   0    0.80    0.06
   2  24   0    0.85    0.06
  -2  24   0    0.90    0.07
   2 -24   0    0.73    0.07
   2  24   1    8.55    0.22
   2  24   1    8.16    0.21
   2 -24   1    8.57    0.23
   2  24   2    2.83    0.10
   2  24   2    2.68    0.09
   2 -24   2    2.64    0.11
   2  24   3    4.56    0.14
   2 -24   3    5.28    0.17
   2 -24   3    4.71    0.15
   2 -24   4    1.18    0.09
   2 -24   4    1.19    0.08
   2 -24   5    5.67    0.17
   2 -24   5    6.04    0.19
   2 -24   6    2.94    0.10
   2 -24   6    3.01    0.12
   2 -24   7    0.29    0.04
  -2 -25   7    2.01    0.08
  -2  25   6    0.97    0.06
  -2 -25   6    0.92    0.07
  -2  25   5    3.34    0.12
  -2 -25   5    3.41    0.13
  -2  25   4    0.13    0.04
  -2 -25   4    0.15    0.05
  -2  25   3    5.21    0.16
   2  25  -3    5.15    0.17
  -2 -25   3    4.88    0.17
  -2  25   2    3.19    0.12
   2  25  -2    3.04    0.12
   2  25  -1    4.63    0.15
  -2  25   1    4.47    0.15
   2  25   0   16.14    0.40
   2  25   0   16.15    0.38
  -2  25   0   15.77    0.40
   2 -25   0   15.98    0.40
   2  25   1    0.78    0.06
   2  25   1    0.73    0.06
   2 -25   1    0.79    0.07
   2  25   2    5.10    0.15
   2  25   2    5.12    0.14
   2 -25   2    5.00    0.16
   2  25   3    0.01    0.03
   2 -25   3    0.00    0.04
   2 -25   3    0.05    0.04
   2  25   4    0.06    0.03
   2 -25   4    0.07    0.04
   2 -25   4    0.04    0.04
   2 -25   5    6.47    0.20
   2 -25   5    6.43    0.19
   2 -25   6    0.08    0.04
   2 -25   6    0.08    0.03
  -2 -26   7    3.33    0.10
  -2  26   6    0.05    0.03
  -2 -26   6    0.06    0.04
  -2  26   5    2.68    0.10
  -2 -26   5    2.73    0.12
  -2  26   4    3.47    0.13
  -2 -26   4    3.58    0.14
   2  26  -3    1.33    0.09
  -2  26   3    1.32    0.08
  -2 -26   3    1.13    0.09
  -2  26   2   12.18    0.31
   2  26  -2   11.93    0.32
  -2  26   1    0.10    0.04
   2  26  -1    0.13    0.04
  -2  26   0    6.10    0.19
   2  26   0    6.46    0.18
   2 -26   0    6.24    0.19
   2  26   1    1.46    0.08
   2  26   1    1.38    0.07
   2 -26   1    1.42    0.09
   2  26   2    4.34    0.14
   2  26   2    4.29    0.13
   2 -26   2    4.54    0.15
   2  26   3    0.06    0.03
   2 -26   3    0.03    0.04
   2 -26   3    0.06    0.04
   2  26   4    0.73    0.05
   2 -26   4    0.70    0.08
   2 -26   4    0.65    0.07
   2 -26   5    2.35    0.11
   2 -26   5    2.33    0.10
   2 -26   6    1.68    0.07
   2 -26   6    1.73    0.09
  -2  27   6    1.32    0.06
  -2 -27   6    1.25    0.07
  -2  27   5    1.73    0.08
  -2 -27   5    1.92    0.10
  -2  27   4    2.07    0.10
  -2 -27   4    2.38    0.11
   2  27  -3    0.56    0.07
  -2  27   3    0.45    0.05
  -2 -27   3    0.44    0.06
  -2  27   2    4.50    0.15
   2  27  -2    4.31    0.15
   2  27  -1   25.81    0.62
  -2  27   1   26.00    0.62
  -2  27   0    2.51    0.11
   2  27   0    2.59    0.10
   2 -27   0    2.54    0.11
   2  27   1    0.34    0.04
   2  27   1    0.29    0.04
   2 -27   1    0.43    0.05
   2  27   2    4.35    0.14
   2 -27   2    4.50    0.15
   2 -27   2    4.48    0.15
   2  27   3   10.13    0.25
   2 -27   3    9.13    0.26
   2 -27   3    9.17    0.27
   2  27   4    1.30    0.06
   2 -27   4    1.54    0.09
   2 -27   4    1.58    0.09
   2 -27   5    0.19    0.05
   2 -27   5    0.23    0.04
   2 -27   6    1.30    0.06
   2 -27   6    1.25    0.07
  -2  28   6    0.19    0.03
  -2 -28   6    0.20    0.04
  -2  28   5    5.22    0.16
  -2 -28   5    5.40    0.17
  -2  28   4    0.07    0.04
  -2 -28   4    0.09    0.04
  -2 -28   4    0.06    0.04
   2  28  -3    1.96    0.10
  -2  28   3    2.28    0.10
  -2 -28   3    2.01    0.10
   2  28  -2    9.01    0.26
  -2  28   2    9.70    0.26
  -2  28   1    2.72    0.11
   2  28  -1    2.59    0.11
  -2  28   0    0.03    0.04
   2  28   0   -0.01    0.04
   2 -28   0    0.06    0.04
   2  28   1    3.66    0.13
   2 -28   1    3.51    0.13
   2  28   2    0.03    0.03
   2 -28   2   -0.02    0.04
   2 -28   2    0.03    0.04
   2  28   3    1.39    0.07
   2 -28   3    1.26    0.09
   2 -28   3    1.47    0.09
   2  28   4    0.68    0.05
   2 -28   4    0.72    0.08
   2 -28   4    0.62    0.07
   2 -28   5    1.22    0.08
   2 -28   5    1.26    0.07
   2 -28   6    0.41    0.05
   2 -28   6    0.32    0.04
  -2  29   6    1.87    0.07
  -2 -29   6    2.03    0.08
  -2  29   5    0.08    0.03
  -2 -29   5    0.07    0.04
  -2  29   4    2.26    0.10
  -2 -29   4    2.51    0.11
  -2 -29   4    2.37    0.11
  -2  29   3    0.72    0.07
   2  29  -3    0.78    0.08
  -2 -29   3    0.68    0.08
   2  29  -2    0.13    0.04
  -2  29   2    0.12    0.04
  -2  29   1    3.26    0.12
   2  29  -1    3.13    0.12
   2  29   0    2.02    0.10
  -2  29   0    1.99    0.10
   2 -29   0    2.01    0.10
   2  29   1    0.18    0.04
   2 -29   1    0.19    0.05
   2  29   2    8.57    0.22
   2 -29   2    7.73    0.23
   2 -29   2    7.61    0.23
   2  29   3    9.89    0.24
   2 -29   3    9.07    0.26
   2 -29   3    8.60    0.25
   2  29   4    0.84    0.06
   2 -29   4    0.90    0.08
   2 -29   4    0.85    0.07
   2 -29   5    1.10    0.08
   2 -29   5    1.08    0.07
   2 -29   6    2.18    0.07
  -2 -30   6    4.60    0.13
  -2  30   5    0.72    0.06
  -2 -30   5    0.81    0.07
  -2  30   4    8.85    0.24
  -2 -30   4    8.68    0.25
  -2 -30   4    9.49    0.25
   2  30  -3    1.51    0.09
  -2  30   3    1.84    0.09
  -2 -30   3    1.80    0.10
  -2  30   2    4.88    0.16
   2  30  -2    4.57    0.16
  -2  30   1    0.21    0.05
   2  30  -1    0.26    0.05
  -2  30   0    0.37    0.05
   2  30   0    0.45    0.05
   2 -30   0    0.35    0.05
   2  30   1    7.86    0.22
   2 -30   1    7.40    0.22
   2  30   2    3.55    0.12
   2 -30   2    3.42    0.13
   2  30   3    1.26    0.07
   2 -30   3    1.26    0.09
   2 -30   3    1.22    0.08
   2 -30   4   11.04    0.28
   2 -30   4   10.60    0.30
   2 -30   5    0.21    0.04
   2 -30   5    0.17    0.04
   2 -30   5    0.21    0.04
  -2 -31   6    0.39    0.05
  -2  31   5    0.18    0.03
  -2 -31   5    0.18    0.04
  -2  31   4    0.35    0.05
  -2 -31   4    0.38    0.05
  -2 -31   4    0.33    0.05
  -2  31   3    0.50    0.07
   2  31  -3    0.47    0.07
  -2 -31   3    0.50    0.06
   2  31  -2    7.86    0.22
  -2  31   2    7.56    0.22
   2  31  -1    3.20    0.12
  -2  31   1    3.21    0.12
   2  31   0    0.35    0.05
  -2  31   0    0.36    0.05
   2 -31   0    0.27    0.05
   2  31   1    1.32    0.08
   2 -31   1    1.27    0.09
   2  31   2    3.97    0.13
   2 -31   2    3.85    0.14
   2  31   3    3.80    0.12
   2 -31   3    4.18    0.14
   2 -31   4    0.22    0.04
   2 -31   5    0.03    0.03
   2 -31   5    0.02    0.03
  -2  32   5    1.01    0.06
  -2 -32   5    0.77    0.06
  -2  32   4   -0.02    0.03
  -2 -32   4   -0.05    0.04
  -2 -32   4   -0.05    0.04
  -2  32   3    2.59    0.11
   2  32  -3    2.71    0.11
  -2 -32   3    2.63    0.12
  -2  32   2    9.22    0.25
   2  32  -2    8.71    0.25
   2  32  -1   11.95    0.31
  -2  32   1   11.75    0.31
   2  32   0    6.10    0.18
  -2  32   0    5.82    0.18
   2 -32   0    5.88    0.19
   2  32   1   12.26    0.32
   2 -32   1   12.56    0.33
   2  32   2    8.23    0.22
   2 -32   2    8.28    0.23
   2  32   3    0.17    0.04
   2 -32   3    0.16    0.04
   2 -32   4    0.02    0.04
   2 -32   5    0.09    0.03
   2 -32   5    0.19    0.03
  -2  33   5    1.03    0.06
  -2 -33   5    1.22    0.07
  -2  33   4    0.00    0.03
  -2 -33   4    0.04    0.04
  -2 -33   4   -0.02    0.04
  -2  33   3    1.55    0.08
   2  33  -3    1.63    0.09
  -2 -33   3    1.60    0.09
   2  33  -2    0.54    0.07
  -2  33   2    0.50    0.07
  -2  33   1   22.48    0.54
   2  33  -1   21.99    0.54
   2  33   0    0.96    0.08
  -2  33   0    0.85    0.07
   2  33   1    0.08    0.04
   2 -33   1    0.11    0.04
   2  33   2    0.13    0.04
   2 -33   2    0.19    0.05
   2  33   3    4.13    0.13
   2 -33   3    4.31    0.14
   2 -33   4    0.83    0.06
   2 -33   5    0.04    0.03
   2 -33   5    0.01    0.03
  -2  34   5    0.22    0.03
  -2 -34   5    0.24    0.04
  -2  34   4    0.12    0.03
  -2 -34   4    0.05    0.04
  -2  34   3    0.66    0.06
   2  34  -3    0.59    0.07
  -2 -34   3    0.81    0.07
  -2 -34   3    0.71    0.07
  -2  34   2    0.99    0.07
   2  34  -2    0.89    0.08
   2  34  -1    1.82    0.10
  -2  34   1    1.83    0.09
  -2  34   0   11.76    0.31
   2  34   0   11.71    0.31
   2  34   1    0.21    0.04
   2 -34   1    0.20    0.05
   2  34   2    0.26    0.04
   2 -34   2    0.20    0.05
   2  34   3    3.68    0.12
   2 -34   3    3.77    0.13
   2 -34   4    0.21    0.04
  -2  35   4    0.00    0.03
  -2 -35   4    0.01    0.03
  -2  35   3    0.84    0.06
   2  35  -3    0.71    0.07
   2  35  -2    3.84    0.14
  -2  35   2    3.81    0.13
   2  35  -1    6.02    0.18
  -2  35   1    5.75    0.18
  -2  35   0   14.63    0.37
   2  35   0   14.50    0.37
   2  35   1    0.93    0.07
   2 -35   1    1.15    0.08
   2  35   2    0.77    0.06
   2 -35   2    0.71    0.07
   2  35   3    0.64    0.05
   2 -35   3    0.50    0.06
   2 -35   4    4.00    0.12
  -2  36   4    0.70    0.05
  -2 -36   4    0.61    0.06
   2  36  -3   -0.02    0.03
  -2  36   3    0.04    0.03
   2  36  -2    2.86    0.11
  -2  36   2    2.94    0.11
  -2  36   1    0.76    0.07
   2  36  -1    0.68    0.07
  -2  36   0    1.49    0.08
   2  36   0    1.54    0.08
   2  36   1    9.90    0.26
   2 -36   1   10.40    0.27
   2  36   2    1.57    0.08
   2 -36   2    1.58    0.09
   2  36   3    0.03    0.02
   2 -36   3    0.03    0.04
   2 -36   4    1.28    0.06
  -2  37   4    0.00    0.02
  -2  37   3   -0.04    0.03
   2  37  -3    0.00    0.03
  -2  37   2    0.73    0.06
   2  37  -2    0.76    0.06
  -2  37   1    4.46    0.14
   2  37  -1    4.67    0.15
  -2  37   0    0.35    0.05
   2  37   0    0.40    0.05
   2  37   1    0.22    0.04
   2 -37   1    0.21    0.05
   2  37   2    0.02    0.03
   2 -37   2    0.03    0.04
   2  37   3   -0.04    0.02
   2 -37   3    0.04    0.03
  -2  38   3    0.77    0.05
  -2  38   2    0.01    0.03
   2  38  -2    0.01    0.03
  -2  38   1    0.03    0.03
   2  38  -1    0.01    0.03
   2  38   0    0.21    0.04
  -2  38   0    0.17    0.04
   2  38   1    3.47    0.11
   2 -38   1    3.48    0.12
   2  38   2    0.03    0.03
   2 -38   2    0.11    0.04
   2 -38   3    0.69    0.05
  -2  39   3    1.37    0.06
   2  39  -2    4.24    0.13
  -2  39   2    4.58    0.13
   2  39  -1    0.04    0.03
  -2  39   1    0.03    0.03
  -2  39   0   -0.04    0.03
   2  39   0   -0.02    0.03
   2  39   1   -0.04    0.03
   2 -39   1    0.05    0.03
   2  39   2    0.20    0.03
   2 -39   2    0.26    0.04
  -2  40   2    3.62    0.11
  -2  40   1    1.21    0.06
   2  40  -1    1.24    0.06
   2  40   0    0.40    0.05
  -2  40   0    0.29    0.04
   2  40   1    0.02    0.03
   2  41  -1    2.47    0.09
   2  41   0    0.10    0.03
  -3   0   8    7.18    0.19
  -3   0   8    7.82    0.22
  -3   0   7    0.03    0.05
  -3   0   7    0.01    0.03
  -3   0   6    1.02    0.07
  -3   0   6    0.91    0.08
  -3   0   6    1.09    0.07
  -3   0   5    0.02    0.04
  -3   0   5    0.00    0.03
  -3   0   5    0.04    0.03
  -3   0   4   37.23    0.81
  -3   0   3    0.00    0.02
  -3   0   3    0.01    0.03
  -3   0   2    2.01    0.09
  -3   0   2    2.18    0.07
   3   0  -2    2.21    0.07
  -3   0   1    0.00    0.02
   3   0  -1    0.03    0.02
   3   0   0   11.48    0.25
   3   0   1    0.00    0.01
   3   0   1    0.01    0.01
   3   0   4    4.00    0.09
   3   0   5    0.16    0.04
   3   0   5    0.03    0.01
   3   0   5    0.03    0.03
   3   0   6    0.12    0.04
   3   0   6    0.22    0.03
   3   0   7    0.06    0.04
   3   0   7   -0.01    0.02
   3   0   8    0.24    0.02
   3   0   8    0.23    0.04
  -3   1   8    0.02    0.04
  -3   1   8    0.08    0.03
  -3  -1   8    0.06    0.04
  -3  -1   8    0.04    0.03
  -3   1   7    0.46    0.06
  -3   1   7    0.52    0.06
  -3  -1   7    0.45    0.06
  -3  -1   7    0.49    0.06
  -3   1   6    0.19    0.04
  -3   1   6    0.20    0.04
  -3   1   6    0.21    0.05
  -3  -1   6    0.18    0.04
  -3  -1   6    0.22    0.04
  -3  -1   6    0.25    0.05
  -3   1   5   27.31    0.68
  -3   1   5   27.54    0.61
  -3   1   5   27.43    0.64
  -3  -1   5   27.10    0.61
  -3  -1   5   27.13    0.68
  -3  -1   5   26.79    0.64
  -3   1   4   12.64    0.30
  -3  -1   4   12.68    0.30
  -3   1   3   12.76    0.39
  -3   1   3   13.16    0.29
  -3  -1   3   13.04    0.30
  -3  -1   3   12.67    0.39
  -3   1   2    0.44    0.05
   3   1  -2    0.45    0.04
  -3   1   2    0.30    0.04
  -3  -1   2    0.36    0.04
   3  -1  -2    0.39    0.04
  -3  -1   2    0.37    0.05
  -3   1   1  174.56    3.65
   3   1  -1  172.51    3.66
   3  -1  -1  172.53    3.66
  -3  -1   1  169.46    3.65
   3   1   0   62.50    1.31
   3  -1   0   60.76    1.31
   3   1   1    0.04    0.01
   3   1   1    0.03    0.01
   3  -1   1    0.02    0.01
   3  -1   1    0.02    0.01
   3  -1   2    0.55    0.02
   3  -1   2    0.59    0.02
   3  -1   3    1.67    0.04
   3   1   4    0.07    0.01
   3  -1   4    0.06    0.01
   3   1   5    0.24    0.04
   3   1   5    0.28    0.05
   3  -1   5    0.23    0.02
   3  -1   5    0.27    0.03
   3  -1   5    0.24    0.05
   3  -1   5    0.20    0.04
   3   1   6    6.24    0.19
   3  -1   6    6.03    0.20
   3  -1   6    6.38    0.13
   3   1   7    0.07    0.04
   3   1   7    0.09    0.02
   3  -1   7    0.08    0.04
   3  -1   7    0.07    0.02
   3   1   8    0.15    0.04
   3   1   8    0.12    0.02
   3  -1   8    0.15    0.04
   3  -1   8    0.12    0.02
  -3   2   8    5.94    0.16
  -3   2   8    5.76    0.19
  -3  -2   8    5.94    0.16
  -3  -2   8    5.80    0.19
  -3   2   7    0.25    0.05
  -3   2   7    0.22    0.04
  -3  -2   7    0.33    0.04
  -3  -2   7    0.25    0.05
  -3   2   6    0.07    0.03
  -3   2   6    0.08    0.03
  -3   2   6    0.13    0.04
  -3  -2   6    0.16    0.04
  -3  -2   6    0.07    0.04
  -3  -2   6    0.13    0.03
  -3   2   5    0.76    0.06
  -3   2   5    0.93    0.07
  -3   2   5    0.83    0.06
  -3  -2   5    0.67    0.06
  -3  -2   5    0.78    0.07
  -3  -2   5    0.83    0.06
  -3   2   4    0.03    0.02
  -3  -2   4    0.03    0.02
  -3   2   3   13.44    0.30
  -3   2   3   13.09    0.39
  -3  -2   3   12.96    0.39
  -3  -2   3   12.98    0.30
  -3   2   2   47.33    1.02
  -3   2   2   48.41    1.33
   3   2  -2   48.00    1.02
  -3  -2   2   46.71    1.33
  -3  -2   2   46.94    1.02
   3  -2  -2   46.99    1.02
   3   2  -1    1.85    0.06
  -3   2   1    1.80    0.06
  -3  -2   1    1.74    0.06
   3  -2  -1    1.84    0.06
   3   2   0   30.97    0.66
   3  -2   0   31.11    0.66
   3   2   1    7.34    0.16
   3   2   1    7.08    0.16
   3  -2   1    7.04    0.16
   3  -2   1    7.35    0.16
   3  -2   2    3.15    0.07
   3  -2   2    3.22    0.08
   3  -2   3    0.37    0.02
   3  -2   4    2.66    0.07
   3   2   5    3.53    0.13
   3   2   5    3.53    0.13
   3  -2   5    3.68    0.13
   3  -2   5    3.63    0.09
   3  -2   5    3.51    0.13
   3  -2   5    3.72    0.08
   3   2   6    0.47    0.07
   3  -2   6    0.49    0.07
   3  -2   6    0.49    0.03
   3   2   7    2.08    0.06
   3   2   7    1.85    0.10
   3  -2   7    2.17    0.06
   3  -2   7    2.08    0.11
   3   2   8    0.88    0.04
   3  -2   8    0.82    0.04
   3  -2   8    0.90    0.07
  -3   3   8   10.01    0.25
  -3   3   8   10.08    0.28
  -3  -3   8    9.92    0.25
  -3  -3   8   10.63    0.28
  -3   3   7    0.23    0.05
  -3   3   7    0.17    0.04
  -3  -3   7    0.23    0.05
  -3  -3   7    0.13    0.04
  -3   3   6   -0.06    0.04
  -3   3   6   -0.02    0.03
  -3   3   6    0.03    0.03
  -3  -3   6   -0.02    0.04
  -3  -3   6   -0.02    0.03
  -3  -3   6   -0.02    0.03
  -3   3   5    8.55    0.22
  -3   3   5    8.56    0.24
  -3   3   5    8.82    0.23
  -3  -3   5    8.67    0.23
  -3  -3   5    8.58    0.22
  -3  -3   5    8.13    0.24
  -3   3   4    1.13    0.06
  -3  -3   4    0.95    0.06
  -3   3   3    4.26    0.15
  -3   3   3    4.10    0.11
  -3  -3   3    4.23    0.11
  -3  -3   3    4.21    0.15
  -3   3   2    3.09    0.12
  -3   3   2    3.23    0.09
  -3  -3   2    3.02    0.11
  -3  -3   2    3.32    0.09
   3  -3  -2    2.99    0.09
  -3   3   1  114.09    2.45
   3   3  -1  116.63    2.45
  -3  -3   1  112.67    2.45
   3  -3  -1  118.34    2.45
   3   3   0    1.44    0.05
   3  -3   0    1.58    0.05
   3   3   1   26.85    0.58
   3   3   1   27.82    0.58
   3  -3   1   27.92    0.59
   3  -3   1   26.99    0.59
   3  -3   2    7.86    0.17
   3  -3   2    7.93    0.18
   3  -3   3   51.37    1.09
   3  -3   4   13.81    0.30
   3   3   5    0.29    0.04
   3   3   5    0.37    0.05
   3  -3   5    0.40    0.05
   3  -3   5    0.32    0.03
   3  -3   5    0.30    0.05
   3  -3   5    0.27    0.02
   3   3   6    0.02    0.04
   3   3   6    0.03    0.02
   3  -3   6    0.04    0.04
   3  -3   6    0.03    0.02
   3   3   7    0.19    0.02
   3   3   7    0.16    0.04
   3  -3   7    0.28    0.05
   3  -3   7    0.26    0.03
   3   3   8    4.16    0.09
   3  -3   8    4.19    0.10
   3  -3   8    4.11    0.14
  -3   4   8    0.14    0.03
  -3   4   8    0.11    0.04
  -3  -4   8    0.12    0.05
  -3  -4   8    0.12    0.03
  -3   4   7   -0.01    0.03
  -3   4   7    0.04    0.05
  -3  -4   7    0.00    0.03
  -3  -4   7   -0.02    0.04
  -3   4   6    0.70    0.06
  -3   4   6    0.64    0.08
  -3  -4   6    0.62    0.06
  -3  -4   6    0.57    0.07
  -3  -4   6    0.62    0.06
  -3   4   5    0.09    0.03
  -3   4   5    0.09    0.03
  -3   4   5    0.09    0.04
  -3  -4   5    0.07    0.04
  -3  -4   5    0.05    0.03
  -3  -4   5    0.09    0.03
  -3   4   4    1.61    0.07
  -3   4   4    1.81    0.10
  -3  -4   4    1.63    0.07
  -3   4   3    1.54    0.06
  -3   4   3    1.77    0.09
  -3  -4   3    1.51    0.06
   3   4  -2   53.59    1.13
  -3   4   2   52.83    1.13
  -3  -4   2   51.89    1.47
  -3  -4   2   53.49    1.13
   3  -4  -2   51.28    1.13
   3   4  -1   34.90    0.74
  -3   4   1   33.49    0.74
  -3  -4   1   33.44    0.74
   3  -4  -1   35.79    0.74
   3   4   0    0.15    0.02
   3  -4   0    0.14    0.02
   3   4   1   57.37    1.24
   3   4   1   59.16    1.24
   3  -4   1   60.20    1.24
   3  -4   1   56.26    1.24
   3  -4   2  158.54    3.36
   3  -4   3   36.25    0.78
   3  -4   4    8.09    0.19
   3   4   5    2.26    0.10
   3  -4   5    2.31    0.06
   3  -4   5    2.24    0.07
   3  -4   5    2.28    0.10
   3   4   6    1.79    0.09
   3   4   6    1.93    0.05
   3  -4   6    1.91    0.06
   3  -4   6    1.87    0.10
   3   4   7    1.23    0.09
   3   4   7    1.28    0.05
   3  -4   7    1.24    0.09
   3  -4   7    1.26    0.05
   3   4   8    0.05    0.02
   3  -4   8   -0.01    0.03
   3  -4   8    0.03    0.02
  -3   5   8    0.33    0.05
  -3   5   8    0.39    0.04
  -3  -5   8    0.31    0.04
  -3  -5   8    0.37    0.05
  -3   5   7    0.93    0.09
  -3   5   7    1.04    0.07
  -3  -5   7    1.07    0.09
  -3  -5   7    1.02    0.07
  -3   5   6    0.24    0.04
  -3   5   6    0.30    0.05
  -3  -5   6    0.25    0.04
  -3  -5   6    0.35    0.05
  -3   5   5    8.64    0.25
  -3   5   5    8.66    0.23
  -3   5   5    8.53    0.22
  -3  -5   5    9.01    0.23
  -3  -5   5    8.49    0.25
  -3  -5   5    8.44    0.22
  -3   5   4    0.75    0.05
  -3   5   4    0.73    0.07
  -3  -5   4    0.87    0.05
  -3   5   3   44.70    0.99
  -3   5   3   46.60    1.30
  -3  -5   3   46.32    0.99
  -3   5   2   54.73    1.16
   3   5  -2   55.50    1.16
  -3  -5   2   54.93    1.16
   3  -5  -2   53.28    1.16
  -3  -5   2   52.21    1.51
   3   5  -1    5.02    0.12
  -3   5   1    5.18    0.12
  -3  -5   1    4.89    0.15
   3  -5  -1    5.04    0.12
  -3  -5   1    4.99    0.12
   3   5   0    8.71    0.19
   3  -5   0    8.64    0.20
   3   5   1    9.02    0.20
   3   5   1    9.50    0.21
   3  -5   1    9.69    0.21
   3  -5   2    2.92    0.07
   3  -5   3    0.04    0.02
   3  -5   4    6.53    0.15
   3   5   5    1.46    0.09
   3  -5   5    1.33    0.04
   3  -5   5    1.45    0.09
   3  -5   5    1.41    0.05
   3   5   6    1.31    0.04
   3  -5   6    1.36    0.09
   3  -5   6    1.29    0.05
   3   5   7    7.05    0.15
   3  -5   7    6.92    0.15
   3  -5   7    6.71    0.21
   3   5   8    1.05    0.04
   3  -5   8    1.19    0.07
   3  -5   8    1.07    0.04
  -3   6   8    0.82    0.05
  -3   6   8    0.70    0.07
  -3  -6   8    0.89    0.06
  -3  -6   8    0.80    0.08
  -3   6   7    1.41    0.10
  -3   6   7    1.36    0.08
  -3  -6   7    1.51    0.10
  -3  -6   7    1.31    0.08
  -3   6   6    4.30    0.16
  -3   6   6    4.47    0.14
  -3  -6   6    4.27    0.14
  -3  -6   6    4.39    0.16
  -3   6   5    1.91    0.09
  -3   6   5    1.76    0.08
  -3   6   5    1.82    0.08
  -3  -6   5    1.65    0.08
  -3  -6   5    1.76    0.08
  -3  -6   5    1.90    0.09
  -3   6   4    1.64    0.07
  -3   6   4    1.79    0.10
  -3  -6   4    1.62    0.07
  -3   6   3    0.09    0.04
  -3   6   3    0.03    0.02
  -3  -6   3    0.04    0.02
   3   6  -2   68.09    1.43
  -3   6   2   67.38    1.43
  -3  -6   2   67.63    1.43
  -3  -6   2   65.74    1.87
   3  -6  -2   66.26    1.43
   3   6  -1   59.57    1.24
  -3   6   1   58.64    1.24
  -3  -6   1   57.09    1.24
   3  -6  -1   57.71    1.24
   3   6   0   14.47    0.32
   3  -6   0   15.10    0.33
   3   6   1   34.69    0.77
   3   6   1   36.30    0.77
   3  -6   1   36.78    0.77
   3   6   2   33.12    0.71
   3   6   2   33.26    0.71
   3  -6   2   33.64    0.72
   3  -6   3   13.50    0.30
   3  -6   4    1.40    0.04
   3  -6   4    1.38    0.05
   3   6   5    0.45    0.06
   3  -6   5    0.52    0.03
   3  -6   5    0.61    0.04
   3  -6   5    0.61    0.07
   3   6   6    0.54    0.03
   3  -6   6    0.54    0.04
   3  -6   6    0.55    0.07
   3   6   7    7.69    0.16
   3  -6   7    7.38    0.23
   3  -6   7    7.57    0.17
   3   6   8    4.32    0.10
   3  -6   8    4.19    0.14
   3  -6   8    4.31    0.10
  -3   7   8    2.75    0.09
  -3   7   8    2.73    0.11
  -3  -7   8    2.74    0.11
  -3  -7   8    2.84    0.09
  -3   7   7    0.30    0.06
  -3   7   7    0.31    0.04
  -3  -7   7    0.43    0.06
  -3  -7   7    0.32    0.04
  -3   7   6    0.42    0.05
  -3   7   6    0.33    0.05
  -3  -7   6    0.46    0.06
  -3  -7   6    0.31    0.05
  -3   7   5    0.43    0.05
  -3   7   5    0.54    0.05
  -3   7   5    0.45    0.06
  -3  -7   5    0.51    0.06
  -3  -7   5    0.44    0.05
  -3  -7   5    0.57    0.06
  -3   7   4    7.05    0.19
  -3   7   4    7.82    0.25
  -3  -7   4    7.23    0.19
  -3   7   3    0.66    0.05
  -3   7   3    0.69    0.07
  -3  -7   3    0.76    0.05
   3   7  -2    1.13    0.05
  -3   7   2    0.96    0.05
   3  -7  -2    0.94    0.05
  -3  -7   2    1.07    0.05
  -3   7   1    0.22    0.02
   3   7  -1    0.06    0.02
   3  -7  -1    0.09    0.02
  -3  -7   1    0.13    0.02
   3   7   0    1.27    0.04
   3  -7   0    1.23    0.05
   3   7   1    0.03    0.01
   3   7   1    0.00    0.01
   3  -7   1   -0.01    0.02
   3   7   2    0.27    0.02
   3   7   2    0.31    0.02
   3  -7   2    0.31    0.03
   3  -7   3   15.77    0.35
   3  -7   4   45.08    0.98
   3  -7   4   46.30    0.87
   3   7   5   12.18    0.32
   3  -7   5   12.38    0.28
   3  -7   5   12.25    0.33
   3  -7   5   12.22    0.25
   3   7   6    2.82    0.07
   3  -7   6    2.72    0.08
   3  -7   6    2.92    0.12
   3   7   7    0.63    0.04
   3  -7   7    0.57    0.07
   3  -7   7    0.60    0.04
   3   7   8    0.04    0.02
   3  -7   8    0.03    0.04
   3  -7   8    0.06    0.02
  -3   8   8    0.03    0.02
  -3   8   8   -0.01    0.04
  -3  -8   8    0.05    0.04
  -3  -8   8   -0.02    0.03
  -3   8   7    0.01    0.03
  -3   8   7    0.06    0.05
  -3  -8   7    0.04    0.05
  -3  -8   7    0.00    0.03
  -3   8   6    0.20    0.05
  -3   8   6    0.14    0.04
  -3  -8   6    0.09    0.05
  -3  -8   6    0.15    0.04
  -3   8   5   -0.01    0.03
  -3   8   5    0.12    0.04
  -3   8   5    0.00    0.03
  -3  -8   5    0.06    0.04
  -3  -8   5    0.06    0.03
  -3  -8   5    0.01    0.03
  -3   8   4   15.14    0.35
  -3   8   4   15.42    0.47
  -3  -8   4   15.27    0.35
  -3   8   3    0.74    0.05
  -3   8   3    0.82    0.07
  -3  -8   3    0.69    0.05
  -3   8   2   80.19    1.71
   3   8  -2   83.59    1.71
  -3  -8   2   80.23    1.71
   3  -8  -2   76.01    1.71
  -3   8   1    2.64    0.08
   3   8  -1    2.66    0.08
   3  -8  -1    2.78    0.08
   3   8   0   30.13    0.66
   3  -8   0   31.45    0.67
   3   8   1   11.01    0.24
   3  -8   1   11.07    0.25
   3   8   2   23.65    0.51
   3  -8   2   24.22    0.52
   3   8   3    0.48    0.02
   3  -8   3    0.51    0.04
   3  -8   4    1.42    0.04
   3  -8   4    1.45    0.05
   3   8   5   49.99    1.16
   3  -8   5   50.72    1.09
   3  -8   5   49.63    1.22
   3  -8   5   50.73    0.97
   3   8   6    0.10    0.02
   3  -8   6    0.06    0.04
   3  -8   6    0.10    0.02
   3   8   7    0.06    0.02
   3  -8   7    0.01    0.04
   3  -8   7    0.07    0.02
   3   8   8    2.70    0.07
   3  -8   8    2.52    0.07
   3  -8   8    2.61    0.10
  -3   9   8    0.06    0.03
  -3   9   8   -0.01    0.04
  -3  -9   8    0.03    0.03
  -3  -9   8    0.09    0.04
  -3   9   7    1.17    0.07
  -3   9   7    1.33    0.09
  -3  -9   7    1.31    0.09
  -3  -9   7    1.23    0.08
  -3   9   6    0.99    0.08
  -3   9   6    1.06    0.07
  -3  -9   6    1.00    0.09
  -3  -9   6    1.18    0.08
  -3   9   5    5.07    0.17
  -3   9   5    5.04    0.15
  -3   9   5    5.14    0.15
  -3  -9   5    5.39    0.16
  -3  -9   5    5.06    0.17
  -3   9   4   22.49    0.50
  -3   9   4   22.95    0.66
  -3  -9   4   21.69    0.50
  -3   9   3    0.06    0.04
  -3   9   3    0.07    0.02
  -3  -9   3    0.07    0.03
  -3   9   2    0.07    0.02
   3   9  -2    0.03    0.02
  -3   9   1   44.66    0.97
   3   9  -1   44.93    0.96
   3  -9  -1   45.11    0.97
   3   9   0    1.13    0.04
   3  -9   0    1.31    0.05
   3   9   1   59.08    1.25
   3  -9   1   58.46    1.26
   3   9   2    0.89    0.03
   3  -9   2    0.92    0.04
   3   9   3    0.34    0.02
   3  -9   3    0.35    0.03
   3  -9   4   13.33    0.31
   3  -9   4   13.44    0.36
   3  -9   4   13.71    0.27
   3   9   5   12.79    0.34
   3  -9   5   13.04    0.30
   3  -9   5   13.37    0.26
   3  -9   5   12.65    0.35
   3   9   6    5.21    0.11
   3  -9   6    5.45    0.18
   3  -9   6    5.03    0.12
   3   9   7    0.21    0.02
   3  -9   7    0.19    0.03
   3  -9   7    0.23    0.05
   3   9   8    0.42    0.03
   3  -9   8    0.40    0.06
  -3  10   8    2.06    0.07
  -3 -10   8    2.27    0.10
  -3 -10   8    2.21    0.08
  -3  10   7   -0.03    0.04
  -3  10   7    0.03    0.03
  -3 -10   7    0.00    0.03
  -3 -10   7    0.05    0.04
  -3  10   6    2.22    0.09
  -3  10   6    2.04    0.11
  -3 -10   6    2.02    0.10
  -3 -10   6    2.25    0.11
  -3  10   5    0.24    0.04
  -3  10   5    0.26    0.05
  -3  10   5    0.29    0.04
  -3 -10   5    0.48    0.06
  -3 -10   5    0.35    0.05
  -3  10   4    3.43    0.14
  -3  10   4    3.39    0.11
  -3  10   3   11.47    0.28
  -3  10   3   12.15    0.37
  -3  10   2    7.29    0.18
  -3  10   1    1.34    0.05
   3  10  -1    1.38    0.05
   3 -10  -1    1.38    0.06
   3  10   0    2.97    0.08
   3 -10   0    3.04    0.09
   3  10   1   24.51    0.54
   3 -10   1   25.36    0.54
   3  10   2   13.72    0.30
   3 -10   2   14.15    0.31
   3  10   3    1.15    0.04
   3 -10   3    1.07    0.05
   3  10   4   10.03    0.22
   3 -10   4    9.74    0.27
   3 -10   4   10.11    0.20
   3 -10   4    9.95    0.23
   3  10   5   12.80    0.33
   3 -10   5   12.40    0.35
   3 -10   5   13.01    0.26
   3 -10   5   12.93    0.30
   3  10   6    4.72    0.10
   3 -10   6    4.50    0.11
   3 -10   6    4.78    0.17
   3  10   7    0.18    0.02
   3 -10   7    0.22    0.05
   3 -10   7    0.21    0.03
   3  10   8    0.01    0.02
   3 -10   8    0.03    0.04
  -3  11   8    2.66    0.08
  -3 -11   8    2.55    0.09
  -3 -11   8    2.57    0.10
  -3  11   7    7.89    0.24
  -3  11   7    7.66    0.21
  -3 -11   7    7.74    0.22
  -3 -11   7    8.25    0.24
  -3  11   6    0.97    0.09
  -3  11   6    0.89    0.07
  -3 -11   6    1.01    0.08
  -3 -11   6    1.01    0.08
  -3  11   5    0.05    0.03
  -3  11   5    0.06    0.03
  -3  11   5   -0.04    0.04
  -3 -11   5    0.06    0.03
  -3 -11   5    0.15    0.04
  -3  11   4    3.30    0.12
  -3  11   4    3.31    0.14
  -3  11   4    3.21    0.10
  -3  11   4    3.39    0.11
  -3  11   3    0.26    0.05
  -3  11   3    0.19    0.03
   3  11  -2   14.31    0.33
  -3  11   2   14.54    0.33
  -3  11   1    5.31    0.13
   3  11  -1    5.38    0.13
   3  11   0   67.17    1.45
   3 -11   0   68.57    1.45
   3  11   1    7.03    0.16
   3 -11   1    7.21    0.17
   3  11   2    1.15    0.04
   3 -11   2    1.09    0.05
   3  11   3    6.79    0.16
   3 -11   3    6.87    0.17
   3  11   4    4.21    0.11
   3  11   4    4.90    0.15
   3 -11   4    4.43    0.15
   3 -11   4    4.58    0.10
   3 -11   4    4.34    0.12
   3  11   5    0.94    0.08
   3  11   5    0.93    0.03
   3 -11   5    1.01    0.05
   3 -11   5    0.86    0.08
   3 -11   5    1.04    0.05
   3  11   6    0.07    0.02
   3 -11   6    0.07    0.02
   3 -11   6    0.08    0.05
   3  11   7    3.53    0.08
   3 -11   7    2.96    0.09
   3 -11   7    3.49    0.13
   3  11   8    1.07    0.04
   3 -11   8    1.09    0.07
  -3 -12   8    0.16    0.04
  -3 -12   8    0.23    0.03
  -3  12   7    1.75    0.08
  -3  12   7    1.66    0.10
  -3 -12   7    1.70    0.10
  -3 -12   7    1.80    0.09
  -3  12   6    2.25    0.09
  -3  12   6    2.16    0.11
  -3 -12   6    2.06    0.11
  -3 -12   6    2.17    0.10
  -3  12   5    2.77    0.10
  -3  12   5    3.05    0.12
  -3  12   5    2.81    0.10
  -3 -12   5    2.77    0.11
  -3  12   4    9.95    0.32
  -3  12   4    9.89    0.25
  -3  12   4    9.54    0.24
  -3  12   4    9.79    0.27
  -3 -12   4    9.66    0.26
  -3  12   3    2.32    0.11
  -3  12   3    2.36    0.08
  -3  12   2    0.81    0.05
   3  12  -2    0.79    0.05
  -3  12   1    3.40    0.10
   3  12  -1    3.39    0.10
   3 -12  -1    3.56    0.10
   3  12   0   29.27    0.64
   3 -12   0   29.89    0.65
   3  12   1   26.59    0.58
   3 -12   1   27.39    0.59
   3  12   2    5.97    0.14
   3 -12   2    6.04    0.15
   3  12   3    4.00    0.10
   3 -12   3    4.06    0.11
   3  12   4    1.24    0.04
   3  12   4    1.30    0.08
   3 -12   4    1.16    0.08
   3 -12   4    1.23    0.06
   3 -12   4    1.22    0.05
   3 -12   4    1.17    0.06
   3  12   5   20.44    0.50
   3  12   5   20.60    0.40
   3 -12   5   20.60    0.46
   3 -12   5   20.17    0.53
   3 -12   5   20.42    0.41
   3  12   6    3.38    0.08
   3 -12   6    3.33    0.14
   3 -12   6    3.24    0.09
   3  12   7    0.29    0.03
   3 -12   7    0.24    0.05
   3  12   8    0.17    0.02
   3 -12   8    0.16    0.04
  -3 -13   8    0.42    0.05
  -3 -13   8    0.37    0.04
  -3  13   7    0.86    0.06
  -3 -13   7    0.76    0.08
  -3 -13   7    0.76    0.07
  -3  13   6    2.92    0.13
  -3  13   6    2.95    0.11
  -3 -13   6    2.93    0.12
  -3 -13   6    2.65    0.12
  -3  13   5   -0.01    0.03
  -3  13   5    0.03    0.03
  -3  13   5    0.02    0.04
  -3 -13   5    0.01    0.03
  -3  13   4    6.20    0.17
  -3  13   4    6.41    0.23
  -3  13   4    6.31    0.19
  -3  13   4    6.52    0.18
  -3 -13   4    6.29    0.18
  -3  13   3    3.11    0.10
  -3  13   3    2.96    0.13
  -3  13   2    0.03    0.02
   3  13  -2    0.04    0.02
   3  13  -1    2.12    0.07
   3 -13  -1    2.04    0.07
   3  13   0   10.59    0.24
   3 -13   0   10.56    0.25
   3  13   1    7.13    0.17
   3 -13   1    7.36    0.18
   3  13   2    0.03    0.02
   3 -13   2    0.05    0.02
   3  13   3    4.00    0.10
   3 -13   3    3.89    0.11
   3  13   4   15.90    0.39
   3  13   4   16.16    0.31
   3  13   4   16.07    0.35
   3 -13   4   15.85    0.32
   3 -13   4   15.73    0.41
   3 -13   4   14.91    0.38
   3 -13   4   15.82    0.36
   3  13   5   13.11    0.26
   3 -13   5   12.64    0.27
   3 -13   5   13.22    0.36
   3  13   6    0.09    0.02
   3 -13   6    0.15    0.05
   3  13   7    3.86    0.09
   3 -13   7    3.68    0.14
   3  13   8    0.16    0.02
   3 -13   8    0.14    0.04
  -3 -14   8    0.22    0.03
  -3  14   7    8.88    0.23
  -3 -14   7    8.97    0.26
  -3 -14   7    9.02    0.24
  -3  14   6    0.95    0.09
  -3  14   6    0.89    0.07
  -3 -14   6    0.91    0.08
  -3  14   5    0.02    0.03
  -3  14   5    0.00    0.04
  -3  14   5    0.06    0.03
  -3 -14   5    0.01    0.04
  -3  14   4    3.52    0.11
  -3  14   4    3.63    0.15
  -3  14   4    3.65    0.12
  -3  14   4    3.56    0.13
  -3 -14   4    3.70    0.13
  -3 -14   4    3.78    0.13
  -3  14   3    0.06    0.03
  -3  14   3   -0.01    0.04
  -3  14   2  203.09    4.31
   3  14  -2  203.07    4.31
   3  14  -1    1.86    0.07
   3 -14  -1    1.90    0.07
   3  14   0    4.12    0.11
   3 -14   0    4.12    0.11
   3  14   1    0.30    0.03
   3 -14   1    0.36    0.04
   3  14   2    1.49    0.05
   3 -14   2    1.53    0.06
   3  14   3    1.70    0.06
   3  14   3    1.65    0.04
   3 -14   3    1.77    0.07
   3  14   4    0.22    0.03
   3  14   4    0.28    0.02
   3  14   4    0.26    0.05
   3 -14   4    0.27    0.05
   3 -14   4    0.34    0.05
   3 -14   4    0.22    0.03
   3 -14   4    0.29    0.03
   3  14   5    3.38    0.08
   3 -14   5    3.31    0.10
   3 -14   5    3.36    0.10
   3 -14   5    3.24    0.13
   3  14   6    7.78    0.17
   3 -14   6    7.98    0.24
   3  14   7    0.59    0.04
   3 -14   7    0.56    0.07
   3 -14   8    0.05    0.03
  -3 -15   8    1.11    0.06
  -3  15   7    0.97    0.06
  -3 -15   7    0.82    0.07
  -3  15   6    2.05    0.09
  -3 -15   6    2.12    0.10
  -3  15   5    0.52    0.06
  -3  15   5    0.54    0.06
  -3 -15   5    0.67    0.07
  -3  15   4    1.54    0.07
  -3  15   4    1.57    0.10
  -3  15   4    1.81    0.08
  -3 -15   4    1.83    0.09
  -3 -15   4    1.69    0.08
  -3  15   3    0.01    0.02
  -3  15   3    0.02    0.04
   3  15  -2    3.79    0.11
  -3  15   2    3.65    0.11
   3  15  -1   14.62    0.33
   3  15   0    8.60    0.21
   3 -15   0    8.75    0.21
   3  15   1    6.13    0.15
   3 -15   1    6.32    0.16
   3  15   2    0.03    0.02
   3 -15   2    0.04    0.03
   3  15   3    6.08    0.15
   3  15   3    6.32    0.13
   3 -15   3    6.22    0.19
   3 -15   3    6.49    0.16
   3  15   4    2.04    0.06
   3  15   4    2.04    0.05
   3  15   4    2.07    0.10
   3 -15   4    1.83    0.08
   3 -15   4    2.03    0.10
   3 -15   4    1.99    0.08
   3  15   5    9.74    0.20
   3 -15   5    9.94    0.28
   3 -15   5    9.44    0.24
   3  15   6    0.81    0.04
   3 -15   6    0.73    0.08
   3  15   7    0.11    0.02
   3 -15   7    0.09    0.04
   3 -15   8    0.50    0.05
  -3 -16   8    6.38    0.17
  -3  16   7    2.75    0.10
  -3 -16   7    2.96    0.11
  -3  16   6    0.34    0.05
  -3 -16   6    0.36    0.05
  -3  16   5    0.03    0.03
  -3 -16   5    0.03    0.04
  -3  16   4    0.05    0.04
  -3  16   4    0.05    0.03
  -3  16   4    0.03    0.03
  -3 -16   4    0.02    0.03
  -3 -16   4    0.06    0.04
  -3  16   3    1.42    0.09
  -3  16   3    1.27    0.06
   3  16  -1    4.21    0.12
   3  16   0   12.04    0.28
   3 -16   0   12.68    0.29
   3  16   1    4.47    0.12
   3 -16   1    4.37    0.12
   3  16   2    1.14    0.05
   3 -16   2    1.23    0.06
   3  16   3    0.76    0.03
   3  16   3    0.67    0.04
   3 -16   3    0.68    0.05
   3 -16   3    0.65    0.06
   3 -16   3    0.63    0.05
   3  16   4    5.52    0.14
   3  16   4    5.39    0.12
   3  16   4    5.49    0.17
   3 -16   4    5.50    0.16
   3 -16   4    5.47    0.18
   3 -16   4    5.51    0.15
   3  16   5    4.89    0.11
   3 -16   5    5.24    0.18
   3 -16   5    4.72    0.14
   3  16   6    0.90    0.04
   3 -16   6    0.78    0.08
   3  16   7    1.64    0.05
   3 -16   7    1.72    0.09
  -3 -17   8    0.50    0.04
  -3  17   7    1.22    0.07
  -3 -17   7    1.28    0.08
  -3  17   6    4.14    0.14
  -3 -17   6    4.16    0.14
  -3  17   5   13.80    0.35
  -3 -17   5   13.93    0.36
  -3  17   4    7.21    0.20
  -3  17   4    7.13    0.19
  -3  17   4    7.24    0.25
  -3 -17   4    6.68    0.20
  -3 -17   4    7.25    0.21
  -3  17   3    7.37    0.24
  -3  17   3    6.71    0.18
  -3  17   3    7.07    0.19
   3  17  -1    0.08    0.03
   3  17   0    0.51    0.04
   3 -17   0    0.52    0.05
   3  17   1    7.11    0.17
   3 -17   1    7.08    0.18
   3  17   2    6.76    0.17
   3 -17   2    6.78    0.17
   3  17   3   12.63    0.28
   3  17   3   12.53    0.25
   3 -17   3   11.98    0.33
   3 -17   3   12.19    0.29
   3 -17   3   12.00    0.30
   3  17   4    0.04    0.02
   3  17   4    0.04    0.02
   3  17   4   -0.01    0.04
   3 -17   4    0.06    0.03
   3 -17   4    0.10    0.04
   3 -17   4    0.03    0.03
   3  17   5    2.68    0.07
   3 -17   5    2.78    0.10
   3 -17   5    2.73    0.12
   3  17   6    0.42    0.04
   3 -17   6    0.38    0.06
   3  17   7    1.72    0.05
   3 -17   7    1.70    0.09
  -3 -18   8    0.01    0.02
  -3  18   7    0.02    0.03
  -3 -18   7   -0.02    0.03
  -3  18   6    0.09    0.04
  -3 -18   6    0.07    0.04
  -3  18   5    2.38    0.10
  -3 -18   5    2.46    0.11
  -3  18   4    2.69    0.10
  -3  18   4    2.52    0.10
  -3  18   4    2.84    0.13
  -3 -18   4    2.72    0.11
  -3 -18   4    2.60    0.11
   3  18  -3    0.26    0.04
  -3  18   3    0.33    0.04
  -3  18   3    0.24    0.05
  -3 -18   3    0.30    0.05
   3  18  -1   31.32    0.69
   3  18   0    0.00    0.02
   3 -18   0    0.03    0.03
   3  18   1    9.28    0.22
   3 -18   1    9.12    0.23
   3  18   2    5.92    0.15
   3 -18   2    5.89    0.16
   3  18   3   14.75    0.37
   3  18   3   15.20    0.29
   3  18   3   15.11    0.34
   3 -18   3   14.67    0.35
   3 -18   3   14.05    0.36
   3 -18   3   14.78    0.39
   3  18   4    0.36    0.03
   3  18   4    0.27    0.05
   3  18   4    0.35    0.03
   3 -18   4    0.35    0.05
   3 -18   4    0.30    0.04
   3 -18   4    0.25    0.04
   3  18   5   15.58    0.32
   3 -18   5   15.73    0.38
   3 -18   5   15.82    0.42
   3  18   6    0.05    0.02
   3 -18   6    0.06    0.05
   3  18   7    0.41    0.03
   3 -18   7    0.47    0.07
  -3  19   7    1.48    0.07
  -3 -19   7    1.58    0.08
  -3  19   6    0.08    0.04
  -3 -19   6    0.12    0.04
  -3  19   5   15.08    0.38
  -3 -19   5   15.02    0.39
  -3  19   4    0.69    0.08
  -3  19   4    0.74    0.06
  -3 -19   4    0.77    0.07
  -3 -19   4    0.54    0.07
  -3  19   3    0.68    0.07
  -3  19   3    0.64    0.06
   3  19  -3    0.71    0.07
  -3 -19   3    0.50    0.07
  -3  19   2    9.59    0.31
   3  19  -1   15.58    0.36
   3  19   0    3.35    0.10
   3  19   1    1.67    0.06
   3 -19   1    1.51    0.07
   3  19   2    9.40    0.20
   3  19   2    9.67    0.23
   3 -19   2    9.36    0.25
   3 -19   2    9.66    0.24
   3  19   3    3.22    0.08
   3  19   3    3.30    0.09
   3 -19   3    3.19    0.11
   3 -19   3    3.09    0.12
   3 -19   3    3.25    0.11
   3  19   4    0.04    0.02
   3 -19   4    0.05    0.04
   3 -19   4    0.04    0.03
   3  19   5    0.03    0.02
   3 -19   5    0.05    0.03
   3 -19   5    0.00    0.04
   3  19   6    3.38    0.09
   3 -19   6    3.33    0.14
   3  19   7    1.62    0.05
   3 -19   7    1.62    0.09
  -3  20   7    0.17    0.03
  -3 -20   7    0.23    0.04
  -3  20   6    0.17    0.04
  -3 -20   6    0.13    0.04
  -3  20   5    1.74    0.09
  -3 -20   5    1.70    0.10
  -3  20   4    6.07    0.18
  -3  20   4    6.28    0.23
  -3 -20   4    5.97    0.19
  -3 -20   4    6.48    0.19
  -3  20   3    0.60    0.07
   3  20  -3    0.52    0.07
  -3  20   3    0.62    0.06
  -3 -20   3    0.60    0.07
  -3  20   2    4.48    0.14
   3  20  -2    4.51    0.14
  -3  20   2    4.51    0.17
   3  20  -1    2.09    0.08
   3  20   0    0.16    0.03
   3  20   1    1.37    0.06
   3 -20   1    1.29    0.07
   3  20   2    7.32    0.18
   3  20   2    7.16    0.19
   3  20   2    7.21    0.16
   3 -20   2    7.54    0.20
   3 -20   2    7.33    0.19
   3  20   3    0.12    0.02
   3  20   3    0.09    0.03
   3 -20   3    0.14    0.04
   3 -20   3    0.11    0.03
   3 -20   3    0.15    0.04
   3  20   4    4.00    0.10
   3 -20   4    3.73    0.15
   3 -20   4    4.10    0.13
   3  20   5   24.48    0.48
   3 -20   5   24.93    0.58
   3 -20   5   24.09    0.63
   3  20   6    2.54    0.07
   3 -20   6    2.50    0.12
   3  20   7    0.26    0.03
   3 -20   7    0.22    0.04
  -3  21   7    0.89    0.05
  -3 -21   7    0.93    0.06
  -3  21   6    1.44    0.08
  -3 -21   6    1.51    0.09
  -3  21   5    4.35    0.14
  -3 -21   5    4.42    0.15
  -3  21   4    4.80    0.16
  -3 -21   4    4.92    0.16
  -3 -21   4    5.08    0.17
  -3  21   3    0.31    0.05
   3  21  -3    0.33    0.05
  -3 -21   3    0.30    0.05
  -3  21   2    7.58    0.21
   3  21  -2    7.50    0.21
  -3  21   2    7.79    0.26
   3  21  -1    7.89    0.21
   3  21  -1    7.10    0.19
   3  21   0    3.86    0.12
   3  21   0    3.75    0.11
   3  21   1    1.23    0.06
   3  21   1    1.18    0.06
   3 -21   1    1.13    0.07
   3  21   2    0.71    0.05
   3  21   2    0.72    0.05
   3  21   2    0.67    0.04
   3 -21   2    0.66    0.06
   3 -21   2    0.77    0.06
   3  21   3    0.60    0.04
   3  21   3    0.62    0.04
   3 -21   3    0.60    0.07
   3 -21   3    0.55    0.06
   3 -21   3    0.61    0.06
   3  21   4    2.04    0.07
   3 -21   4    2.23    0.09
   3 -21   4    2.11    0.11
   3  21   5    0.40    0.04
   3 -21   5    0.42    0.05
   3 -21   5    0.38    0.06
   3  21   6    2.43    0.07
   3 -21   6    2.36    0.11
   3  21   7    0.93    0.04
   3 -21   7    1.07    0.07
  -3  22   7    0.69    0.05
  -3 -22   7    0.66    0.06
  -3  22   6    0.86    0.06
  -3 -22   6    0.70    0.07
  -3  22   5    5.29    0.17
  -3 -22   5    5.51    0.18
  -3  22   4    0.04    0.04
  -3 -22   4    0.13    0.04
  -3 -22   4    0.07    0.04
   3  22  -3    6.05    0.18
  -3  22   3    5.93    0.18
   3  22  -2    0.29    0.05
  -3  22   2    0.26    0.04
   3  22  -1    2.31    0.09
   3  22  -1    2.52    0.10
  -3  22   1    2.43    0.10
   3 -22  -1    2.43    0.10
   3  22   0   22.55    0.54
   3  22   0   22.68    0.51
   3 -22   0   22.46    0.54
   3  22   1    0.11    0.03
   3  22   1    0.11    0.03
   3 -22   1    0.12    0.04
   3  22   2    7.81    0.20
   3  22   2    8.03    0.20
   3 -22   2    7.60    0.21
   3 -22   2    7.90    0.22
   3  22   3    0.44    0.04
   3  22   3    0.39    0.04
   3  22   3    0.36    0.04
   3 -22   3    0.34    0.04
   3 -22   3    0.40    0.05
   3 -22   3    0.42    0.05
   3  22   4    2.68    0.08
   3 -22   4    2.68    0.12
   3 -22   4    2.66    0.10
   3  22   5    3.95    0.10
   3 -22   5    3.86    0.15
   3 -22   5    3.93    0.13
   3  22   6    0.94    0.05
   3 -22   6    0.95    0.08
   3 -22   7    3.16    0.11
  -3  23   7    0.62    0.04
  -3 -23   7    0.63    0.05
  -3  23   6    0.28    0.04
  -3 -23   6    0.28    0.05
  -3  23   5    0.24    0.04
  -3 -23   5    0.27    0.05
  -3  23   4    0.02    0.04
  -3 -23   4    0.03    0.04
  -3 -23   4    0.03    0.04
  -3  23   3    9.43    0.25
   3  23  -3    9.34    0.25
  -3 -23   3    8.40    0.25
   3  23  -2    0.19    0.04
  -3  23   2    0.16    0.04
  -3  23   1    1.02    0.07
   3  23  -1    0.96    0.07
   3 -23  -1    1.01    0.07
   3  23   0    2.78    0.10
   3  23   0    2.78    0.10
   3 -23   0    2.88    0.11
   3  23   1    1.95    0.08
   3  23   1    1.90    0.08
   3 -23   1    2.04    0.09
   3  23   2    0.22    0.03
   3  23   2    0.28    0.03
   3 -23   2    0.23    0.04
   3  23   3    1.13    0.05
   3  23   3    1.05    0.06
   3 -23   3    1.20    0.07
   3 -23   3    1.22    0.09
   3 -23   3    1.09    0.07
   3  23   4    9.47    0.21
   3 -23   4   10.50    0.26
   3 -23   4    9.30    0.28
   3  23   5    0.20    0.03
   3 -23   5    0.17    0.05
   3 -23   5    0.12    0.03
   3  23   6    2.01    0.06
   3 -23   6    1.87    0.10
   3 -23   7   -0.03    0.03
  -3 -24   7    0.15    0.03
  -3  24   6    3.23    0.11
  -3 -24   6    3.49    0.12
  -3  24   5    0.64    0.07
  -3 -24   5    0.73    0.08
  -3  24   4    6.19    0.19
  -3 -24   4    5.84    0.19
  -3 -24   4    6.17    0.19
   3  24  -3    4.74    0.16
  -3  24   3    4.72    0.16
  -3 -24   3    5.04    0.16
   3  24  -2    2.17    0.10
  -3  24   2    2.07    0.10
   3  24  -1    3.03    0.11
  -3  24   1    2.96    0.12
   3 -24  -1    3.01    0.12
   3  24   0    5.66    0.16
   3  24   0    5.37    0.16
   3 -24   0    5.40    0.17
   3  24   1    1.54    0.08
   3  24   1    1.49    0.07
   3 -24   1    1.43    0.08
   3  24   2    5.10    0.14
   3  24   2    5.01    0.15
   3 -24   2    5.40    0.16
   3  24   3    1.23    0.06
   3 -24   3    1.28    0.08
   3 -24   3    1.20    0.09
   3  24   4    0.01    0.02
   3 -24   4   -0.01    0.04
   3 -24   4    0.04    0.04
   3  24   5    1.23    0.05
   3 -24   5    1.22    0.09
   3 -24   5    1.06    0.07
   3  24   6    0.62    0.04
   3 -24   6    0.66    0.07
  -3 -25   7    0.46    0.05
  -3  25   6    0.02    0.03
  -3 -25   6    0.02    0.04
  -3  25   5    0.52    0.06
  -3 -25   5    0.40    0.05
  -3  25   4    0.01    0.04
  -3 -25   4    0.02    0.04
  -3 -25   4   -0.02    0.04
   3  25  -3    6.49    0.20
  -3  25   3    6.96    0.20
  -3 -25   3    6.32    0.20
  -3  25   2   21.28    0.52
   3  25  -2   21.53    0.52
   3  25  -1    0.76    0.07
  -3  25   1    0.69    0.07
   3 -25  -1    0.84    0.08
   3  25   0    0.10    0.03
   3  25   0    0.12    0.03
   3 -25   0    0.08    0.04
   3  25   1    7.79    0.20
   3  25   1    7.74    0.21
   3 -25   1    7.46    0.22
   3  25   2    2.52    0.10
   3  25   2    2.55    0.09
   3 -25   2    2.79    0.11
   3  25   3    0.41    0.05
   3 -25   3    0.41    0.05
   3 -25   3    0.37    0.05
   3 -25   4    5.51    0.17
   3 -25   4    5.40    0.19
   3 -25   5    1.43    0.09
   3 -25   5    1.13    0.07
   3 -25   6   -0.01    0.04
  -3  26   6    0.02    0.03
  -3 -26   6   -0.01    0.03
  -3  26   5    0.41    0.05
  -3 -26   5    0.49    0.07
  -3  26   4    0.51    0.07
  -3 -26   4    0.49    0.06
  -3 -26   4    0.58    0.07
  -3  26   3    1.92    0.10
  -3 -26   3    1.65    0.10
   3  26  -2   15.76    0.40
  -3  26   2   15.92    0.40
  -3  26   1    3.11    0.12
   3  26  -1    3.29    0.12
   3 -26  -1    3.09    0.12
   3  26   0    0.00    0.03
   3  26   0   -0.03    0.03
   3 -26   0   -0.04    0.04
   3  26   1    4.51    0.14
   3  26   1    4.73    0.14
   3 -26   1    4.41    0.15
   3  26   2    0.64    0.06
   3 -26   2    0.54    0.07
   3  26   3    4.79    0.14
   3 -26   3    5.07    0.16
   3 -26   3    4.48    0.16
   3 -26   4    0.02    0.04
   3 -26   4    0.02    0.04
   3 -26   5    0.21    0.04
   3 -26   5    0.14    0.05
   3 -26   6    3.10    0.11
  -3  27   6    0.10    0.03
  -3 -27   6    0.11    0.04
  -3  27   5    1.88    0.09
  -3 -27   5    1.87    0.09
  -3  27   4    0.50    0.07
  -3 -27   4    0.54    0.07
  -3 -27   4    0.55    0.08
  -3  27   3    1.91    0.10
  -3 -27   3    2.07    0.11
   3  27  -2   10.59    0.29
  -3  27   2   10.71    0.29
  -3  27   1   12.76    0.33
   3  27  -1   12.69    0.33
   3 -27  -1   12.40    0.33
   3  27   0    0.04    0.03
   3 -27   0    0.04    0.04
   3  27   1    0.47    0.06
   3 -27   1    0.57    0.07
   3  27   2    0.24    0.04
   3 -27   2    0.17    0.05
   3  27   3    0.07    0.03
   3 -27   3    0.09    0.04
   3 -27   3    0.04    0.04
   3 -27   4    1.25    0.09
   3 -27   4    1.11    0.08
   3 -27   5    0.46    0.05
   3 -27   5    0.49    0.07
   3 -27   6    0.09    0.04
  -3  28   6    0.09    0.03
  -3 -28   6    0.09    0.03
  -3  28   5    0.85    0.06
  -3 -28   5    0.90    0.08
  -3  28   4    0.03    0.04
  -3 -28   4   -0.01    0.04
  -3 -28   4    0.03    0.04
  -3  28   3    6.13    0.19
   3  28  -3    6.06    0.19
  -3 -28   3    6.57    0.20
   3  28  -2    0.16    0.04
  -3  28   2    0.15    0.04
   3  28  -1    3.77    0.13
  -3  28   1    3.71    0.13
   3 -28  -1    3.43    0.13
  -3  28   0    4.37    0.15
   3  28   0    4.41    0.15
   3 -28   0    4.24    0.15
   3  28   1    0.31    0.04
   3 -28   1    0.28    0.05
   3  28   2    0.24    0.04
   3 -28   2    0.26    0.05
   3  28   3    5.09    0.14
   3 -28   3    4.76    0.17
   3 -28   3    4.92    0.16
   3 -28   4    0.09    0.05
   3 -28   4   -0.01    0.03
   3 -28   5    3.83    0.13
   3 -28   5    3.63    0.12
   3 -28   6    1.96    0.08
  -3  29   6    0.32    0.04
  -3 -29   6    0.31    0.04
  -3  29   5    0.18    0.04
  -3 -29   5    0.20    0.04
  -3  29   4    0.82    0.07
  -3 -29   4    0.79    0.08
  -3 -29   4    0.68    0.08
  -3  29   3    9.67    0.26
   3  29  -3    9.46    0.27
   3  29  -2    0.08    0.04
  -3  29   2    0.22    0.05
  -3  29   1    5.23    0.17
   3  29  -1    5.68    0.17
  -3  29   0   10.94    0.30
   3  29   0   11.57    0.30
   3 -29   0   10.91    0.30
   3  29   1    0.04    0.04
   3 -29   1   -0.03    0.04
   3  29   2    0.12    0.03
   3 -29   2    0.17    0.04
   3 -29   2    0.10    0.04
   3  29   3    0.54    0.05
   3 -29   3    0.72    0.08
   3 -29   3    0.63    0.07
   3 -29   4    0.39    0.05
   3 -29   4    0.38    0.05
   3 -29   5    0.72    0.07
   3 -29   5    0.71    0.05
  -3 -30   6    0.70    0.05
  -3  30   5    0.12    0.03
  -3 -30   5    0.10    0.04
  -3  30   4    1.13    0.07
  -3 -30   4    1.06    0.08
  -3  30   3    3.28    0.13
   3  30  -3    3.67    0.13
   3  30  -2    1.33    0.09
  -3  30   2    1.41    0.09
   3  30  -1   21.93    0.53
  -3  30   1   21.76    0.53
   3  30   0    0.08    0.04
  -3  30   0    0.13    0.04
   3 -30   0    0.04    0.04
   3  30   1    0.21    0.04
   3 -30   1    0.22    0.05
   3  30   2    0.76    0.06
   3 -30   2    0.72    0.07
   3 -30   2    0.76    0.08
   3  30   3    1.31    0.07
   3 -30   3    1.44    0.09
   3 -30   3    1.40    0.08
   3 -30   4    0.14    0.04
   3 -30   4    0.16    0.05
   3 -30   5    0.18    0.03
   3 -30   5    0.15    0.04
   3 -30   5    0.15    0.03
  -3  31   5    0.26    0.04
  -3 -31   5    0.32    0.04
  -3  31   4    0.46    0.06
  -3 -31   4    0.44    0.05
  -3  31   3    0.39    0.05
   3  31  -3    0.23    0.05
   3  31  -2    1.45    0.09
  -3  31   2    1.44    0.09
   3  31  -1    0.82    0.08
  -3  31   1    0.68    0.07
  -3  31   0   10.31    0.28
   3  31   0   10.32    0.28
   3 -31   0   10.41    0.28
   3  31   1    1.05    0.07
   3 -31   1    1.22    0.09
   3  31   2    2.29    0.09
   3 -31   2    2.24    0.11
   3 -31   2    2.43    0.11
   3  31   3    0.55    0.05
   3 -31   3    0.52    0.07
   3 -31   3    0.57    0.07
   3 -31   4    0.02    0.04
   3 -31   4   -0.01    0.04
   3 -31   5    0.07    0.03
   3 -31   5    0.06    0.03
   3 -31   5    0.11    0.03
  -3  32   5    0.15    0.03
  -3 -32   5    0.20    0.04
  -3  32   4    0.04    0.03
  -3 -32   4    0.02    0.04
  -3  32   3    3.12    0.12
   3  32  -3    3.22    0.12
   3  32  -2    2.97    0.12
  -3  32   2    2.92    0.12
  -3  32   1    3.74    0.14
   3  32  -1    3.76    0.14
  -3  32   0    0.14    0.04
   3  32   0    0.16    0.04
   3 -32   0    0.23    0.05
   3  32   1   11.48    0.30
   3 -32   1   11.23    0.30
   3  32   2    1.53    0.08
   3 -32   2    1.40    0.09
   3 -32   2    1.50    0.09
   3  32   3    0.74    0.05
   3 -32   3    0.63    0.07
   3 -32   3    0.71    0.07
   3 -32   4    0.01    0.03
   3 -32   4    0.02    0.04
   3 -32   5    0.03    0.03
   3 -32   5    0.01    0.02
  -3  33   5    0.09    0.03
  -3 -33   5    0.08    0.03
  -3  33   4    0.87    0.06
  -3 -33   4    0.86    0.07
   3  33  -3    3.58    0.13
  -3  33   3    3.75    0.13
   3  33  -2    3.77    0.14
  -3  33   2    4.00    0.14
  -3  33   1   11.72    0.31
   3  33  -1   11.66    0.31
   3  33   0    0.08    0.04
  -3  33   0    0.11    0.04
   3 -33   0    0.20    0.05
   3  33   1    1.48    0.08
   3 -33   1    1.44    0.09
   3  33   2    2.52    0.09
   3 -33   2    2.47    0.11
   3 -33   2    2.54    0.11
   3  33   3    2.39    0.08
   3 -33   3    2.67    0.10
   3 -33   3    2.53    0.10
   3 -33   4    1.76    0.08
   3 -33   4    2.04    0.08
  -3  34   4    1.77    0.08
  -3 -34   4    1.67    0.08
   3  34  -3    0.08    0.04
  -3  34   3    0.08    0.04
   3  34  -2    3.44    0.13
  -3  34   2    3.32    0.12
   3  34  -1    4.01    0.14
  -3  34   1    3.85    0.14
  -3  34   0    0.50    0.07
   3  34   0    0.66    0.07
   3 -34   0    0.53    0.06
   3  34   1    1.33    0.07
   3 -34   1    1.22    0.08
   3  34   2    1.22    0.07
   3 -34   2    1.14    0.08
   3 -34   3    1.56    0.08
   3 -34   4    0.17    0.03
  -3  35   4    0.38    0.05
   3  35  -3    0.00    0.03
  -3  35   3    0.00    0.03
   3  35  -2    1.99    0.10
  -3  35   2    2.14    0.09
  -3  35   1    5.86    0.18
   3  35  -1    6.28    0.18
  -3  35   0    0.37    0.05
   3  35   0    0.36    0.05
   3 -35   0    0.35    0.05
   3  35   1    1.45    0.08
   3 -35   1    1.85    0.09
   3  35   2    0.50    0.05
   3 -35   2    0.50    0.07
   3 -35   3    1.71    0.08
   3 -35   4    1.42    0.07
  -3  36   4    1.01    0.05
  -3  36   3    1.88    0.08
   3  36  -3    1.83    0.08
  -3  36   2    1.62    0.08
   3  36  -2    1.80    0.09
  -3  36   1    5.17    0.16
   3  36  -1    5.24    0.16
   3  36   0    0.24    0.04
  -3  36   0    0.27    0.05
   3 -36   0    0.27    0.05
   3  36   1    0.54    0.06
   3 -36   1    0.57    0.07
   3  36   2    0.10    0.03
   3 -36   2    0.10    0.04
   3 -36   3    1.09    0.07
  -3  37   3    0.51    0.05
   3  37  -3    0.50    0.05
   3  37  -2    0.24    0.04
  -3  37   2    0.24    0.04
   3  37  -1    1.81    0.08
  -3  37   1    1.74    0.08
   3  37   0    4.52    0.14
   3 -37   0    4.20    0.14
   3  37   1    0.56    0.06
   3 -37   1    0.52    0.06
   3  37   2    2.11    0.08
   3 -37   2    2.30    0.09
   3 -37   3    0.02    0.03
  -3  38   3    2.74    0.09
  -3  38   2    4.02    0.13
   3  38  -2    4.07    0.13
  -3  38   1    7.02    0.20
   3  38  -1    7.27    0.20
   3  38   0    0.03    0.03
   3  38   1    4.55    0.13
   3 -38   1    4.64    0.14
   3  38   2    2.35    0.08
   3 -38   2    2.46    0.09
  -3  39   2    1.08    0.06
   3  39  -2    1.05    0.06
   3  39  -1    1.04    0.06
  -3  39   1    1.10    0.06
   3  39   0    1.58    0.07
   3  39   1    0.25    0.03
   3 -39   1    0.28    0.04
   3 -39   2    0.02    0.03
   3  40  -1    6.88    0.18
   3  40   0    1.77    0.07
   3  40   1    0.06    0.03
  -4   0   8    0.09    0.04
  -4   0   8    0.04    0.03
  -4   0   7    0.04    0.03
  -4   0   7    0.07    0.05
  -4   0   6    4.42    0.15
  -4   0   6    4.61    0.16
  -4   0   5    0.00    0.04
  -4   0   5    0.00    0.03
  -4   0   4    3.55    0.11
  -4   0   3    0.00    0.03
  -4   0   3   -0.03    0.02
  -4   0   2    1.74    0.08
   4   0  -2    2.06    0.07
   4   0  -1    0.00    0.02
   4   0   0    0.71    0.03
   4   0   1    0.00    0.01
   4   0   2   70.02    1.50
   4   0   2   71.79    1.50
   4   0   5    0.03    0.04
   4   0   5    0.01    0.04
   4   0   6    0.77    0.07
   4   0   6    0.73    0.03
   4   0   7    0.01    0.02
   4   0   7   -0.01    0.04
   4   0   8    5.41    0.12
  -4   1   8    0.35    0.04
  -4   1   8    0.42    0.05
  -4  -1   8    0.49    0.07
  -4  -1   8    0.34    0.05
  -4   1   7    3.72    0.15
  -4   1   7    3.84    0.13
  -4  -1   7    3.71    0.13
  -4  -1   7    3.82    0.15
  -4   1   6    0.65    0.06
  -4   1   6    0.55    0.08
  -4  -1   6    0.61    0.06
  -4  -1   6    0.49    0.06
  -4   1   5    2.29    0.09
  -4   1   5    2.36    0.10
  -4  -1   5    2.22    0.09
  -4  -1   5    2.37    0.10
  -4   1   4    0.06    0.03
  -4   1   4    0.06    0.04
  -4  -1   4    0.06    0.03
  -4   1   3    2.81    0.09
  -4   1   3    2.69    0.12
  -4  -1   3    2.74    0.11
   4   1  -2   45.78    0.97
  -4   1   2   45.18    1.27
  -4  -1   2   44.36    1.27
   4  -1  -2   44.35    0.97
   4   1  -1   11.06    0.25
   4  -1  -1   10.63    0.25
   4   1   0    2.19    0.06
   4  -1   0    2.13    0.06
   4   1   1   41.72    0.90
   4   1   1   42.42    0.90
   4  -1   1   42.38    0.90
   4   1   2   12.56    0.28
   4   1   2   12.97    0.28
   4  -1   2   13.18    0.28
   4  -1   3   11.75    0.25
   4   1   5    1.37    0.09
   4  -1   5    1.34    0.08
   4  -1   5    1.51    0.09
   4   1   6    0.12    0.02
   4  -1   6    0.16    0.04
   4  -1   6    0.15    0.02
   4   1   7    6.32    0.13
   4  -1   7    6.25    0.13
   4  -1   7    5.80    0.19
   4   1   8    0.04    0.02
   4  -1   8    0.01    0.02
  -4   2   8    7.84    0.21
  -4   2   8    8.41    0.23
  -4  -2   8    8.16    0.23
  -4  -2   8    7.93    0.21
  -4   2   7    0.06    0.05
  -4   2   7    0.01    0.03
  -4  -2   7   -0.01    0.03
  -4  -2   7    0.05    0.05
  -4   2   6    0.80    0.08
  -4   2   6    0.87    0.07
  -4  -2   6    0.81    0.08
  -4  -2   6    0.83    0.07
  -4   2   5    6.07    0.19
  -4   2   5    6.24    0.18
  -4  -2   5    6.06    0.19
  -4  -2   5    5.94    0.18
  -4   2   4   41.60    1.19
  -4   2   4   41.07    0.90
  -4   2   3    3.31    0.10
  -4   2   3    3.30    0.13
  -4  -2   3    3.23    0.13
   4   2  -2    1.62    0.06
   4  -2  -2    1.74    0.06
  -4  -2   2    1.84    0.08
   4   2  -1   27.82    0.60
   4  -2  -1   27.79    0.60
   4   2   0   15.09    0.33
   4  -2   0   15.03    0.33
   4   2   1    6.64    0.15
   4   2   1    6.39    0.15
   4  -2   1    6.67    0.15
   4  -2   2  142.06    3.01
   4  -2   3    1.81    0.05
   4   2   5    0.59    0.07
   4  -2   5    0.62    0.07
   4  -2   5    0.66    0.07
   4   2   6    0.21    0.02
   4  -2   6    0.20    0.02
   4  -2   6    0.22    0.05
   4   2   7    0.76    0.03
   4  -2   7    0.76    0.07
   4  -2   7    0.76    0.04
   4   2   8    2.58    0.06
   4  -2   8    2.53    0.06
  -4   3   8    3.50    0.13
  -4   3   8    3.32    0.11
  -4  -3   8    3.11    0.11
  -4  -3   8    3.58    0.13
  -4   3   7    0.08    0.03
  -4   3   7    0.15    0.05
  -4  -3   7    0.09    0.04
  -4  -3   7    0.04    0.05
  -4   3   6    8.97    0.26
  -4   3   6    8.93    0.24
  -4  -3   6    8.90    0.24
  -4  -3   6    8.76    0.26
  -4   3   5    0.02    0.04
  -4   3   5    0.06    0.03
  -4  -3   5    0.07    0.04
  -4  -3   5    0.04    0.03
  -4   3   4    3.11    0.10
  -4   3   4    3.00    0.13
  -4   3   3    7.69    0.19
  -4   3   3    7.47    0.25
  -4  -3   3    7.46    0.24
   4   3  -2    8.30    0.20
  -4  -3   2    8.68    0.26
   4  -3  -2    8.61    0.20
   4   3  -1    8.30    0.19
   4  -3  -1    8.20    0.19
   4   3   0   57.43    1.22
   4  -3   0   56.60    1.22
   4   3   1   44.12    0.95
   4  -3   1   44.66    0.95
   4  -3   2    8.75    0.19
   4  -3   3   19.68    0.43
   4  -3   4    5.37    0.12
   4   3   5    8.56    0.24
   4  -3   5    8.69    0.24
   4  -3   5    8.75    0.25
   4  -3   5    8.73    0.17
   4   3   6    3.25    0.07
   4  -3   6    3.03    0.08
   4  -3   6    3.25    0.13
   4   3   7    0.85    0.03
   4  -3   7    0.81    0.04
   4  -3   7    0.64    0.07
   4   3   8    0.71    0.03
   4  -3   8    0.62    0.06
   4  -3   8    0.70    0.03
  -4   4   8    3.16    0.10
  -4   4   8    3.07    0.12
  -4  -4   8    3.10    0.10
  -4  -4   8    3.18    0.12
  -4   4   7    4.82    0.17
  -4   4   7    5.17    0.16
  -4  -4   7    4.94    0.15
  -4  -4   7    5.11    0.17
  -4   4   6    0.35    0.05
  -4   4   6    0.31    0.06
  -4  -4   6    0.29    0.05
  -4  -4   6    0.36    0.05
  -4   4   5    0.15    0.04
  -4   4   5    0.16    0.04
  -4   4   5    0.16    0.04
  -4  -4   5    0.17    0.04
  -4  -4   5    0.20    0.04
  -4   4   4    9.99    0.24
  -4   4   3    9.77    0.31
  -4   4   3    9.61    0.23
  -4  -4   3   10.01    0.30
   4   4  -2   15.66    0.35
  -4  -4   2   15.63    0.46
   4  -4  -2   15.70    0.35
   4   4  -1   19.41    0.43
   4  -4  -1   19.98    0.43
   4   4   0   25.34    0.55
   4  -4   0   25.52    0.55
   4   4   1    1.96    0.05
   4  -4   1    2.03    0.06
   4   4   2    0.98    0.03
   4  -4   2    1.04    0.04
   4  -4   3    0.31    0.03
   4   4   4    5.67    0.18
   4  -4   4    5.68    0.13
   4   4   5    0.54    0.07
   4  -4   5    0.56    0.07
   4  -4   5    0.51    0.03
   4  -4   6    1.17    0.04
   4  -4   6    1.23    0.08
   4   4   7    0.05    0.02
   4  -4   7    0.04    0.04
   4  -4   7    0.07    0.02
   4   4   8    0.47    0.03
   4  -4   8    0.45    0.03
   4  -4   8    0.45    0.05
  -4   5   8    0.06    0.03
  -4   5   8    0.02    0.04
  -4  -5   8    0.04    0.04
  -4  -5   8    0.04    0.03
  -4   5   7    5.18    0.16
  -4   5   7    5.13    0.18
  -4  -5   7    5.33    0.18
  -4  -5   7    5.01    0.16
  -4   5   6    1.90    0.11
  -4   5   6    1.84    0.09
  -4  -5   6    1.88    0.09
  -4  -5   6    1.82    0.10
  -4   5   5    7.24    0.20
  -4   5   5    7.11    0.21
  -4   5   5    7.08    0.20
  -4  -5   5    6.69    0.20
  -4  -5   5    7.15    0.21
  -4   5   4    2.57    0.12
  -4   5   4    2.28    0.09
  -4   5   3    0.35    0.04
  -4   5   3    0.40    0.06
   4   5  -2   79.91    1.67
   4  -5  -2   78.22    1.67
  -4  -5   2   75.66    2.17
   4   5  -1    3.04    0.08
   4  -5  -1    3.03    0.09
   4   5   0   11.06    0.25
   4  -5   0   11.11    0.25
   4   5   1    0.33    0.02
   4  -5   1    0.36    0.03
   4   5   2    3.59    0.08
   4   5   2    3.40    0.08
   4  -5   2    3.57    0.09
   4  -5   3    3.69    0.09
   4   5   4    0.93    0.07
   4  -5   4    1.01    0.07
   4  -5   4    1.01    0.04
   4   5   5    3.48    0.13
   4  -5   5    3.60    0.14
   4  -5   5    3.54    0.09
   4  -5   5    3.66    0.08
   4   5   6    0.01    0.01
   4  -5   6   -0.03    0.02
   4  -5   6    0.02    0.04
   4   5   7    0.16    0.02
   4  -5   7    0.17    0.04
   4  -5   7    0.18    0.02
   4   5   8    0.77    0.03
   4  -5   8    0.66    0.06
   4  -5   8    0.74    0.03
  -4   6   8   20.32    0.51
  -4   6   8   20.01    0.47
  -4  -6   8   19.64    0.50
  -4  -6   8   19.42    0.47
  -4   6   7    0.01    0.03
  -4   6   7   -0.05    0.04
  -4  -6   7    0.06    0.04
  -4  -6   7   -0.03    0.03
  -4   6   6    3.61    0.13
  -4   6   6    3.70    0.14
  -4  -6   6    3.62    0.13
  -4  -6   6    3.45    0.14
  -4   6   5    6.64    0.20
  -4   6   5    6.27    0.18
  -4  -6   5    6.11    0.18
  -4  -6   5    6.45    0.19
  -4   6   4    6.93    0.18
  -4   6   4    7.06    0.24
  -4   6   3    2.21    0.08
  -4   6   3    2.14    0.10
   4   6  -2   19.61    0.43
  -4  -6   2   18.31    0.55
   4  -6  -2   19.26    0.43
   4   6  -1    7.10    0.17
   4  -6  -1    7.05    0.17
  -4  -6   1    7.41    0.22
   4   6   0   13.50    0.30
   4  -6   0   13.71    0.30
   4   6   1    0.16    0.02
   4  -6   1    0.15    0.02
   4   6   2   10.39    0.23
   4  -6   2   10.35    0.23
   4  -6   3   28.81    0.62
   4   6   4    2.09    0.10
   4  -6   4    2.31    0.05
   4  -6   4    2.16    0.09
   4  -6   4    2.32    0.07
   4   6   5    2.20    0.11
   4  -6   5    2.22    0.06
   4  -6   5    2.37    0.11
   4  -6   5    2.27    0.07
   4   6   6    5.74    0.12
   4  -6   6    5.49    0.13
   4  -6   6    6.14    0.19
   4   6   7    0.04    0.02
   4  -6   7    0.02    0.02
   4  -6   7   -0.01    0.04
   4   6   8    0.73    0.03
   4  -6   8    0.73    0.06
   4  -6   8    0.71    0.03
  -4   7   8    1.51    0.07
  -4  -7   8    1.50    0.07
  -4  -7   8    1.82    0.09
  -4   7   7    0.01    0.03
  -4   7   7    0.00    0.04
  -4  -7   7    0.01    0.04
  -4  -7   7    0.00    0.03
  -4   7   6    0.82    0.07
  -4   7   6    0.72    0.08
  -4  -7   6    0.89    0.07
  -4  -7   6    0.77    0.08
  -4   7   5    1.23    0.07
  -4   7   5    1.05    0.08
  -4  -7   5    1.20    0.08
  -4  -7   5    1.16    0.07
  -4   7   4    3.16    0.14
  -4   7   4    2.85    0.10
  -4   7   3    4.65    0.17
  -4   7   3    4.63    0.13
   4   7  -2   18.21    0.41
  -4  -7   2   17.42    0.52
   4  -7  -2   18.63    0.41
   4   7  -1    1.21    0.05
   4  -7  -1    1.28    0.05
   4   7   0   26.74    0.58
   4  -7   0   27.30    0.59
   4   7   1    1.72    0.05
   4  -7   1    1.65    0.06
   4   7   2    9.44    0.21
   4  -7   2    9.60    0.22
   4  -7   3    4.91    0.12
   4   7   4    5.65    0.17
   4  -7   4    5.65    0.12
   4  -7   4    5.48    0.14
   4  -7   4    5.43    0.17
   4   7   5    0.04    0.04
   4  -7   5    0.03    0.02
   4  -7   5    0.09    0.02
   4  -7   5    0.03    0.04
   4   7   6    2.26    0.05
   4  -7   6    2.45    0.11
   4  -7   6    2.18    0.07
   4   7   7    5.68    0.12
   4  -7   7    5.51    0.18
   4  -7   7    5.52    0.13
   4   7   8    0.06    0.02
   4  -7   8    0.04    0.03
   4  -7   8    0.08    0.02
  -4   8   8    2.91    0.09
  -4  -8   8    2.83    0.10
  -4  -8   8    2.86    0.11
  -4   8   7    0.14    0.05
  -4   8   7    0.05    0.03
  -4  -8   7    0.03    0.04
  -4  -8   7    0.13    0.04
  -4   8   6    3.31    0.12
  -4   8   6    3.29    0.14
  -4  -8   6    3.28    0.13
  -4  -8   6    3.53    0.13
  -4   8   5   11.93    0.33
  -4   8   5   12.05    0.31
  -4  -8   5   11.66    0.31
  -4   8   4    0.19    0.03
  -4   8   4    0.25    0.04
  -4   8   4    0.24    0.05
  -4   8   4    0.25    0.04
  -4   8   3    2.61    0.09
   4   8  -2   11.01    0.26
   4  -8  -2   11.75    0.27
   4   8  -1    3.99    0.11
   4  -8  -1    4.14    0.11
   4   8   0    7.00    0.17
   4  -8   0    7.35    0.17
   4   8   1    0.40    0.03
   4  -8   1    0.43    0.04
   4   8   2    8.43    0.19
   4  -8   2    8.61    0.20
   4  -8   3    9.91    0.23
   4   8   4    0.01    0.03
   4  -8   4    0.02    0.01
   4  -8   4    0.02    0.04
   4  -8   4    0.07    0.02
   4   8   5    0.05    0.04
   4  -8   5    0.01    0.02
   4  -8   5    0.01    0.04
   4  -8   5    0.01    0.02
   4   8   6    3.49    0.08
   4  -8   6    3.34    0.14
   4  -8   6    3.43    0.09
   4   8   7   10.83    0.22
   4  -8   7   10.82    0.22
   4  -8   7   10.62    0.30
   4   8   8    0.01    0.01
   4  -8   8   -0.01    0.02
   4  -8   8    0.01    0.03
  -4   9   8    0.41    0.04
  -4  -9   8    0.48    0.06
  -4  -9   8    0.39    0.05
  -4   9   7    0.85    0.07
  -4   9   7    0.85    0.08
  -4  -9   7    0.86    0.07
  -4  -9   7    0.87    0.08
  -4   9   6   -0.01    0.03
  -4   9   6    0.01    0.05
  -4  -9   6    0.08    0.04
  -4  -9   6    0.03    0.04
  -4   9   5    0.05    0.03
  -4   9   5    0.06    0.04
  -4  -9   5    0.02    0.04
  -4   9   4    0.08    0.04
  -4   9   4    0.09    0.03
  -4   9   4    0.09    0.04
  -4  -9   4    0.11    0.04
  -4   9   3    3.16    0.14
   4   9  -2   81.30    1.74
   4   9  -1    0.26    0.03
   4  -9  -1    0.31    0.04
   4   9   0   23.23    0.51
   4  -9   0   23.17    0.51
   4   9   1    2.21    0.06
   4  -9   1    2.15    0.07
   4   9   2    7.00    0.16
   4  -9   2    6.79    0.17
   4  -9   3    4.78    0.12
   4   9   4    0.20    0.04
   4  -9   4    0.16    0.02
   4  -9   4    0.15    0.04
   4  -9   4    0.16    0.02
   4   9   5    0.03    0.04
   4  -9   5    0.03    0.02
   4  -9   5   -0.03    0.04
   4   9   6    0.15    0.02
   4  -9   6    0.13    0.02
   4  -9   6    0.19    0.05
   4   9   7    2.13    0.06
   4  -9   7    2.07    0.10
   4  -9   7    1.98    0.06
   4   9   8    0.10    0.02
   4  -9   8    0.04    0.03
  -4  10   8    0.32    0.03
  -4 -10   8    0.40    0.05
  -4  10   7    1.14    0.07
  -4  10   7    0.96    0.09
  -4 -10   7    1.11    0.07
  -4 -10   7    1.03    0.08
  -4  10   6    1.68    0.10
  -4  10   6    1.57    0.09
  -4 -10   6    1.43    0.09
  -4  10   5    2.95    0.11
  -4  10   5    3.12    0.13
  -4 -10   5    2.92    0.11
  -4  10   4    5.91    0.18
  -4  10   4    5.88    0.22
  -4  10   4    6.05    0.17
  -4 -10   4    5.88    0.17
  -4  10   3   -0.03    0.04
   4  10  -2   65.68    1.41
   4  10  -1   23.62    0.52
   4 -10  -1   24.13    0.53
   4  10   0   32.60    0.72
   4 -10   0   34.11    0.73
   4  10   1   30.20    0.64
   4 -10   1   29.29    0.65
   4  10   2    6.89    0.15
   4 -10   2    6.63    0.16
   4 -10   3    2.01    0.07
   4  10   4    0.53    0.06
   4 -10   4    0.50    0.06
   4 -10   4    0.60    0.04
   4 -10   4    0.53    0.03
   4  10   5    2.62    0.12
   4 -10   5    2.73    0.12
   4 -10   5    2.83    0.08
   4  10   6    1.71    0.05
   4 -10   6    1.73    0.06
   4 -10   6    1.69    0.10
   4  10   7    0.32    0.03
   4 -10   7    0.29    0.03
   4 -10   7    0.27    0.05
   4  10   8    2.11    0.05
   4 -10   8    2.01    0.09
  -4  11   8    0.18    0.03
  -4 -11   8    0.18    0.03
  -4  11   7    0.53    0.06
  -4 -11   7    0.57    0.06
  -4  11   6    1.30    0.08
  -4  11   6    1.30    0.10
  -4 -11   6    1.16    0.08
  -4  11   5    0.62    0.08
  -4  11   5    0.57    0.06
  -4 -11   5    0.47    0.06
  -4  11   4   21.69    0.64
  -4  11   4   21.59    0.51
  -4  11   4   21.82    0.54
  -4 -11   4   20.45    0.51
  -4  11   3   31.17    0.91
   4  11  -2    0.64    0.05
   4  11  -1    5.40    0.14
   4 -11  -1    5.40    0.14
   4  11   0   46.97    1.02
   4 -11   0   48.32    1.03
   4  11   1    1.68    0.05
   4 -11   1    1.58    0.06
   4  11   2   10.39    0.23
   4 -11   2   10.27    0.24
   4  11   3    2.01    0.05
   4 -11   3    2.05    0.07
   4  11   4    0.01    0.04
   4 -11   4    0.00    0.02
   4 -11   4    0.05    0.02
   4 -11   4   -0.01    0.04
   4  11   5   10.19    0.28
   4 -11   5   10.26    0.21
   4 -11   5   10.20    0.29
   4  11   6    4.68    0.10
   4 -11   6    4.87    0.17
   4 -11   6    4.59    0.11
   4  11   7    0.14    0.02
   4 -11   7    0.09    0.04
   4 -11   7    0.18    0.03
  -4  12   8    0.12    0.03
  -4 -12   8    0.10    0.03
  -4  12   7    0.27    0.04
  -4 -12   7    0.29    0.04
  -4  12   6    0.01    0.05
  -4  12   6   -0.01    0.03
  -4 -12   6    0.00    0.04
  -4  12   5   11.37    0.32
  -4  12   5   11.46    0.30
  -4 -12   5   11.48    0.30
  -4  12   4    1.30    0.08
  -4  12   4    1.27    0.07
  -4  12   4    1.33    0.09
  -4 -12   4    1.23    0.07
  -4  12   3    0.07    0.04
   4  12  -2    2.19    0.08
   4  12  -1   10.84    0.26
   4 -12  -1   11.42    0.26
   4  12   0   38.77    0.85
   4 -12   0   40.32    0.86
   4  12   1    0.34    0.03
   4 -12   1    0.28    0.03
   4  12   2    7.74    0.18
   4 -12   2    7.59    0.19
   4  12   3    4.39    0.11
   4 -12   3    4.58    0.10
   4 -12   3    4.46    0.15
   4 -12   3    4.42    0.12
   4  12   4    1.56    0.09
   4 -12   4    1.32    0.09
   4 -12   4    1.43    0.06
   4 -12   4    1.57    0.05
   4  12   5   14.45    0.28
   4  12   5   14.43    0.37
   4 -12   5   13.89    0.38
   4 -12   5   13.81    0.29
   4  12   6    1.82    0.05
   4 -12   6    1.90    0.06
   4 -12   6    1.73    0.10
   4  12   7    0.04    0.02
   4 -12   7    0.00    0.02
   4 -12   7    0.00    0.04
  -4  13   8    0.10    0.02
  -4 -13   8    0.09    0.03
  -4  13   7    4.63    0.14
  -4 -13   7    4.71    0.15
  -4  13   6    3.44    0.12
  -4 -13   6    3.53    0.13
  -4  13   5    6.67    0.19
  -4 -13   5    6.52    0.20
  -4  13   4   28.53    0.68
  -4  13   4   29.85    0.85
  -4 -13   4   28.11    0.68
  -4  13   3    3.01    0.13
   4  13  -2   26.10    0.58
   4  13  -1    2.74    0.09
   4 -13  -1    2.80    0.09
   4  13   0    0.11    0.02
   4 -13   0    0.06    0.03
   4  13   1    3.79    0.10
   4 -13   1    3.64    0.11
   4  13   2    0.44    0.03
   4 -13   2    0.44    0.04
   4  13   3    4.18    0.10
   4 -13   3    4.16    0.14
   4 -13   3    4.27    0.10
   4 -13   3    4.33    0.12
   4  13   4    7.12    0.21
   4 -13   4    6.99    0.22
   4 -13   4    7.11    0.16
   4 -13   4    7.25    0.18
   4  13   5   13.97    0.36
   4  13   5   13.67    0.27
   4 -13   5   13.76    0.37
   4 -13   5   13.17    0.28
   4  13   6    3.25    0.08
   4 -13   6    3.07    0.13
   4 -13   6    3.20    0.09
   4  13   7    4.57    0.10
   4 -13   7    4.69    0.16
  -4  14   8    2.55    0.08
  -4 -14   8    2.46    0.09
  -4  14   7   14.55    0.36
  -4 -14   7   15.18    0.37
  -4  14   6    3.75    0.13
  -4 -14   6    3.85    0.14
  -4  14   5    0.14    0.04
  -4 -14   5    0.16    0.04
  -4  14   4    3.90    0.17
  -4  14   4    3.89    0.13
  -4 -14   4    3.92    0.13
  -4  14   3    0.67    0.08
   4  14  -2    0.76    0.05
   4  14  -1   15.91    0.36
   4 -14  -1   15.60    0.36
   4  14   0   32.03    0.69
   4 -14   0   31.52    0.70
   4  14   1    0.10    0.02
   4 -14   1    0.05    0.02
   4  14   2    8.17    0.19
   4 -14   2    8.34    0.20
   4  14   3    3.49    0.07
   4  14   3    3.61    0.09
   4  14   3    3.55    0.12
   4 -14   3    3.49    0.11
   4 -14   3    3.46    0.10
   4 -14   3    3.51    0.13
   4 -14   3    3.60    0.09
   4  14   4    0.10    0.04
   4  14   4    0.05    0.01
   4 -14   4    0.06    0.04
   4 -14   4    0.03    0.02
   4 -14   4    0.05    0.03
   4 -14   4    0.10    0.03
   4  14   5    3.43    0.13
   4  14   5    3.02    0.07
   4 -14   5    3.00    0.09
   4 -14   5    3.23    0.14
   4  14   6    3.21    0.08
   4 -14   6    3.18    0.09
   4 -14   6    3.29    0.14
   4  14   7    0.07    0.02
   4 -14   7    0.06    0.04
  -4 -15   8    0.94    0.05
  -4  15   7    1.08    0.07
  -4 -15   7    1.14    0.07
  -4  15   6    0.14    0.04
  -4 -15   6    0.15    0.04
  -4  15   5    0.38    0.05
  -4 -15   5    0.42    0.05
  -4  15   4    6.14    0.18
  -4  15   4    6.18    0.23
  -4  15   3    5.79    0.21
  -4  15   3    5.69    0.17
   4  15  -2    0.52    0.05
   4  15  -1    3.31    0.10
   4 -15  -1    3.41    0.11
   4  15   0    5.66    0.14
   4 -15   0    5.55    0.15
   4  15   1    0.33    0.03
   4 -15   1    0.35    0.04
   4  15   2    0.16    0.02
   4  15   2    0.14    0.02
   4 -15   2    0.14    0.03
   4  15   3    6.88    0.16
   4  15   3    6.79    0.20
   4  15   3    6.78    0.14
   4 -15   3    6.94    0.18
   4 -15   3    6.84    0.18
   4 -15   3    7.04    0.21
   4  15   4    0.21    0.02
   4  15   4    0.30    0.05
   4  15   4    0.27    0.02
   4 -15   4    0.29    0.05
   4 -15   4    0.26    0.03
   4 -15   4    0.34    0.04
   4 -15   4    0.26    0.04
   4  15   5    1.84    0.05
   4  15   5    1.90    0.11
   4 -15   5    1.87    0.11
   4 -15   5    1.86    0.07
   4  15   6    0.14    0.02
   4 -15   6    0.13    0.05
   4  15   7    0.42    0.03
   4 -15   7    0.49    0.07
  -4 -16   8    2.27    0.08
  -4  16   7    2.20    0.09
  -4 -16   7    2.21    0.09
  -4  16   6    3.58    0.13
  -4 -16   6    3.69    0.13
  -4  16   5    0.37    0.05
  -4 -16   5    0.34    0.05
   4  16  -4    6.22    0.19
  -4  16   4    6.28    0.19
  -4  16   4    6.60    0.24
  -4 -16   4    6.37    0.19
  -4  16   3    0.41    0.06
   4  16  -3    0.45    0.06
  -4  16   3    0.48    0.07
   4  16  -2    1.52    0.07
   4  16  -1    0.83    0.05
   4  16   0    0.80    0.05
   4 -16   0    0.88    0.06
   4  16   1    6.05    0.15
   4 -16   1    5.80    0.16
   4  16   2    2.80    0.08
   4  16   2    2.99    0.07
   4 -16   2    2.89    0.09
   4  16   3   33.98    0.80
   4  16   3   34.37    0.66
   4  16   3   34.48    0.74
   4 -16   3   34.93    0.85
   4 -16   3   34.25    0.76
   4 -16   3   33.52    0.79
   4  16   4   18.93    0.37
   4  16   4   19.10    0.42
   4  16   4   19.45    0.47
   4 -16   4   18.60    0.50
   4 -16   4   19.54    0.44
   4 -16   4   18.53    0.45
   4  16   5    6.66    0.14
   4 -16   5    6.71    0.22
   4  16   6   -0.01    0.02
   4 -16   6    0.03    0.05
   4  16   7    1.19    0.04
   4 -16   7    1.14    0.08
  -4  17   7    0.25    0.04
  -4 -17   7    0.26    0.04
  -4  17   6    6.79    0.20
  -4 -17   6    7.22    0.21
  -4  17   5   18.21    0.44
  -4 -17   5   17.19    0.44
  -4  17   4    4.68    0.15
  -4  17   4    4.86    0.19
   4  17  -4    4.60    0.16
  -4 -17   4    5.01    0.16
  -4  17   3    1.25    0.08
  -4  17   3    1.53    0.10
   4  17  -3    1.41    0.08
  -4 -17   3    1.22    0.08
   4  17  -1    5.96    0.16
   4  17   0    4.35    0.12
   4 -17   0    4.33    0.13
   4  17   1    2.47    0.08
   4 -17   1    2.22    0.08
   4  17   2   12.55    0.24
   4  17   2   11.88    0.28
   4 -17   2   11.93    0.30
   4 -17   2   12.21    0.29
   4  17   3    0.02    0.02
   4  17   3    0.01    0.02
   4  17   3    0.04    0.03
   4 -17   3   -0.01    0.04
   4 -17   3    0.02    0.03
   4 -17   3    0.02    0.03
   4  17   4   18.22    0.44
   4  17   4   17.96    0.35
   4 -17   4   17.78    0.47
   4 -17   4   16.65    0.42
   4  17   5    0.14    0.02
   4 -17   5    0.11    0.05
   4  17   6    0.85    0.04
   4 -17   6    0.91    0.09
   4  17   7    3.12    0.07
   4 -17   7    2.99    0.12
  -4  18   7    2.12    0.08
  -4 -18   7    2.31    0.09
  -4  18   6    0.01    0.03
  -4 -18   6    0.00    0.04
  -4  18   5    7.52    0.21
  -4 -18   5    6.83    0.21
  -4  18   4    0.47    0.08
   4  18  -4    0.40    0.05
  -4  18   4    0.40    0.05
  -4 -18   4    0.51    0.07
   4  18  -3   25.46    0.62
  -4  18   3   26.19    0.77
  -4  18   3   25.48    0.62
  -4 -18   3   28.28    0.63
  -4 -18   3   25.15    0.63
   4  18  -2    8.01    0.22
   4  18  -1    3.57    0.11
   4  18   0   11.55    0.27
   4 -18   0   10.75    0.27
   4  18   1    1.17    0.05
   4 -18   1    1.05    0.06
   4 -18   1    1.26    0.07
   4  18   2    1.29    0.05
   4  18   2    1.43    0.05
   4 -18   2    1.45    0.07
   4 -18   2    1.36    0.07
   4  18   3    1.85    0.09
   4  18   3    1.71    0.05
   4  18   3    1.76    0.06
   4 -18   3    1.64    0.08
   4 -18   3    1.58    0.07
   4 -18   3    1.78    0.09
   4  18   4    1.66    0.09
   4  18   4    1.72    0.05
   4 -18   4    1.70    0.08
   4 -18   4    1.56    0.10
   4  18   5   12.64    0.26
   4 -18   5   12.70    0.36
   4  18   6    0.61    0.04
   4 -18   6    0.61    0.08
   4  18   7    0.98    0.04
   4 -18   7    1.00    0.07
  -4  19   7    2.51    0.09
  -4 -19   7    2.68    0.10
  -4  19   6    1.61    0.08
  -4 -19   6    1.49    0.09
  -4  19   5    4.33    0.15
  -4 -19   5    4.34    0.15
  -4  19   4    0.02    0.03
   4  19  -4    0.00    0.04
  -4  19   4    0.02    0.05
  -4 -19   4   -0.02    0.04
  -4  19   3    8.54    0.24
  -4  19   3    9.31    0.30
   4  19  -3    8.47    0.24
  -4  19   2    3.00    0.11
   4  19  -2    3.02    0.11
   4 -19  -2    2.87    0.11
   4  19  -1    1.34    0.07
   4  19  -1    1.44    0.07
   4  19   0    2.30    0.08
   4  19   0    2.52    0.09
   4  19   1   60.90    1.30
   4  19   1   59.13    1.36
   4 -19   1   60.21    1.37
   4 -19   1   60.35    1.31
   4  19   2    0.66    0.05
   4  19   2    0.68    0.04
   4  19   2    0.68    0.04
   4 -19   2    0.71    0.06
   4 -19   2    0.64    0.06
   4  19   3    9.28    0.19
   4  19   3    9.08    0.25
   4  19   3    9.64    0.22
   4 -19   3    9.55    0.27
   4 -19   3    9.36    0.24
   4 -19   3    9.42    0.24
   4  19   4   20.81    0.41
   4  19   4   20.66    0.50
   4 -19   4   20.96    0.54
   4 -19   4   20.11    0.49
   4  19   5   16.39    0.33
   4 -19   5   16.59    0.45
   4 -19   5   16.88    0.40
   4  19   6    1.98    0.06
   4 -19   6    2.10    0.11
   4  19   7    0.12    0.02
   4 -19   7    0.12    0.04
  -4  20   7    0.07    0.03
  -4 -20   7    0.13    0.04
  -4  20   6    0.55    0.06
  -4 -20   6    0.51    0.07
  -4  20   5    3.86    0.13
  -4 -20   5    3.46    0.13
  -4  20   4   10.25    0.34
  -4  20   4   10.36    0.27
   4  20  -4    9.59    0.27
  -4 -20   4   10.02    0.28
  -4  20   3    4.16    0.17
  -4  20   3    4.00    0.14
   4  20  -3    3.97    0.14
   4  20  -2    1.22    0.08
  -4  20   2    1.22    0.08
   4 -20  -2    1.25    0.08
   4  20  -1    0.23    0.03
   4  20  -1    0.30    0.04
   4 -20  -1    0.30    0.05
   4  20   0    1.94    0.08
   4  20   0    1.99    0.08
   4 -20   0    2.02    0.09
   4  20   1    2.13    0.08
   4  20   1    2.28    0.08
   4 -20   1    2.38    0.09
   4 -20   1    2.33    0.09
   4  20   2    1.04    0.05
   4  20   2    1.07    0.05
   4  20   2    1.07    0.06
   4 -20   2    0.99    0.06
   4 -20   2    1.06    0.07
   4  20   3    0.15    0.02
   4  20   3    0.09    0.02
   4 -20   3    0.09    0.04
   4 -20   3    0.13    0.03
   4 -20   3    0.13    0.03
   4  20   4    0.52    0.04
   4  20   4    0.65    0.07
   4 -20   4    0.62    0.06
   4 -20   4    0.43    0.06
   4  20   5    6.42    0.14
   4 -20   5    6.78    0.18
   4 -20   5    6.45    0.21
   4  20   6    1.34    0.05
   4 -20   6    1.21    0.09
   4  20   7    1.04    0.04
   4 -20   7    1.00    0.07
  -4  21   7    0.08    0.03
  -4 -21   7    0.11    0.03
  -4  21   6    0.08    0.04
  -4 -21   6    0.14    0.04
  -4  21   5    3.15    0.12
  -4 -21   5    3.04    0.12
  -4  21   4    4.60    0.15
  -4  21   4    4.24    0.18
   4  21  -4    4.29    0.15
  -4 -21   4    4.21    0.15
  -4  21   3   14.53    0.37
   4  21  -3   14.73    0.37
  -4  21   3   14.15    0.45
  -4  21   2    5.66    0.21
   4  21  -2    5.49    0.17
  -4  21   2    5.77    0.17
   4 -21  -2    5.33    0.17
   4  21  -1    8.27    0.22
   4  21  -1    8.16    0.21
  -4  21   1    8.20    0.23
   4 -21  -1    8.54    0.23
   4  21   0    6.38    0.17
   4  21   0    6.18    0.18
   4 -21   0    6.32    0.18
   4  21   1    9.97    0.24
   4  21   1    9.90    0.25
   4 -21   1    9.62    0.25
   4 -21   1   10.05    0.26
   4  21   2    1.56    0.07
   4  21   2    1.65    0.06
   4  21   2    1.54    0.06
   4 -21   2    1.49    0.08
   4 -21   2    1.48    0.08
   4  21   3    0.72    0.04
   4 -21   3    0.65    0.06
   4 -21   3    0.76    0.08
   4  21   4   15.05    0.31
   4 -21   4   15.18    0.42
   4 -21   4   16.35    0.38
   4  21   5    2.78    0.08
   4 -21   5    2.81    0.10
   4 -21   5    2.76    0.13
   4  21   6    2.24    0.06
   4 -21   6    2.19    0.11
   4 -21   7    0.55    0.06
  -4  22   7    0.11    0.03
  -4 -22   7    0.11    0.03
  -4  22   6    0.13    0.04
  -4 -22   6    0.07    0.04
  -4  22   5    0.25    0.05
  -4 -22   5    0.28    0.05
   4  22  -4    2.03    0.10
  -4  22   4    2.11    0.10
  -4 -22   4    1.94    0.10
   4  22  -3   43.86    1.02
  -4  22   3   43.26    1.01
  -4  22   3   43.52    1.26
  -4  22   2    0.80    0.07
   4  22  -2    0.67    0.07
  -4  22   2    0.80    0.08
   4 -22  -2    0.78    0.07
   4  22  -1    0.33    0.04
  -4  22   1    0.42    0.06
   4  22  -1    0.23    0.04
   4 -22  -1    0.28    0.05
   4  22   0    1.09    0.07
   4  22   0    1.20    0.06
   4 -22   0    1.14    0.08
   4  22   1    1.49    0.07
   4  22   1    1.45    0.07
   4 -22   1    1.56    0.08
   4  22   2    0.55    0.05
   4  22   2    0.57    0.04
   4  22   2    0.57    0.05
   4 -22   2    0.59    0.06
   4 -22   2    0.60    0.06
   4  22   3    1.68    0.06
   4 -22   3    1.75    0.10
   4 -22   3    1.48    0.08
   4  22   4    0.37    0.04
   4 -22   4    0.28    0.06
   4 -22   4    0.36    0.04
   4  22   5    0.04    0.02
   4 -22   5    0.01    0.03
   4 -22   5    0.02    0.04
   4  22   6    5.69    0.13
   4 -22   6    6.01    0.19
  -4  23   7    0.80    0.05
  -4 -23   7    0.83    0.06
  -4  23   6    3.27    0.11
  -4 -23   6    3.27    0.12
  -4  23   5    1.58    0.09
  -4 -23   5    1.53    0.09
  -4  23   4    8.31    0.23
   4  23  -4    7.96    0.23
  -4 -23   4    7.97    0.24
   4  23  -3    3.29    0.13
  -4  23   3    3.30    0.13
  -4  23   2    9.23    0.31
  -4  23   2    9.22    0.25
   4  23  -2    9.40    0.26
   4 -23  -2    9.24    0.26
  -4  23   1    4.23    0.14
   4  23  -1    4.08    0.14
   4  23  -1    4.13    0.13
   4 -23  -1    4.14    0.14
   4  23   0   -0.03    0.02
   4  23   0    0.03    0.03
   4 -23   0    0.03    0.04
   4  23   1    1.05    0.06
   4  23   1    1.07    0.06
   4 -23   1    0.95    0.07
   4  23   2    0.88    0.06
   4  23   2    0.88    0.05
   4 -23   2    0.87    0.07
   4 -23   2    0.74    0.06
   4  23   3    1.39    0.06
   4 -23   3    1.58    0.08
   4 -23   3    1.31    0.09
   4  23   4    4.55    0.11
   4 -23   4    4.48    0.14
   4 -23   4    4.60    0.17
   4  23   5    0.70    0.04
   4 -23   5    0.73    0.05
   4 -23   5    0.85    0.08
   4  23   6    0.63    0.04
   4 -23   6    0.68    0.07
  -4 -24   7    0.01    0.03
  -4  24   6    3.33    0.11
  -4 -24   6    3.47    0.12
  -4  24   5    1.67    0.09
  -4 -24   5    1.77    0.10
  -4  24   4    0.53    0.07
   4  24  -4    0.51    0.06
  -4 -24   4    0.39    0.05
   4  24  -3    4.45    0.15
  -4  24   3    4.45    0.15
   4  24  -2    1.18    0.08
  -4  24   2    1.17    0.08
  -4  24   1    6.67    0.20
   4  24  -1    6.86    0.20
   4 -24  -1    6.81    0.20
   4  24   0    7.65    0.21
   4  24   0    7.64    0.20
   4 -24   0    7.55    0.22
   4  24   1    1.19    0.07
   4  24   1    1.45    0.07
   4 -24   1    1.55    0.08
   4  24   2    1.63    0.07
   4 -24   2    1.72    0.09
   4  24   3    0.33    0.03
   4 -24   3    0.34    0.05
   4 -24   3    0.25    0.05
   4  24   4    0.02    0.02
   4 -24   4    0.10    0.04
   4 -24   4    0.04    0.04
   4  24   5    2.61    0.07
   4 -24   5    2.65    0.12
   4 -24   5    2.34    0.09
   4  24   6   -0.03    0.02
   4 -24   6    0.01    0.04
  -4  25   6    1.12    0.07
  -4 -25   6    1.49    0.08
  -4  25   5    2.62    0.11
  -4 -25   5    2.63    0.11
   4  25  -4    4.79    0.16
  -4  25   4    4.91    0.16
  -4 -25   4    4.69    0.16
   4  25  -3    3.78    0.14
  -4  25   3    3.69    0.14
   4  25  -2   20.34    0.49
  -4  25   2   19.33    0.49
  -4  25   1   16.48    0.42
   4  25  -1   16.95    0.42
   4 -25  -1   16.85    0.42
   4  25   0    7.69    0.20
   4  25   0    7.60    0.21
   4 -25   0    7.46    0.22
   4  25   1    7.13    0.20
   4 -25   1    7.36    0.21
   4  25   2    0.45    0.05
   4 -25   2    0.50    0.07
   4 -25   3    4.43    0.14
   4 -25   3    4.17    0.16
   4  25   4    0.01    0.02
   4 -25   4    0.01    0.03
   4 -25   4    0.01    0.04
   4  25   5    0.42    0.04
   4 -25   5    0.44    0.05
   4 -25   5    0.42    0.06
   4  25   6    0.71    0.04
   4 -25   6    0.72    0.06
  -4  26   6    0.00    0.03
  -4 -26   6   -0.01    0.03
  -4  26   5    1.17    0.08
  -4 -26   5    1.32    0.08
  -4  26   4    3.71    0.13
   4  26  -4    3.58    0.14
  -4 -26   4    3.55    0.14
   4  26  -3   12.82    0.34
  -4  26   3   13.33    0.34
   4  26  -2   11.14    0.30
  -4  26   2   10.78    0.29
   4  26  -1    1.11    0.08
  -4  26   1    1.23    0.08
   4 -26  -1    1.21    0.09
   4  26   0    0.00    0.03
   4 -26   0    0.07    0.04
   4  26   1    0.72    0.06
   4 -26   1    0.72    0.07
   4  26   2    0.64    0.05
   4 -26   2    0.58    0.07
   4 -26   3    8.26    0.24
   4 -26   3    7.67    0.22
   4 -26   4    1.23    0.07
   4 -26   4    1.32    0.09
   4  26   5    2.85    0.08
   4 -26   5    2.92    0.10
   4 -26   5    3.03    0.12
   4 -26   6    0.07    0.04
  -4  27   6    1.06    0.06
  -4 -27   6    0.95    0.06
  -4  27   5    0.16    0.04
  -4 -27   5    0.12    0.04
  -4  27   4    0.88    0.07
   4  27  -4    0.80    0.08
  -4 -27   4    0.85    0.08
   4  27  -3   17.96    0.46
  -4  27   3   18.31    0.45
  -4  27   2    1.47    0.09
   4  27  -2    1.34    0.09
   4  27  -1    0.37    0.05
  -4  27   1    0.49    0.07
   4 -27  -1    0.39    0.05
   4  27   0    0.04    0.03
   4 -27   0    0.04    0.04
   4  27   1    2.39    0.10
   4 -27   1    2.35    0.11
   4  27   2    1.58    0.08
   4 -27   2    1.58    0.09
   4 -27   3    1.20    0.09
   4 -27   3    1.36    0.08
   4 -27   4    1.26    0.09
   4 -27   4    1.28    0.07
   4 -27   5    1.36    0.06
   4 -27   5    1.52    0.09
   4 -27   6    0.23    0.04
  -4  28   6    1.28    0.06
  -4 -28   6    1.28    0.07
  -4  28   5    2.00    0.09
  -4 -28   5    1.98    0.09
   4  28  -4    0.07    0.04
  -4  28   4    0.15    0.04
  -4 -28   4    0.10    0.04
   4  28  -3   14.23    0.37
  -4  28   3   14.40    0.37
   4  28  -2    0.14    0.04
  -4  28   2    0.04    0.04
   4  28  -1    0.09    0.04
  -4  28   1    0.14    0.04
   4 -28  -1    0.19    0.05
   4  28   0    1.64    0.09
   4 -28   0    1.62    0.09
   4  28   1    3.15    0.11
   4 -28   1    2.99    0.12
   4  28   2   -0.02    0.03
   4 -28   2    0.09    0.04
   4 -28   3    1.85    0.10
   4 -28   3    1.76    0.09
   4 -28   4    2.62    0.10
   4 -28   4    2.64    0.12
   4 -28   5    0.30    0.03
   4 -28   5    0.36    0.04
   4 -28   5    0.29    0.05
  -4  29   6    0.07    0.03
  -4 -29   6    0.04    0.03
  -4  29   5    2.25    0.09
  -4 -29   5    2.16    0.09
   4  29  -4    0.99    0.08
  -4  29   4    0.91    0.07
  -4 -29   4    0.78    0.07
  -4  29   3    1.77    0.09
   4  29  -3    1.84    0.10
   4  29  -2   10.86    0.29
  -4  29   2   10.35    0.29
  -4  29   1    0.34    0.05
   4  29  -1    0.34    0.05
   4 -29  -1    0.39    0.05
   4  29   0    4.03    0.14
   4 -29   0    3.69    0.14
   4  29   1    5.90    0.17
   4 -29   1    5.65    0.18
   4  29   2    1.31    0.07
   4 -29   2    1.27    0.08
   4 -29   2    1.35    0.09
   4 -29   3    9.21    0.25
   4 -29   3    9.06    0.26
   4 -29   4    1.02    0.07
   4 -29   4    1.01    0.08
   4 -29   5    0.53    0.04
   4 -29   5    0.53    0.06
   4 -29   5    0.51    0.04
  -4  30   5    0.18    0.03
  -4 -30   5    0.19    0.04
   4  30  -4    3.53    0.13
  -4  30   4    3.67    0.12
  -4  30   3    6.97    0.21
   4  30  -3    7.17    0.21
   4  30  -2    5.17    0.17
  -4  30   2    5.42    0.17
  -4  30   1    1.22    0.08
   4  30  -1    1.17    0.08
   4 -30  -1    1.42    0.09
   4  30   0    4.71    0.15
   4 -30   0    4.59    0.16
   4  30   1    4.40    0.14
   4 -30   1    4.47    0.15
   4  30   2    5.49    0.16
   4 -30   2    5.37    0.18
   4 -30   2    5.59    0.17
   4 -30   3    0.73    0.07
   4 -30   3    0.50    0.07
   4 -30   4    3.09    0.11
   4 -30   4    3.29    0.12
   4 -30   5    0.52    0.06
   4 -30   5    0.52    0.04
   4 -30   5    0.45    0.04
  -4  31   5    1.16    0.06
  -4 -31   5    1.14    0.07
  -4  31   4    2.11    0.09
   4  31  -4    2.11    0.09
   4  31  -3    0.65    0.07
  -4  31   3    0.65    0.07
   4  31  -2    0.54    0.07
  -4  31   2    0.54    0.07
  -4  31   1    2.88    0.12
   4  31  -1    3.00    0.12
   4 -31  -1    3.04    0.12
   4  31   0    4.34    0.14
   4 -31   0    4.21    0.15
   4  31   1    0.48    0.06
   4 -31   1    0.43    0.05
   4  31   2    0.62    0.05
   4 -31   2    0.52    0.07
   4 -31   2    0.56    0.07
   4 -31   3    1.19    0.08
   4 -31   3    1.08    0.08
   4 -31   4    2.22    0.09
   4 -31   4    2.41    0.10
   4 -31   5   -0.01    0.03
  -4  32   5    0.35    0.05
  -4 -32   5    0.39    0.05
  -4  32   4   -0.03    0.03
   4  32  -4    0.06    0.03
  -4  32   3    9.00    0.25
   4  32  -3    9.28    0.25
  -4  32   2    0.16    0.04
   4  32  -2    0.22    0.05
  -4  32   1    0.03    0.04
   4  32  -1   -0.02    0.04
   4 -32  -1   -0.01    0.04
   4  32   0    0.28    0.05
   4 -32   0    0.35    0.05
   4  32   1    0.26    0.04
   4 -32   1    0.21    0.05
   4  32   2    4.10    0.13
   4 -32   2    4.27    0.14
   4 -32   2    4.39    0.15
   4 -32   3   11.57    0.30
   4 -32   3   11.61    0.31
   4 -32   4    0.37    0.05
   4 -32   4    0.29    0.04
  -4  33   5    0.48    0.04
   4  33  -4    2.32    0.09
  -4  33   4    2.52    0.09
  -4  33   3    0.00    0.03
   4  33  -3    0.07    0.04
   4  33  -2    3.53    0.13
  -4  33   2    3.39    0.12
   4  33  -1    0.98    0.07
  -4  33   1    0.94    0.08
   4 -33  -1    0.89    0.08
   4  33   0    0.67    0.07
   4 -33   0    0.71    0.08
   4  33   1    0.27    0.04
   4 -33   1    0.30    0.05
   4  33   2    2.91    0.10
   4 -33   2    3.00    0.11
   4 -33   2    2.98    0.12
   4 -33   3    2.49    0.10
   4 -33   3    2.44    0.10
   4 -33   4    1.18    0.06
   4 -33   4    1.07    0.07
   4  34  -4    1.03    0.06
  -4  34   4    0.98    0.06
   4  34  -3    0.58    0.06
  -4  34   3    0.58    0.06
  -4  34   2    0.02    0.04
   4  34  -2   -0.04    0.03
  -4  34   1    0.28    0.05
   4  34  -1    0.28    0.04
   4 -34  -1    0.31    0.05
   4  34   0    2.19    0.10
   4 -34   0    2.44    0.11
   4  34   1    0.82    0.06
   4 -34   1    0.67    0.07
   4 -34   1    0.81    0.07
   4  34   2    1.41    0.06
   4 -34   2    1.52    0.08
   4 -34   2    1.44    0.08
   4 -34   3    1.38    0.07
   4 -34   3    1.31    0.08
   4 -34   4    0.98    0.05
  -4  35   4    0.16    0.03
  -4  35   3    2.01    0.08
   4  35  -3    1.90    0.08
  -4  35   2    7.28    0.20
   4  35  -2    7.37    0.20
  -4  35   1    0.78    0.07
   4  35  -1    0.85    0.07
   4  35   0   -0.02    0.03
   4 -35   0    0.05    0.04
   4  35   1    1.07    0.06
   4 -35   1    1.14    0.08
   4 -35   1    1.13    0.07
   4  35   2    1.57    0.06
   4 -35   2    1.66    0.08
   4 -35   2    1.57    0.08
   4 -35   3    0.34    0.04
   4 -35   3    0.29    0.04
   4  36  -3    3.27    0.11
  -4  36   3    3.32    0.11
   4  36  -2    7.40    0.20
  -4  36   2    7.48    0.20
   4  36  -1    1.46    0.08
  -4  36   1    1.44    0.08
   4  36   0    0.06    0.03
   4 -36   0    0.07    0.04
   4  36   1    0.88    0.06
   4 -36   1    0.91    0.07
   4  36   2    0.52    0.04
   4 -36   2    0.50    0.06
   4 -36   3    1.70    0.07
  -4  37   3    0.90    0.06
   4  37  -3    0.78    0.05
   4  37  -2    8.02    0.21
  -4  37   2    7.34    0.20
  -4  37   1    0.42    0.05
   4  37  -1    0.36    0.04
   4  37   0    0.07    0.03
   4 -37   0    0.12    0.04
   4  37   1    0.01    0.03
   4 -37   1    0.00    0.03
   4 -37   2    0.01    0.03
   4  38  -2    0.14    0.03
  -4  38   2    0.10    0.03
  -4  38   1    1.28    0.07
   4  38  -1    1.31    0.07
   4  38   0    1.45    0.07
   4 -38   0    1.35    0.07
   4  38   1    0.42    0.04
   4 -38   1    0.39    0.04
   4 -38   2    0.62    0.05
   4  39  -1    1.99    0.08
   4  39   0   -0.01    0.03
  -5   0   8    0.30    0.05
  -5   0   8    0.19    0.04
  -5   0   7    0.00    0.04
  -5   0   7    0.04    0.03
  -5   0   6    5.53    0.17
  -5   0   6    5.21    0.18
  -5   0   5    0.00    0.04
  -5   0   5   -0.02    0.03
  -5   0   4    8.39    0.23
  -5   0   4    9.10    0.29
  -5   0   3    0.01    0.03
  -5   0   2   11.94    0.37
   5   0  -2   12.22    0.28
   5   0  -1    0.01    0.02
   5   0   0   37.28    0.80
   5   0   1    0.00    0.01
   5   0   2   16.34    0.35
   5   0   4    0.23    0.04
   5   0   4    0.17    0.04
   5   0   5   -0.01    0.04
   5   0   6    7.99    0.16
   5   0   7    0.01    0.02
   5   0   8    0.14    0.01
  -5   1   8    0.14    0.03
  -5  -1   8    0.19    0.03
  -5  -1   8    0.14    0.04
  -5   1   7    4.24    0.14
  -5   1   7    4.07    0.15
  -5  -1   7    4.29    0.14
  -5  -1   7    4.28    0.16
  -5   1   6    0.45    0.06
  -5   1   6    0.61    0.07
  -5  -1   6    0.47    0.06
  -5  -1   6    0.45    0.06
  -5   1   5   11.07    0.31
  -5   1   5   11.15    0.29
  -5  -1   5   11.14    0.29
  -5  -1   5   11.00    0.31
  -5   1   4    0.34    0.05
  -5   1   4    0.56    0.06
  -5  -1   4    0.41    0.07
  -5   1   3   27.37    0.78
  -5  -1   3   26.59    0.78
   5   1  -2    0.05    0.02
  -5  -1   2    0.06    0.03
   5  -1  -2    0.02    0.02
   5   1  -1    7.45    0.18
   5  -1  -1    7.22    0.18
   5   1   0   11.41    0.26
   5  -1   0   11.85    0.26
   5   1   1    0.79    0.03
   5  -1   1    0.81    0.04
   5   1   2    0.06    0.01
   5  -1   2    0.09    0.02
   5   1   4    6.91    0.19
   5   1   4    6.54    0.19
   5  -1   4    6.54    0.19
   5  -1   4    6.58    0.19
   5   1   5    0.82    0.08
   5  -1   5    0.85    0.08
   5   1   6    3.97    0.09
   5  -1   6    4.01    0.09
   5   1   7    2.03    0.05
   5  -1   7    2.04    0.05
   5   1   8    0.19    0.02
   5  -1   8    0.24    0.02
  -5   2   8    0.08    0.03
  -5  -2   8    0.07    0.03
  -5  -2   8    0.04    0.04
  -5   2   7    0.49    0.06
  -5   2   7    0.70    0.06
  -5  -2   7    0.61    0.07
  -5  -2   7    0.78    0.08
  -5   2   6    0.40    0.05
  -5   2   6    0.41    0.06
  -5  -2   6    0.47    0.06
  -5  -2   6    0.37    0.05
  -5   2   5   -0.01    0.03
  -5   2   5    0.00    0.04
  -5  -2   5    0.07    0.04
  -5  -2   5    0.00    0.03
  -5   2   4    0.62    0.06
  -5   2   4    0.71    0.07
  -5  -2   4    0.58    0.06
  -5   2   3    3.26    0.13
  -5  -2   3    3.10    0.13
   5   2  -2    2.32    0.08
  -5  -2   2    2.07    0.09
   5  -2  -2    2.22    0.08
   5   2  -1   10.97    0.26
   5  -2  -1   11.24    0.26
   5   2   0   17.38    0.39
   5  -2   0   18.11    0.39
   5   2   1    6.09    0.14
   5  -2   1    6.27    0.15
   5   2   2    3.41    0.08
   5  -2   2    3.29    0.08
   5  -2   3    0.17    0.02
   5   2   4   27.41    0.64
   5   2   4   27.46    0.64
   5  -2   4   26.41    0.64
   5  -2   4   26.46    0.64
   5   2   5    4.85    0.16
   5  -2   5    4.63    0.16
   5   2   6    0.69    0.03
   5  -2   6    0.66    0.03
   5   2   7    1.31    0.04
   5  -2   7    1.36    0.04
   5   2   8    0.05    0.01
  -5   3   8    1.94    0.08
  -5  -3   8    1.95    0.08
  -5  -3   8    1.89    0.09
  -5   3   7    0.63    0.08
  -5   3   7    0.59    0.06
  -5  -3   7    0.49    0.06
  -5  -3   7    0.60    0.08
  -5   3   6    0.69    0.08
  -5   3   6    0.65    0.07
  -5  -3   6    0.80    0.08
  -5  -3   6    0.67    0.07
  -5   3   5    2.85    0.11
  -5   3   5    2.58    0.12
  -5  -3   5    2.81    0.11
  -5  -3   5    2.62    0.11
  -5   3   4   10.23    0.26
  -5   3   4    9.28    0.32
  -5   3   4    9.47    0.27
  -5  -3   4    9.84    0.26
  -5   3   3    1.09    0.08
  -5  -3   3    1.18    0.07
   5   3  -2   58.14    1.24
  -5  -3   2   57.94    1.62
   5  -3  -2   56.92    1.24
   5   3  -1    5.85    0.14
   5  -3  -1    5.78    0.15
   5   3   0    1.48    0.05
   5  -3   0    1.55    0.05
   5   3   1    5.23    0.12
   5  -3   1    5.03    0.12
   5   3   2    0.06    0.01
   5  -3   2    0.04    0.01
   5  -3   3    1.17    0.04
   5   3   4    0.44    0.06
   5   3   4    0.41    0.05
   5  -3   4    0.41    0.05
   5  -3   4    0.35    0.05
   5   3   5   -0.04    0.04
   5  -3   5    0.03    0.04
   5  -3   5    0.01    0.04
   5  -3   5    0.02    0.01
   5  -3   6    0.43    0.05
   5  -3   6    0.41    0.03
   5   3   7    1.00    0.03
   5  -3   7    1.05    0.04
  -5   4   8    0.14    0.03
  -5  -4   8    0.13    0.03
  -5  -4   8    0.16    0.04
  -5   4   7    0.82    0.09
  -5   4   7    0.93    0.07
  -5  -4   7    1.03    0.07
  -5  -4   7    0.86    0.08
  -5   4   6    6.03    0.20
  -5   4   6    6.06    0.18
  -5  -4   6    6.16    0.18
  -5  -4   6    5.79    0.19
  -5   4   5    0.03    0.03
  -5   4   5    0.06    0.04
  -5  -4   5    0.06    0.04
  -5  -4   5   -0.01    0.03
  -5   4   4    2.92    0.11
  -5   4   4    3.07    0.11
  -5   4   4    2.93    0.14
  -5  -4   4    2.91    0.11
  -5   4   3    3.26    0.14
  -5  -4   3    3.33    0.13
   5   4  -2    3.01    0.09
  -5  -4   2    3.04    0.12
   5  -4  -2    3.13    0.09
   5   4  -1   15.96    0.36
   5  -4  -1   16.12    0.36
   5   4   0    1.01    0.04
   5  -4   0    1.11    0.05
   5   4   1   25.42    0.55
   5  -4   1   25.08    0.55
   5   4   2    4.10    0.09
   5  -4   2    3.90    0.10
   5  -4   3   10.71    0.24
   5   4   4    0.69    0.07
   5  -4   4    0.66    0.06
   5  -4   4    0.55    0.06
   5  -4   4    0.68    0.07
   5   4   5    4.42    0.15
   5  -4   5    4.17    0.15
   5  -4   5    4.45    0.09
   5  -4   6    3.69    0.09
   5  -4   6    3.66    0.14
   5   4   7    3.61    0.08
   5  -4   7    3.63    0.09
  -5   5   8    0.06    0.03
  -5  -5   8    0.03    0.03
  -5  -5   8    0.14    0.04
  -5   5   7   11.49    0.30
  -5   5   7   12.05    0.33
  -5  -5   7   11.76    0.30
  -5  -5   7   11.91    0.32
  -5   5   6    1.60    0.09
  -5   5   6    1.53    0.10
  -5  -5   6    1.49    0.09
  -5  -5   6    1.69    0.10
  -5   5   5    5.36    0.18
  -5   5   5    5.52    0.17
  -5  -5   5    5.60    0.17
  -5   5   4    5.26    0.20
  -5   5   4    5.33    0.16
  -5   5   4    5.31    0.17
  -5  -5   4    5.54    0.16
  -5   5   3   16.17    0.48
  -5  -5   3   15.71    0.47
   5   5  -2    0.32    0.04
  -5  -5   2    0.35    0.05
   5  -5  -2    0.31    0.04
   5   5  -1   94.23    2.07
   5  -5  -1   99.52    2.07
   5   5   0    6.93    0.16
   5  -5   0    6.98    0.17
   5   5   1    3.65    0.09
   5  -5   1    3.55    0.09
   5   5   2    0.91    0.03
   5  -5   2    0.88    0.04
   5  -5   3    0.83    0.04
   5   5   4    0.54    0.07
   5  -5   4    0.44    0.06
   5  -5   4    0.53    0.03
   5  -5   4    0.44    0.05
   5   5   5    0.92    0.08
   5  -5   5    0.87    0.03
   5  -5   5    0.74    0.07
   5  -5   6    2.40    0.11
   5  -5   6    2.31    0.06
   5   5   7    0.25    0.02
   5  -5   7    0.24    0.04
   5  -5   7    0.27    0.03
  -5   6   8    0.13    0.03
  -5  -6   8    0.06    0.03
  -5   6   7    0.88    0.09
  -5   6   7    0.80    0.07
  -5  -6   7    0.80    0.07
  -5  -6   7    0.79    0.08
  -5   6   6   18.58    0.45
  -5   6   6   18.36    0.48
  -5  -6   6   18.63    0.45
  -5  -6   6   17.09    0.47
  -5   6   5    0.74    0.06
  -5   6   5    0.65    0.08
  -5  -6   5    0.72    0.07
  -5   6   4    0.06    0.05
  -5   6   4    0.07    0.03
   5   6  -4    0.09    0.04
  -5   6   4    0.03    0.04
  -5  -6   4    0.08    0.03
  -5   6   3    0.95    0.08
   5   6  -2   24.23    0.54
   5  -6  -2   24.48    0.54
   5   6  -1    9.04    0.22
   5  -6  -1    9.55    0.22
   5   6   0    0.36    0.03
   5  -6   0    0.30    0.03
   5   6   1    1.20    0.04
   5  -6   1    1.19    0.05
   5   6   2    0.13    0.01
   5  -6   2    0.13    0.02
   5  -6   3    6.74    0.13
   5  -6   3    6.49    0.16
   5   6   4    0.27    0.05
   5  -6   4    0.29    0.05
   5  -6   4    0.31    0.05
   5  -6   4    0.32    0.02
   5  -6   4    0.32    0.03
   5   6   5    0.03    0.04
   5  -6   5    0.00    0.04
   5  -6   5    0.06    0.02
   5  -6   6    5.30    0.12
   5  -6   6    5.29    0.17
   5   6   7    0.67    0.03
   5  -6   7    0.59    0.06
   5  -6   7    0.69    0.04
  -5   7   8    0.98    0.06
  -5  -7   8    0.98    0.06
  -5   7   7    0.99    0.07
  -5  -7   7    0.94    0.07
  -5   7   6    1.61    0.10
  -5   7   6    1.67    0.09
  -5  -7   6    1.66    0.09
  -5   7   5    0.29    0.05
  -5   7   5    0.22    0.05
  -5  -7   5    0.28    0.04
  -5   7   4   32.35    0.76
  -5   7   4   33.58    0.81
   5   7  -4   31.05    0.76
  -5   7   4   33.55    0.96
  -5  -7   4   32.81    0.76
  -5   7   3    0.99    0.08
   5   7  -2   13.78    0.31
   5  -7  -2   13.43    0.32
   5   7  -1    4.17    0.11
   5  -7  -1    4.58    0.12
   5   7   0   15.26    0.34
   5  -7   0   15.35    0.34
   5   7   1    9.31    0.21
   5  -7   1    9.25    0.22
   5   7   2    2.45    0.06
   5  -7   2    2.46    0.07
   5  -7   3    1.01    0.03
   5  -7   3    0.93    0.04
   5   7   4    7.79    0.22
   5  -7   4    7.61    0.22
   5  -7   4    7.79    0.16
   5  -7   4    8.02    0.18
   5  -7   4    7.69    0.23
   5   7   5    0.83    0.08
   5  -7   5    0.75    0.08
   5  -7   5    0.77    0.04
   5  -7   6    1.69    0.05
   5  -7   6    1.55    0.09
   5   7   7    0.39    0.02
   5  -7   7    0.43    0.03
   5  -7   7    0.44    0.06
  -5   8   8    5.01    0.14
  -5  -8   8    5.03    0.14
  -5   8   7    1.02    0.07
  -5  -8   7    1.04    0.07
  -5   8   6    0.36    0.06
  -5   8   6    0.49    0.06
  -5  -8   6    0.47    0.07
  -5   8   5    0.26    0.04
  -5   8   5    0.17    0.05
  -5  -8   5    0.26    0.04
  -5   8   4    0.70    0.08
   5   8  -4    0.65    0.06
  -5   8   4    0.72    0.06
  -5   8   4    0.77    0.07
  -5  -8   4    0.71    0.07
  -5   8   3   26.10    0.77
   5   8  -2   31.26    0.69
   5  -8  -2   31.16    0.69
   5   8  -1    1.21    0.05
   5  -8  -1    1.31    0.06
   5   8   0    3.27    0.09
   5  -8   0    3.37    0.09
   5   8   1    0.09    0.02
   5  -8   1    0.10    0.02
   5   8   2    2.01    0.05
   5  -8   2    1.92    0.06
   5   8   3   -0.01    0.03
   5  -8   3    0.02    0.01
   5  -8   3    0.00    0.02
   5  -8   3    0.00    0.04
   5   8   4    0.14    0.04
   5  -8   4    0.26    0.03
   5  -8   4    0.18    0.04
   5  -8   4    0.15    0.04
   5  -8   4    0.22    0.02
   5   8   5    2.18    0.11
   5  -8   5    1.98    0.10
   5  -8   5    2.09    0.06
   5  -8   6    0.79    0.04
   5  -8   6    0.90    0.08
   5   8   7    0.02    0.01
   5  -8   7    0.00    0.04
   5  -8   7    0.01    0.02
  -5   9   8    0.04    0.03
  -5  -9   8    0.01    0.03
  -5   9   7    0.12    0.04
  -5  -9   7    0.14    0.04
  -5   9   6    0.09    0.04
  -5  -9   6    0.02    0.04
  -5   9   5    1.68    0.10
  -5   9   5    1.77    0.09
  -5  -9   5    1.46    0.08
  -5   9   4    8.23    0.28
  -5   9   4    8.33    0.22
   5   9  -4    7.97    0.23
  -5  -9   4    8.11    0.23
  -5   9   3    0.33    0.06
   5   9  -2    2.80    0.09
   5   9  -1    5.38    0.13
   5  -9  -1    4.94    0.14
   5   9   0    1.31    0.05
   5  -9   0    1.28    0.06
   5   9   1    2.85    0.08
   5  -9   1    2.81    0.08
   5   9   2    8.53    0.19
   5  -9   2    8.53    0.20
   5   9   3    2.05    0.09
   5  -9   3    1.89    0.09
   5  -9   3    2.11    0.05
   5  -9   3    2.03    0.07
   5   9   4    0.69    0.07
   5  -9   4    0.82    0.04
   5  -9   4    0.79    0.07
   5  -9   4    0.81    0.07
   5  -9   4    0.79    0.04
   5   9   5    1.50    0.10
   5  -9   5    1.44    0.09
   5  -9   5    1.42    0.05
   5   9   6    0.00    0.01
   5  -9   6    0.01    0.02
   5  -9   6   -0.04    0.04
   5   9   7    7.92    0.16
   5  -9   7    8.11    0.23
   5  -9   7    7.84    0.17
  -5  10   8    0.51    0.04
  -5 -10   8    0.50    0.05
  -5  10   7    1.12    0.07
  -5 -10   7    1.13    0.07
  -5  10   6    6.68    0.20
  -5 -10   6    6.61    0.20
  -5  10   5    0.44    0.05
  -5 -10   5    0.31    0.05
   5  10  -4    5.58    0.17
  -5  10   4    5.79    0.22
  -5  10   4    5.80    0.17
  -5 -10   4    5.50    0.17
  -5  10   3    8.22    0.28
   5  10  -2   23.79    0.53
   5  10  -1   11.41    0.26
   5 -10  -1   11.23    0.27
   5  10   0    0.03    0.02
   5 -10   0    0.04    0.02
   5  10   1    5.40    0.13
   5 -10   1    5.20    0.14
   5  10   2    9.19    0.21
   5 -10   2    9.37    0.22
   5  10   3    2.66    0.11
   5 -10   3    2.90    0.07
   5 -10   3    2.58    0.11
   5 -10   3    2.82    0.08
   5 -10   3    2.81    0.11
   5  10   4    5.80    0.18
   5 -10   4    5.65    0.14
   5 -10   4    5.73    0.18
   5 -10   4    5.62    0.12
   5 -10   4    5.62    0.17
   5  10   5    0.35    0.06
   5 -10   5    0.51    0.06
   5 -10   5    0.39    0.04
   5  10   6    6.56    0.14
   5 -10   6    6.96    0.15
   5 -10   6    6.61    0.21
   5  10   7    1.63    0.04
   5 -10   7    1.66    0.05
   5 -10   7    1.69    0.09
  -5  11   8    0.77    0.05
  -5 -11   8    0.80    0.05
  -5  11   7    7.28    0.20
  -5 -11   7    6.99    0.20
  -5  11   6    3.18    0.12
  -5 -11   6    3.03    0.12
  -5  11   5    9.25    0.25
  -5 -11   5    9.07    0.25
  -5  11   4    0.39    0.05
  -5  11   4    0.36    0.06
   5  11  -4    0.33    0.05
  -5 -11   4    0.35    0.05
  -5  11   3   17.00    0.52
   5  11  -1    5.28    0.14
   5 -11  -1    5.17    0.14
   5  11   0    0.96    0.05
   5 -11   0    0.91    0.05
   5  11   1    1.00    0.04
   5 -11   1    0.89    0.05
   5  11   2    1.95    0.06
   5 -11   2    1.81    0.07
   5  11   3    1.74    0.09
   5 -11   3    1.75    0.05
   5 -11   3    1.79    0.08
   5 -11   3    1.89    0.07
   5 -11   3    1.79    0.09
   5  11   4    1.59    0.09
   5 -11   4    1.56    0.09
   5 -11   4    1.51    0.05
   5 -11   4    1.62    0.09
   5 -11   4    1.49    0.06
   5  11   5    3.53    0.14
   5 -11   5    3.63    0.14
   5 -11   5    3.29    0.09
   5  11   6    0.11    0.02
   5 -11   6    0.17    0.05
   5 -11   6    0.10    0.02
   5  11   7    5.47    0.11
   5 -11   7    5.29    0.17
   5 -11   7    5.31    0.12
  -5  12   8    2.58    0.08
  -5 -12   8    2.66    0.09
  -5  12   7    0.44    0.06
  -5 -12   7    0.48    0.06
  -5  12   6    1.22    0.08
  -5 -12   6    1.22    0.08
  -5  12   5    0.55    0.07
  -5 -12   5    0.53    0.07
   5  12  -4    6.60    0.20
  -5  12   4    6.53    0.24
  -5  12   4    6.55    0.19
  -5 -12   4    6.69    0.19
  -5  12   3   19.97    0.48
   5  12  -3   19.59    0.48
  -5  12   3   19.72    0.60
   5  12  -2    4.05    0.12
   5  12  -1   12.12    0.28
   5 -12  -1   11.92    0.28
   5  12   0    1.43    0.06
   5 -12   0    1.49    0.06
   5  12   1   24.58    0.54
   5 -12   1   24.40    0.54
   5  12   2    0.80    0.03
   5  12   2    0.88    0.04
   5 -12   2    0.93    0.05
   5  12   3    0.02    0.04
   5 -12   3    0.00    0.02
   5 -12   3   -0.01    0.02
   5 -12   3   -0.01    0.04
   5 -12   3   -0.01    0.02
   5 -12   3    0.06    0.04
   5  12   4   12.94    0.34
   5 -12   4   13.34    0.31
   5 -12   4   13.29    0.36
   5 -12   4   13.46    0.27
   5  12   5    1.23    0.09
   5 -12   5    1.32    0.09
   5 -12   5    1.31    0.05
   5  12   6    1.00    0.03
   5 -12   6    1.11    0.09
   5 -12   6    1.05    0.05
   5  12   7    0.14    0.02
   5 -12   7    0.14    0.04
   5 -12   7    0.12    0.02
  -5  13   8    2.83    0.09
  -5 -13   8    2.85    0.09
  -5  13   7    2.03    0.09
  -5 -13   7    1.96    0.09
  -5  13   6    0.02    0.04
  -5 -13   6   -0.02    0.04
  -5  13   5    0.02    0.04
  -5 -13   5    0.06    0.04
  -5  13   4    2.05    0.12
  -5  13   4    1.65    0.09
   5  13  -4    1.74    0.09
  -5 -13   4    1.67    0.09
  -5  13   3    8.32    0.23
   5  13  -3    8.66    0.23
  -5  13   3    9.13    0.30
   5 -13  -3    8.45    0.24
   5  13  -2   21.54    0.49
   5  13  -1   12.67    0.30
   5 -13  -1   12.62    0.30
   5  13   0    1.39    0.06
   5 -13   0    1.34    0.06
   5  13   1   23.64    0.52
   5 -13   1   23.47    0.53
   5  13   2    0.74    0.04
   5  13   2    0.81    0.03
   5 -13   2    0.86    0.05
   5  13   3    2.16    0.09
   5  13   3    2.08    0.06
   5 -13   3    2.12    0.09
   5 -13   3    2.00    0.08
   5 -13   3    2.13    0.06
   5 -13   3    2.07    0.08
   5 -13   3    2.20    0.10
   5  13   4    1.90    0.10
   5 -13   4    1.88    0.06
   5 -13   4    1.83    0.10
   5  13   5    0.87    0.09
   5  13   5    0.78    0.03
   5 -13   5    0.86    0.08
   5 -13   5    0.85    0.05
   5  13   6    0.51    0.03
   5 -13   6    0.47    0.04
   5 -13   6    0.53    0.08
   5  13   7    0.54    0.03
   5 -13   7    0.40    0.04
   5 -13   7    0.45    0.06
  -5 -14   8    0.02    0.03
  -5  14   7    1.80    0.08
  -5 -14   7    1.67    0.08
  -5  14   6    6.03    0.18
  -5 -14   6    5.58    0.18
  -5  14   5    0.12    0.04
  -5 -14   5    0.02    0.04
   5  14  -4   19.45    0.48
  -5  14   4   19.54    0.48
  -5  14   4   19.85    0.60
  -5 -14   4   19.84    0.48
   5  14  -3    0.34    0.04
  -5  14   3    0.23    0.04
  -5  14   3    0.32    0.06
   5 -14  -3    0.27    0.04
   5  14  -2    0.06    0.03
   5  14  -1    0.07    0.02
   5 -14  -1    0.12    0.03
   5  14   0    3.19    0.09
   5 -14   0    2.99    0.10
   5  14   1    0.02    0.02
   5 -14   1    0.01    0.03
   5  14   2    5.28    0.13
   5  14   2    5.40    0.11
   5 -14   2    5.43    0.14
   5 -14   2    5.13    0.15
   5  14   3    7.79    0.18
   5  14   3    7.98    0.22
   5  14   3    7.68    0.15
   5 -14   3    7.47    0.20
   5 -14   3    7.80    0.19
   5 -14   3    7.70    0.17
   5 -14   3    7.91    0.23
   5 -14   3    7.49    0.21
   5  14   4   14.59    0.29
   5  14   4   14.80    0.38
   5 -14   4   15.08    0.40
   5 -14   4   14.53    0.30
   5  14   5    0.00    0.01
   5  14   5    0.02    0.04
   5 -14   5   -0.03    0.02
   5 -14   5    0.00    0.04
   5  14   6    1.93    0.05
   5 -14   6    1.95    0.06
   5 -14   6    1.95    0.11
   5  14   7    0.03    0.01
   5 -14   7    0.00    0.03
  -5  15   7    0.49    0.05
  -5 -15   7    0.38    0.05
  -5  15   6    0.06    0.04
  -5 -15   6    0.05    0.04
  -5  15   5    1.32    0.08
  -5 -15   5    1.20    0.09
   5  15  -4    0.08    0.04
  -5  15   4    0.06    0.04
  -5  15   4    0.07    0.05
  -5 -15   4    0.09    0.04
   5  15  -3    1.57    0.08
  -5  15   3    1.55    0.08
  -5  15   3    1.59    0.10
   5 -15  -3    1.49    0.08
   5  15  -2    2.56    0.09
   5  15  -2    2.96    0.11
   5  15  -1   10.69    0.26
   5  15   0   13.30    0.30
   5 -15   0   12.75    0.31
   5  15   1   15.86    0.36
   5  15   1   16.06    0.32
   5 -15   1   16.20    0.37
   5  15   2   19.23    0.43
   5  15   2   19.47    0.47
   5  15   2   19.92    0.38
   5 -15   2   19.24    0.44
   5 -15   2   18.84    0.46
   5  15   3    1.09    0.04
   5  15   3    1.30    0.08
   5  15   3    1.18    0.04
   5 -15   3    1.08    0.06
   5 -15   3    1.07    0.08
   5 -15   3    1.19    0.06
   5 -15   3    1.17    0.08
   5  15   4    0.86    0.08
   5  15   4    0.84    0.03
   5 -15   4    0.83    0.05
   5 -15   4    0.77    0.08
   5  15   5    6.12    0.19
   5  15   5    6.06    0.13
   5 -15   5    6.03    0.14
   5 -15   5    6.18    0.20
   5  15   6    0.10    0.02
   5 -15   6    0.13    0.05
   5  15   7    0.89    0.03
   5 -15   7    0.78    0.06
  -5  16   7    0.74    0.06
  -5 -16   7    0.65    0.06
  -5  16   6   12.94    0.33
  -5 -16   6   13.21    0.34
  -5  16   5    6.02    0.18
  -5 -16   5    5.71    0.18
   5  16  -4    0.59    0.07
  -5  16   4    0.52    0.06
  -5  16   4    0.40    0.06
  -5 -16   4    0.55    0.07
  -5  16   3    7.04    0.20
   5  16  -3    7.29    0.20
  -5  16   3    6.90    0.25
   5 -16  -3    6.95    0.20
   5  16  -2    2.78    0.11
   5  16  -2    2.81    0.10
   5 -16  -2    2.68    0.11
   5  16  -1    1.69    0.07
   5  16  -1    1.58    0.07
   5  16   0    1.88    0.07
   5 -16   0    2.06    0.09
   5 -16   0    1.80    0.08
   5  16   1    0.01    0.02
   5  16   1    0.04    0.02
   5 -16   1    0.02    0.03
   5 -16   1    0.01    0.03
   5  16   2    0.37    0.03
   5  16   2    0.30    0.03
   5  16   2    0.31    0.04
   5 -16   2    0.30    0.04
   5 -16   2    0.35    0.05
   5  16   3    0.02    0.04
   5  16   3    0.06    0.02
   5  16   3    0.06    0.02
   5 -16   3    0.03    0.04
   5 -16   3    0.05    0.03
   5 -16   3    0.02    0.03
   5  16   4   42.32    1.01
   5  16   4   43.56    0.83
   5 -16   4   44.17    1.07
   5  16   5   14.80    0.38
   5  16   5   14.74    0.29
   5 -16   5   15.20    0.41
   5  16   6    1.60    0.05
   5 -16   6    1.68    0.10
   5  16   7    0.91    0.03
   5 -16   7    1.00    0.07
  -5  17   7    0.01    0.03
  -5 -17   7    0.02    0.03
  -5  17   6    0.05    0.04
  -5 -17   6    0.02    0.04
  -5  17   5    4.79    0.16
  -5 -17   5    4.74    0.16
   5  17  -4   17.84    0.45
  -5  17   4   18.90    0.45
  -5  17   4   18.27    0.57
  -5 -17   4   17.83    0.45
  -5  17   3    0.44    0.05
  -5  17   3    0.44    0.08
   5  17  -3    0.31    0.04
  -5  17   2    0.37    0.05
   5  17  -2    0.27    0.04
   5 -17  -2    0.41    0.05
   5  17  -1    0.47    0.05
   5  17  -1    0.56    0.05
   5 -17  -1    0.63    0.06
   5  17   0   13.00    0.30
   5  17   0   12.42    0.31
   5 -17   0   12.34    0.30
   5 -17   0   12.63    0.32
   5  17   1    0.00    0.02
   5  17   1    0.01    0.02
   5  17   1    0.08    0.02
   5 -17   1    0.00    0.03
   5 -17   1    0.02    0.03
   5  17   2    0.27    0.03
   5  17   2    0.24    0.03
   5  17   2    0.30    0.04
   5 -17   2    0.29    0.04
   5 -17   2    0.28    0.04
   5  17   3    0.10    0.02
   5  17   3    0.11    0.02
   5  17   3    0.12    0.04
   5 -17   3    0.15    0.03
   5 -17   3    0.02    0.04
   5 -17   3    0.12    0.03
   5  17   4    6.30    0.19
   5  17   4    6.25    0.13
   5 -17   4    5.94    0.17
   5 -17   4    6.74    0.21
   5  17   5    9.79    0.20
   5 -17   5    9.84    0.29
   5  17   6    0.86    0.04
   5 -17   6    0.81    0.08
   5  17   7    2.55    0.06
   5 -17   7    2.55    0.10
  -5  18   7    2.50    0.09
  -5 -18   7    2.47    0.09
  -5  18   6    2.07    0.09
  -5 -18   6    2.27    0.10
  -5  18   5    0.24    0.05
  -5 -18   5    0.23    0.05
  -5  18   4    0.27    0.06
   5  18  -4    0.29    0.05
  -5  18   4    0.25    0.05
  -5 -18   4    0.28    0.05
  -5  18   3   12.34    0.31
   5  18  -3   11.93    0.32
  -5  18   3   11.81    0.39
   5  18  -2   15.65    0.38
  -5  18   2   14.71    0.38
   5 -18  -2   15.28    0.38
   5  18  -1    0.68    0.06
   5  18  -1    0.74    0.05
   5 -18  -1    0.78    0.07
   5  18   0    3.21    0.10
   5  18   0    3.21    0.11
   5 -18   0    2.88    0.10
   5  18   1    2.15    0.06
   5  18   1    2.13    0.07
   5  18   1    2.18    0.08
   5 -18   1    2.26    0.09
   5 -18   1    2.17    0.09
   5  18   2    0.10    0.02
   5  18   2    0.10    0.02
   5  18   2    0.06    0.04
   5 -18   2    0.07    0.03
   5 -18   2    0.14    0.03
   5  18   3   20.01    0.49
   5  18   3   20.65    0.39
   5  18   3   19.78    0.44
   5 -18   3   19.69    0.48
   5 -18   3   19.83    0.52
   5  18   4    3.91    0.14
   5  18   4    3.72    0.09
   5 -18   4    3.68    0.12
   5 -18   4    3.97    0.15
   5  18   5    1.12    0.04
   5 -18   5    1.07    0.09
   5  18   6    0.44    0.03
   5 -18   6    0.50    0.06
   5  18   7    0.09    0.02
   5 -18   7    0.06    0.03
  -5  19   7    1.57    0.07
  -5 -19   7    1.53    0.07
  -5  19   6    2.99    0.11
  -5 -19   6    3.02    0.12
  -5  19   5    0.13    0.04
  -5 -19   5    0.09    0.04
  -5  19   4    3.23    0.12
   5  19  -4    3.23    0.13
  -5  19   4    3.10    0.15
  -5 -19   4    3.05    0.13
   5  19  -3    0.15    0.04
  -5  19   3    0.19    0.04
  -5  19   3    0.19    0.05
   5  19  -2    2.11    0.09
  -5  19   2    2.16    0.10
   5 -19  -2    2.10    0.10
   5  19  -1    8.07    0.22
   5  19  -1    7.98    0.21
   5 -19  -1    8.58    0.23
   5  19   0    3.38    0.10
   5  19   0    3.31    0.11
   5 -19   0    3.33    0.12
   5  19   1    0.11    0.02
   5  19   1    0.08    0.03
   5  19   1    0.07    0.02
   5 -19   1    0.07    0.03
   5 -19   1    0.12    0.03
   5  19   2    4.24    0.12
   5  19   2    4.13    0.10
   5 -19   2    4.39    0.13
   5 -19   2    4.31    0.13
   5  19   3    1.91    0.09
   5  19   3    1.83    0.06
   5 -19   3    1.83    0.08
   5 -19   3    1.93    0.10
   5  19   4    0.01    0.02
   5  19   4    0.07    0.04
   5 -19   4    0.02    0.03
   5 -19   4    0.01    0.05
   5  19   5    0.22    0.02
   5 -19   5    0.14    0.05
   5  19   6   -0.01    0.02
   5 -19   6   -0.04    0.04
  -5  20   7    1.27    0.06
  -5 -20   7    1.37    0.07
  -5  20   6    7.77    0.21
  -5 -20   6    7.76    0.22
  -5  20   5    0.51    0.07
  -5 -20   5    0.52    0.07
  -5  20   4    1.15    0.10
  -5  20   4    1.35    0.09
   5  20  -4    1.16    0.08
  -5 -20   4    1.24    0.08
  -5  20   3    3.82    0.14
  -5  20   3    3.94    0.17
   5  20  -3    3.86    0.14
   5  20  -2    0.11    0.04
  -5  20   2    0.15    0.04
   5 -20  -2    0.16    0.05
   5  20  -1    0.04    0.03
   5  20  -1    0.05    0.03
   5 -20  -1   -0.02    0.04
   5  20   0    0.30    0.04
   5  20   0    0.31    0.04
   5 -20   0    0.39    0.05
   5  20   1    0.44    0.04
   5  20   1    0.52    0.05
   5 -20   1    0.56    0.06
   5 -20   1    0.57    0.06
   5  20   2    1.79    0.07
   5  20   2    1.84    0.06
   5 -20   2    1.73    0.08
   5 -20   2    1.75    0.08
   5  20   3    0.67    0.04
   5  20   3    0.68    0.07
   5 -20   3    0.72    0.08
   5 -20   3    0.76    0.06
   5  20   4    1.99    0.06
   5  20   4    2.15    0.10
   5 -20   4    2.02    0.08
   5 -20   4    2.10    0.12
   5  20   5    0.08    0.02
   5 -20   5    0.06    0.05
   5  20   6    0.37    0.03
   5 -20   6    0.29    0.05
  -5  21   7    0.66    0.05
  -5 -21   7    0.73    0.06
  -5  21   6    0.61    0.06
  -5 -21   6    0.66    0.07
  -5  21   5    3.76    0.13
  -5 -21   5    3.87    0.14
  -5  21   4    5.61    0.22
  -5  21   4    5.45    0.18
   5  21  -4    5.69    0.18
  -5 -21   4    5.77    0.18
   5  21  -3   12.63    0.33
  -5  21   3   12.65    0.41
  -5  21   3   12.50    0.33
   5  21  -2    1.64    0.09
  -5  21   2    1.69    0.09
   5 -21  -2    1.78    0.09
   5  21  -1    2.49    0.09
   5  21  -1    2.52    0.10
   5 -21  -1    2.43    0.11
   5  21   0    1.51    0.07
   5  21   0    1.57    0.08
   5 -21   0    1.57    0.08
   5  21   1    1.62    0.07
   5  21   1    1.69    0.07
   5 -21   1    1.53    0.08
   5 -21   1    1.71    0.08
   5  21   2    4.02    0.10
   5 -21   2    4.10    0.13
   5 -21   2    3.75    0.13
   5  21   3   13.70    0.28
   5 -21   3   14.08    0.35
   5 -21   3   14.09    0.38
   5  21   4   16.03    0.40
   5  21   4   15.45    0.32
   5 -21   4   16.18    0.43
   5 -21   4   16.29    0.39
   5  21   5    0.28    0.03
   5 -21   5    0.17    0.05
   5  21   6    0.21    0.02
   5 -21   6    0.22    0.05
  -5  22   7    0.04    0.02
  -5 -22   7    0.05    0.03
  -5  22   6    4.19    0.13
  -5 -22   6    4.20    0.14
  -5  22   5    1.68    0.09
  -5 -22   5    1.59    0.09
  -5  22   4   12.91    0.33
  -5  22   4   12.72    0.41
   5  22  -4   12.63    0.34
  -5 -22   4   12.58    0.34
   5  22  -3    4.58    0.16
  -5  22   3    4.58    0.16
  -5  22   3    4.95    0.19
  -5  22   2    0.96    0.08
   5  22  -2    0.96    0.08
  -5  22   2    1.00    0.09
   5 -22  -2    0.86    0.08
   5  22  -1   14.40    0.36
   5  22  -1   13.75    0.34
   5 -22  -1   14.93    0.37
   5  22   0    7.84    0.21
   5  22   0    7.86    0.20
   5 -22   0    7.67    0.22
   5  22   1    8.89    0.24
   5  22   1    9.29    0.23
   5 -22   1    9.15    0.25
   5  22   2    0.38    0.04
   5 -22   2    0.37    0.05
   5  22   3    0.00    0.02
   5 -22   3   -0.04    0.03
   5 -22   3    0.06    0.05
   5  22   4    0.99    0.05
   5 -22   4    1.09    0.09
   5 -22   4    0.99    0.06
   5  22   5    0.33    0.04
   5 -22   5    0.22    0.05
   5  22   6    0.26    0.03
   5 -22   6    0.25    0.05
  -5  23   6    0.33    0.04
  -5 -23   6    0.33    0.04
  -5  23   5    2.07    0.10
  -5 -23   5    2.09    0.10
  -5  23   4    0.00    0.04
   5  23  -4   -0.01    0.04
   5  23  -3    8.82    0.25
  -5  23   3    8.37    0.25
  -5  23   3    8.96    0.30
  -5  23   2    9.32    0.32
  -5  23   2    9.04    0.26
   5  23  -2    9.57    0.26
   5 -23  -2    9.29    0.26
   5  23  -1    3.29    0.11
   5  23  -1    3.34    0.12
   5 -23  -1    3.44    0.13
   5  23   0    0.34    0.04
   5  23   0    0.39    0.05
   5 -23   0    0.34    0.05
   5  23   1    0.11    0.03
   5 -23   1    0.08    0.04
   5  23   2    4.50    0.12
   5 -23   2    5.12    0.15
   5  23   3    0.49    0.04
   5 -23   3    0.54    0.08
   5 -23   3    0.57    0.06
   5  23   4    1.96    0.06
   5 -23   4    1.74    0.08
   5 -23   4    1.85    0.11
   5  23   5    2.64    0.07
   5 -23   5    2.60    0.12
   5  23   6   -0.02    0.02
   5 -23   6   -0.01    0.03
  -5  24   6   -0.01    0.03
  -5 -24   6   -0.02    0.03
  -5  24   5    0.58    0.07
  -5 -24   5    0.50    0.07
  -5  24   4    5.41    0.17
   5  24  -4    5.68    0.18
  -5  24   3    6.77    0.20
   5  24  -3    6.55    0.20
  -5  24   2   13.46    0.35
   5  24  -2   14.00    0.36
  -5  24   2   14.42    0.44
   5 -24  -2   13.13    0.36
   5  24  -1    2.58    0.10
   5 -24  -1    2.58    0.11
   5  24   0   11.58    0.30
   5 -24   0   11.86    0.31
   5  24   1    0.48    0.05
   5 -24   1    0.49    0.05
   5 -24   2    8.45    0.23
   5  24   3    7.24    0.16
   5 -24   3    7.15    0.23
   5 -24   3    7.75    0.21
   5  24   4   15.88    0.32
   5 -24   4   16.08    0.39
   5 -24   4   16.13    0.43
   5  24   5    1.09    0.05
   5 -24   5    1.22    0.09
   5  24   6    0.13    0.02
   5 -24   6    0.11    0.04
  -5  25   6    0.12    0.03
  -5 -25   6    0.10    0.03
  -5  25   5   -0.01    0.03
  -5 -25   5    0.06    0.04
   5  25  -4    6.83    0.21
  -5  25   4    7.00    0.20
  -5  25   3    3.14    0.12
   5  25  -3    3.10    0.13
   5  25  -2    0.11    0.04
  -5  25   2    0.05    0.04
   5 -25  -2    0.13    0.05
   5  25  -1    9.35    0.25
   5 -25  -1    9.12    0.26
   5  25   0    1.93    0.09
   5 -25   0    2.00    0.10
   5  25   1    0.28    0.04
   5 -25   1    0.27    0.05
   5  25   2    0.67    0.05
   5 -25   2    0.57    0.07
   5  25   3    0.81    0.05
   5 -25   3    0.77    0.09
   5 -25   3    0.63    0.07
   5  25   4    0.67    0.04
   5 -25   4    0.62    0.08
   5 -25   4    0.61    0.06
   5  25   5    1.02    0.04
   5 -25   5    1.22    0.08
   5 -25   6    1.12    0.06
  -5  26   6   -0.03    0.03
  -5 -26   6    0.03    0.03
  -5  26   5    5.40    0.16
  -5 -26   5    5.19    0.16
  -5  26   4    1.05    0.08
   5  26  -4    1.09    0.08
  -5  26   3    0.04    0.04
   5  26  -3    0.08    0.04
   5  26  -2    1.01    0.08
  -5  26   2    1.05    0.08
   5 -26  -2    1.05    0.09
   5  26  -1    1.15    0.08
   5 -26  -1    1.11    0.09
   5  26   0    0.31    0.05
   5 -26   0    0.28    0.05
   5  26   1    0.00    0.03
   5 -26   1    0.01    0.04
   5  26   2    8.10    0.21
   5 -26   2    8.05    0.23
   5 -26   3   -0.02    0.04
   5 -26   3    0.03    0.04
   5  26   4    0.14    0.03
   5 -26   4    0.11    0.03
   5 -26   4    0.08    0.05
   5  26   5    3.70    0.09
   5 -26   5    4.06    0.14
  -5  27   6    0.27    0.03
  -5 -27   6    0.24    0.04
  -5  27   5    0.40    0.05
  -5 -27   5    0.39    0.05
  -5  27   4    0.23    0.04
   5  27  -4    0.33    0.05
   5  27  -3    0.00    0.04
  -5  27   3    0.05    0.04
  -5  27   2   15.40    0.39
   5  27  -2   15.60    0.39
   5 -27  -2   14.68    0.39
   5  27  -1    2.33    0.10
   5 -27  -1    2.38    0.11
   5  27   0    7.50    0.21
   5 -27   0    7.45    0.22
   5  27   1    7.28    0.20
   5 -27   1    7.12    0.21
   5  27   2    0.35    0.05
   5 -27   2    0.24    0.05
   5 -27   3   -0.02    0.04
   5 -27   3    0.00    0.03
   5 -27   4    7.04    0.19
   5 -27   4    7.12    0.22
   5  27   5    0.21    0.02
   5 -27   5    0.27    0.05
  -5  28   5    0.05    0.03
  -5 -28   5   -0.01    0.03
   5  28  -4    0.06    0.04
  -5  28   4    0.04    0.04
   5  28  -3    1.39    0.09
  -5  28   3    1.22    0.08
   5  28  -2    4.68    0.16
  -5  28   2    4.64    0.16
   5 -28  -2    4.48    0.16
   5  28  -1    2.43    0.11
   5 -28  -1    2.34    0.11
   5  28   0    0.03    0.03
   5 -28   0   -0.02    0.04
   5  28   1    6.58    0.18
   5 -28   1    6.21    0.19
   5  28   2    0.06    0.03
   5 -28   2    0.04    0.04
   5 -28   3    3.29    0.12
   5 -28   3    3.44    0.14
   5 -28   4    1.95    0.10
   5 -28   4    1.80    0.08
   5 -28   5    5.88    0.17
  -5  29   5   -0.01    0.03
  -5 -29   5    0.03    0.03
   5  29  -4    0.14    0.04
  -5  29   4    0.15    0.04
  -5  29   3    0.09    0.04
   5  29  -3    0.14    0.04
   5  29  -2    0.00    0.04
  -5  29   2    0.07    0.04
   5 -29  -2    0.01    0.04
   5  29  -1    0.01    0.04
   5 -29  -1    0.01    0.04
   5  29   0    5.81    0.17
   5 -29   0    5.68    0.18
   5  29   1   19.21    0.46
   5 -29   1   18.62    0.47
   5  29   2    0.87    0.05
   5 -29   2    0.76    0.07
   5 -29   2    0.78    0.08
   5 -29   3    2.24    0.11
   5 -29   3    2.09    0.09
   5 -29   4    4.74    0.14
   5 -29   4    5.01    0.16
   5 -29   5    0.30    0.04
  -5  30   5    1.22    0.06
   5  30  -4    0.91    0.07
  -5  30   4    0.87    0.06
  -5  30   3    3.69    0.13
   5  30  -3    3.72    0.13
  -5  30   2    5.09    0.16
   5  30  -2    4.91    0.16
   5 -30  -2    5.03    0.17
   5  30  -1    1.94    0.10
   5 -30  -1    2.29    0.11
   5  30   0    0.73    0.06
   5 -30   0    0.77    0.08
   5  30   1    0.10    0.03
   5 -30   1    0.07    0.04
   5 -30   2    0.05    0.04
   5 -30   2    0.07    0.04
   5 -30   3    0.04    0.04
   5 -30   3    0.06    0.03
   5 -30   4    8.02    0.20
   5 -30   4    7.67    0.22
  -5  31   5    0.14    0.03
   5  31  -4    0.18    0.04
  -5  31   4    0.14    0.04
   5  31  -3    3.22    0.12
  -5  31   3    2.96    0.11
  -5  31   2    1.38    0.08
   5  31  -2    1.34    0.08
   5  31  -1    7.46    0.21
   5 -31  -1    7.72    0.22
   5  31   0    1.44    0.08
   5 -31   0    1.53    0.09
   5  31   1    0.20    0.04
   5 -31   1    0.23    0.05
   5 -31   2    2.76    0.11
   5 -31   2    2.52    0.11
   5 -31   3    3.91    0.14
   5 -31   3    3.74    0.12
   5 -31   4    1.69    0.07
   5 -31   4    1.90    0.08
  -5  32   4    0.06    0.03
   5  32  -4   -0.03    0.03
   5  32  -3    0.05    0.04
  -5  32   3    0.14    0.04
  -5  32   2    1.38    0.08
   5  32  -2    1.22    0.08
   5  32  -1    0.64    0.07
   5 -32  -1    0.67    0.07
   5  32   0    0.50    0.06
   5 -32   0    0.53    0.07
   5  32   1    0.46    0.05
   5 -32   1    0.66    0.07
   5 -32   2    4.77    0.16
   5 -32   2    4.58    0.15
   5 -32   3    7.21    0.19
   5 -32   3    7.12    0.21
   5 -32   4    0.47    0.05
   5 -32   4    0.49    0.04
  -5  33   4    0.06    0.03
   5  33  -4    0.05    0.03
  -5  33   3    0.62    0.06
   5  33  -3    0.60    0.06
  -5  33   2    2.74    0.11
   5  33  -2    2.73    0.11
   5  33  -1    3.67    0.13
   5 -33  -1    3.94    0.13
   5  33   0    0.26    0.04
   5 -33   0    0.33    0.05
   5  33   1    0.22    0.03
   5 -33   1    0.22    0.05
   5 -33   2    1.72    0.08
   5 -33   2    1.90    0.09
   5 -33   3   -0.01    0.03
   5 -33   3    0.02    0.04
  -5  34   4    5.59    0.15
   5  34  -3    0.46    0.05
  -5  34   3    0.42    0.05
   5  34  -2   13.59    0.34
  -5  34   2   13.47    0.34
   5  34  -1   -0.01    0.03
   5 -34  -1    0.06    0.04
   5  34   0    1.17    0.07
   5 -34   0    1.07    0.08
   5  34   1    0.96    0.06
   5 -34   1    0.96    0.07
   5 -34   1    1.02    0.07
   5 -34   2    0.09    0.04
   5 -34   2    0.08    0.03
   5 -34   3    0.09    0.03
   5 -34   3    0.10    0.03
   5  35  -3    3.13    0.11
  -5  35   3    3.15    0.10
   5  35  -2    0.23    0.04
  -5  35   2    0.31    0.04
   5  35  -1    0.37    0.04
   5 -35  -1    0.41    0.05
   5  35   0    0.04    0.03
   5 -35   0   -0.06    0.03
   5  35   1    0.25    0.03
   5 -35   1    0.11    0.04
   5 -35   1    0.24    0.04
   5 -35   2    0.16    0.04
   5 -35   2    0.15    0.04
   5 -35   3    0.62    0.05
   5  36  -3    0.28    0.04
   5  36  -2    9.87    0.25
  -5  36   2    9.78    0.25
   5  36  -1    2.41    0.09
   5 -36  -1    2.47    0.10
   5  36   0    0.24    0.04
   5 -36   0    0.24    0.04
   5  36   1    0.37    0.04
   5 -36   1    0.35    0.04
   5 -36   1    0.51    0.05
   5 -36   2    0.11    0.03
   5 -36   2    0.17    0.04
   5  37  -2    2.67    0.09
   5  37  -1    0.39    0.05
   5 -37  -1    0.28    0.04
   5  37   0    0.03    0.03
   5 -37   0    0.04    0.03
   5 -37   1    0.31    0.04
   5  38  -1    0.70    0.05
   5  38   0   -0.01    0.02
  -6   0   8    2.96    0.10
  -6   0   7    0.02    0.03
  -6   0   6    4.48    0.15
  -6   0   6    4.05    0.15
  -6   0   5   -0.01    0.03
  -6   0   5    0.01    0.04
  -6   0   4    0.86    0.07
   6   0  -4    0.83    0.07
  -6   0   4    0.85    0.08
  -6   0   3    0.03    0.04
  -6   0   2    0.60    0.06
   6   0  -2    0.52    0.05
   6   0  -1    0.00    0.02
   6   0   0    2.48    0.08
   6   0   1    0.03    0.02
   6   0   2    0.08    0.02
   6   0   3    0.03    0.04
   6   0   3    0.02    0.04
   6   0   4    1.49    0.09
   6   0   4    1.42    0.09
   6   0   5    0.00    0.04
   6   0   6    2.85    0.07
   6   0   7    0.00    0.01
  -6   1   8    0.57    0.05
  -6  -1   8    0.53    0.05
  -6   1   7    0.06    0.04
  -6  -1   7    0.09    0.04
  -6   1   6    0.01    0.04
  -6   1   6    0.08    0.04
  -6  -1   6    0.05    0.05
  -6  -1   6    0.07    0.04
  -6   1   5    0.88    0.07
  -6   1   5    0.78    0.08
  -6  -1   5    0.96    0.07
   6   1  -4    1.09    0.07
  -6   1   4    0.99    0.07
  -6   1   4    0.94    0.08
  -6  -1   4    0.96    0.07
   6  -1  -4    0.99    0.07
  -6  -1   4    0.95    0.08
  -6   1   3   21.57    0.64
  -6  -1   3   21.75    0.64
   6   1  -2   14.43    0.34
   6  -1  -2   14.18    0.33
  -6  -1   2   14.70    0.44
   6   1  -1    3.80    0.11
   6  -1  -1    3.95    0.11
   6   1   0    6.54    0.16
   6  -1   0    6.46    0.16
   6   1   1    3.49    0.09
   6  -1   1    3.62    0.09
   6   1   2    3.32    0.08
   6  -1   2    3.22    0.08
   6   1   3    1.17    0.07
   6   1   3    1.14    0.08
   6  -1   3    1.18    0.08
   6  -1   3    1.06    0.07
   6   1   4    4.55    0.15
   6   1   4    4.51    0.15
   6  -1   4    4.45    0.15
   6  -1   4    4.51    0.15
   6   1   5    2.15    0.11
   6  -1   5    2.03    0.10
   6   1   6    3.36    0.07
   6  -1   6    3.44    0.08
   6   1   7    0.07    0.01
   6  -1   7    0.06    0.01
  -6   2   8    0.07    0.03
  -6  -2   8    0.06    0.03
  -6   2   7    1.93    0.09
  -6  -2   7    1.86    0.09
  -6   2   6    6.85    0.20
  -6   2   6    6.87    0.21
  -6  -2   6    6.77    0.21
  -6  -2   6    6.76    0.20
  -6   2   5    5.40    0.18
  -6   2   5    5.40    0.17
  -6  -2   5    5.50    0.17
   6   2  -4    0.27    0.04
  -6   2   4    0.38    0.06
  -6   2   4    0.27    0.04
  -6   2   4    0.34    0.04
   6  -2  -4    0.28    0.04
  -6  -2   4    0.31    0.04
  -6   2   3    0.46    0.07
  -6  -2   3    0.43    0.06
   6   2  -2    0.03    0.02
  -6  -2   2    0.06    0.03
   6  -2  -2    0.01    0.02
   6   2  -1   18.08    0.41
   6  -2  -1   18.51    0.41
   6   2   0    4.32    0.11
   6  -2   0    4.42    0.12
   6   2   1    4.08    0.11
   6  -2   1    4.24    0.11
   6   2   2    2.67    0.07
   6  -2   2    2.83    0.07
   6   2   3    1.23    0.08
   6   2   3    1.45    0.08
   6  -2   3    1.43    0.08
   6  -2   3    1.35    0.04
   6  -2   3    1.49    0.08
   6   2   4    0.25    0.05
   6   2   4    0.23    0.05
   6  -2   4    0.19    0.05
   6  -2   4    0.22    0.05
   6   2   5    0.67    0.08
   6  -2   5    0.77    0.03
   6  -2   5    0.59    0.07
   6  -2   6    0.02    0.02
   6   2   7    0.08    0.01
   6  -2   7    0.07    0.02
  -6   3   8    0.63    0.05
  -6  -3   8    0.64    0.05
  -6   3   7    0.47    0.06
  -6  -3   7    0.49    0.06
  -6   3   6    1.66    0.09
  -6   3   6    1.72    0.10
  -6  -3   6    1.66    0.09
  -6   3   5    1.37    0.08
  -6   3   5    1.65    0.09
  -6  -3   5    1.37    0.08
  -6   3   4    0.50    0.06
  -6   3   4    0.35    0.06
   6   3  -4    0.57    0.06
  -6  -3   4    0.52    0.06
   6  -3  -4    0.53    0.06
  -6   3   3    0.03    0.04
   6   3  -3    0.07    0.03
  -6  -3   3    0.01    0.03
   6   3  -2    3.92    0.11
   6  -3  -2    3.98    0.12
  -6  -3   2    3.89    0.14
   6   3  -1    0.07    0.02
   6  -3  -1    0.07    0.02
   6   3   0    4.57    0.12
   6  -3   0    4.61    0.12
   6   3   1   46.03    0.98
   6  -3   1   44.97    0.98
   6   3   2   12.16    0.27
   6  -3   2   12.35    0.24
   6  -3   2   12.38    0.28
   6   3   3    0.48    0.05
   6   3   3    0.48    0.06
   6  -3   3    0.45    0.06
   6  -3   3    0.48    0.06
   6  -3   3    0.40    0.03
   6   3   4    3.00    0.12
   6   3   4    3.08    0.12
   6  -3   4    3.20    0.12
   6  -3   4    2.94    0.12
   6   3   5    0.34    0.05
   6  -3   5    0.32    0.05
   6  -3   5    0.38    0.02
   6  -3   6    0.14    0.02
   6   3   7    0.64    0.02
   6  -3   7    0.70    0.03
  -6   4   8    0.34    0.04
  -6  -4   8    0.45    0.05
  -6   4   7    0.00    0.03
  -6  -4   7    0.03    0.03
  -6   4   6    0.07    0.04
  -6  -4   6    0.12    0.04
  -6   4   5   21.96    0.52
  -6   4   5   20.75    0.55
  -6  -4   5   21.26    0.52
  -6   4   4    7.91    0.22
  -6   4   4    7.60    0.27
   6   4  -4    7.85    0.22
  -6  -4   4    7.81    0.22
   6  -4  -4    7.83    0.22
  -6   4   3    0.94    0.08
   6   4  -3    1.28    0.07
  -6  -4   3    0.98    0.07
   6  -4  -3    1.15    0.07
   6   4  -2    1.47    0.06
   6  -4  -2    1.40    0.06
  -6  -4   2    1.47    0.08
   6   4  -1   23.61    0.52
   6  -4  -1   23.07    0.52
   6   4   0    5.95    0.15
   6  -4   0    5.76    0.15
   6   4   1    1.12    0.04
   6  -4   1    1.10    0.05
   6   4   2    1.62    0.05
   6  -4   2    1.73    0.06
   6  -4   2    1.74    0.04
   6   4   3    1.89    0.09
   6   4   3    1.97    0.09
   6  -4   3    1.68    0.09
   6  -4   3    1.85    0.06
   6  -4   3    1.84    0.04
   6  -4   3    1.69    0.09
   6   4   4    0.18    0.05
   6  -4   4    0.15    0.04
   6  -4   4    0.16    0.04
   6  -4   4    0.20    0.02
   6   4   5    1.65    0.10
   6  -4   5    1.74    0.05
   6  -4   6    0.21    0.02
  -6   5   8    0.08    0.03
  -6  -5   8    0.11    0.03
  -6   5   7    0.73    0.06
  -6  -5   7    0.67    0.06
  -6   5   6    1.02    0.08
  -6  -5   6    1.02    0.07
  -6   5   5    0.20    0.04
  -6  -5   5    0.21    0.04
   6   5  -4    6.36    0.19
  -6   5   4    6.32    0.23
  -6   5   4    6.46    0.19
   6  -5  -4    6.17    0.19
   6   5  -3   58.44    1.30
  -6   5   3   56.77    1.63
   6  -5  -3   56.13    1.30
   6   5  -2    0.49    0.04
   6  -5  -2    0.55    0.05
   6   5  -1   15.85    0.36
   6  -5  -1   16.03    0.36
   6   5   0    0.04    0.02
   6  -5   0    0.00    0.02
   6   5   1    5.45    0.13
   6  -5   1    5.53    0.14
   6   5   2    2.56    0.07
   6  -5   2    2.61    0.08
   6  -5   2    2.71    0.06
   6   5   3    1.67    0.08
   6   5   3    1.69    0.09
   6  -5   3    1.46    0.08
   6  -5   3    1.63    0.08
   6  -5   3    1.68    0.05
   6  -5   3    1.66    0.04
   6   5   4    0.12    0.05
   6  -5   4    0.15    0.02
   6  -5   4    0.17    0.04
   6   5   5    0.62    0.08
   6  -5   5    0.63    0.03
   6  -5   6    0.08    0.02
   6  -5   7    0.33    0.03
  -6   6   8    0.28    0.03
  -6  -6   8    0.38    0.04
  -6   6   7    0.22    0.04
  -6  -6   7    0.20    0.04
  -6   6   6    2.50    0.11
  -6  -6   6    2.68    0.11
  -6   6   5    1.64    0.09
  -6  -6   5    1.56    0.09
  -6   6   4   15.60    0.48
  -6   6   4   15.01    0.38
   6   6  -4   15.37    0.38
   6  -6  -4   14.64    0.38
  -6  -6   4   14.91    0.38
  -6   6   3    8.81    0.30
   6   6  -3    9.10    0.24
   6  -6  -3    8.97    0.24
   6   6  -2    3.29    0.10
   6  -6  -2    3.31    0.10
   6   6  -1    6.36    0.16
   6  -6  -1    5.87    0.16
   6   6   0    4.88    0.12
   6  -6   0    4.39    0.12
   6   6   1    3.89    0.10
   6  -6   1    3.94    0.11
   6   6   2    0.74    0.03
   6  -6   2    0.73    0.03
   6  -6   2    0.75    0.04
   6   6   3   17.69    0.43
   6   6   3   16.94    0.43
   6  -6   3   17.51    0.34
   6  -6   3   17.43    0.38
   6  -6   3   17.32    0.43
   6   6   4    1.09    0.08
   6  -6   4    1.08    0.08
   6  -6   4    1.12    0.04
   6   6   5    0.01    0.04
   6  -6   5    0.00    0.04
   6  -6   5    0.03    0.02
   6  -6   6    0.03    0.02
   6  -6   7    0.52    0.03
  -6   7   8    0.03    0.02
  -6  -7   8    0.02    0.03
  -6   7   7    0.01    0.03
  -6  -7   7    0.03    0.03
  -6   7   6    2.08    0.10
  -6  -7   6    2.02    0.10
  -6   7   5    2.72    0.11
  -6  -7   5    2.74    0.11
   6   7  -4    7.15    0.20
  -6   7   4    6.72    0.25
  -6   7   4    7.05    0.20
   6  -7  -4    7.09    0.20
  -6  -7   4    7.02    0.20
   6   7  -3   10.79    0.28
  -6   7   3   11.49    0.36
   6  -7  -3   10.56    0.28
   6   7  -2    9.12    0.22
   6  -7  -2    8.81    0.22
   6   7  -1   23.32    0.51
   6  -7  -1   22.19    0.51
   6   7   0    0.86    0.04
   6  -7   0    0.91    0.05
   6   7   1   30.88    0.67
   6  -7   1   31.20    0.68
   6   7   2   58.89    1.27
   6  -7   2   58.17    1.28
   6  -7   2   61.38    1.14
   6   7   3    0.05    0.04
   6   7   3   -0.07    0.03
   6  -7   3    0.01    0.01
   6  -7   3    0.00    0.04
   6  -7   3    0.02    0.03
   6  -7   3    0.01    0.02
   6   7   4    3.00    0.12
   6  -7   4    3.03    0.12
   6  -7   4    3.19    0.08
   6  -7   4    3.06    0.12
   6  -7   4    3.28    0.08
   6   7   5    1.09    0.09
   6  -7   5    0.91    0.08
   6  -7   5    1.10    0.04
   6  -7   5    0.96    0.08
   6  -7   6    0.28    0.05
   6  -7   6    0.36    0.03
   6  -7   7    1.00    0.04
  -6   8   8    5.83    0.16
  -6  -8   8    6.04    0.16
  -6   8   7    2.72    0.10
  -6  -8   7    2.55    0.10
  -6   8   6    0.22    0.04
  -6  -8   6    0.15    0.04
  -6   8   5    0.62    0.07
  -6  -8   5    0.56    0.07
  -6   8   4   14.34    0.36
  -6   8   4   14.86    0.46
   6   8  -4   14.49    0.37
   6  -8  -4   14.03    0.36
  -6  -8   4   14.15    0.36
  -6   8   3   33.62    0.97
  -6   8   3   32.46    0.78
   6  -8  -3   33.21    0.77
   6   8  -2   10.78    0.26
   6   8  -1   13.56    0.32
   6  -8  -1   14.03    0.32
   6   8   0    8.04    0.19
   6  -8   0    7.70    0.19
   6   8   1    4.77    0.12
   6  -8   1    4.81    0.13
   6   8   2    0.02    0.01
   6   8   2    0.07    0.03
   6  -8   2    0.02    0.02
   6  -8   2    0.03    0.02
   6  -8   2    0.08    0.04
   6   8   3    0.76    0.07
   6  -8   3    0.75    0.07
   6  -8   3    0.75    0.07
   6  -8   3    0.82    0.04
   6  -8   3    0.80    0.03
   6   8   4    0.21    0.05
   6  -8   4    0.31    0.05
   6  -8   4    0.30    0.03
   6  -8   4    0.32    0.05
   6   8   5    0.29    0.06
   6  -8   5    0.23    0.05
   6  -8   5    0.25    0.05
   6  -8   5    0.22    0.02
   6  -8   6    2.46    0.07
   6  -8   6    2.24    0.10
   6  -8   7    5.34    0.12
  -6   9   8    0.59    0.04
  -6  -9   8    0.55    0.05
  -6   9   7    2.54    0.10
  -6  -9   7    2.43    0.10
  -6   9   6    0.02    0.04
  -6  -9   6   -0.01    0.04
  -6   9   5    9.45    0.26
  -6  -9   5    9.42    0.26
  -6   9   4    0.01    0.03
   6   9  -4    0.03    0.04
  -6   9   4    0.00    0.05
   6  -9  -4   -0.01    0.04
  -6  -9   4    0.02    0.03
  -6   9   3    5.00    0.16
  -6   9   3    5.31    0.21
   6   9  -3    5.61    0.16
   6  -9  -3    5.65    0.16
   6   9  -2   32.16    0.75
   6   9  -2   35.53    0.79
   6   9  -1    8.74    0.21
   6  -9  -1    9.01    0.22
   6   9   0    0.08    0.02
   6  -9   0    0.05    0.02
   6   9   1    2.55    0.06
   6   9   1    2.59    0.07
   6  -9   1    2.65    0.08
   6   9   2    0.47    0.06
   6   9   2    0.46    0.05
   6   9   2    0.37    0.03
   6  -9   2    0.53    0.03
   6  -9   2    0.44    0.04
   6  -9   2    0.43    0.06
   6   9   3   11.99    0.31
   6  -9   3   11.67    0.24
   6  -9   3   11.66    0.32
   6  -9   3   12.04    0.27
   6  -9   3   11.66    0.31
   6   9   4    4.26    0.15
   6  -9   4    4.13    0.15
   6  -9   4    3.99    0.14
   6  -9   4    4.23    0.10
   6   9   5    8.95    0.25
   6  -9   5    8.75    0.19
   6  -9   5    8.29    0.24
   6  -9   5    9.11    0.26
   6  -9   6    3.21    0.13
   6  -9   6    3.49    0.08
   6  -9   7    0.07    0.02
  -6  10   8    0.81    0.05
  -6 -10   8    0.86    0.05
  -6  10   7    1.73    0.08
  -6 -10   7    1.73    0.08
  -6  10   6    0.85    0.07
  -6 -10   6    0.94    0.07
  -6  10   5    0.83    0.09
  -6  10   5    0.68    0.07
  -6 -10   5    0.76    0.07
   6  10  -4    0.70    0.07
  -6  10   4    0.70    0.07
  -6  10   4    0.57    0.09
  -6 -10   4    0.58    0.06
  -6  10   3    1.39    0.08
  -6  10   3    1.50    0.10
   6  10  -3    1.40    0.08
   6  10  -2    0.07    0.03
   6  10  -2    0.02    0.02
   6 -10  -2    0.00    0.03
   6  10  -1    9.31    0.23
   6 -10  -1    9.31    0.23
   6  10   0    5.59    0.14
   6 -10   0    5.83    0.15
   6  10   1    3.09    0.07
   6  10   1    2.99    0.09
   6 -10   1    3.03    0.09
   6  10   2    2.93    0.08
   6  10   2    2.94    0.11
   6  10   2    2.92    0.06
   6  10   2    2.94    0.11
   6 -10   2    3.02    0.08
   6 -10   2    3.09    0.09
   6 -10   2    2.81    0.09
   6 -10   2    2.93    0.11
   6  10   3   10.53    0.28
   6 -10   3   10.68    0.25
   6 -10   3   10.10    0.28
   6 -10   3   10.48    0.29
   6 -10   3   10.45    0.21
   6  10   4   -0.01    0.04
   6 -10   4    0.02    0.02
   6 -10   4    0.02    0.04
   6 -10   4    0.03    0.04
   6  10   5    2.20    0.12
   6 -10   5    2.20    0.10
   6 -10   5    2.43    0.07
   6 -10   5    2.46    0.11
   6 -10   6    0.07    0.04
   6 -10   6    0.09    0.02
   6 -10   7    1.20    0.04
   6 -10   7    1.17    0.06
  -6  11   7    0.61    0.06
  -6 -11   7    0.64    0.06
  -6  11   6    0.16    0.04
  -6 -11   6    0.22    0.04
  -6  11   5    1.87    0.09
   6  11  -5    1.69    0.10
  -6 -11   5    1.69    0.09
  -6  11   4    0.74    0.09
   6  11  -4    0.59    0.07
  -6  11   4    0.71    0.07
  -6 -11   4    0.58    0.07
  -6  11   3    6.09    0.22
   6  11  -3    5.85    0.18
  -6  11   3    6.02    0.18
   6 -11  -3    6.11    0.18
   6  11  -2    0.30    0.04
   6  11  -2    0.26    0.04
   6 -11  -2    0.24    0.04
   6  11  -1    0.08    0.02
   6 -11  -1    0.05    0.03
   6  11   0    3.52    0.10
   6 -11   0    3.33    0.10
   6  11   1    0.24    0.03
   6  11   1    0.20    0.02
   6 -11   1    0.22    0.03
   6 -11   1    0.25    0.03
   6  11   2    0.04    0.01
   6  11   2    0.00    0.03
   6  11   2    0.03    0.02
   6 -11   2    0.04    0.02
   6 -11   2    0.02    0.02
   6 -11   2    0.02    0.04
   6 -11   2    0.04    0.02
   6  11   3   13.05    0.34
   6 -11   3   13.28    0.34
   6 -11   3   12.92    0.35
   6 -11   3   12.84    0.30
   6 -11   3   12.95    0.26
   6  11   4    0.73    0.08
   6 -11   4    0.67    0.04
   6 -11   4    0.65    0.07
   6 -11   4    0.63    0.08
   6  11   5    9.41    0.26
   6 -11   5    9.13    0.27
   6 -11   5    9.31    0.20
   6 -11   6    0.28    0.03
   6 -11   6    0.24    0.04
   6 -11   7    1.32    0.07
   6 -11   7    1.27    0.04
  -6  12   7    0.48    0.05
  -6 -12   7    0.46    0.06
  -6  12   6    0.09    0.04
  -6 -12   6    0.04    0.04
  -6  12   5    1.12    0.08
  -6  12   5    1.03    0.10
   6  12  -5    0.97    0.08
  -6 -12   5    1.03    0.08
   6  12  -4    3.42    0.12
  -6  12   4    2.93    0.15
  -6  12   4    3.21    0.12
  -6  12   3    5.28    0.17
  -6  12   3    5.60    0.21
   6  12  -3    5.57    0.17
   6 -12  -3    5.29    0.17
   6  12  -2    0.49    0.05
   6  12  -2    0.50    0.06
   6 -12  -2    0.55    0.06
   6  12  -1   32.94    0.72
   6  12  -1   32.37    0.75
   6 -12  -1   30.85    0.72
   6 -12  -1   34.28    0.76
   6  12   0    2.58    0.08
   6 -12   0    2.47    0.09
   6 -12   0    2.75    0.09
   6  12   1   28.33    0.54
   6  12   1   28.11    0.61
   6 -12   1   27.28    0.65
   6 -12   1   28.00    0.62
   6  12   2    1.83    0.05
   6  12   2    1.82    0.06
   6  12   2    1.74    0.09
   6 -12   2    1.91    0.07
   6 -12   2    1.83    0.06
   6 -12   2    1.82    0.09
   6 -12   2    1.80    0.07
   6  12   3   44.45    1.03
   6 -12   3   43.74    1.03
   6 -12   3   44.38    0.86
   6 -12   3   45.44    0.97
   6 -12   3   44.59    1.09
   6  12   4    2.40    0.11
   6 -12   4    2.28    0.07
   6 -12   4    2.34    0.11
   6 -12   4    2.43    0.11
   6  12   5    0.26    0.05
   6 -12   5    0.32    0.04
   6 -12   5    0.39    0.06
   6 -12   6    0.65    0.07
   6 -12   6    0.72    0.04
   6 -12   7    0.24    0.03
  -6  13   7    3.62    0.12
  -6 -13   7    3.50    0.12
  -6  13   6    2.86    0.11
  -6 -13   6    2.82    0.11
  -6  13   5    1.41    0.08
   6  13  -5    1.31    0.09
  -6  13   5    1.46    0.11
  -6 -13   5    1.37    0.09
   6  13  -4   17.85    0.45
  -6  13   4   18.01    0.45
  -6  13   4   18.35    0.56
  -6  13   3    1.09    0.10
  -6  13   3    1.24    0.08
   6  13  -3    1.20    0.08
   6 -13  -3    1.29    0.08
   6  13  -2    0.63    0.05
   6  13  -2    0.78    0.06
   6 -13  -2    0.58    0.06
   6  13  -1    0.13    0.03
   6  13  -1    0.16    0.03
   6 -13  -1    0.14    0.03
   6 -13  -1    0.17    0.03
   6  13   0    9.63    0.24
   6  13   0    9.64    0.23
   6 -13   0    9.56    0.24
   6 -13   0    9.73    0.25
   6  13   1   28.32    0.61
   6  13   1   28.62    0.54
   6  13   1   27.43    0.65
   6 -13   1   27.85    0.62
   6 -13   1   27.16    0.65
   6  13   2    2.18    0.10
   6  13   2    2.32    0.07
   6  13   2    2.21    0.06
   6 -13   2    2.24    0.10
   6 -13   2    2.32    0.08
   6 -13   2    2.19    0.08
   6 -13   2    2.13    0.07
   6  13   3    1.23    0.04
   6  13   3    1.24    0.08
   6 -13   3    1.35    0.08
   6 -13   3    1.23    0.05
   6 -13   3    1.25    0.08
   6 -13   3    1.32    0.06
   6  13   4   13.62    0.34
   6 -13   4   13.71    0.36
   6 -13   4   12.58    0.27
   6 -13   4   12.36    0.34
   6  13   5   10.62    0.30
   6  13   5   10.71    0.21
   6 -13   5   11.13    0.23
   6 -13   5   11.05    0.31
   6  13   6    5.21    0.11
   6 -13   6    5.09    0.12
   6 -13   6    5.13    0.17
  -6  14   7    0.44    0.05
  -6 -14   7    0.30    0.04
  -6  14   6    0.58    0.07
  -6 -14   6    0.61    0.07
  -6  14   5    7.31    0.21
   6  14  -5    7.25    0.22
  -6  14   5    7.30    0.27
  -6 -14   5    7.53    0.22
  -6  14   4    0.24    0.06
  -6  14   4    0.12    0.04
   6  14  -4    0.14    0.04
   6  14  -3    2.71    0.11
  -6  14   3    2.79    0.14
  -6  14   3    2.85    0.11
   6 -14  -3    2.59    0.11
   6  14  -2   11.50    0.29
   6  14  -2   11.12    0.28
   6 -14  -2   11.06    0.29
   6  14  -1   22.05    0.49
   6  14  -1   21.53    0.52
   6 -14  -1   21.52    0.50
   6 -14  -1   21.92    0.52
   6  14   0    0.15    0.03
   6  14   0    0.16    0.03
   6 -14   0    0.14    0.03
   6 -14   0    0.14    0.03
   6  14   1    0.80    0.04
   6  14   1    0.78    0.06
   6  14   1    0.84    0.04
   6 -14   1    0.81    0.05
   6 -14   1    0.88    0.06
   6  14   2    0.14    0.02
   6  14   2    0.20    0.04
   6  14   2    0.18    0.02
   6 -14   2    0.18    0.03
   6 -14   2    0.19    0.04
   6 -14   2    0.18    0.03
   6  14   3    5.23    0.11
   6 -14   3    5.34    0.12
   6 -14   3    5.16    0.15
   6 -14   3    5.42    0.17
   6 -14   3    5.38    0.18
   6  14   4    6.41    0.13
   6  14   4    6.32    0.19
   6 -14   4    6.52    0.20
   6 -14   4    5.81    0.19
   6 -14   4    5.96    0.14
   6  14   5    5.60    0.18
   6  14   5    5.43    0.11
   6 -14   5    5.49    0.13
   6 -14   5    5.27    0.18
   6  14   6    1.22    0.04
   6 -14   6    1.22    0.05
   6 -14   6    1.24    0.08
  -6  15   7    0.20    0.03
  -6 -15   7    0.20    0.04
  -6  15   6    3.96    0.14
  -6 -15   6    4.01    0.14
  -6  15   5    2.21    0.10
   6  15  -5    1.98    0.10
  -6 -15   5    2.25    0.11
  -6  15   4   19.31    0.48
   6  15  -4   18.77    0.48
  -6  15   4   20.43    0.61
  -6  15   3   16.14    0.52
  -6  15   3   16.61    0.41
   6  15  -3   16.57    0.41
   6 -15  -3   16.65    0.41
   6  15  -2    2.50    0.10
   6  15  -2    2.34    0.09
   6 -15  -2    2.31    0.10
   6  15  -1    5.22    0.15
   6  15  -1    5.12    0.15
   6 -15  -1    5.28    0.16
   6  15   0    0.24    0.03
   6  15   0    0.15    0.03
   6 -15   0    0.19    0.03
   6 -15   0    0.16    0.03
   6  15   1    0.35    0.03
   6  15   1    0.34    0.04
   6  15   1    0.34    0.04
   6 -15   1    0.49    0.05
   6 -15   1    0.36    0.05
   6  15   2   10.22    0.27
   6  15   2    9.99    0.23
   6  15   2   10.16    0.21
   6 -15   2    9.87    0.26
   6 -15   2   10.24    0.25
   6 -15   2   10.06    0.27
   6  15   3   34.80    0.65
   6  15   3   33.03    0.80
   6 -15   3   33.97    0.84
   6 -15   3   33.08    0.78
   6 -15   3   34.37    0.80
   6  15   4    1.00    0.08
   6  15   4    1.02    0.04
   6 -15   4    0.97    0.05
   6 -15   4    0.95    0.09
   6  15   5    1.01    0.08
   6  15   5    1.11    0.04
   6 -15   5    1.10    0.05
   6 -15   5    1.15    0.09
   6  15   6    2.12    0.05
   6 -15   6    2.04    0.06
   6 -15   6    2.11    0.10
  -6  16   7    0.25    0.04
  -6 -16   7    0.22    0.04
  -6  16   6    0.35    0.05
  -6 -16   6    0.28    0.05
  -6  16   5    3.62    0.13
   6  16  -5    3.64    0.14
  -6 -16   5    3.93    0.14
   6  16  -4    2.93    0.12
  -6  16   4    2.95    0.15
  -6  16   4    2.87    0.12
   6  16  -3    0.62    0.07
  -6  16   3    0.53    0.08
  -6  16   3    0.52    0.07
   6 -16  -3    0.55    0.07
   6  16  -2    3.77    0.13
   6  16  -2    3.49    0.12
   6 -16  -2    3.43    0.13
   6  16  -1    0.97    0.06
   6  16  -1    0.96    0.06
   6 -16  -1    1.09    0.07
   6  16   0    2.56    0.09
   6  16   0    2.56    0.09
   6 -16   0    2.36    0.09
   6 -16   0    2.57    0.10
   6  16   1    3.27    0.08
   6  16   1    3.02    0.11
   6  16   1    3.29    0.10
   6  16   1    3.20    0.10
   6 -16   1    3.13    0.11
   6 -16   1    3.14    0.11
   6  16   2   15.94    0.40
   6  16   2   16.11    0.32
   6  16   2   15.92    0.36
   6 -16   2   15.73    0.40
   6 -16   2   15.98    0.37
   6 -16   2   15.98    0.39
   6  16   3    0.12    0.05
   6  16   3    0.13    0.02
   6 -16   3    0.06    0.04
   6 -16   3    0.11    0.04
   6 -16   3    0.14    0.03
   6  16   4   17.41    0.42
   6  16   4   15.80    0.33
   6 -16   4   16.82    0.44
   6  16   5    0.60    0.08
   6  16   5    0.58    0.03
   6 -16   5    0.53    0.06
   6  16   6    0.51    0.03
   6 -16   6    0.45    0.05
  -6  17   7    0.02    0.03
  -6 -17   7    0.05    0.03
  -6  17   6    1.28    0.07
  -6 -17   6    1.28    0.08
   6  17  -5    1.54    0.09
  -6  17   5    1.46    0.09
  -6 -17   5    1.56    0.09
  -6  17   4    4.25    0.15
  -6  17   4    3.73    0.18
   6  17  -4    4.13    0.15
  -6  17   3   13.41    0.35
  -6  17   3   13.29    0.43
   6  17  -3   13.77    0.35
   6 -17  -3   13.31    0.35
   6  17  -2    0.01    0.03
   6 -17  -2    0.05    0.04
   6  17  -1    2.87    0.10
   6  17  -1    2.73    0.10
   6 -17  -1    2.72    0.11
   6  17   0    0.17    0.03
   6  17   0    0.18    0.03
   6 -17   0    0.18    0.04
   6 -17   0    0.20    0.04
   6  17   1    5.60    0.17
   6  17   1    5.72    0.16
   6  17   1    5.92    0.15
   6  17   1    5.77    0.13
   6 -17   1    5.66    0.17
   6 -17   1    5.83    0.16
   6  17   2    8.50    0.21
   6  17   2    8.83    0.24
   6  17   2    8.83    0.18
   6 -17   2    8.83    0.24
   6 -17   2    8.29    0.23
   6 -17   2    8.74    0.22
   6  17   3    3.36    0.08
   6  17   3    3.51    0.13
   6 -17   3    3.42    0.11
   6 -17   3    3.22    0.13
   6 -17   3    3.35    0.14
   6  17   4    1.83    0.10
   6  17   4    1.68    0.05
   6 -17   4    1.82    0.11
   6  17   5    2.62    0.12
   6  17   5    2.86    0.07
   6 -17   5    2.64    0.12
   6  17   6    3.51    0.08
   6 -17   6    3.29    0.12
  -6  18   7    0.54    0.05
  -6 -18   7    0.60    0.05
  -6  18   6    1.71    0.08
  -6 -18   6    1.68    0.09
  -6  18   5    0.17    0.04
   6  18  -5    0.16    0.05
  -6 -18   5    0.12    0.04
   6  18  -4   17.10    0.44
  -6  18   4   17.70    0.55
  -6  18   4   17.78    0.44
  -6  18   3    0.34    0.05
  -6  18   3    0.32    0.06
   6  18  -3    0.19    0.04
   6 -18  -3    0.24    0.05
   6  18  -2    0.13    0.04
   6 -18  -2    0.09    0.04
   6  18  -1    7.54    0.20
   6  18  -1    7.22    0.21
   6 -18  -1    7.52    0.21
   6  18   0   10.77    0.27
   6  18   0   10.89    0.26
   6 -18   0   10.07    0.27
   6 -18   0   10.80    0.28
   6  18   1    4.97    0.14
   6  18   1    5.22    0.14
   6  18   1    5.14    0.12
   6 -18   1    5.08    0.15
   6 -18   1    5.22    0.16
   6  18   2    7.80    0.22
   6  18   2    8.11    0.17
   6 -18   2    8.28    0.22
   6 -18   2    7.74    0.22
   6  18   3   26.09    0.51
   6  18   3   25.79    0.62
   6 -18   3   26.08    0.61
   6 -18   3   26.99    0.66
   6 -18   3   24.22    0.61
   6  18   4    0.03    0.02
   6  18   4    0.05    0.04
   6 -18   4    0.02    0.05
   6  18   5    2.89    0.07
   6 -18   5    2.82    0.13
   6  18   6    0.05    0.02
   6 -18   6    0.01    0.04
  -6  19   7    7.52    0.19
  -6 -19   7    7.28    0.19
  -6  19   6    0.59    0.06
  -6 -19   6    0.56    0.06
   6  19  -5    0.96    0.08
  -6  19   5    0.86    0.07
  -6 -19   5    0.86    0.08
  -6  19   4    0.75    0.09
  -6  19   4    0.74    0.08
   6  19  -4    0.89    0.08
  -6  19   3    0.59    0.09
  -6  19   3    0.57    0.07
   6  19  -3    0.56    0.07
   6 -19  -3    0.53    0.07
   6  19  -2    2.77    0.11
   6 -19  -2    2.60    0.11
   6  19  -1    0.44    0.06
   6  19  -1    0.43    0.05
   6 -19  -1    0.42    0.05
   6  19   0    0.19    0.03
   6  19   0    0.26    0.03
   6 -19   0    0.20    0.04
   6  19   1    2.13    0.08
   6  19   1    1.96    0.08
   6  19   1    2.06    0.07
   6 -19   1    2.14    0.09
   6 -19   1    2.01    0.09
   6  19   2    1.14    0.05
   6  19   2    0.97    0.07
   6 -19   2    1.08    0.08
   6 -19   2    0.96    0.06
   6  19   3   23.94    0.57
   6  19   3   22.97    0.47
   6 -19   3   24.66    0.61
   6 -19   3   23.54    0.56
   6  19   4    0.00    0.04
   6  19   4    0.01    0.02
   6 -19   4    0.00    0.04
   6  19   5    1.57    0.05
   6 -19   5    1.46    0.10
   6  19   6    1.56    0.04
   6 -19   6    1.52    0.08
  -6  20   7    0.79    0.05
  -6  20   6    1.91    0.09
  -6 -20   6    2.06    0.09
  -6  20   5    1.72    0.09
   6  20  -5    1.60    0.09
  -6 -20   5    1.63    0.09
  -6  20   4    3.06    0.12
   6  20  -4    3.09    0.13
  -6  20   3    2.56    0.11
  -6  20   3    2.35    0.13
   6  20  -3    2.70    0.11
   6 -20  -3    2.43    0.11
   6  20  -2    0.80    0.07
   6 -20  -2    0.58    0.07
   6  20  -1    0.32    0.04
   6  20  -1    0.32    0.04
   6 -20  -1    0.29    0.05
   6  20   0    0.12    0.03
   6  20   0    0.15    0.03
   6 -20   0    0.10    0.04
   6  20   1    8.45    0.22
   6 -20   1    8.44    0.23
   6 -20   1    7.99    0.22
   6  20   2    4.39    0.11
   6 -20   2    4.32    0.15
   6 -20   2    4.15    0.14
   6  20   3    4.72    0.16
   6  20   3    4.62    0.11
   6 -20   3    5.04    0.15
   6 -20   3    4.96    0.17
   6  20   4    5.10    0.12
   6  20   4    5.29    0.17
   6 -20   4    5.19    0.18
   6  20   5    2.78    0.07
   6 -20   5    2.51    0.12
   6  20   6    0.40    0.03
   6 -20   6    0.35    0.05
  -6  21   6    3.68    0.12
  -6 -21   6    3.67    0.12
   6  21  -5    0.56    0.07
  -6  21   5    0.46    0.05
  -6 -21   5    0.50    0.07
  -6  21   4   18.15    0.45
   6  21  -4   17.77    0.45
  -6  21   3    1.56    0.11
   6  21  -3    1.37    0.09
  -6  21   3    1.61    0.09
   6 -21  -3    1.42    0.09
   6  21  -2    0.31    0.05
   6 -21  -2    0.32    0.05
   6  21  -1    0.10    0.04
   6 -21  -1    0.09    0.04
   6  21   0    0.51    0.06
   6 -21   0    0.72    0.07
   6  21   1    0.31    0.04
   6 -21   1    0.29    0.04
   6  21   2    0.01    0.02
   6 -21   2    0.02    0.04
   6 -21   2    0.04    0.03
   6  21   3    1.46    0.09
   6  21   3    1.43    0.05
   6 -21   3    1.49    0.08
   6 -21   3    1.54    0.10
   6  21   4    2.93    0.12
   6  21   4    3.10    0.08
   6 -21   4    3.15    0.13
   6  21   5    2.73    0.07
   6 -21   5    2.78    0.12
   6  21   6    1.64    0.04
   6 -21   6    1.63    0.08
  -6  22   6    0.21    0.04
  -6 -22   6    0.25    0.04
   6  22  -5    3.83    0.14
  -6  22   5    4.04    0.13
  -6 -22   5    3.77    0.14
  -6  22   4    0.68    0.07
   6  22  -4    0.60    0.07
  -6  22   3    2.08    0.13
  -6  22   3    2.43    0.11
   6  22  -3    2.48    0.11
   6 -22  -3    2.10    0.11
  -6  22   2    0.10    0.05
   6  22  -2    0.11    0.04
   6 -22  -2    0.14    0.05
   6  22  -1    1.70    0.09
   6 -22  -1    1.84    0.10
   6  22   0    0.15    0.03
   6 -22   0    0.11    0.04
   6  22   1    9.26    0.24
   6 -22   1    9.91    0.26
   6  22   2    0.19    0.03
   6 -22   2    0.27    0.05
   6 -22   2    0.22    0.04
   6  22   3    5.84    0.13
   6 -22   3    6.15    0.20
   6 -22   3    5.75    0.17
   6  22   4    1.28    0.05
   6  22   4    1.22    0.08
   6 -22   4    1.55    0.10
   6 -22   4    1.17    0.06
   6  22   5    0.08    0.02
   6 -22   5    0.06    0.04
   6  22   6    1.49    0.04
   6 -22   6    1.40    0.07
  -6  23   6    0.22    0.04
  -6 -23   6    0.27    0.04
   6  23  -5    0.59    0.07
  -6  23   5    0.48    0.06
  -6 -23   5    0.51    0.07
  -6  23   4    5.31    0.17
   6  23  -4    5.41    0.17
  -6  23   3    6.89    0.20
   6  23  -3    7.09    0.21
  -6  23   3    6.37    0.26
   6 -23  -3    6.71    0.21
  -6  23   2    4.25    0.18
   6  23  -2    4.42    0.15
   6 -23  -2    4.12    0.15
   6  23  -1    0.23    0.04
   6 -23  -1    0.24    0.05
   6  23   0    5.51    0.16
   6 -23   0    5.34    0.17
   6  23   1   11.24    0.29
   6 -23   1   11.86    0.30
   6  23   2    7.26    0.16
   6 -23   2    7.36    0.20
   6  23   3    1.27    0.05
   6 -23   3    1.27    0.10
   6 -23   3    1.28    0.07
   6  23   4    0.04    0.02
   6 -23   4   -0.02    0.04
   6 -23   4    0.02    0.03
   6  23   5    0.04    0.02
   6 -23   5    0.00    0.04
  -6  24   6    0.33    0.04
  -6 -24   6    0.39    0.04
   6  24  -5    0.25    0.04
  -6  24   5    0.25    0.04
   6  24  -4    4.88    0.16
  -6  24   4    4.97    0.16
   6  24  -3    0.70    0.07
  -6  24   3    0.53    0.07
   6 -24  -3    0.73    0.08
   6  24  -2    0.14    0.04
  -6  24   2    0.13    0.05
   6 -24  -2    0.13    0.05
   6  24  -1    1.75    0.09
   6 -24  -1    1.53    0.09
   6  24   0    1.68    0.08
   6 -24   0    1.56    0.09
   6  24   1    1.91    0.08
   6 -24   1    1.94    0.10
   6 -24   2    0.46    0.06
   6  24   3    1.69    0.06
   6 -24   3    1.48    0.08
   6 -24   3    1.64    0.10
   6  24   4    0.10    0.02
   6 -24   4    0.04    0.05
   6 -24   4    0.12    0.03
   6  24   5    0.06    0.02
   6 -24   5    0.06    0.04
  -6  25   6    0.04    0.03
  -6  25   5    0.09    0.03
   6  25  -5    0.02    0.04
  -6  25   4    6.50    0.19
   6  25  -4    6.16    0.19
  -6  25   3    5.24    0.16
   6  25  -3    4.72    0.16
   6 -25  -3    5.00    0.17
   6  25  -2    0.22    0.04
   6 -25  -2    0.16    0.05
   6  25  -1    8.38    0.23
   6 -25  -1    7.75    0.23
   6  25   0    3.50    0.12
   6 -25   0    3.20    0.13
   6  25   1    1.37    0.07
   6 -25   1    1.37    0.08
   6 -25   2    9.55    0.25
   6  25   3    4.68    0.11
   6 -25   3    4.72    0.17
   6 -25   3    4.65    0.14
   6  25   4    2.74    0.07
   6 -25   4    2.79    0.09
   6 -25   4    2.72    0.12
   6  25   5   -0.02    0.02
   6 -25   5   -0.07    0.03
   6  26  -5    3.81    0.13
  -6  26   5    3.73    0.12
  -6  26   4    9.53    0.26
   6  26  -4    9.80    0.26
   6  26  -3    0.04    0.04
  -6  26   3    0.04    0.04
   6  26  -2    0.16    0.04
   6 -26  -2    0.23    0.05
   6  26  -1    0.85    0.07
   6 -26  -1    0.70    0.07
   6  26   0    2.44    0.10
   6 -26   0    2.41    0.11
   6  26   1    0.01    0.03
   6 -26   1    0.05    0.04
   6 -26   2    7.87    0.22
   6 -26   3   -0.04    0.04
   6 -26   3    0.00    0.03
   6  26   4    0.17    0.02
   6 -26   4    0.14    0.03
   6 -26   4    0.11    0.04
   6  26   5    0.39    0.03
   6 -26   5    0.36    0.04
   6  27  -5    2.86    0.10
  -6  27   5    3.07    0.10
  -6  27   4    2.71    0.10
   6  27  -4    2.45    0.11
  -6  27   3    0.07    0.04
   6  27  -3    0.15    0.04
   6  27  -2    4.32    0.15
   6 -27  -2    3.98    0.15
   6  27  -1    4.42    0.15
   6 -27  -1    4.51    0.16
   6  27   0    0.08    0.03
   6 -27   0    0.14    0.05
   6  27   1    4.74    0.14
   6 -27   1    4.69    0.15
   6 -27   2    0.57    0.08
   6 -27   2    0.69    0.07
   6 -27   3    4.07    0.15
   6 -27   3    3.66    0.12
   6  27   4    0.59    0.04
   6 -27   4    0.59    0.05
   6 -27   4    0.66    0.07
   6 -27   5    0.30    0.04
   6  28  -5    0.47    0.05
  -6  28   5    0.38    0.05
   6  28  -4    0.50    0.05
  -6  28   4    0.47    0.06
   6  28  -3    0.02    0.04
  -6  28   3    0.02    0.04
   6  28  -2    0.60    0.07
   6 -28  -2    0.53    0.07
   6  28  -1    0.91    0.07
   6 -28  -1    0.99    0.08
   6  28   0    0.56    0.06
   6 -28   0    0.55    0.07
   6  28   1    1.72    0.08
   6 -28   1    1.81    0.09
   6 -28   2    0.07    0.04
   6 -28   2    0.07    0.04
   6 -28   3    0.23    0.05
   6 -28   3    0.22    0.04
   6 -28   4    0.29    0.04
   6 -28   4    0.42    0.05
  -6  29   5    0.45    0.05
  -6  29   4    0.38    0.05
   6  29  -4    0.31    0.04
   6  29  -3    0.09    0.04
  -6  29   3    0.08    0.04
   6  29  -2    2.79    0.11
   6 -29  -2    2.71    0.12
   6  29  -1    4.97    0.16
   6 -29  -1    4.92    0.16
   6  29   0    0.06    0.03
   6 -29   0    0.02    0.04
   6  29   1    2.02    0.08
   6 -29   1    2.28    0.10
   6 -29   2    0.50    0.07
   6 -29   2    0.45    0.05
   6 -29   3    2.56    0.11
   6 -29   3    2.89    0.10
   6 -29   4    0.08    0.04
   6 -29   4    0.03    0.02
  -6  30   4   -0.02    0.03
   6  30  -4    0.03    0.03
  -6  30   3    1.76    0.08
   6  30  -3    1.97    0.09
   6  30  -2    0.55    0.06
   6 -30  -2    0.48    0.06
   6  30  -1    5.07    0.16
   6 -30  -1    4.90    0.16
   6  30   0    0.18    0.04
   6 -30   0    0.31    0.05
   6  30   1    0.35    0.05
   6 -30   1    0.33    0.05
   6 -30   2    2.23    0.10
   6 -30   2    2.14    0.09
   6 -30   3    0.37    0.05
   6 -30   3    0.33    0.05
   6 -30   4    2.97    0.11
  -6  31   4    0.41    0.05
   6  31  -4    0.52    0.05
  -6  31   3    0.58    0.06
   6  31  -3    0.61    0.06
   6  31  -2    1.22    0.07
   6 -31  -2    1.17    0.08
   6  31  -1    2.01    0.09
   6 -31  -1    2.05    0.10
   6  31   0    1.28    0.07
   6 -31   0    1.32    0.08
   6  31   1    0.46    0.05
   6 -31   1    0.34    0.05
   6 -31   2    1.36    0.07
   6 -31   2    1.53    0.09
   6 -31   3    0.33    0.05
   6 -31   3    0.28    0.04
   6  32  -4    8.43    0.22
  -6  32   4    8.63    0.22
   6  32  -3    5.11    0.15
  -6  32   3    5.02    0.15
   6  32  -2    0.44    0.06
   6 -32  -2    0.61    0.07
   6  32  -1    0.12    0.04
   6 -32  -1    0.19    0.04
   6  32   0    0.91    0.06
   6 -32   0    1.01    0.08
   6  32   1    0.09    0.03
   6 -32   1    0.08    0.04
   6 -32   2    0.02    0.03
   6 -32   2    0.02    0.04
   6 -32   3    1.22    0.06
   6 -32   3    1.39    0.08
   6  33  -3    1.95    0.08
  -6  33   3    1.86    0.08
   6  33  -2    0.08    0.03
   6 -33  -2    0.10    0.04
   6  33  -1    0.01    0.03
   6 -33  -1   -0.02    0.04
   6  33   0    6.99    0.19
   6 -33   0    7.28    0.20
   6  33   1    0.30    0.04
   6 -33   1    0.33    0.05
   6 -33   1    0.31    0.04
   6 -33   2    5.43    0.16
   6 -33   2    5.18    0.15
   6 -33   3    1.20    0.05
   6 -33   3    1.03    0.06
   6  34  -3    0.30    0.04
   6  34  -2    0.98    0.06
   6 -34  -2    0.93    0.07
   6  34  -1    0.02    0.03
   6 -34  -1    0.05    0.04
   6  34   0    7.23    0.19
   6 -34   0    7.72    0.20
   6 -34   1    0.67    0.06
   6 -34   1    0.77    0.06
   6 -34   2    6.70    0.19
   6 -34   2    6.61    0.18
   6  35  -2    0.06    0.03
   6  35  -1    0.43    0.05
   6 -35  -1    0.42    0.06
   6  35   0    0.08    0.03
   6 -35   0    0.09    0.04
   6 -35   1    1.06    0.07
   6 -35   1    1.12    0.06
   6 -35   2    4.56    0.13
   6  36  -2    3.22    0.10
   6  36  -1    0.42    0.04
   6 -36  -1    0.33    0.04
   6  36   0    0.11    0.02
   6 -36   0    0.04    0.03
   6 -36   0    0.06    0.03
   6 -36   1    0.04    0.03
  -7   0   7    0.00    0.03
  -7   0   6    0.15    0.04
  -7   0   5   -0.01    0.03
   7   0  -5    0.03    0.04
   7   0  -4    0.47    0.06
  -7   0   4    0.32    0.06
  -7   0   3    0.00    0.04
   7   0  -3    0.05    0.03
  -7   0   2   23.53    0.71
   7   0  -2   23.95    0.54
   7   0  -2   24.49    0.57
   7   0  -1    0.01    0.03
   7   0  -1   -0.01    0.02
   7   0   0    9.01    0.22
   7   0   1   -0.02    0.03
   7   0   1    0.02    0.02
   7   0   1    0.02    0.01
   7   0   1   -0.04    0.03
   7   0   2   11.93    0.27
   7   0   2   12.09    0.31
   7   0   2   11.93    0.31
   7   0   2   11.43    0.23
   7   0   3   -0.03    0.04
   7   0   3    0.01    0.04
   7   0   4    2.37    0.11
   7   0   4    2.41    0.11
   7   0   5    0.04    0.04
   7   0   6    1.98    0.05
  -7   1   7    5.98    0.17
  -7  -1   7    5.84    0.17
  -7   1   6    0.23    0.05
  -7  -1   6    0.26    0.05
  -7   1   5    0.01    0.03
   7   1  -5    0.01    0.04
   7  -1  -5    0.01    0.04
  -7  -1   5   -0.02    0.03
   7   1  -4    1.81    0.09
  -7   1   4    1.73    0.09
  -7   1   4    1.56    0.10
   7  -1  -4    1.66    0.09
  -7  -1   4    1.54    0.10
  -7   1   3    0.89    0.08
   7   1  -3    0.78    0.07
  -7  -1   3    1.06    0.08
   7  -1  -3    0.82    0.07
   7   1  -2   10.29    0.25
  -7   1   2   10.28    0.33
   7   1  -2   10.06    0.26
   7  -1  -2   10.03    0.25
  -7  -1   2   10.13    0.32
   7  -1  -2   10.12    0.26
   7   1  -1    0.72    0.05
   7   1  -1    0.72    0.05
   7  -1  -1    0.73    0.05
   7  -1  -1    0.75    0.05
   7   1   0    0.56    0.04
   7  -1   0    0.61    0.04
   7   1   1    9.72    0.20
   7   1   1    9.86    0.23
   7   1   1    9.30    0.26
   7  -1   1    9.93    0.23
   7  -1   1    9.24    0.26
   7  -1   1    9.81    0.20
   7  -1   1    9.89    0.26
   7   1   2    0.07    0.04
   7   1   2    0.07    0.01
   7   1   2    0.06    0.02
   7   1   2    0.06    0.04
   7  -1   2    0.05    0.02
   7  -1   2    0.07    0.04
   7  -1   2    0.06    0.01
   7  -1   2    0.12    0.04
   7   1   3    0.21    0.05
   7   1   3    0.18    0.04
   7  -1   3    0.17    0.02
   7  -1   3    0.18    0.05
   7  -1   3    0.15    0.04
   7   1   4    2.44    0.12
   7   1   4    2.66    0.11
   7  -1   4    2.47    0.11
   7  -1   4    2.72    0.12
   7   1   5    0.39    0.06
   7  -1   5    0.36    0.05
   7  -1   5    0.38    0.02
   7  -1   6    2.74    0.06
  -7   2   7    1.52    0.08
  -7  -2   7    1.48    0.08
  -7   2   6    0.43    0.06
  -7  -2   6    0.40    0.05
   7   2  -5    9.81    0.27
  -7   2   5   10.06    0.27
  -7  -2   5   10.45    0.27
   7   2  -4    0.57    0.07
  -7   2   4    0.58    0.08
  -7   2   4    0.63    0.07
   7  -2  -4    0.68    0.07
   7   2  -3    3.75    0.13
  -7   2   3    4.01    0.16
   7  -2  -3    3.74    0.13
  -7  -2   3    3.65    0.15
   7   2  -2    0.10    0.03
   7   2  -2    0.23    0.03
   7  -2  -2    0.16    0.03
   7  -2  -2    0.18    0.03
  -7  -2   2    0.15    0.04
   7   2  -1    0.08    0.02
   7   2  -1    0.06    0.03
   7  -2  -1    0.07    0.03
   7  -2  -1    0.05    0.03
   7   2   0    0.29    0.03
   7  -2   0    0.29    0.04
   7   2   1   22.46    0.49
   7   2   1   21.79    0.53
   7   2   1   22.34    0.43
   7  -2   1   22.01    0.49
   7  -2   1   21.98    0.53
   7  -2   1   21.95    0.43
   7   2   2    8.23    0.23
   7   2   2    8.23    0.19
   7   2   2    7.85    0.16
   7   2   2    7.91    0.22
   7  -2   2    8.03    0.23
   7  -2   2    8.28    0.22
   7  -2   2    8.13    0.16
   7  -2   2    8.10    0.19
   7   2   3   24.50    0.60
   7   2   3   24.44    0.59
   7  -2   3   24.39    0.59
   7  -2   3   24.58    0.47
   7  -2   3   25.21    0.59
   7   2   4   -0.01    0.04
   7   2   4    0.10    0.05
   7  -2   4    0.05    0.04
   7  -2   4    0.07    0.01
   7  -2   4    0.04    0.04
   7   2   5    0.06    0.05
   7  -2   5    0.01    0.04
   7  -2   5    0.01    0.01
   7  -2   6    0.25    0.02
   7  -2   7    0.01    0.01
  -7   3   7    0.23    0.04
  -7  -3   7    0.18    0.04
  -7   3   6    1.97    0.10
  -7  -3   6    1.95    0.09
  -7   3   5    4.21    0.14
   7   3  -5    4.09    0.14
  -7  -3   5    4.11    0.14
   7   3  -4   44.03    1.01
  -7   3   4   42.66    1.01
  -7   3   4   43.06    1.26
   7  -3  -4   44.64    1.01
   7   3  -3    1.79    0.09
  -7   3   3    1.73    0.11
   7  -3  -3    1.82    0.09
   7   3  -2   34.16    0.78
   7   3  -2   32.84    0.74
   7  -3  -2   32.81    0.74
   7  -3  -2   33.67    0.78
   7   3  -1    0.33    0.04
   7   3  -1    0.31    0.04
   7  -3  -1    0.34    0.04
   7  -3  -1    0.33    0.04
   7   3   0    3.97    0.11
   7  -3   0    3.94    0.11
   7   3   1    3.00    0.11
   7   3   1    2.86    0.08
   7   3   1    3.00    0.07
   7  -3   1    2.86    0.09
   7  -3   1    2.89    0.07
   7  -3   1    2.86    0.11
   7   3   2   26.73    0.51
   7   3   2   26.09    0.63
   7   3   2   26.65    0.57
   7   3   2   26.79    0.63
   7  -3   2   26.38    0.63
   7  -3   2   26.18    0.51
   7  -3   2   25.60    0.63
   7  -3   2   27.03    0.58
   7   3   3    0.12    0.04
   7   3   3    0.09    0.04
   7  -3   3    0.13    0.04
   7  -3   3    0.07    0.04
   7  -3   3    0.13    0.02
   7  -3   3    0.11    0.02
   7   3   4   10.19    0.28
   7  -3   4    9.60    0.27
   7  -3   4   10.07    0.27
   7  -3   4    9.99    0.20
   7   3   5    1.33    0.09
   7  -3   5    1.25    0.04
   7  -3   5    1.20    0.08
   7  -3   6    0.26    0.02
  -7   4   7    0.48    0.06
  -7  -4   7    0.40    0.05
  -7   4   6    2.05    0.10
  -7  -4   6    2.02    0.10
   7   4  -5    0.25    0.05
  -7   4   5    0.27    0.04
  -7  -4   5    0.31    0.05
  -7   4   4    1.23    0.08
  -7   4   4    1.50    0.10
   7   4  -4    1.26    0.08
   7  -4  -4    1.22    0.08
   7   4  -3    0.08    0.03
  -7   4   3    0.05    0.04
   7  -4  -3    0.01    0.04
   7   4  -2    8.51    0.22
   7   4  -2    7.99    0.21
   7  -4  -2    7.94    0.21
   7  -4  -2    8.13    0.22
   7   4  -1    1.43    0.07
   7   4  -1    1.40    0.06
   7  -4  -1    1.32    0.07
   7  -4  -1    1.40    0.06
   7   4   0    0.85    0.04
   7   4   0    0.98    0.05
   7  -4   0    0.94    0.05
   7  -4   0    0.95    0.05
   7   4   1   10.21    0.24
   7   4   1   10.35    0.27
   7   4   1   10.53    0.21
   7  -4   1   10.22    0.24
   7  -4   1   10.02    0.27
   7  -4   1    9.81    0.26
   7  -4   1   10.25    0.21
   7   4   2    6.80    0.14
   7   4   2    7.01    0.20
   7   4   2    7.06    0.16
   7   4   2    6.82    0.20
   7  -4   2    6.95    0.17
   7  -4   2    6.68    0.14
   7  -4   2    6.81    0.20
   7  -4   2    6.65    0.20
   7   4   3    2.22    0.10
   7   4   3    2.01    0.10
   7  -4   3    2.01    0.10
   7  -4   3    2.16    0.06
   7  -4   3    2.14    0.05
   7  -4   3    2.07    0.10
   7   4   4    0.80    0.08
   7  -4   4    0.76    0.08
   7  -4   4    0.76    0.03
   7  -4   4    0.72    0.08
   7   4   5   15.53    0.40
   7  -4   5   15.45    0.31
   7  -4   6    0.04    0.02
   7  -4   7    0.00    0.01
  -7   5   7    5.57    0.16
  -7  -5   7    5.74    0.17
  -7   5   6    2.83    0.11
  -7  -5   6    2.84    0.11
  -7   5   5   18.83    0.46
   7   5  -5   18.34    0.46
  -7  -5   5   18.40    0.46
  -7   5   4    1.68    0.11
   7   5  -4    1.63    0.09
  -7   5   4    1.69    0.09
   7  -5  -4    1.58    0.09
   7   5  -3    0.05    0.03
  -7   5   3    0.02    0.04
   7  -5  -3    0.03    0.03
   7   5  -2    4.03    0.12
   7   5  -2    4.17    0.13
   7  -5  -2    4.20    0.13
   7  -5  -2    4.09    0.13
   7   5  -1   43.13    0.92
   7   5  -1   40.04    0.96
   7  -5  -1   41.54    0.96
   7  -5  -1   42.78    0.92
   7   5   0    0.12    0.04
   7   5   0    0.09    0.02
   7   5   0    0.10    0.02
   7  -5   0    0.06    0.02
   7  -5   0    0.02    0.02
   7   5   1   11.49    0.30
   7   5   1   11.88    0.26
   7   5   1   10.88    0.29
   7   5   1   11.44    0.23
   7  -5   1   11.31    0.26
   7  -5   1   11.01    0.28
   7  -5   1   11.16    0.29
   7  -5   1   11.36    0.23
   7   5   2    5.19    0.16
   7   5   2    5.20    0.11
   7   5   2    5.36    0.12
   7   5   2    5.12    0.16
   7  -5   2    4.89    0.16
   7  -5   2    5.10    0.13
   7  -5   2    5.10    0.11
   7  -5   2    5.09    0.16
   7   5   3    1.32    0.09
   7   5   3    1.25    0.08
   7  -5   3    1.32    0.08
   7  -5   3    1.17    0.08
   7  -5   3    1.18    0.05
   7  -5   3    1.31    0.04
   7   5   4    1.98    0.11
   7  -5   4    1.75    0.10
   7  -5   4    1.78    0.05
   7   5   5    1.86    0.10
   7  -5   5    1.99    0.05
   7  -5   6    0.37    0.03
   7  -5   7    0.00    0.01
  -7   6   7    0.23    0.04
  -7  -6   7    0.08    0.03
  -7   6   6    0.54    0.07
  -7  -6   6    0.47    0.07
  -7   6   5   -0.02    0.04
   7   6  -5    0.04    0.04
  -7  -6   5    0.01    0.03
  -7   6   4    2.46    0.11
   7   6  -4    2.44    0.11
  -7   6   4    2.55    0.13
   7  -6  -4    2.40    0.11
  -7   6   3    3.89    0.17
   7   6  -3    4.12    0.14
   7  -6  -3    4.15    0.14
   7   6  -2   14.44    0.34
   7   6  -2   15.09    0.36
   7  -6  -2   14.84    0.36
   7  -6  -2   14.15    0.35
   7   6  -1    7.00    0.18
   7   6  -1    7.04    0.19
   7  -6  -1    7.18    0.18
   7  -6  -1    6.87    0.19
   7   6   0   28.00    0.65
   7   6   0   28.09    0.61
   7   6   0   26.78    0.63
   7   6   0   27.17    0.54
   7  -6   0   27.03    0.64
   7  -6   0   27.69    0.61
   7   6   1    7.38    0.21
   7   6   1    7.71    0.18
   7   6   1    7.37    0.21
   7   6   1    7.70    0.16
   7  -6   1    7.64    0.21
   7  -6   1    7.64    0.19
   7  -6   1    7.77    0.16
   7  -6   1    7.33    0.19
   7   6   2    6.74    0.14
   7   6   2    6.68    0.19
   7   6   2    6.99    0.16
   7   6   2    6.83    0.20
   7  -6   2    6.40    0.19
   7  -6   2    6.57    0.16
   7  -6   2    6.38    0.19
   7  -6   2    6.68    0.14
   7   6   3    0.06    0.04
   7   6   3    0.03    0.04
   7  -6   3    0.07    0.02
   7  -6   3    0.08    0.02
   7  -6   3    0.00    0.04
   7   6   4    0.23    0.05
   7  -6   4    0.24    0.05
   7  -6   4    0.22    0.02
   7   6   5    7.72    0.23
   7  -6   5    7.60    0.16
   7  -6   6    0.06    0.02
  -7   7   7    1.77    0.08
  -7  -7   7    1.78    0.08
  -7   7   6    0.04    0.04
  -7  -7   6    0.02    0.04
   7   7  -5    0.09    0.04
  -7   7   5    0.03    0.04
  -7  -7   5    0.10    0.04
  -7   7   4   10.04    0.35
   7   7  -4   10.23    0.28
  -7   7   4   10.46    0.28
   7  -7  -4   10.50    0.28
  -7   7   3   16.23    0.51
   7   7  -3   16.63    0.41
   7  -7  -3   16.30    0.41
   7   7  -2    9.10    0.24
   7   7  -2    9.15    0.23
   7  -7  -2    8.99    0.24
   7   7  -1   10.02    0.25
   7   7  -1    9.73    0.24
   7  -7  -1    9.94    0.26
   7  -7  -1    9.97    0.24
   7   7   0    3.90    0.11
   7   7   0    3.88    0.09
   7   7   0    4.26    0.13
   7   7   0    3.72    0.11
   7  -7   0    3.84    0.11
   7  -7   0    3.89    0.12
   7   7   1    1.97    0.09
   7   7   1    2.13    0.07
   7   7   1    1.95    0.08
   7   7   1    2.08    0.06
   7  -7   1    1.98    0.09
   7  -7   1    1.97    0.06
   7  -7   1    2.07    0.10
   7  -7   1    1.98    0.07
   7  -7   1    1.98    0.07
   7   7   2   42.06    0.89
   7   7   2   40.43    0.96
   7   7   2   40.41    0.79
   7   7   2   41.62    0.96
   7  -7   2   42.59    0.90
   7  -7   2   40.80    0.80
   7  -7   2   41.45    0.96
   7   7   3    2.15    0.11
   7   7   3    2.29    0.10
   7  -7   3    2.34    0.06
   7  -7   3    2.23    0.10
   7  -7   3    2.33    0.07
   7   7   4    1.67    0.10
   7  -7   4    1.56    0.05
   7  -7   4    1.55    0.09
   7   7   5    0.43    0.06
   7  -7   5    0.44    0.03
   7  -7   6    3.83    0.09
  -7   8   7    1.31    0.07
  -7  -8   7    1.36    0.07
  -7   8   6   -0.02    0.03
  -7  -8   6   -0.02    0.03
  -7   8   5   13.45    0.35
   7   8  -5   13.13    0.35
  -7  -8   5   13.43    0.35
   7   8  -4    1.38    0.09
  -7   8   4    1.55    0.09
  -7   8   4    1.33    0.11
   7  -8  -4    1.28    0.09
   7   8  -3   14.87    0.39
  -7   8   3   15.62    0.49
   7  -8  -3   15.79    0.39
   7   8  -2    2.49    0.10
   7   8  -2    2.56    0.09
   7  -8  -2    2.37    0.10
   7   8  -1    5.72    0.15
   7   8  -1    5.66    0.16
   7  -8  -1    5.81    0.16
   7  -8  -1    5.53    0.16
   7   8   0    3.18    0.11
   7   8   0    3.03    0.09
   7   8   0    3.05    0.10
   7   8   0    3.06    0.08
   7  -8   0    3.03    0.10
   7  -8   0    3.02    0.10
   7   8   1    0.19    0.04
   7   8   1    0.21    0.03
   7   8   1    0.22    0.04
   7   8   1    0.19    0.02
   7  -8   1    0.21    0.03
   7  -8   1    0.19    0.04
   7  -8   1    0.19    0.02
   7  -8   1    0.20    0.03
   7   8   2    1.78    0.05
   7   8   2    1.89    0.09
   7   8   2    1.84    0.06
   7   8   2    1.87    0.10
   7  -8   2    1.90    0.07
   7  -8   2    1.80    0.06
   7  -8   2    1.80    0.09
   7   8   3    8.09    0.24
   7  -8   3    8.48    0.17
   7  -8   3    7.89    0.23
   7   8   4    0.81    0.08
   7  -8   4    0.76    0.04
   7  -8   4    0.70    0.07
   7   8   5    0.96    0.09
   7  -8   5    0.98    0.04
   7  -8   6    0.04    0.02
  -7   9   7    0.74    0.06
  -7  -9   7    0.71    0.06
  -7   9   6    1.57    0.09
  -7  -9   6    1.79    0.09
   7   9  -5    0.82    0.07
  -7   9   5    0.86    0.07
  -7  -9   5    0.95    0.08
   7   9  -4    2.39    0.11
  -7   9   4    2.20    0.13
  -7   9   4    2.13    0.10
   7  -9  -4    2.22    0.10
   7   9  -3   12.61    0.32
  -7   9   3   12.49    0.41
   7  -9  -3   12.49    0.32
   7   9  -2    1.12    0.06
   7   9  -2    1.06    0.07
   7  -9  -2    1.02    0.07
   7   9  -1    0.56    0.06
   7   9  -1    0.56    0.05
   7   9  -1    0.53    0.05
   7  -9  -1    0.57    0.05
   7  -9  -1    0.59    0.05
   7   9   0    4.20    0.13
   7   9   0    4.54    0.12
   7   9   0    4.50    0.14
   7   9   0    4.35    0.10
   7  -9   0    4.35    0.13
   7  -9   0    4.52    0.13
   7   9   1    1.48    0.08
   7   9   1    1.45    0.05
   7   9   1    1.41    0.05
   7  -9   1    1.48    0.08
   7  -9   1    1.35    0.05
   7  -9   1    1.24    0.06
   7  -9   1    1.34    0.06
   7   9   2    0.37    0.05
   7   9   2    0.32    0.05
   7   9   2    0.39    0.03
   7   9   2    0.32    0.02
   7  -9   2    0.39    0.03
   7  -9   2    0.50    0.07
   7  -9   2    0.32    0.04
   7   9   3    0.04    0.04
   7  -9   3    0.01    0.04
   7  -9   3    0.03    0.04
   7  -9   3    0.03    0.02
   7   9   4    1.32    0.09
   7  -9   4    1.15    0.08
   7  -9   4    1.26    0.09
   7  -9   4    1.10    0.05
   7   9   5    5.46    0.18
   7  -9   5    5.66    0.13
   7  -9   6    0.77    0.04
  -7  10   7    0.76    0.06
  -7 -10   7    0.72    0.06
  -7  10   6    3.32    0.12
  -7 -10   6    3.26    0.12
  -7  10   5    0.01    0.04
   7  10  -5    0.11    0.04
  -7 -10   5    0.07    0.04
   7  10  -4    0.33    0.05
  -7  10   4    0.33    0.06
  -7  10   4    0.49    0.07
   7 -10  -4    0.41    0.05
   7  10  -3   25.00    0.60
  -7  10   3   25.03    0.76
   7 -10  -3   25.51    0.60
   7  10  -2   13.90    0.35
   7  10  -2   13.51    0.33
   7 -10  -2   14.50    0.35
   7  10  -1    0.03    0.02
   7  10  -1    0.03    0.04
   7  10  -1   -0.02    0.03
   7 -10  -1    0.03    0.03
   7 -10  -1    0.06    0.03
   7  10   0   12.63    0.30
   7  10   0   12.08    0.25
   7  10   0   12.66    0.29
   7  10   0   12.37    0.31
   7 -10   0   12.17    0.31
   7 -10   0   11.83    0.29
   7  10   1    1.32    0.05
   7  10   1    1.26    0.04
   7  10   1    1.32    0.08
   7 -10   1    1.29    0.06
   7 -10   1    1.35    0.06
   7  10   2    2.99    0.12
   7  10   2    2.89    0.07
   7  10   2    2.93    0.08
   7 -10   2    2.91    0.08
   7 -10   2    2.96    0.09
   7 -10   2    2.75    0.12
   7  10   3    0.67    0.03
   7  10   3    0.56    0.08
   7 -10   3    0.62    0.04
   7 -10   3    0.57    0.07
   7 -10   3    0.59    0.08
   7  10   4    0.23    0.05
   7 -10   4    0.29    0.03
   7 -10   4    0.30    0.05
   7 -10   4    0.21    0.05
   7  10   5    0.05    0.05
   7 -10   5    0.03    0.04
   7 -10   5    0.03    0.02
   7 -10   6    0.16    0.02
  -7  11   7   -0.03    0.03
  -7 -11   7    0.00    0.03
  -7  11   6    0.17    0.04
  -7 -11   6    0.10    0.04
   7  11  -5    3.27    0.13
  -7  11   5    3.30    0.13
  -7 -11   5    3.43    0.13
   7  11  -4    4.83    0.16
  -7  11   4    4.76    0.16
  -7  11   4    4.73    0.20
   7 -11  -4    4.83    0.16
   7  11  -3    6.06    0.18
  -7  11   3    5.74    0.23
   7 -11  -3    5.98    0.18
   7  11  -2   19.99    0.47
   7  11  -2   20.76    0.49
   7  11  -1   19.32    0.47
   7  11  -1   19.43    0.44
   7  11  -1   19.72    0.47
   7 -11  -1   19.15    0.45
   7 -11  -1   19.63    0.47
   7  11   0    1.35    0.08
   7  11   0    1.46    0.06
   7  11   0    1.36    0.05
   7  11   0    1.39    0.06
   7 -11   0    1.34    0.07
   7 -11   0    1.33    0.07
   7  11   1   14.43    0.36
   7  11   1   14.88    0.33
   7  11   1   13.93    0.29
   7 -11   1   14.18    0.35
   7 -11   1   14.55    0.34
   7  11   2    5.65    0.18
   7  11   2    5.76    0.14
   7  11   2    5.63    0.12
   7 -11   2    5.79    0.13
   7 -11   2    5.77    0.16
   7 -11   2    5.66    0.18
   7 -11   2    5.99    0.15
   7  11   3    0.36    0.03
   7  11   3    0.41    0.06
   7 -11   3    0.34    0.04
   7 -11   3    0.35    0.05
   7 -11   3    0.35    0.05
   7  11   4    0.15    0.05
   7 -11   4    0.23    0.05
   7 -11   4    0.25    0.03
   7 -11   4    0.25    0.05
   7  11   5    1.49    0.10
   7 -11   5    1.30    0.08
   7 -11   5    1.49    0.05
   7 -11   6    1.61    0.05
  -7  12   7    6.35    0.17
  -7 -12   7    6.08    0.17
  -7  12   6    0.03    0.03
  -7 -12   6    0.05    0.03
  -7  12   5    0.03    0.04
   7  12  -5    0.03    0.04
  -7 -12   5    0.02    0.04
   7  12  -4    1.41    0.09
  -7  12   4    1.34    0.08
  -7  12   4    1.28    0.11
   7 -12  -4    1.34    0.09
   7  12  -3    1.77    0.09
  -7  12   3    1.89    0.12
   7 -12  -3    1.74    0.09
   7  12  -2    6.20    0.18
   7  12  -2    5.96    0.17
   7 -12  -2    5.68    0.18
   7  12  -1    0.25    0.04
   7  12  -1    0.15    0.03
   7  12  -1    0.15    0.04
   7 -12  -1    0.16    0.03
   7 -12  -1    0.15    0.04
   7  12   0   15.36    0.40
   7  12   0   15.58    0.38
   7  12   0   16.42    0.37
   7 -12   0   16.40    0.39
   7 -12   0   16.14    0.38
   7  12   1    2.08    0.07
   7  12   1    1.96    0.06
   7  12   1    1.93    0.09
   7 -12   1    2.14    0.08
   7 -12   1    2.02    0.08
   7  12   2    7.81    0.22
   7  12   2    7.95    0.16
   7  12   2    7.66    0.18
   7 -12   2    7.67    0.22
   7 -12   2    7.85    0.20
   7 -12   2    7.64    0.20
   7 -12   2    7.75    0.17
   7  12   3    0.04    0.02
   7  12   3    0.02    0.04
   7 -12   3    0.02    0.04
   7 -12   3    0.05    0.02
   7 -12   3    0.01    0.04
   7  12   4   12.44    0.33
   7  12   4   12.01    0.24
   7 -12   4   11.73    0.32
   7 -12   4   12.68    0.34
   7 -12   4   12.03    0.25
   7  12   5    2.71    0.12
   7 -12   5    2.47    0.11
   7 -12   5    2.55    0.07
   7 -12   6    0.01    0.02
   7 -12   6    0.03    0.03
  -7  13   7    0.02    0.03
  -7 -13   7    0.06    0.03
  -7  13   6    0.20    0.04
  -7 -13   6    0.24    0.04
   7  13  -5   10.05    0.27
  -7  13   5    9.98    0.27
  -7 -13   5    9.90    0.27
  -7  13   4    7.36    0.22
   7  13  -4    7.58    0.22
  -7  13   4    8.03    0.28
   7 -13  -4    7.54    0.22
  -7  13   3    0.77    0.09
   7  13  -3    0.60    0.07
   7 -13  -3    0.60    0.07
   7  13  -2    5.35    0.16
   7  13  -2    5.34    0.16
   7  13  -2    5.68    0.17
   7 -13  -2    5.35    0.17
   7  13  -1    2.84    0.11
   7  13  -1    2.76    0.09
   7  13  -1    2.70    0.10
   7 -13  -1    2.66    0.10
   7 -13  -1    2.76    0.10
   7  13   0    2.93    0.11
   7  13   0    2.77    0.09
   7  13   0    2.76    0.09
   7 -13   0    2.74    0.10
   7 -13   0    2.64    0.10
   7  13   1    0.01    0.03
   7  13   1    0.02    0.02
   7  13   1    0.02    0.02
   7 -13   1   -0.01    0.03
   7 -13   1    0.03    0.03
   7  13   2    0.59    0.03
   7  13   2    0.46    0.06
   7  13   2    0.62    0.04
   7 -13   2    0.64    0.05
   7 -13   2    0.58    0.07
   7  13   3    0.74    0.03
   7  13   3    0.66    0.08
   7 -13   3    0.75    0.08
   7 -13   3    0.63    0.04
   7 -13   3    0.69    0.08
   7  13   4    7.78    0.16
   7  13   4    7.54    0.23
   7 -13   4    7.50    0.22
   7 -13   4    7.64    0.17
   7 -13   4    7.59    0.23
   7  13   5    0.35    0.05
   7  13   5    0.47    0.02
   7 -13   5    0.35    0.05
   7 -13   5    0.46    0.04
   7 -13   6    3.11    0.08
   7 -13   6    2.91    0.11
  -7  14   7    5.80    0.16
  -7 -14   7    5.60    0.16
  -7  14   6    2.83    0.11
  -7 -14   6    2.88    0.11
  -7  14   5   11.89    0.31
   7  14  -5   11.93    0.31
  -7 -14   5   11.67    0.31
   7  14  -4    4.66    0.16
  -7  14   4    4.60    0.15
  -7  14   4    4.38    0.19
   7 -14  -4    4.40    0.15
  -7  14   3    0.15    0.06
   7  14  -3    0.08    0.04
   7 -14  -3    0.12    0.04
   7  14  -2   10.70    0.28
   7  14  -2   10.46    0.27
   7 -14  -2   10.95    0.29
   7  14  -1    0.13    0.03
   7  14  -1    0.11    0.04
   7  14  -1    0.05    0.03
   7 -14  -1    0.06    0.03
   7  14   0    0.94    0.05
   7  14   0    0.96    0.07
   7  14   0    0.87    0.05
   7 -14   0    0.85    0.06
   7 -14   0    0.94    0.06
   7  14   1    0.26    0.03
   7  14   1    0.23    0.03
   7  14   1    0.23    0.04
   7 -14   1    0.31    0.04
   7 -14   1    0.27    0.04
   7  14   2   25.39    0.49
   7  14   2   24.97    0.60
   7 -14   2   25.21    0.60
   7 -14   2   24.27    0.58
   7  14   3    0.07    0.04
   7  14   3    0.11    0.02
   7 -14   3    0.12    0.02
   7 -14   3    0.13    0.05
   7 -14   3    0.12    0.05
   7  14   4    0.94    0.04
   7  14   4    0.97    0.08
   7 -14   4    1.05    0.08
   7 -14   4    0.94    0.08
   7 -14   4    0.86    0.05
   7  14   5    0.46    0.06
   7  14   5    0.51    0.03
   7 -14   5    0.49    0.07
   7 -14   5    0.52    0.04
   7 -14   6    1.06    0.04
   7 -14   6    1.09    0.07
  -7  15   7    4.18    0.12
  -7 -15   7    4.13    0.12
  -7  15   6    1.99    0.09
  -7 -15   6    2.03    0.09
  -7  15   5    0.55    0.07
   7  15  -5    0.57    0.07
  -7  15   4    6.06    0.19
  -7  15   4    6.04    0.23
   7  15  -4    6.04    0.19
   7 -15  -4    5.94    0.19
   7  15  -3    1.99    0.10
  -7  15   3    2.13    0.13
   7 -15  -3    1.98    0.10
   7  15  -2    5.17    0.16
   7  15  -2    5.05    0.16
   7 -15  -2    5.31    0.16
   7  15  -1    7.68    0.20
   7  15  -1    7.69    0.21
   7 -15  -1    8.02    0.22
   7  15   0    1.69    0.09
   7  15   0    1.62    0.07
   7  15   0    1.56    0.07
   7 -15   0    1.64    0.08
   7 -15   0    1.57    0.08
   7  15   1    4.70    0.13
   7  15   1    4.52    0.15
   7  15   1    4.51    0.11
   7 -15   1    4.54    0.14
   7 -15   1    4.39    0.14
   7  15   2    9.64    0.20
   7  15   2    9.46    0.27
   7 -15   2    9.92    0.27
   7 -15   2    9.92    0.25
   7  15   3    7.35    0.15
   7  15   3    7.76    0.22
   7 -15   3    6.79    0.21
   7 -15   3    7.46    0.23
   7  15   4    2.33    0.11
   7  15   4    2.38    0.06
   7 -15   4    2.38    0.11
   7 -15   4    2.36    0.10
   7 -15   4    2.32    0.07
   7  15   5    1.21    0.08
   7  15   5    1.23    0.04
   7 -15   5    1.23    0.05
   7 -15   5    1.17    0.08
   7 -15   6    2.56    0.07
   7 -15   6    2.55    0.10
  -7  16   7    0.38    0.04
  -7 -16   7    0.32    0.04
  -7  16   6    3.90    0.13
  -7 -16   6    3.88    0.13
   7  16  -5    0.07    0.04
  -7  16   5    0.07    0.04
  -7  16   4    0.16    0.06
   7  16  -4    0.05    0.04
  -7  16   4    0.06    0.04
   7 -16  -4    0.10    0.05
  -7  16   3    4.84    0.20
   7  16  -3    5.13    0.16
   7 -16  -3    4.96    0.16
   7  16  -2    8.26    0.23
   7 -16  -2    8.53    0.24
   7  16  -1    3.92    0.13
   7  16  -1    4.09    0.13
   7 -16  -1    4.01    0.14
   7  16   0    8.63    0.23
   7  16   0    8.91    0.22
   7  16   0    8.61    0.24
   7 -16   0    8.65    0.23
   7 -16   0    8.32    0.23
   7  16   1    0.11    0.02
   7  16   1    0.10    0.04
   7 -16   1    0.08    0.03
   7  16   2    1.42    0.05
   7  16   2    1.43    0.08
   7 -16   2    1.49    0.09
   7 -16   2    1.35    0.07
   7  16   3    1.23    0.05
   7  16   3    1.31    0.09
   7 -16   3    1.30    0.09
   7 -16   3    1.31    0.09
   7  16   4    0.13    0.05
   7  16   4    0.12    0.02
   7 -16   4    0.16    0.05
   7 -16   4    0.18    0.05
   7  16   5    1.52    0.04
   7  16   5    1.44    0.09
   7 -16   5    1.42    0.09
   7 -16   6    0.51    0.06
  -7  17   6    2.31    0.09
  -7 -17   6    2.32    0.10
  -7  17   5    5.43    0.17
   7  17  -5    5.36    0.17
   7  17  -4    8.69    0.25
  -7  17   4    8.67    0.25
   7 -17  -4    8.78    0.25
  -7  17   3   14.32    0.46
   7  17  -3   14.52    0.37
   7 -17  -3   14.17    0.37
   7  17  -2    0.08    0.04
   7 -17  -2    0.03    0.04
   7  17  -1    4.00    0.13
   7 -17  -1    4.15    0.14
   7  17   0    0.36    0.05
   7 -17   0    0.41    0.05
   7 -17   0    0.44    0.06
   7  17   1    1.78    0.06
   7  17   1    1.84    0.09
   7 -17   1    1.85    0.08
   7  17   2   26.88    0.64
   7  17   2   26.46    0.53
   7 -17   2   26.98    0.63
   7 -17   2   27.06    0.64
   7  17   3   21.50    0.43
   7  17   3   22.48    0.54
   7 -17   3   21.70    0.54
   7 -17   3   22.60    0.57
   7  17   4    2.41    0.06
   7  17   4    2.23    0.11
   7 -17   4    2.27    0.11
   7  17   5    3.13    0.07
   7 -17   5    3.14    0.12
   7 -17   6    0.64    0.06
  -7  18   6    0.23    0.04
  -7 -18   6    0.18    0.04
   7  18  -5   21.44    0.52
  -7  18   5   20.59    0.51
  -7  18   4    3.10    0.12
   7  18  -4    3.06    0.13
   7 -18  -4    2.99    0.12
  -7  18   3    0.13    0.05
   7  18  -3    0.17    0.04
   7 -18  -3    0.08    0.04
   7  18  -2    0.11    0.04
   7 -18  -2    0.11    0.04
   7  18  -1    0.36    0.05
   7 -18  -1    0.26    0.05
   7  18   0    1.04    0.06
   7 -18   0    1.10    0.08
   7  18   1    8.12    0.23
   7  18   1    7.89    0.18
   7 -18   1    8.67    0.23
   7  18   2    0.03    0.02
   7  18   2    0.03    0.04
   7 -18   2    0.02    0.04
   7 -18   2    0.03    0.03
   7  18   3    5.79    0.13
   7  18   3    6.16    0.19
   7 -18   3    6.10    0.16
   7 -18   3    5.80    0.18
   7 -18   3    5.99    0.20
   7  18   4    2.26    0.11
   7  18   4    2.22    0.06
   7 -18   4    2.18    0.11
   7  18   5    0.22    0.03
   7 -18   5    0.18    0.04
  -7  19   6    2.17    0.09
  -7 -19   6    2.05    0.09
   7  19  -5    2.04    0.10
  -7  19   5    1.91    0.09
   7  19  -4    5.69    0.18
  -7  19   4    5.65    0.18
   7  19  -3    1.59    0.09
  -7  19   3    1.51    0.11
   7 -19  -3    1.30    0.09
   7  19  -2    2.70    0.11
   7 -19  -2    2.57    0.11
   7  19  -1    0.88    0.07
   7 -19  -1    0.96    0.08
   7  19   0    5.85    0.17
   7 -19   0    5.70    0.18
   7  19   1    7.47    0.17
   7 -19   1    7.91    0.21
   7  19   2    0.09    0.02
   7  19   2    0.10    0.04
   7 -19   2    0.06    0.04
   7 -19   2    0.07    0.03
   7  19   3    5.17    0.17
   7  19   3    5.12    0.12
   7 -19   3    5.59    0.15
   7 -19   3    5.12    0.17
   7 -19   3    5.33    0.18
   7  19   4    0.40    0.05
   7  19   4    0.40    0.03
   7 -19   4    0.33    0.05
   7  19   5    2.34    0.06
   7 -19   5    2.24    0.10
  -7  20   6    1.18    0.07
  -7 -20   6    1.14    0.07
  -7  20   5    0.53    0.06
   7  20  -5    0.44    0.05
   7  20  -4    0.11    0.04
  -7  20   4    0.08    0.04
   7  20  -3    1.40    0.09
   7 -20  -3    1.39    0.09
   7  20  -2    5.43    0.17
   7 -20  -2    5.19    0.17
   7  20  -1    0.34    0.05
   7 -20  -1    0.39    0.05
   7  20   0    3.97    0.13
   7 -20   0    4.27    0.14
   7 -20   1    0.94    0.07
   7  20   2    0.79    0.07
   7  20   2    0.75    0.04
   7 -20   2    0.82    0.06
   7 -20   2    0.76    0.08
   7  20   3    6.27    0.19
   7  20   3    6.27    0.14
   7 -20   3    6.08    0.19
   7 -20   3    6.12    0.20
   7 -20   3    6.18    0.17
   7  20   4    2.23    0.10
   7  20   4    2.24    0.06
   7 -20   4    2.25    0.11
   7  20   5    0.38    0.03
   7 -20   5    0.41    0.05
  -7  21   6   -0.03    0.03
  -7 -21   6    0.01    0.03
   7  21  -5    0.60    0.07
  -7  21   5    0.54    0.06
   7  21  -4    8.13    0.23
  -7  21   4    8.09    0.23
   7  21  -3    0.85    0.08
   7 -21  -3    1.03    0.08
  -7  21   2    1.23    0.11
   7  21  -2    1.26    0.08
   7 -21  -2    1.29    0.09
   7  21  -1   10.31    0.27
   7 -21  -1   10.27    0.28
   7  21   0    3.39    0.12
   7 -21   0    3.58    0.13
   7 -21   1   23.68    0.57
   7  21   2    0.99    0.05
   7 -21   2    0.93    0.08
   7 -21   2    0.83    0.06
   7  21   3    1.73    0.06
   7  21   3    1.56    0.09
   7 -21   3    1.70    0.07
   7 -21   3    1.75    0.10
   7  21   4    2.69    0.07
   7  21   4    2.55    0.11
   7 -21   4    2.52    0.12
   7  21   5    0.67    0.03
   7 -21   5    0.64    0.07
  -7  22   6    0.98    0.06
   7  22  -5   -0.03    0.03
  -7  22   5    0.02    0.03
  -7  22   4    2.62    0.11
   7  22  -4    2.60    0.11
   7  22  -3   11.44    0.31
   7 -22  -3   12.17    0.32
   7  22  -2   16.13    0.40
  -7  22   2   16.05    0.53
   7 -22  -2   15.69    0.41
   7  22  -1    0.45    0.06
   7 -22  -1    0.52    0.07
   7  22   0   15.06    0.37
   7 -22   0   14.59    0.38
   7 -22   1    5.93    0.18
   7  22   2    2.54    0.07
   7 -22   2    2.44    0.11
   7 -22   2    2.20    0.09
   7  22   3    1.05    0.05
   7  22   3    1.02    0.08
   7 -22   3    1.15    0.09
   7 -22   3    0.93    0.06
   7  22   4    0.11    0.02
   7 -22   4    0.09    0.04
   7  22   5    3.07    0.07
   7 -22   5    3.15    0.11
  -7  23   6    0.15    0.03
  -7  23   5    0.73    0.06
   7  23  -5    0.67    0.06
  -7  23   4    1.57    0.09
   7  23  -4    1.65    0.09
   7  23  -3    3.80    0.14
   7 -23  -3    3.71    0.14
   7  23  -2    1.41    0.08
   7 -23  -2    1.42    0.09
   7  23  -1    0.06    0.04
   7 -23  -1    0.06    0.04
   7  23   0    0.15    0.03
   7 -23   0    0.18    0.04
   7 -23   1   -0.02    0.04
   7  23   2    0.84    0.05
   7 -23   2    0.69    0.06
   7 -23   2    0.86    0.08
   7  23   3    8.37    0.18
   7 -23   3    8.13    0.21
   7 -23   3    8.43    0.25
   7  23   4    6.09    0.13
   7 -23   4    6.33    0.19
   7  23   5    1.05    0.04
   7 -23   5    0.92    0.07
   7  24  -5    4.01    0.13
  -7  24   5    3.96    0.13
   7  24  -4    3.55    0.13
  -7  24   4    3.46    0.12
   7  24  -3   11.15    0.29
   7 -24  -3   10.91    0.30
   7  24  -2    7.13    0.21
   7 -24  -2    7.19    0.21
   7  24  -1   17.91    0.44
   7 -24  -1   17.76    0.45
   7  24   0    0.08    0.03
   7 -24   0    0.07    0.04
   7 -24   1    0.31    0.05
   7 -24   2   11.94    0.31
   7 -24   2   12.10    0.30
   7  24   3    5.03    0.12
   7 -24   3    5.35    0.18
   7 -24   3    4.95    0.14
   7  24   4    5.40    0.12
   7 -24   4    5.55    0.17
   7 -24   5    0.01    0.03
  -7  25   5    0.17    0.03
   7  25  -5    0.17    0.04
   7  25  -4    0.89    0.07
  -7  25   4    0.88    0.07
   7  25  -3    2.78    0.11
   7 -25  -3    2.68    0.11
   7  25  -2    1.53    0.09
   7 -25  -2    1.71    0.09
   7  25  -1    8.32    0.23
   7 -25  -1    8.07    0.23
   7  25   0    3.20    0.11
   7 -25   0    3.17    0.12
   7 -25   1    0.49    0.07
   7 -25   1    0.46    0.06
   7 -25   2    2.83    0.11
   7 -25   2    2.89    0.13
   7  25   3    0.87    0.04
   7 -25   3    0.91    0.08
   7 -25   3    0.71    0.05
   7  25   4    0.05    0.02
   7 -25   4    0.09    0.04
   7  26  -5    0.07    0.03
  -7  26   5    0.07    0.03
   7  26  -4    0.08    0.04
  -7  26   4    0.15    0.04
   7  26  -3    0.05    0.04
   7 -26  -3    0.08    0.04
   7  26  -2    3.48    0.13
   7 -26  -2    3.35    0.13
   7  26  -1    1.25    0.08
   7 -26  -1    1.28    0.09
   7  26   0    8.41    0.23
   7 -26   0    8.63    0.24
   7 -26   1    1.03    0.08
   7 -26   1    1.04    0.07
   7 -26   2    1.29    0.07
   7 -26   2    1.29    0.09
   7 -26   3    0.03    0.03
   7 -26   3    0.07    0.04
   7  26   4    0.09    0.02
   7 -26   4    0.04    0.04
  -7  27   5    1.02    0.06
   7  27  -4    0.77    0.06
  -7  27   4    0.65    0.06
   7  27  -3    1.95    0.09
   7 -27  -3    1.92    0.10
   7  27  -2    0.26    0.04
   7 -27  -2    0.15    0.05
   7  27  -1    5.46    0.17
   7 -27  -1    5.88    0.18
   7  27   0    0.14    0.03
   7 -27   0    0.22    0.05
   7 -27   1    1.57    0.08
   7 -27   1    1.63    0.08
   7 -27   2    1.41    0.09
   7 -27   2    1.32    0.07
   7 -27   3    0.89    0.05
   7 -27   3    0.89    0.08
   7 -27   4    0.06    0.04
  -7  28   4    0.09    0.03
   7  28  -4    0.14    0.04
   7  28  -3    2.63    0.10
   7 -28  -3    2.46    0.10
   7  28  -2    0.45    0.06
   7 -28  -2    0.44    0.05
   7  28  -1    0.06    0.03
   7 -28  -1    0.05    0.04
   7  28   0    0.24    0.04
   7 -28   0    0.30    0.05
   7 -28   1    3.16    0.11
   7 -28   1    3.22    0.12
   7 -28   2    1.94    0.08
   7 -28   2    1.92    0.10
   7 -28   3    2.11    0.10
   7 -28   3    2.21    0.08
   7 -28   4    0.45    0.05
   7  29  -4    5.91    0.16
  -7  29   4    5.62    0.16
   7  29  -3    5.03    0.15
   7 -29  -3    4.75    0.15
   7  29  -2    3.19    0.11
   7 -29  -2    3.18    0.12
   7  29  -1    0.60    0.06
   7 -29  -1    0.52    0.07
   7  29   0    1.18    0.06
   7 -29   0    1.20    0.08
   7 -29   1    2.06    0.09
   7 -29   2    0.13    0.04
   7 -29   2    0.10    0.03
   7 -29   3    0.03    0.02
   7 -29   3    0.00    0.04
   7  30  -4    0.02    0.03
   7  30  -3    2.54    0.10
   7  30  -2    0.11    0.03
   7 -30  -2    0.18    0.04
   7  30  -1   -0.04    0.03
   7 -30  -1   -0.03    0.04
   7  30   0    0.19    0.03
   7 -30   0    0.24    0.04
   7 -30   1    0.48    0.05
   7 -30   2    1.01    0.07
   7 -30   2    0.90    0.06
   7 -30   3    0.47    0.06
   7  31  -3    0.01    0.03
   7  31  -2    0.14    0.03
   7 -31  -2    0.05    0.04
   7  31  -1    0.10    0.03
   7 -31  -1    0.09    0.04
   7  31   0    0.41    0.04
   7 -31   0    0.38    0.05
   7 -31   1    2.40    0.11
   7 -31   1    2.79    0.10
   7 -31   2    0.08    0.04
   7 -31   2    0.06    0.03
   7 -31   3    0.23    0.04
   7  32  -3    1.69    0.07
   7  32  -2    0.61    0.05
   7 -32  -2    0.68    0.06
   7  32  -1    0.87    0.06
   7 -32  -1    0.91    0.07
   7  32   0    0.46    0.04
   7 -32   0    0.48    0.06
   7 -32   1    2.72    0.11
   7 -32   1    2.84    0.10
   7 -32   2    0.13    0.04
   7 -32   2    0.11    0.03
   7  33  -2    0.03    0.03
   7 -33  -2    0.02    0.03
   7  33  -1    0.39    0.04
   7 -33  -1    0.39    0.04
   7  33   0    0.07    0.02
   7 -33   0    0.08    0.04
   7 -33   1    0.21    0.04
   7 -33   1    0.24    0.03
   7 -33   2    0.12    0.03
   7  34  -2   -0.01    0.02
   7  34  -1    3.11    0.09
   7 -34  -1    3.12    0.10
   7 -34   0    0.11    0.03
   7 -34   0    0.07    0.03
   7 -34   1    0.23    0.03
   7 -34   1    0.22    0.04
  -8   0   7    0.01    0.03
  -8   0   6   10.25    0.27
   8   0  -5    0.05    0.04
  -8   0   5    0.01    0.04
   8   0  -4    0.25    0.05
   8   0  -3    0.01    0.03
   8   0  -2    1.26    0.07
   8   0  -2    1.07    0.07
   8   0  -1    0.04    0.03
   8   0  -1    0.04    0.02
   8   0   0    0.28    0.05
   8   0   0    0.24    0.03
   8   0   0    0.33    0.04
   8   0   0    0.29    0.05
   8   0   1   -0.02    0.04
   8   0   1   -0.01    0.02
   8   0   1    0.01    0.04
   8   0   1    0.00    0.02
   8   0   2    0.39    0.06
   8   0   2    0.37    0.03
   8   0   2    0.30    0.03
   8   0   2    0.28    0.05
   8   0   3   -0.06    0.04
   8   0   3    0.02    0.04
   8   0   3    0.00    0.02
   8   0   4    0.03    0.04
   8   0   4    0.03    0.01
   8   0   4    0.05    0.04
   8   0   5    0.02    0.04
   8   0   5    0.01    0.01
  -8   1   7    0.10    0.03
  -8  -1   7    0.03    0.03
  -8   1   6    6.18    0.18
  -8  -1   6    5.97    0.18
  -8   1   5    1.04    0.08
   8   1  -5    1.02    0.08
   8  -1  -5    1.07    0.08
  -8  -1   5    1.04    0.08
   8   1  -4    4.08    0.14
  -8   1   4    4.01    0.17
   8  -1  -4    4.32    0.14
   8   1  -3   -0.03    0.03
  -8   1   3   -0.03    0.04
   8  -1  -3    0.03    0.03
   8   1  -2    5.71    0.16
   8   1  -2    5.71    0.17
  -8   1   2    5.76    0.21
   8  -1  -2    5.60    0.16
   8  -1  -2    5.69    0.17
   8   1  -1    0.41    0.05
   8   1  -1    0.44    0.05
   8  -1  -1    0.40    0.05
   8  -1  -1    0.53    0.05
   8   1   0    4.56    0.15
   8   1   0    4.56    0.13
   8   1   0    4.39    0.14
   8   1   0    4.47    0.13
   8  -1   0    4.31    0.13
   8  -1   0    4.65    0.15
   8  -1   0    4.51    0.13
   8  -1   0    4.35    0.14
   8   1   1    9.89    0.27
   8   1   1   10.68    0.24
   8   1   1   10.01    0.21
   8   1   1   10.08    0.27
   8  -1   1    9.92    0.21
   8  -1   1    9.90    0.27
   8  -1   1   10.30    0.24
   8  -1   1    9.50    0.27
   8   1   2   10.18    0.21
   8   1   2    9.93    0.27
   8   1   2    9.89    0.23
   8   1   2    9.84    0.28
   8  -1   2   10.11    0.23
   8  -1   2   10.23    0.28
   8  -1   2   10.02    0.27
   8  -1   2   10.12    0.21
   8   1   3    0.08    0.04
   8   1   3    0.11    0.04
   8   1   3    0.10    0.02
   8  -1   3    0.16    0.05
   8  -1   3    0.12    0.02
   8  -1   3    0.10    0.04
   8   1   4    4.28    0.09
   8   1   4    4.29    0.15
   8   1   4    4.20    0.15
   8  -1   4    4.21    0.15
   8  -1   4    4.26    0.15
   8  -1   4    4.36    0.09
   8   1   5    0.39    0.05
   8   1   5    0.37    0.02
   8  -1   5    0.40    0.03
   8  -1   5    0.42    0.05
   8  -1   6    2.57    0.06
  -8   2   7    5.46    0.15
  -8  -2   7    5.45    0.16
  -8   2   6    5.39    0.16
  -8  -2   6    5.26    0.16
  -8   2   5    8.07    0.22
   8   2  -5    7.63    0.22
   8  -2  -5    7.73    0.22
  -8  -2   5    7.79    0.22
   8   2  -4   17.63    0.44
  -8   2   4   18.10    0.55
   8  -2  -4   17.81    0.44
   8   2  -3   -0.01    0.03
  -8   2   3    0.06    0.05
   8  -2  -3    0.03    0.04
  -8   2   2    6.79    0.24
   8   2  -2    7.15    0.19
   8   2  -2    6.82    0.19
   8  -2  -2    6.72    0.19
   8  -2  -2    6.98    0.19
   8   2  -1    0.21    0.03
   8   2  -1    0.21    0.03
   8  -2  -1    0.15    0.03
   8  -2  -1    0.17    0.04
   8  -2  -1    0.21    0.04
   8   2   0    0.88    0.06
   8   2   0    0.88    0.07
   8   2   0    0.86    0.05
   8   2   0    0.92    0.05
   8  -2   0    0.93    0.05
   8  -2   0    0.84    0.07
   8  -2   0    0.81    0.07
   8  -2   0    0.95    0.05
   8   2   1    1.92    0.09
   8   2   1    1.92    0.07
   8   2   1    1.79    0.10
   8   2   1    1.87    0.06
   8  -2   1    1.78    0.09
   8  -2   1    1.90    0.09
   8  -2   1    1.79    0.06
   8   2   2    4.20    0.11
   8   2   2    4.35    0.15
   8   2   2    4.48    0.10
   8   2   2    4.53    0.15
   8  -2   2    4.28    0.12
   8  -2   2    4.44    0.10
   8  -2   2    4.42    0.15
   8  -2   2    4.37    0.15
   8   2   3    2.85    0.07
   8   2   3    2.72    0.12
   8   2   3    2.72    0.12
   8  -2   3    2.81    0.07
   8  -2   3    2.57    0.12
   8  -2   3    2.80    0.12
   8   2   4    1.53    0.04
   8   2   4    1.40    0.09
   8  -2   4    1.52    0.09
   8  -2   4    1.53    0.09
   8  -2   4    1.54    0.05
   8   2   5    2.89    0.12
   8  -2   5    2.97    0.12
   8  -2   5    3.08    0.07
   8  -2   6    0.15    0.01
  -8   3   7    0.90    0.06
  -8  -3   7    0.85    0.06
  -8   3   6    0.82    0.07
  -8  -3   6    0.77    0.07
   8   3  -5    1.45    0.09
  -8   3   5    1.67    0.09
   8  -3  -5    1.54    0.09
   8   3  -4    2.61    0.11
  -8   3   4    2.25    0.13
   8  -3  -4    2.67    0.11
   8   3  -3    3.81    0.13
  -8   3   3    3.75    0.17
   8  -3  -3    3.93    0.13
   8   3  -2   12.80    0.32
  -8   3   2   13.41    0.42
   8   3  -2   13.63    0.33
   8  -3  -2   13.64    0.34
   8  -3  -2   12.62    0.32
   8   3  -1    0.01    0.03
   8   3  -1    0.02    0.02
   8  -3  -1    0.01    0.02
   8  -3  -1   -0.02    0.03
   8   3   0    1.25    0.05
   8   3   0    1.17    0.06
   8   3   0    1.22    0.06
   8   3   0    1.13    0.08
   8   3   0    1.25    0.07
   8  -3   0    1.26    0.06
   8  -3   0    1.30    0.08
   8  -3   0    1.34    0.06
   8  -3   0    1.28    0.08
   8   3   1   24.75    0.49
   8   3   1   25.53    0.56
   8   3   1   25.81    0.60
   8   3   1   24.87    0.60
   8  -3   1   24.39    0.49
   8  -3   1   25.42    0.56
   8  -3   1   25.27    0.61
   8  -3   1   25.16    0.60
   8   3   2    4.24    0.11
   8   3   2    4.31    0.10
   8   3   2    4.45    0.15
   8   3   2    4.43    0.15
   8  -3   2    4.40    0.15
   8  -3   2    4.64    0.10
   8  -3   2    4.42    0.15
   8   3   3    3.00    0.07
   8   3   3    3.20    0.13
   8   3   3    3.29    0.13
   8  -3   3    3.00    0.08
   8  -3   3    3.03    0.12
   8  -3   3    2.93    0.12
   8   3   4    2.68    0.06
   8   3   4    2.57    0.12
   8  -3   4    2.63    0.07
   8  -3   4    2.59    0.12
   8  -3   4    2.58    0.12
   8   3   5    0.27    0.05
   8  -3   5    0.22    0.02
   8  -3   6    4.44    0.09
  -8   4   7    0.25    0.04
  -8  -4   7    0.23    0.04
  -8   4   6    0.65    0.06
  -8  -4   6    0.50    0.06
   8   4  -5    5.22    0.17
  -8   4   5    5.32    0.17
   8  -4  -5    5.13    0.17
  -8   4   4    3.97    0.17
   8   4  -4    3.90    0.14
   8  -4  -4    4.05    0.14
   8   4  -3    3.86    0.14
  -8   4   3    3.76    0.17
   8  -4  -3    4.16    0.14
   8   4  -2    0.15    0.03
  -8   4   2    0.18    0.05
   8   4  -2    0.15    0.03
   8  -4  -2    0.15    0.03
   8   4  -1    1.53    0.07
   8   4  -1    1.63    0.07
   8  -4  -1    1.67    0.07
   8  -4  -1    1.74    0.08
   8   4   0   10.74    0.26
   8   4   0   10.52    0.29
   8   4   0   11.21    0.27
   8   4   0   10.37    0.23
   8  -4   0   10.62    0.27
   8  -4   0   10.70    0.29
   8  -4   0   11.08    0.26
   8  -4   0   11.08    0.28
   8   4   1    0.04    0.02
   8   4   1    0.11    0.02
   8   4   1    0.06    0.04
   8   4   1    0.09    0.04
   8  -4   1    0.09    0.02
   8  -4   1    0.13    0.04
   8  -4   1    0.07    0.04
   8  -4   1    0.05    0.02
   8   4   2    0.11    0.04
   8   4   2    0.09    0.04
   8   4   2    0.07    0.02
   8  -4   2    0.13    0.05
   8  -4   2    0.11    0.02
   8  -4   2    0.01    0.04
   8   4   3    1.19    0.08
   8   4   3    1.03    0.04
   8   4   3    1.18    0.09
   8  -4   3    0.98    0.08
   8  -4   3    1.11    0.04
   8  -4   3    1.05    0.08
   8   4   4    2.62    0.06
   8   4   4    2.49    0.12
   8  -4   4    2.40    0.11
   8  -4   4    2.42    0.11
   8  -4   4    2.63    0.07
   8   4   5    0.46    0.06
   8  -4   5    0.63    0.03
   8  -4   6    0.26    0.02
  -8   5   7    0.89    0.06
  -8  -5   7    0.87    0.06
  -8   5   6    0.29    0.04
  -8  -5   6    0.29    0.05
  -8   5   5    0.15    0.04
   8   5  -5    0.22    0.04
   8  -5  -5    0.17    0.04
  -8   5   4    0.84    0.09
   8   5  -4    0.91    0.07
   8  -5  -4    0.94    0.07
  -8   5   3    1.92    0.12
   8   5  -3    2.24    0.10
   8  -5  -3    2.30    0.10
   8   5  -2    1.04    0.07
   8   5  -2    1.04    0.06
   8  -5  -2    0.97    0.07
   8   5  -1    0.10    0.03
   8   5  -1    0.06    0.03
   8   5  -1    0.08    0.04
   8  -5  -1    0.09    0.03
   8  -5  -1    0.12    0.03
   8   5   0    1.13    0.05
   8   5   0    0.93    0.06
   8   5   0    0.94    0.04
   8   5   0    1.02    0.07
   8  -5   0    1.07    0.06
   8  -5   0    1.13    0.08
   8  -5   0    1.06    0.07
   8  -5   0    0.92    0.05
   8   5   1    0.36    0.04
   8   5   1    0.41    0.06
   8   5   1    0.47    0.06
   8   5   1    0.38    0.03
   8  -5   1    0.33    0.04
   8  -5   1    0.37    0.04
   8  -5   1    0.31    0.04
   8  -5   1    0.37    0.05
   8  -5   1    0.53    0.07
   8   5   2    2.42    0.11
   8   5   2    2.44    0.06
   8   5   2    2.53    0.11
   8  -5   2    2.43    0.07
   8  -5   2    2.47    0.11
   8  -5   2    2.48    0.11
   8   5   3    4.35    0.10
   8   5   3    4.48    0.15
   8   5   3    4.75    0.16
   8  -5   3    4.32    0.15
   8  -5   3    4.08    0.15
   8  -5   3    4.42    0.10
   8   5   4    0.39    0.02
   8   5   4    0.42    0.06
   8  -5   4    0.34    0.03
   8  -5   4    0.41    0.06
   8   5   5    0.15    0.05
   8  -5   5    0.19    0.02
   8  -5   6    0.19    0.02
  -8   6   7    4.13    0.12
  -8  -6   7    3.92    0.12
  -8   6   6    0.00    0.03
  -8  -6   6    0.03    0.03
   8   6  -5    6.05    0.19
  -8   6   5    6.19    0.19
   8  -6  -5    6.08    0.19
   8   6  -4    1.83    0.10
  -8   6   4    1.98    0.12
   8  -6  -4    2.06    0.10
  -8   6   3    9.18    0.33
   8   6  -3    9.91    0.26
   8  -6  -3   10.12    0.26
   8   6  -2    1.22    0.07
   8   6  -2    1.19    0.07
   8  -6  -2    1.14    0.07
   8   6  -1    3.37    0.11
   8   6  -1    3.19    0.10
   8   6  -1    3.29    0.12
   8  -6  -1    3.29    0.11
   8  -6  -1    3.20    0.11
   8   6   0    0.10    0.02
   8   6   0    0.00    0.04
   8   6   0    0.04    0.03
   8   6   0    0.05    0.02
   8  -6   0    0.09    0.03
   8  -6   0    0.07    0.03
   8  -6   0    0.01    0.04
   8  -6   0    0.01    0.04
   8   6   1    6.95    0.20
   8   6   1    6.93    0.15
   8   6   1    6.82    0.20
   8   6   1    7.14    0.17
   8  -6   1    7.18    0.21
   8  -6   1    6.62    0.15
   8  -6   1    6.65    0.18
   8  -6   1    7.01    0.20
   8  -6   1    6.99    0.18
   8   6   2    9.62    0.26
   8   6   2    9.43    0.19
   8   6   2    9.15    0.25
   8  -6   2    9.30    0.26
   8  -6   2    9.38    0.26
   8  -6   2    9.38    0.20
   8   6   3   11.55    0.23
   8   6   3   11.95    0.31
   8   6   3   11.86    0.31
   8  -6   3   11.46    0.31
   8  -6   3   11.28    0.24
   8  -6   3   10.96    0.31
   8   6   4    2.91    0.07
   8   6   4    3.03    0.13
   8  -6   4    3.01    0.08
   8  -6   4    2.83    0.12
   8   6   5    0.56    0.08
   8  -6   5    0.57    0.03
   8  -6   6    0.14    0.02
  -8   7   7   -0.01    0.03
  -8  -7   7   -0.02    0.03
  -8   7   6    8.79    0.23
  -8  -7   6    8.40    0.23
  -8   7   5    0.52    0.07
   8   7  -5    0.40    0.05
   8  -7  -5    0.54    0.07
   8   7  -4    0.12    0.04
  -8   7   4    0.14    0.06
   8  -7  -4    0.07    0.04
   8   7  -3    1.99    0.09
  -8   7   3    1.88    0.12
   8  -7  -3    1.96    0.09
   8   7  -2    1.54    0.07
   8   7  -2    1.47    0.08
   8  -7  -2    1.58    0.08
   8   7  -1    0.09    0.04
   8   7  -1    0.09    0.03
   8   7  -1    0.10    0.03
   8  -7  -1    0.15    0.03
   8  -7  -1    0.19    0.03
   8   7   0    4.89    0.14
   8   7   0    4.87    0.16
   8   7   0    4.71    0.13
   8   7   0    4.57    0.12
   8  -7   0    4.80    0.15
   8  -7   0    4.64    0.14
   8  -7   0    4.77    0.14
   8  -7   0    4.73    0.16
   8   7   1   13.09    0.29
   8   7   1   12.16    0.32
   8   7   1   12.18    0.32
   8   7   1   12.37    0.25
   8  -7   1   12.43    0.29
   8  -7   1   12.87    0.31
   8  -7   1   12.36    0.32
   8  -7   1   12.04    0.32
   8  -7   1   12.31    0.26
   8   7   2    4.86    0.11
   8   7   2    4.88    0.16
   8   7   2    4.94    0.17
   8  -7   2    4.79    0.11
   8  -7   2    5.06    0.16
   8  -7   2    4.72    0.16
   8   7   3    0.40    0.06
   8   7   3    0.36    0.03
   8  -7   3    0.39    0.03
   8  -7   3    0.46    0.06
   8   7   4    3.47    0.14
   8   7   4    3.25    0.07
   8  -7   4    3.37    0.08
   8  -7   4    3.48    0.13
   8   7   5    0.46    0.06
   8  -7   5    0.59    0.03
   8  -7   6    2.83    0.07
  -8   8   7    0.10    0.03
  -8  -8   7    0.04    0.03
  -8   8   6    6.14    0.18
  -8  -8   6    6.00    0.18
  -8   8   5    5.81    0.18
   8   8  -5    5.70    0.18
   8  -8  -5    5.55    0.18
  -8   8   4    0.73    0.09
   8   8  -4    0.73    0.07
   8  -8  -4    0.69    0.07
  -8   8   3    4.17    0.19
   8   8  -3    4.67    0.15
   8  -8  -3    4.71    0.15
   8   8  -2    1.82    0.08
   8   8  -2    1.89    0.09
   8  -8  -2    1.81    0.09
   8   8  -1    4.99    0.16
   8   8  -1    4.95    0.15
   8   8  -1    4.98    0.14
   8  -8  -1    4.91    0.15
   8  -8  -1    4.62    0.14
   8   8   0    1.26    0.06
   8   8   0    1.15    0.08
   8   8   0    1.18    0.06
   8  -8   0    1.22    0.06
   8  -8   0    1.09    0.06
   8  -8   0    1.12    0.08
   8   8   1    0.94    0.04
   8   8   1    0.93    0.08
   8   8   1    1.00    0.05
   8   8   1    0.83    0.07
   8  -8   1    0.86    0.07
   8  -8   1    0.99    0.08
   8  -8   1    0.93    0.06
   8  -8   1    0.89    0.05
   8   8   2   38.30    0.90
   8   8   2   38.70    0.91
   8   8   2   39.62    0.75
   8  -8   2   38.30    0.76
   8  -8   2   39.58    0.91
   8   8   3    1.27    0.09
   8   8   3    1.26    0.04
   8  -8   3    1.22    0.05
   8  -8   3    1.11    0.09
   8   8   4    0.06    0.05
   8   8   4    0.01    0.01
   8  -8   4    0.02    0.04
   8  -8   4    0.02    0.02
   8   8   5    0.04    0.04
   8  -8   5    0.01    0.02
   8  -8   6    0.97    0.04
  -8   9   7    1.72    0.07
  -8  -9   7    1.65    0.07
  -8   9   6    0.78    0.06
  -8  -9   6    0.74    0.07
  -8   9   5    8.22    0.23
   8   9  -5    7.95    0.23
   8  -9  -5    8.27    0.23
   8   9  -4    3.35    0.13
  -8   9   4    3.41    0.16
   8  -9  -4    3.35    0.13
  -8   9   3    2.77    0.14
   8   9  -3    2.74    0.11
   8  -9  -3    2.63    0.11
   8   9  -2    7.12    0.20
   8   9  -2    6.98    0.19
   8  -9  -2    7.25    0.20
   8   9  -1    2.62    0.11
   8   9  -1    2.84    0.10
   8   9  -1    2.82    0.10
   8  -9  -1    2.87    0.10
   8  -9  -1    2.83    0.11
   8   9   0    3.69    0.11
   8   9   0    3.56    0.11
   8   9   0    3.45    0.13
   8  -9   0    3.48    0.11
   8  -9   0    3.46    0.13
   8  -9   0    3.55    0.12
   8   9   1    9.07    0.19
   8   9   1    9.05    0.25
   8  -9   1    8.98    0.23
   8  -9   1    9.00    0.25
   8   9   2   31.59    0.73
   8   9   2   30.10    0.72
   8   9   2   30.99    0.59
   8  -9   2   30.84    0.73
   8  -9   2   29.68    0.60
   8   9   3    0.12    0.02
   8   9   3    0.06    0.05
   8  -9   3    0.06    0.02
   8  -9   3    0.09    0.05
   8   9   4    3.86    0.14
   8   9   4    3.72    0.08
   8  -9   4    3.75    0.09
   8  -9   4    3.58    0.14
   8   9   5    0.41    0.05
   8  -9   5    0.47    0.03
   8  -9   6    1.01    0.04
  -8  10   7    0.22    0.03
  -8  10   6    0.87    0.06
  -8 -10   6    0.76    0.06
  -8  10   5    0.35    0.05
   8  10  -5    0.36    0.05
   8 -10  -5    0.41    0.05
  -8  10   4    3.11    0.16
   8  10  -4    3.14    0.12
   8 -10  -4    3.08    0.12
  -8  10   3    6.13    0.23
   8  10  -3    5.62    0.18
   8 -10  -3    5.19    0.17
   8  10  -2    2.26    0.10
   8  10  -2    2.21    0.09
   8 -10  -2    2.35    0.10
   8  10  -1    5.34    0.15
   8  10  -1    5.29    0.16
   8  10  -1    5.76    0.17
   8 -10  -1    5.16    0.16
   8 -10  -1    5.31    0.16
   8  10   0    0.12    0.03
   8  10   0    0.08    0.04
   8  10   0    0.15    0.03
   8 -10   0    0.14    0.03
   8 -10   0    0.09    0.03
   8 -10   0    0.14    0.05
   8  10   1    0.04    0.04
   8  10   1    0.04    0.02
   8 -10   1   -0.01    0.04
   8 -10   1    0.09    0.03
   8  10   2    8.14    0.23
   8  10   2    7.94    0.17
   8 -10   2    7.96    0.23
   8 -10   2    7.93    0.18
   8  10   3    3.25    0.08
   8  10   3    3.20    0.13
   8 -10   3    3.31    0.09
   8 -10   3    3.15    0.13
   8  10   4    0.09    0.05
   8  10   4    0.11    0.02
   8 -10   4    0.09    0.02
   8 -10   4    0.17    0.05
   8  10   5    0.12    0.04
   8 -10   5    0.09    0.02
   8 -10   6    0.03    0.02
  -8  11   7    0.03    0.03
  -8  11   6    0.01    0.03
  -8 -11   6    0.03    0.03
   8  11  -5    0.53    0.07
  -8  11   5    0.50    0.07
   8  11  -4    5.60    0.18
   8 -11  -4    5.85    0.18
   8  11  -3    0.62    0.07
  -8  11   3    0.61    0.09
   8 -11  -3    0.62    0.07
   8  11  -2    1.69    0.08
   8  11  -2    1.58    0.09
   8 -11  -2    1.86    0.09
   8  11  -1    0.14    0.03
   8  11  -1    0.19    0.04
   8  11  -1    0.24    0.04
   8 -11  -1    0.18    0.04
   8 -11  -1    0.11    0.03
   8  11   0    0.61    0.07
   8  11   0    0.68    0.05
   8  11   0    0.58    0.05
   8 -11   0    0.60    0.05
   8 -11   0    0.53    0.06
   8  11   1   21.81    0.53
   8  11   1   21.77    0.43
   8 -11   1   21.34    0.51
   8 -11   1   21.52    0.53
   8  11   2    8.89    0.19
   8  11   2    9.08    0.26
   8 -11   2    9.25    0.25
   8 -11   2    8.95    0.20
   8  11   3    2.56    0.07
   8  11   3    2.75    0.12
   8 -11   3    2.56    0.07
   8 -11   3    2.57    0.11
   8  11   4    1.55    0.10
   8  11   4    1.55    0.04
   8 -11   4    1.60    0.09
   8 -11   4    1.61    0.06
   8  11   5    5.87    0.18
   8 -11   5    5.87    0.13
   8 -11   6    0.91    0.03
  -8  12   6    0.21    0.04
  -8 -12   6    0.17    0.04
  -8  12   5    4.09    0.14
   8  12  -5    3.80    0.14
   8  12  -4    8.83    0.25
   8 -12  -4    9.35    0.26
  -8  12   3    0.19    0.06
   8  12  -3    0.24    0.04
   8 -12  -3    0.20    0.05
   8  12  -2   -0.01    0.04
   8  12  -2    0.05    0.03
   8 -12  -2    0.01    0.04
   8  12  -1    2.87    0.11
   8  12  -1    2.74    0.10
   8 -12  -1    2.69    0.11
   8  12   0   11.00    0.29
   8  12   0   10.92    0.27
   8 -12   0   10.68    0.28
   8  12   1    0.09    0.02
   8  12   1    0.04    0.04
   8 -12   1    0.07    0.04
   8 -12   1    0.07    0.03
   8  12   2    0.85    0.08
   8  12   2    0.84    0.04
   8 -12   2    0.81    0.08
   8 -12   2    0.83    0.07
   8  12   3    4.12    0.15
   8  12   3    4.05    0.09
   8 -12   3    4.31    0.15
   8 -12   3    4.08    0.10
   8 -12   3    4.24    0.15
   8  12   4    0.25    0.05
   8  12   4    0.36    0.03
   8 -12   4    0.39    0.04
   8 -12   4    0.40    0.06
   8  12   5    0.51    0.07
   8 -12   5    0.37    0.03
  -8  13   6    1.22    0.07
  -8 -13   6    1.27    0.07
   8  13  -5    0.42    0.05
  -8  13   5    0.39    0.05
   8  13  -4    0.16    0.04
   8 -13  -4    0.19    0.05
   8  13  -3    0.09    0.05
  -8  13   3    0.04    0.05
   8  13  -3    0.03    0.04
   8 -13  -3    0.04    0.04
   8  13  -2   12.67    0.34
   8  13  -2   13.56    0.34
   8 -13  -2   13.24    0.34
   8  13  -1    0.64    0.06
   8  13  -1    0.63    0.07
   8 -13  -1    0.60    0.06
   8  13   0    2.77    0.11
   8  13   0    2.60    0.09
   8 -13   0    2.79    0.10
   8  13   1    1.36    0.09
   8  13   1    1.15    0.05
   8 -13   1    1.05    0.07
   8 -13   1    1.28    0.08
   8  13   2    1.88    0.10
   8  13   2    1.65    0.06
   8 -13   2    1.78    0.10
   8 -13   2    1.68    0.09
   8  13   3    1.22    0.09
   8  13   3    1.17    0.04
   8 -13   3    1.21    0.09
   8 -13   3    1.20    0.08
   8 -13   3    1.18    0.05
   8  13   4   22.22    0.42
   8  13   4   21.61    0.53
   8 -13   4   21.32    0.52
   8 -13   4   20.36    0.54
   8 -13   4   21.78    0.43
   8  13   5    2.13    0.10
   8  13   5    2.17    0.05
   8 -13   5    2.03    0.06
  -8  14   6    0.25    0.04
   8  14  -5   16.89    0.42
  -8  14   5   16.59    0.42
   8  14  -4   11.97    0.31
   8 -14  -4   11.46    0.31
  -8  14   3    1.73    0.12
   8  14  -3    1.66    0.09
   8 -14  -3    1.61    0.09
   8  14  -2    0.63    0.07
   8  14  -2    0.58    0.06
   8 -14  -2    0.61    0.07
   8  14  -1    9.89    0.27
   8  14  -1   10.06    0.26
   8 -14  -1    9.94    0.27
   8  14   0    0.05    0.04
   8  14   0    0.06    0.03
   8 -14   0    0.03    0.03
   8  14   1    1.46    0.06
   8  14   1    1.47    0.09
   8 -14   1    1.63    0.10
   8 -14   1    1.40    0.07
   8  14   2    6.77    0.15
   8  14   2    7.16    0.21
   8 -14   2    6.81    0.21
   8 -14   2    6.78    0.18
   8  14   3    1.86    0.10
   8  14   3    1.82    0.05
   8 -14   3    1.81    0.10
   8 -14   3    1.94    0.10
   8  14   4    2.28    0.06
   8  14   4    2.26    0.11
   8 -14   4    2.02    0.10
   8 -14   4    2.14    0.07
   8 -14   4    2.23    0.10
   8  14   5    1.31    0.08
   8  14   5    1.42    0.04
   8 -14   5    1.32    0.05
  -8  15   6    1.79    0.08
  -8  15   5    3.09    0.12
   8  15  -5    3.23    0.12
   8  15  -4    3.67    0.14
   8 -15  -4    3.61    0.13
  -8  15   3    0.66    0.09
   8  15  -3    0.53    0.06
   8 -15  -3    0.40    0.05
   8  15  -2    0.10    0.04
   8 -15  -2    0.07    0.04
   8  15  -1    1.40    0.08
   8  15  -1    1.49    0.09
   8 -15  -1    1.38    0.08
   8  15   0    5.54    0.17
   8  15   0    5.56    0.16
   8 -15   0    5.61    0.17
   8  15   1    0.02    0.02
   8  15   1    0.02    0.04
   8 -15   1    0.06    0.05
   8 -15   1    0.01    0.03
   8  15   2    3.01    0.12
   8  15   2    2.98    0.08
   8 -15   2    2.73    0.12
   8 -15   2    3.06    0.10
   8  15   3    0.93    0.04
   8  15   3    0.98    0.08
   8 -15   3    1.04    0.08
   8 -15   3    0.85    0.08
   8  15   4    3.19    0.07
   8  15   4    2.98    0.12
   8 -15   4    2.88    0.12
   8 -15   4    3.00    0.12
   8  15   5    0.23    0.04
   8  15   5    0.28    0.02
   8 -15   5    0.23    0.02
  -8  16   6    0.22    0.04
  -8  16   5    0.11    0.04
   8  16  -5    0.14    0.04
   8  16  -4    3.32    0.12
   8 -16  -4    2.97    0.12
   8  16  -3    0.51    0.07
   8 -16  -3    0.41    0.05
   8  16  -2    0.06    0.04
   8 -16  -2    0.09    0.04
   8  16  -1    0.00    0.03
   8  16  -1    0.07    0.04
   8 -16  -1    0.01    0.04
   8  16   0    5.60    0.18
   8  16   0    5.90    0.16
   8 -16   0    5.99    0.18
   8  16   1    2.68    0.08
   8  16   1    2.82    0.12
   8 -16   1    2.77    0.10
   8 -16   1    2.92    0.12
   8  16   2   25.55    0.51
   8  16   2   26.81    0.63
   8 -16   2   26.30    0.61
   8 -16   2   25.47    0.63
   8  16   3    2.93    0.12
   8  16   3    3.08    0.08
   8 -16   3    2.95    0.12
   8 -16   3    2.88    0.12
   8  16   4   -0.03    0.04
   8  16   4    0.05    0.02
   8 -16   4   -0.01    0.04
   8 -16   4   -0.01    0.04
   8  16   5    0.70    0.03
   8 -16   5    0.64    0.06
  -8  17   6    0.47    0.05
   8  17  -5    2.68    0.11
  -8  17   5    2.44    0.10
   8  17  -4    0.32    0.05
   8 -17  -4    0.22    0.05
   8  17  -3    0.87    0.07
   8 -17  -3    0.65    0.07
  -8  17   2    2.78    0.15
   8  17  -2    2.95    0.11
   8 -17  -2    2.93    0.12
   8  17  -1    1.51    0.08
   8 -17  -1    1.47    0.09
   8  17   0    0.14    0.03
   8  17   0    0.08    0.04
   8 -17   0    0.15    0.04
   8  17   1    4.92    0.12
   8  17   1    5.28    0.17
   8 -17   1    5.45    0.17
   8 -17   1    4.85    0.15
   8  17   2    0.37    0.04
   8  17   2    0.51    0.07
   8 -17   2    0.40    0.05
   8 -17   2    0.38    0.06
   8 -17   2    0.46    0.06
   8  17   3    2.82    0.12
   8  17   3    2.86    0.07
   8 -17   3    2.89    0.12
   8 -17   3    2.74    0.12
   8  17   4    0.38    0.03
   8  17   4    0.30    0.05
   8 -17   4    0.39    0.05
   8 -17   4    0.38    0.05
   8  17   5    0.27    0.02
   8 -17   5    0.30    0.04
  -8  18   6    0.00    0.03
  -8  18   5    0.83    0.07
   8  18  -5    0.81    0.07
   8  18  -4    0.88    0.07
   8 -18  -4    0.73    0.07
   8  18  -3    1.19    0.08
   8 -18  -3    1.18    0.08
   8  18  -2    1.46    0.08
   8 -18  -2    1.40    0.09
   8  18  -1    0.29    0.04
   8 -18  -1    0.24    0.05
   8  18   0    6.06    0.17
   8 -18   0    5.82    0.18
   8  18   1    0.36    0.05
   8 -18   1    0.32    0.04
   8 -18   1    0.28    0.05
   8  18   2    0.04    0.02
   8  18   2    0.04    0.04
   8 -18   2    0.01    0.04
   8 -18   2    0.00    0.03
   8 -18   2    0.04    0.04
   8  18   3    0.19    0.02
   8  18   3    0.26    0.05
   8 -18   3    0.18    0.05
   8 -18   3    0.20    0.05
   8  18   4    0.81    0.04
   8  18   4    0.87    0.07
   8 -18   4    0.80    0.07
   8 -18   5    1.80    0.08
  -8  19   6    0.09    0.03
   8  19  -5    0.31    0.04
  -8  19   5    0.23    0.04
   8  19  -4    0.08    0.04
   8 -19  -4    0.05    0.04
   8  19  -3    4.38    0.15
   8 -19  -3    4.22    0.15
   8  19  -2    1.11    0.08
   8 -19  -2    1.14    0.08
   8  19  -1    1.51    0.08
   8 -19  -1    1.32    0.09
   8  19   0    0.14    0.03
   8 -19   0    0.12    0.04
   8  19   1   -0.05    0.04
   8 -19   1    0.04    0.04
   8 -19   1    0.08    0.03
   8  19   2    0.17    0.02
   8  19   2    0.18    0.04
   8 -19   2    0.15    0.03
   8 -19   2    0.12    0.05
   8 -19   2    0.12    0.05
   8  19   3    6.36    0.19
   8  19   3    6.65    0.14
   8 -19   3    6.38    0.20
   8 -19   3    6.49    0.19
   8  19   4    0.24    0.03
   8  19   4    0.17    0.04
   8 -19   4    0.29    0.05
   8  20  -5    0.07    0.03
  -8  20   5    0.03    0.03
   8  20  -4   -0.04    0.03
   8 -20  -4    0.00    0.04
   8  20  -3    0.06    0.04
   8 -20  -3    0.01    0.04
   8  20  -2    0.71    0.07
   8 -20  -2    0.64    0.07
   8  20  -1    0.22    0.04
   8 -20  -1    0.15    0.04
   8  20   0    0.41    0.05
   8 -20   0    0.32    0.05
   8 -20   1    1.77    0.08
   8 -20   1    1.59    0.10
   8  20   2    0.69    0.07
   8  20   2    0.68    0.04
   8 -20   2    0.67    0.08
   8 -20   2    0.69    0.08
   8 -20   2    0.64    0.05
   8  20   3    0.50    0.06
   8  20   3    0.45    0.04
   8 -20   3    0.39    0.05
   8 -20   3    0.58    0.07
   8  20   4    0.93    0.07
   8  20   4    0.99    0.04
   8 -20   4    1.11    0.08
  -8  21   5    0.24    0.04
   8  21  -5    0.31    0.04
   8  21  -4    0.48    0.05
   8 -21  -4    0.57    0.07
   8  21  -3    0.02    0.04
   8 -21  -3    0.03    0.04
   8  21  -2    0.33    0.05
   8 -21  -2    0.35    0.05
   8  21  -1   -0.04    0.03
   8 -21  -1    0.00    0.04
   8  21   0    1.29    0.07
   8 -21   0    1.34    0.08
   8 -21   1    1.13    0.07
   8 -21   1    1.17    0.09
   8  21   2    0.23    0.03
   8  21   2    0.19    0.04
   8 -21   2    0.25    0.04
   8 -21   2    0.23    0.05
   8 -21   2    0.18    0.05
   8  21   3    1.24    0.08
   8  21   3    1.31    0.05
   8 -21   3    1.39    0.09
   8 -21   3    1.30    0.08
   8  21   4    3.46    0.12
   8  21   4    3.70    0.08
   8 -21   4    3.72    0.13
   8  22  -5    1.01    0.06
  -8  22   5    1.17    0.06
   8  22  -4    0.86    0.07
   8 -22  -4    0.90    0.07
   8  22  -3    0.81    0.07
   8 -22  -3    0.84    0.08
   8  22  -2    0.42    0.05
   8 -22  -2    0.39    0.05
   8  22  -1    1.54    0.08
   8 -22  -1    1.62    0.09
   8  22   0    1.78    0.08
   8 -22   0    1.88    0.09
   8 -22   1    0.32    0.04
   8 -22   1    0.24    0.05
   8  22   2   -0.02    0.02
   8 -22   2    0.00    0.03
   8 -22   2   -0.03    0.04
   8 -22   2    0.00    0.04
   8  22   3    5.25    0.12
   8  22   3    5.00    0.15
   8 -22   3    5.36    0.17
   8  22   4    0.04    0.02
   8 -22   4    0.04    0.04
   8  23  -5    1.75    0.08
  -8  23   5    1.94    0.08
   8  23  -4   -0.03    0.03
   8 -23  -4    0.01    0.03
   8  23  -3    0.07    0.04
   8 -23  -3    0.14    0.05
   8  23  -2    0.12    0.04
   8 -23  -2    0.07    0.04
   8  23  -1    2.27    0.10
   8 -23  -1    2.45    0.11
   8  23   0    4.68    0.14
   8 -23   0    4.80    0.15
   8 -23   1    0.04    0.03
   8 -23   1    0.02    0.04
   8 -23   2    0.08    0.04
   8 -23   2    0.07    0.03
   8 -23   2    0.03    0.04
   8  23   3    0.98    0.04
   8 -23   3    1.11    0.08
   8  23   4    1.71    0.05
   8 -23   4    1.77    0.08
   8  24  -5    0.29    0.04
   8  24  -4    3.49    0.12
   8  24  -3    0.00    0.03
   8 -24  -3    0.01    0.04
   8  24  -2    0.35    0.05
   8 -24  -2    0.55    0.07
   8  24  -1    1.40    0.07
   8 -24  -1    1.26    0.08
   8  24   0    0.09    0.03
   8 -24   0    0.01    0.04
   8 -24   1    0.23    0.04
   8 -24   1    0.34    0.05
   8 -24   2    3.03    0.10
   8 -24   2    2.97    0.11
   8 -24   2    2.88    0.12
   8  24   3    0.64    0.04
   8 -24   3    0.70    0.07
   8  24   4    0.21    0.02
   8 -24   4    0.16    0.04
   8  25  -4    0.03    0.03
   8  25  -3    0.02    0.03
   8 -25  -3    0.05    0.04
   8  25  -2    2.26    0.09
   8 -25  -2    2.14    0.10
   8  25  -1    3.35    0.11
   8 -25  -1    3.37    0.12
   8  25   0    0.06    0.03
   8 -25   0    0.09    0.04
   8 -25   1    1.40    0.08
   8 -25   1    1.58    0.09
   8 -25   2    6.24    0.17
   8 -25   2    6.51    0.20
   8 -25   2    6.08    0.18
   8  25   3    0.51    0.03
   8 -25   3    0.43    0.05
   8  26  -4    0.36    0.04
   8  26  -3    0.15    0.04
   8 -26  -3    0.14    0.04
   8  26  -2    6.08    0.18
   8 -26  -2    6.42    0.18
   8  26  -1    0.46    0.05
   8 -26  -1    0.45    0.05
   8  26   0    0.41    0.05
   8 -26   0    0.46    0.05
   8 -26   1    0.14    0.04
   8 -26   1    0.08    0.03
   8 -26   2    3.21    0.12
   8 -26   2    3.15    0.10
   8 -26   3    0.88    0.07
   8  27  -4    0.67    0.05
   8  27  -3    1.68    0.08
   8 -27  -3    1.75    0.08
   8  27  -2    0.02    0.03
   8 -27  -2    0.06    0.04
   8  27  -1    5.22    0.15
   8 -27  -1    5.67    0.16
   8  27   0    0.13    0.03
   8 -27   0    0.09    0.04
   8 -27   0    0.18    0.04
   8 -27   1    2.13    0.09
   8 -27   1    2.04    0.08
   8 -27   2    0.81    0.07
   8 -27   2    0.77    0.05
   8 -27   3    0.05    0.04
   8  28  -3    2.34    0.09
   8 -28  -3    2.32    0.09
   8  28  -2    1.60    0.07
   8 -28  -2    1.78    0.08
   8  28  -1    0.38    0.05
   8 -28  -1    0.37    0.05
   8  28   0    3.29    0.11
   8 -28   0    3.36    0.12
   8 -28   0    3.75    0.12
   8 -28   1    0.04    0.03
   8 -28   1    0.07    0.04
   8 -28   1   -0.01    0.03
   8 -28   2    0.24    0.04
   8 -28   2    0.25    0.03
   8 -28   3    1.34    0.07
   8  29  -3   -0.01    0.03
   8 -29  -3   -0.07    0.03
   8  29  -2    0.14    0.03
   8 -29  -2    0.16    0.04
   8  29  -1    2.30    0.08
   8 -29  -1    2.25    0.09
   8 -29   0    0.79    0.06
   8 -29   0    0.82    0.06
   8 -29   1    1.38    0.07
   8 -29   1    1.27    0.07
   8 -29   1    1.40    0.08
   8 -29   2    0.16    0.03
   8 -29   2    0.17    0.04
   8  30  -3    0.10    0.03
   8  30  -2    0.61    0.05
   8 -30  -2    0.52    0.06
   8  30  -1    0.05    0.03
   8 -30  -1    0.13    0.04
   8 -30   0    2.95    0.10
   8 -30   0    2.49    0.10
   8 -30   1    0.71    0.06
   8 -30   1    0.62    0.05
   8 -30   2    0.05    0.03
   8  31  -2    0.18    0.03
   8 -31  -2    0.12    0.03
   8  31  -1    0.45    0.04
   8 -31  -1    0.55    0.05
   8 -31   0    0.17    0.03
   8 -31   0    0.16    0.03
   8 -31   1    0.17    0.04
   8 -31   1    0.18    0.03
   8 -32  -1    0.19    0.03
   8 -32  -1    0.22    0.03
   8 -32   0    0.93    0.06
   8 -32   0    0.99    0.06
  -9   0   6    2.13    0.09
   9   0  -5   -0.02    0.03
   9   0  -4   14.03    0.36
   9   0  -3    0.05    0.03
   9   0  -2    6.07    0.18
   9   0  -1   -0.01    0.04
   9   0  -1    0.05    0.03
   9   0   0    0.18    0.03
   9   0   0    0.21    0.05
   9   0   0    0.38    0.05
   9   0   1    0.04    0.04
   9   0   1    0.00    0.04
   9   0   1    0.00    0.02
   9   0   2    0.82    0.07
   9   0   2    0.71    0.04
   9   0   2    0.78    0.08
   9   0   3    0.02    0.04
   9   0   3    0.00    0.02
   9   0   3    0.03    0.04
   9   0   4    1.18    0.04
   9   0   4    1.25    0.09
   9   0   5    0.04    0.01
   9   0   5    0.07    0.04
  -9   1   6    5.54    0.16
   9   1  -5    4.02    0.14
   9  -1  -5    3.95    0.14
   9   1  -4    0.37    0.05
   9  -1  -4    0.46    0.06
   9   1  -3   30.30    0.72
   9  -1  -3   30.92    0.72
   9   1  -2    1.41    0.08
   9  -1  -2    1.58    0.08
   9   1  -1   19.26    0.46
   9   1  -1   18.84    0.47
   9  -1  -1   18.65    0.47
   9  -1  -1   19.34    0.46
   9   1   0    2.72    0.11
   9   1   0    2.72    0.09
   9   1   0    2.89    0.12
   9  -1   0    2.73    0.11
   9  -1   0    2.73    0.10
   9  -1   0    2.85    0.12
   9   1   1    0.28    0.05
   9   1   1    0.23    0.05
   9   1   1    0.24    0.03
   9  -1   1    0.32    0.05
   9  -1   1    0.30    0.05
   9  -1   1    0.20    0.03
   9   1   2    0.01    0.02
   9   1   2    0.00    0.04
   9   1   2    0.05    0.04
   9  -1   2    0.06    0.04
   9  -1   2    0.02    0.04
   9  -1   2    0.00    0.02
   9   1   3    3.53    0.14
   9   1   3    3.59    0.09
   9   1   3    3.63    0.14
   9  -1   3    3.64    0.13
   9  -1   3    3.74    0.09
   9  -1   3    3.46    0.14
   9   1   4    0.61    0.07
   9   1   4    0.63    0.03
   9  -1   4    0.61    0.03
   9  -1   4    0.61    0.07
   9   1   5    0.46    0.06
   9   1   5    0.42    0.02
   9  -1   5    0.40    0.03
   9  -1   5    0.36    0.05
  -9   2   6    2.28    0.09
   9   2  -5    0.51    0.06
   9  -2  -5    0.55    0.07
   9   2  -4    0.15    0.04
   9  -2  -4    0.18    0.04
   9   2  -3    0.34    0.05
   9  -2  -3    0.52    0.06
   9   2  -2    2.75    0.11
   9  -2  -2    2.79    0.11
   9   2  -1    9.19    0.24
   9   2  -1    9.64    0.26
   9  -2  -1    9.70    0.26
   9  -2  -1    9.17    0.25
   9  -2  -1    9.02    0.24
   9   2   0    1.44    0.07
   9   2   0    1.43    0.08
   9   2   0    1.47    0.09
   9  -2   0    1.49    0.07
   9  -2   0    1.48    0.08
   9  -2   0    1.42    0.09
   9   2   1   34.52    0.80
   9   2   1   32.76    0.66
   9   2   1   33.87    0.80
   9  -2   1   33.11    0.66
   9  -2   1   35.50    0.80
   9  -2   1   33.66    0.80
   9   2   2    2.75    0.11
   9   2   2    2.64    0.07
   9   2   2    2.68    0.12
   9  -2   2    2.61    0.11
   9  -2   2    2.47    0.07
   9  -2   2    2.48    0.11
   9   2   3    3.04    0.07
   9   2   3    2.86    0.12
   9   2   3    3.05    0.13
   9  -2   3    3.04    0.08
   9  -2   3    2.84    0.12
   9  -2   3    3.00    0.12
   9   2   4    1.65    0.05
   9   2   4    1.69    0.09
   9  -2   4    1.48    0.09
   9  -2   4    1.56    0.05
   9  -2   4    1.77    0.09
   9   2   5    0.21    0.04
   9   2   5    0.19    0.02
   9  -2   5    0.18    0.02
   9   3  -6    0.14    0.04
  -9   3   6    0.13    0.03
   9   3  -5    1.00    0.07
   9  -3  -5    1.02    0.07
   9   3  -4    0.05    0.04
   9  -3  -4    0.01    0.03
   9   3  -3    0.17    0.04
   9  -3  -3    0.14    0.04
   9   3  -2    1.47    0.08
   9  -3  -2    1.50    0.08
   9   3  -1    0.33    0.04
   9   3  -1    0.39    0.05
   9  -3  -1    0.35    0.04
   9  -3  -1    0.59    0.07
   9  -3  -1    0.60    0.07
   9   3   0   14.43    0.35
   9   3   0   14.60    0.37
   9  -3   0   14.14    0.37
   9  -3   0   14.43    0.35
   9  -3   0   14.73    0.37
   9   3   1    8.26    0.23
   9   3   1    7.78    0.17
   9   3   1    8.19    0.23
   9  -3   1    8.26    0.23
   9  -3   1    8.15    0.23
   9  -3   1    7.78    0.18
   9   3   2    9.90    0.26
   9   3   2    9.26    0.27
   9   3   2    9.38    0.20
   9  -3   2    9.25    0.26
   9  -3   2    9.69    0.26
   9  -3   2    9.32    0.20
   9   3   3    0.12    0.04
   9   3   3    0.10    0.05
   9   3   3    0.19    0.02
   9  -3   3    0.17    0.02
   9  -3   3    0.23    0.05
   9  -3   3    0.18    0.05
   9   3   4    4.15    0.09
   9   3   4    4.29    0.15
   9  -3   4    3.94    0.14
   9  -3   4    3.96    0.09
   9  -3   4    4.19    0.14
   9   3   5    0.15    0.01
   9   3   5    0.12    0.04
   9  -3   5    0.13    0.02
   9   4  -6    0.74    0.06
  -9   4   6    0.72    0.06
   9   4  -5    1.21    0.08
   9  -4  -5    1.19    0.08
   9   4  -4    9.32    0.25
   9  -4  -4    8.80    0.25
   9   4  -3    0.76    0.07
  -9   4   3    0.67    0.09
   9  -4  -3    0.67    0.07
   9   4  -2    3.16    0.12
  -9   4   2    3.25    0.15
   9  -4  -2    3.25    0.12
   9   4  -1    2.81    0.12
   9   4  -1    2.60    0.10
   9  -4  -1    2.89    0.12
   9  -4  -1    2.97    0.11
   9  -4  -1    2.89    0.10
   9   4   0   12.88    0.33
   9   4   0   12.19    0.31
   9  -4   0   12.91    0.33
   9  -4   0   12.40    0.31
   9  -4   0   12.98    0.33
   9   4   1    0.28    0.05
   9   4   1    0.37    0.05
   9   4   1    0.34    0.03
   9  -4   1    0.39    0.04
   9  -4   1    0.37    0.05
   9  -4   1    0.40    0.06
   9   4   2    2.56    0.11
   9   4   2    2.16    0.11
   9   4   2    2.29    0.06
   9  -4   2    2.01    0.11
   9  -4   2    2.27    0.07
   9  -4   2    2.27    0.11
   9   4   3    0.95    0.04
   9   4   3    0.81    0.08
   9   4   3    0.91    0.08
   9  -4   3    0.93    0.04
   9  -4   3    0.77    0.07
   9  -4   3    0.83    0.08
   9   4   4    0.37    0.05
   9   4   4    0.41    0.03
   9  -4   4    0.42    0.05
   9  -4   4    0.35    0.05
   9  -4   4    0.37    0.03
   9   4   5   -0.03    0.04
   9  -4   5    0.02    0.01
   9   5  -6    2.38    0.09
  -9   5   6    2.66    0.10
   9   5  -5    1.21    0.08
   9  -5  -5    1.24    0.08
   9   5  -4    4.90    0.15
   9  -5  -4    4.70    0.15
  -9   5   3    4.63    0.20
   9   5  -3    4.95    0.16
   9  -5  -3    4.86    0.16
  -9   5   2    0.16    0.06
   9   5  -2    0.13    0.04
   9  -5  -2    0.08    0.03
   9   5  -1   18.45    0.46
   9   5  -1   18.26    0.44
   9  -5  -1   17.63    0.45
   9  -5  -1   18.26    0.46
   9  -5  -1   18.77    0.44
   9   5   0    3.38    0.11
   9   5   0    3.46    0.13
   9  -5   0    3.38    0.13
   9  -5   0    3.31    0.13
   9  -5   0    3.34    0.11
   9   5   1   33.00    0.77
   9   5   1   33.52    0.78
   9   5   1   32.04    0.64
   9  -5   1   32.23    0.77
   9  -5   1   33.00    0.77
   9   5   2    2.37    0.11
   9   5   2    2.32    0.07
   9   5   2    2.45    0.10
   9  -5   2    2.35    0.11
   9  -5   2    2.33    0.11
   9  -5   2    2.32    0.07
   9   5   3    1.41    0.05
   9   5   3    1.37    0.09
   9  -5   3    1.35    0.09
   9  -5   3    1.49    0.09
   9  -5   3    1.38    0.05
   9   5   4    5.17    0.11
   9   5   4    4.89    0.17
   9  -5   4    5.09    0.11
   9  -5   4    4.96    0.16
   9   5   5    3.87    0.13
   9  -5   5    3.98    0.09
   9   6  -6    2.11    0.09
  -9   6   6    2.04    0.08
   9   6  -5    0.11    0.04
   9  -6  -5    0.09    0.04
   9   6  -4    3.36    0.12
   9  -6  -4    3.54    0.13
   9   6  -3    3.72    0.13
  -9   6   3    3.11    0.16
   9  -6  -3    3.73    0.13
  -9   6   2    2.41    0.14
   9   6  -2    2.46    0.11
   9   6  -2    2.43    0.10
   9  -6  -2    2.21    0.10
   9   6  -1    0.08    0.03
   9   6  -1    0.07    0.04
   9  -6  -1    0.08    0.04
   9  -6  -1    0.05    0.04
   9  -6  -1    0.07    0.03
   9   6   0    0.44    0.05
   9   6   0    0.42    0.06
   9  -6   0    0.52    0.07
   9  -6   0    0.46    0.05
   9  -6   0    0.46    0.06
   9   6   1    0.34    0.05
   9   6   1    0.51    0.04
   9   6   1    0.43    0.05
   9  -6   1    0.50    0.06
   9  -6   1    0.33    0.05
   9   6   2    0.01    0.04
   9   6   2    0.02    0.02
   9   6   2    0.01    0.04
   9  -6   2    0.08    0.04
   9  -6   2    0.01    0.04
   9  -6   2    0.00    0.02
   9   6   3    1.84    0.10
   9   6   3    1.82    0.05
   9  -6   3    1.78    0.06
   9  -6   3    1.80    0.10
   9   6   4    0.06    0.04
   9   6   4    0.05    0.02
   9  -6   4    0.14    0.05
   9  -6   4    0.08    0.02
   9   6   5    0.60    0.07
   9  -6   5    0.55    0.03
  -9   7   6    0.18    0.03
   9   7  -6    0.15    0.04
   9   7  -5    0.52    0.06
   9  -7  -5    0.47    0.07
   9   7  -4    0.16    0.04
   9  -7  -4    0.13    0.04
  -9   7   3    6.41    0.26
   9   7  -3    6.99    0.20
   9  -7  -3    6.72    0.20
   9   7  -2    0.06    0.03
   9   7  -2    0.16    0.05
  -9   7   2    0.14    0.06
   9  -7  -2    0.07    0.04
   9   7  -1    3.74    0.14
   9   7  -1    4.21    0.13
   9  -7  -1    3.60    0.14
   9  -7  -1    3.80    0.14
   9  -7  -1    4.23    0.13
   9   7   0    5.96    0.19
   9   7   0    5.81    0.16
   9  -7   0    5.70    0.18
   9  -7   0    6.09    0.17
   9  -7   0    5.80    0.18
   9   7   1   11.44    0.30
   9   7   1   11.17    0.24
   9  -7   1   12.06    0.31
   9  -7   1   11.27    0.30
   9   7   2   10.03    0.26
   9   7   2    9.76    0.27
   9   7   2    9.54    0.20
   9  -7   2    9.12    0.26
   9  -7   2    9.51    0.21
   9  -7   2    9.75    0.27
   9   7   3    7.72    0.16
   9   7   3    7.53    0.22
   9  -7   3    7.33    0.16
   9  -7   3    7.29    0.22
   9   7   4    1.65    0.09
   9   7   4    1.60    0.05
   9  -7   4    1.66    0.09
   9  -7   4    1.69    0.05
   9   7   5    3.00    0.11
   9  -7   5    3.20    0.08
   9   8  -6    2.08    0.08
  -9   8   6    2.16    0.08
   9   8  -5    3.06    0.12
   9  -8  -5    3.10    0.12
   9   8  -4    0.17    0.04
   9  -8  -4    0.47    0.06
   9   8  -3    4.14    0.14
   9  -8  -3    4.20    0.14
   9   8  -2    0.83    0.07
  -9   8   2    0.75    0.10
   9   8  -2    0.90    0.08
   9  -8  -2    0.91    0.07
   9   8  -1    2.35    0.11
   9   8  -1    2.37    0.09
   9  -8  -1    2.40    0.10
   9  -8  -1    2.39    0.10
   9  -8  -1    2.42    0.11
   9   8   0    0.08    0.03
   9   8   0    0.10    0.05
   9  -8   0    0.10    0.03
   9  -8   0    0.12    0.04
   9  -8   0    0.07    0.04
   9   8   1   38.94    0.88
   9   8   1   36.18    0.73
   9  -8   1   39.06    0.88
   9  -8   1   37.30    0.86
   9  -8   1   35.59    0.87
   9   8   2    0.28    0.05
   9   8   2    0.27    0.03
   9  -8   2    0.27    0.05
   9  -8   2    0.26    0.03
   9   8   3    5.51    0.17
   9   8   3    5.24    0.12
   9  -8   3    4.92    0.17
   9  -8   3    5.22    0.12
   9   8   4    1.57    0.09
   9   8   4    1.57    0.04
   9  -8   4    1.64    0.09
   9  -8   4    1.53    0.05
   9   8   5    0.97    0.07
   9  -8   5    1.02    0.04
   9   9  -6    6.10    0.17
  -9   9   6    6.12    0.17
   9   9  -5    9.22    0.25
   9  -9  -5    9.24    0.25
   9   9  -4   -0.02    0.03
   9  -9  -4    0.00    0.04
   9   9  -3    1.31    0.09
   9   9  -3    1.11    0.08
   9  -9  -3    1.14    0.08
   9   9  -2    3.71    0.14
  -9   9   2    3.56    0.17
   9   9  -2    3.53    0.13
   9  -9  -2    3.60    0.13
   9   9  -1    0.15    0.05
   9   9  -1    0.08    0.03
   9  -9  -1    0.08    0.03
   9  -9  -1    0.07    0.04
   9   9   0    2.44    0.12
   9   9   0    2.66    0.09
   9  -9   0    2.44    0.11
   9  -9   0    2.77    0.10
   9  -9   0    2.83    0.12
   9   9   1    3.81    0.10
   9   9   1    3.99    0.15
   9  -9   1    4.19    0.15
   9  -9   1    3.95    0.12
   9   9   2    5.11    0.17
   9   9   2    5.12    0.12
   9  -9   2    4.97    0.17
   9  -9   2    4.89    0.12
   9   9   3    0.00    0.02
   9   9   3    0.02    0.04
   9  -9   3    0.02    0.04
   9  -9   3   -0.03    0.02
   9   9   4    0.04    0.01
   9   9   4   -0.02    0.04
   9  -9   4   -0.04    0.04
   9  -9   4    0.01    0.02
   9   9   5    0.21    0.04
   9  -9   5    0.19    0.02
   9  10  -6    7.87    0.21
  -9  10   6    7.77    0.21
   9  10  -5    7.07    0.20
   9 -10  -5    6.85    0.20
   9  10  -4    0.14    0.04
   9 -10  -4    0.07    0.04
   9  10  -3    5.10    0.16
   9  10  -3    4.83    0.16
   9 -10  -3    4.79    0.16
   9  10  -2    1.51    0.08
  -9  10   2    1.34    0.11
   9  10  -2    1.51    0.09
   9 -10  -2    1.57    0.09
   9  10  -1    0.51    0.07
   9  10  -1    0.52    0.05
   9 -10  -1    0.45    0.06
   9 -10  -1    0.51    0.06
   9  10   0    0.11    0.03
   9  10   0    0.06    0.04
   9 -10   0    0.15    0.05
   9 -10   0    0.09    0.03
   9 -10   0    0.03    0.04
   9  10   1    0.34    0.05
   9  10   1    0.25    0.03
   9 -10   1    0.27    0.05
   9 -10   1    0.30    0.04
   9  10   2    2.28    0.07
   9  10   2    2.33    0.11
   9 -10   2    2.06    0.11
   9  10   3    0.08    0.02
   9  10   3    0.06    0.05
   9 -10   3    0.14    0.05
   9 -10   3    0.04    0.02
   9  10   4    3.12    0.07
   9  10   4    3.01    0.12
   9 -10   4    2.89    0.08
   9 -10   4    2.98    0.12
   9  10   5    2.40    0.09
   9 -10   5    2.12    0.06
  -9  11   6    1.74    0.07
   9  11  -6    1.58    0.07
   9  11  -5    1.22    0.07
   9 -11  -5    1.38    0.08
   9  11  -4    0.04    0.04
   9  11  -4    0.07    0.04
   9 -11  -4    0.00    0.04
   9  11  -3    1.27    0.09
   9  11  -3    1.42    0.08
   9 -11  -3    1.31    0.08
  -9  11   2    2.95    0.15
   9  11  -2    3.02    0.12
   9  11  -2    2.79    0.11
   9 -11  -2    2.94    0.11
   9  11  -1    0.95    0.08
   9  11  -1    0.99    0.06
   9 -11  -1    0.96    0.07
   9 -11  -1    0.82    0.08
   9  11   0   15.15    0.37
   9  11   0   14.03    0.35
   9 -11   0   14.48    0.36
   9 -11   0   14.44    0.37
   9  11   1    2.05    0.06
   9  11   1    2.03    0.10
   9 -11   1    1.93    0.10
   9 -11   1    2.01    0.08
   9  11   2    0.46    0.06
   9  11   2    0.52    0.04
   9 -11   2    0.49    0.06
   9  11   3    0.21    0.05
   9  11   3    0.25    0.03
   9 -11   3    0.24    0.03
   9 -11   3    0.22    0.05
   9  11   4    0.27    0.05
   9  11   4    0.32    0.03
   9 -11   4    0.33    0.03
   9 -11   4    0.34    0.05
   9  11   5    2.29    0.09
   9 -11   5    2.28    0.06
   9  12  -6    0.59    0.05
  -9  12   6    0.63    0.05
   9  12  -5   12.95    0.33
   9 -12  -5   13.00    0.33
   9  12  -4    0.28    0.04
   9  12  -4    0.19    0.04
   9 -12  -4    0.32    0.05
   9  12  -3    2.21    0.10
   9  12  -3    2.19    0.10
   9 -12  -3    2.27    0.10
   9  12  -2    0.08    0.03
   9  12  -2    0.13    0.04
   9 -12  -2    0.07    0.04
   9  12  -1    0.99    0.08
   9  12  -1    0.96    0.06
   9 -12  -1    0.96    0.07
   9  12   0    0.02    0.04
   9  12   0    0.01    0.02
   9 -12   0    0.03    0.03
   9 -12   0    0.02    0.04
   9  12   1    5.31    0.13
   9  12   1    5.53    0.18
   9 -12   1    5.59    0.18
   9 -12   1    5.59    0.16
   9  12   2    1.70    0.10
   9  12   2    1.90    0.06
   9 -12   2    1.82    0.10
   9  12   3    0.02    0.02
   9  12   3   -0.04    0.04
   9 -12   3    0.00    0.02
   9 -12   3    0.02    0.04
   9  12   4    2.98    0.12
   9  12   4    3.14    0.07
   9 -12   4    3.02    0.08
   9 -12   4    3.13    0.12
   9  12   5    0.09    0.03
   9 -12   5    0.04    0.02
   9  13  -5    0.02    0.03
   9 -13  -5   -0.01    0.03
   9  13  -4    8.79    0.24
   9 -13  -4    8.96    0.25
   9  13  -3    1.69    0.09
   9  13  -3    1.78    0.09
   9 -13  -3    1.68    0.09
   9  13  -2    1.90    0.09
   9  13  -2    1.96    0.10
   9 -13  -2    1.89    0.09
   9  13  -1    0.68    0.06
   9  13  -1    0.86    0.08
   9 -13  -1    0.79    0.07
   9  13   0    4.62    0.13
   9  13   0    4.88    0.16
   9 -13   0    4.46    0.14
   9 -13   0    4.58    0.16
   9  13   1    5.07    0.12
   9  13   1    5.33    0.17
   9 -13   1    5.15    0.17
   9 -13   1    5.35    0.15
   9  13   2   14.23    0.29
   9  13   2   14.12    0.36
   9 -13   2   13.56    0.36
   9  13   3    1.94    0.10
   9  13   3    1.87    0.06
   9 -13   3    1.80    0.10
   9  13   4    6.99    0.20
   9  13   4    7.05    0.14
   9 -13   4    6.88    0.20
   9 -13   4    6.81    0.15
   9  13   5    0.92    0.06
   9  14  -5    2.03    0.09
   9 -14  -5    2.04    0.09
   9  14  -4    0.17    0.04
   9 -14  -4    0.18    0.04
   9  14  -3    2.37    0.10
   9 -14  -3    2.46    0.10
   9  14  -2    0.81    0.07
   9  14  -2    0.69    0.06
   9 -14  -2    0.65    0.07
   9  14  -1    1.02    0.08
   9  14  -1    1.01    0.06
   9 -14  -1    0.97    0.07
   9  14   0    3.13    0.10
   9  14   0    3.09    0.12
   9 -14   0    3.20    0.13
   9 -14   0    3.16    0.11
   9  14   1    0.07    0.04
   9  14   1    0.13    0.03
   9 -14   1    0.11    0.03
   9 -14   1    0.04    0.04
   9  14   2    4.37    0.11
   9  14   2    4.20    0.15
   9 -14   2    4.59    0.15
   9  14   3    0.67    0.07
   9  14   3    0.58    0.03
   9 -14   3    0.54    0.07
   9  14   4    0.85    0.07
   9  14   4    0.96    0.03
   9 -14   4    0.83    0.07
   9  15  -5    0.75    0.06
   9 -15  -5    0.63    0.06
   9  15  -4    1.05    0.07
   9 -15  -4    0.94    0.07
   9  15  -3    4.42    0.14
   9 -15  -3    4.34    0.15
   9  15  -2    1.66    0.08
   9  15  -2    1.58    0.09
   9 -15  -2    1.56    0.09
   9  15  -1    3.97    0.13
   9  15  -1    4.07    0.14
   9 -15  -1    4.11    0.14
   9  15   0    0.19    0.05
   9  15   0    0.13    0.03
   9 -15   0    0.17    0.05
   9 -15   0    0.15    0.04
   9  15   1    4.64    0.15
   9  15   1    4.44    0.11
   9 -15   1    4.36    0.13
   9 -15   1    4.45    0.16
   9  15   2    6.42    0.14
   9  15   2    5.95    0.19
   9 -15   2    6.14    0.19
   9 -15   2    6.16    0.19
   9  15   3    0.17    0.05
   9  15   3    0.15    0.02
   9 -15   3    0.21    0.05
   9  15   4    2.78    0.07
   9  15   4    2.59    0.11
   9 -15   4    2.68    0.10
   9  16  -5    4.00    0.13
   9  16  -4    2.33    0.10
   9 -16  -4    2.41    0.10
   9  16  -3    0.11    0.04
   9 -16  -3    0.09    0.04
   9  16  -2    0.03    0.03
   9 -16  -2    0.04    0.04
   9  16  -1   -0.01    0.03
   9  16  -1    0.01    0.04
   9 -16  -1   -0.02    0.04
   9  16   0    0.01    0.02
   9  16   0    0.00    0.04
   9 -16   0    0.00    0.03
   9 -16   0    0.00    0.04
   9  16   1    3.14    0.12
   9 -16   1    3.09    0.13
   9 -16   1    3.16    0.11
   9  16   2    4.70    0.15
   9  16   2    4.86    0.11
   9 -16   2    4.58    0.16
   9 -16   2    4.67    0.16
   9  16   3    1.02    0.04
   9  16   3    0.97    0.08
   9 -16   3    1.11    0.08
   9  16   4    0.30    0.04
   9  16   4    0.29    0.03
   9 -16   4    0.36    0.04
   9  17  -5    0.45    0.05
   9  17  -4    0.66    0.06
   9 -17  -4    0.54    0.06
   9  17  -3    5.42    0.17
   9 -17  -3    5.45    0.17
   9  17  -2    0.30    0.04
   9 -17  -2    0.30    0.05
   9  17  -1    0.03    0.03
   9 -17  -1   -0.01    0.04
   9  17   0   10.23    0.27
   9 -17   0    9.76    0.27
   9 -17   0    9.71    0.26
   9  17   1    0.17    0.04
   9 -17   1    0.15    0.03
   9 -17   1    0.20    0.05
   9  17   2    0.37    0.05
   9  17   2    0.41    0.04
   9 -17   2    0.43    0.05
   9 -17   2    0.45    0.06
   9  17   3    2.82    0.11
   9  17   3    2.92    0.07
   9 -17   3    3.01    0.11
   9 -17   3    2.75    0.11
   9  17   4    0.57    0.06
   9  17   4    0.63    0.03
   9 -17   4    0.53    0.06
   9  18  -5    5.36    0.15
   9  18  -4    1.11    0.07
   9 -18  -4    1.15    0.07
   9  18  -3    0.44    0.06
   9 -18  -3    0.56    0.07
   9  18  -2    0.94    0.07
   9 -18  -2    1.05    0.08
   9  18  -1    7.90    0.21
   9 -18  -1    8.18    0.22
   9  18   0   -0.04    0.04
   9 -18   0   -0.05    0.04
   9 -18   0    0.01    0.03
   9  18   1    1.14    0.08
   9 -18   1    1.11    0.09
   9 -18   1    1.05    0.06
   9  18   2    3.10    0.08
   9  18   2    3.17    0.12
   9 -18   2    3.36    0.12
   9 -18   2    3.09    0.12
   9  18   3    2.76    0.11
   9  18   3    2.79    0.07
   9 -18   3    2.85    0.11
   9 -18   3    2.71    0.11
   9  18   4    0.24    0.02
   9  18   4    0.18    0.04
   9  19  -5    2.89    0.10
   9  19  -4    0.29    0.04
   9 -19  -4    0.24    0.04
   9  19  -3    0.50    0.06
   9 -19  -3    0.66    0.07
   9  19  -2    0.29    0.04
   9 -19  -2    0.16    0.04
   9  19  -1    0.60    0.06
   9 -19  -1    0.66    0.07
   9 -19   0    4.55    0.15
   9 -19   0    4.65    0.16
   9  19   1    1.06    0.07
   9 -19   1    1.18    0.09
   9 -19   1    1.10    0.06
   9  19   2    2.93    0.08
   9  19   2    2.82    0.11
   9 -19   2    2.99    0.12
   9 -19   2    3.17    0.12
   9  19   3    5.43    0.12
   9  19   3    5.46    0.16
   9 -19   3    5.31    0.17
   9 -19   3    5.88    0.17
   9  19   4    0.10    0.03
   9  19   4    0.08    0.02
   9  20  -5   16.69    0.40
   9  20  -4    1.10    0.07
   9 -20  -4    1.06    0.07
   9  20  -3    6.04    0.18
   9 -20  -3    6.00    0.18
   9  20  -2   12.58    0.32
   9 -20  -2   13.17    0.33
   9  20  -1    1.46    0.07
   9 -20  -1    1.57    0.09
   9 -20   0    1.00    0.08
   9 -20   0    0.96    0.07
   9 -20   1    0.54    0.05
   9 -20   1    0.62    0.08
   9  20   2    4.49    0.14
   9  20   2    4.69    0.11
   9 -20   2    4.59    0.15
   9 -20   2    4.98    0.15
   9  20   3   -0.02    0.03
   9  20   3    0.00    0.02
   9 -20   3   -0.02    0.03
   9 -20   3    0.02    0.04
   9  20   4    4.73    0.10
   9  21  -4    0.90    0.06
   9 -21  -4    0.92    0.06
   9  21  -3    0.98    0.07
   9 -21  -3    0.78    0.07
   9  21  -2    2.11    0.09
   9 -21  -2    2.25    0.10
   9  21  -1    0.25    0.04
   9 -21  -1    0.21    0.04
   9 -21   0    0.22    0.04
   9 -21   0    0.18    0.05
   9 -21   1    0.46    0.05
   9 -21   1    0.43    0.06
   9  21   2    2.21    0.10
   9  21   2    2.23    0.07
   9 -21   2    2.31    0.10
   9 -21   2    2.26    0.10
   9  21   3    0.70    0.06
   9  21   3    0.70    0.03
   9 -21   3    0.65    0.06
   9 -21   3    0.71    0.06
   9  22  -4    0.00    0.03
   9 -22  -4    0.00    0.03
   9  22  -3    1.68    0.08
   9 -22  -3    1.60    0.08
   9  22  -2    1.11    0.07
   9 -22  -2    1.11    0.08
   9  22  -1    1.60    0.07
   9 -22  -1    1.65    0.08
   9 -22   0    0.13    0.04
   9 -22   0    0.09    0.04
   9 -22   1    1.51    0.07
   9 -22   1    1.52    0.09
   9 -22   2    0.02    0.04
   9 -22   2    0.01    0.04
   9  22   3    1.57    0.05
   9 -22   3    1.54    0.07
   9 -22   3    1.63    0.08
   9  23  -4    0.00    0.03
   9 -23  -4    0.04    0.03
   9  23  -3    0.06    0.03
   9 -23  -3   -0.01    0.03
   9  23  -2    0.22    0.04
   9 -23  -2    0.24    0.04
   9  23  -1    2.66    0.09
   9 -23  -1    3.01    0.11
   9 -23   0    0.05    0.04
   9 -23   0    0.00    0.03
   9 -23   1   -0.02    0.04
   9 -23   1    0.03    0.03
   9 -23   2    4.02    0.14
   9 -23   2    4.22    0.13
   9  23   3    0.00    0.02
   9 -23   3    0.06    0.03
   9  24  -4    1.57    0.07
   9  24  -3    0.11    0.03
   9 -24  -3    0.05    0.03
   9  24  -2    0.22    0.04
   9 -24  -2    0.23    0.04
   9  24  -1    0.20    0.03
   9 -24  -1    0.23    0.04
   9 -24   0    0.33    0.05
   9 -24   0    0.27    0.04
   9 -24   1   10.58    0.29
   9 -24   1   11.15    0.28
   9 -24   1   10.67    0.27
   9 -24   2    3.50    0.11
   9 -24   2    3.40    0.12
   9  25  -3    0.11    0.03
   9 -25  -3    0.03    0.03
   9  25  -2    0.13    0.03
   9 -25  -2    0.16    0.04
   9  25  -1    0.11    0.03
   9 -25  -1    0.08    0.04
   9 -25   0    2.21    0.09
   9 -25   0    2.31    0.10
   9 -25   1    0.45    0.06
   9 -25   1    0.44    0.06
   9 -25   1    0.48    0.05
   9 -25   2    0.01    0.03
   9 -25   2    0.01    0.03
   9  26  -3    1.30    0.06
   9 -26  -3    1.27    0.07
   9  26  -2    0.62    0.05
   9 -26  -2    0.68    0.06
   9  26  -1    0.01    0.02
   9 -26  -1   -0.02    0.04
   9 -26  -1    0.00    0.03
   9 -26   0    0.16    0.03
   9 -26   0    0.14    0.04
   9 -26   1    1.87    0.08
   9 -26   1    1.71    0.08
   9 -26   1    1.72    0.07
   9 -26   2    1.46    0.07
   9  27  -3    0.89    0.05
   9  27  -2    1.15    0.06
   9 -27  -2    1.23    0.07
   9  27  -1    0.02    0.02
   9 -27  -1    0.00    0.04
   9 -27  -1    0.01    0.03
   9 -27   0    5.00    0.15
   9 -27   0    5.20    0.14
   9 -27   1    0.76    0.05
   9 -27   1    0.69    0.06
   9 -27   1    0.68    0.06
   9  28  -2    1.89    0.07
   9 -28  -2    1.96    0.08
   9 -28  -1    0.03    0.03
   9 -28  -1    0.03    0.03
   9 -28   0    0.17    0.04
   9 -28   0    0.09    0.03
   9 -28   1    0.30    0.04
   9 -29  -1    0.29    0.03
   9 -29   0    0.57    0.05
   9 -29   0    0.47    0.04
   9 -29   0    0.39    0.05
  10   0  -5    0.01    0.03
  10   0  -4    0.70    0.06
  10   0  -3   -0.02    0.03
  10   0  -2    3.05    0.13
  10   0  -2    3.10    0.11
  10   0  -1   -0.02    0.03
  10   0  -1   -0.04    0.04
  10   0   0    2.38    0.11
  10   0   0    2.26    0.10
  10   0   0    2.55    0.09
  10   0   1    0.02    0.04
  10   0   1    0.01    0.04
  10   0   2    1.17    0.05
  10   0   2    1.14    0.09
  10   0   2    1.17    0.08
  10   0   3   -0.01    0.04
  10   0   3    0.00    0.04
  10   0   3    0.02    0.02
  10   0   4    0.22    0.04
  10   0   4    0.23    0.02
  10   1  -5    0.25    0.04
  10  -1  -5    0.36    0.04
  10   1  -4    0.03    0.03
  10  -1  -4    0.01    0.03
  10   1  -3    0.01    0.03
  10  -1  -3    0.02    0.03
  10   1  -2    0.85    0.09
  10   1  -2    0.85    0.06
  10  -1  -2    0.95    0.09
  10  -1  -2    0.79    0.06
  10   1  -1    0.15    0.03
  10   1  -1    0.10    0.04
  10  -1  -1    0.11    0.03
  10  -1  -1    0.17    0.05
  10   1   0    2.81    0.12
  10   1   0    2.70    0.09
  10   1   0    2.99    0.11
  10  -1   0    2.82    0.10
  10  -1   0    2.83    0.12
  10  -1   0    2.88    0.11
  10   1   1    7.51    0.21
  10   1   1    7.05    0.16
  10   1   1    7.36    0.22
  10  -1   1    7.24    0.22
  10  -1   1    7.40    0.21
  10   1   2    5.70    0.18
  10   1   2    5.89    0.13
  10   1   2    5.79    0.18
  10  -1   2    5.84    0.18
  10  -1   2    5.81    0.18
  10  -1   2    5.93    0.13
  10   1   3    0.03    0.04
  10   1   3   -0.01    0.02
  10   1   3   -0.02    0.04
  10  -1   3   -0.03    0.04
  10  -1   3   -0.02    0.04
  10  -1   3    0.02    0.02
  10   1   4   -0.02    0.03
  10   1   4    0.03    0.01
  10  -1   4   -0.02    0.03
  10  -1   4    0.00    0.02
  10   2  -5    0.43    0.06
  10  -2  -5    0.41    0.05
  10   2  -4    0.05    0.04
  10  -2  -4    0.05    0.04
  10   2  -3    3.55    0.12
  10  -2  -3    3.34    0.12
  10   2  -2    7.54    0.21
  10   2  -2    7.79    0.23
  10  -2  -2    7.64    0.21
  10  -2  -2    7.43    0.22
  10   2  -1    0.30    0.04
  10   2  -1    0.23    0.05
  10  -2  -1    0.33    0.05
  10  -2  -1    0.26    0.04
  10   2   0    0.00    0.02
  10   2   0    0.02    0.04
  10  -2   0    0.00    0.02
  10  -2   0    0.02    0.04
  10  -2   0    0.06    0.05
  10   2   1    8.43    0.24
  10   2   1    8.24    0.19
  10   2   1    8.89    0.24
  10  -2   1    8.37    0.24
  10  -2   1    8.67    0.24
  10   2   2    0.25    0.05
  10   2   2    0.21    0.05
  10   2   2    0.23    0.03
  10  -2   2    0.25    0.05
  10  -2   2    0.22    0.03
  10  -2   2    0.32    0.05
  10   2   3    6.25    0.13
  10   2   3    6.11    0.19
  10  -2   3    6.53    0.19
  10  -2   3    6.10    0.14
  10  -2   3    5.97    0.19
  10   2   4    0.23    0.02
  10   2   4    0.23    0.04
  10  -2   4    0.23    0.02
  10  -2   4    0.26    0.04
  10   3  -6    0.96    0.06
  10   3  -5    3.40    0.11
  10  -3  -5    3.35    0.11
  10   3  -4    5.14    0.16
  10  -3  -4    5.16    0.16
  10   3  -3    0.38    0.05
  10   3  -3    0.36    0.05
  10  -3  -3    0.40    0.05
  10   3  -2    0.45    0.06
  10   3  -2    0.37    0.06
  10  -3  -2    0.46    0.06
  10  -3  -2    0.39    0.06
  10   3  -1    0.34    0.05
  10   3  -1    0.38    0.05
  10  -3  -1    0.40    0.05
  10  -3  -1    0.30    0.04
  10  -3  -1    0.34    0.05
  10   3   0    4.65    0.16
  10  -3   0    5.21    0.14
  10  -3   0    4.88    0.16
  10  -3   0    4.55    0.16
  10   3   1    1.75    0.06
  10   3   1    1.90    0.09
  10   3   1    1.75    0.10
  10  -3   1    1.85    0.10
  10  -3   1    1.62    0.09
  10   3   2    1.65    0.05
  10   3   2    1.48    0.09
  10   3   2    1.49    0.09
  10  -3   2    1.63    0.06
  10  -3   2    1.53    0.09
  10  -3   2    1.58    0.09
  10   3   3    1.22    0.04
  10   3   3    1.21    0.08
  10  -3   3    1.27    0.05
  10  -3   3    1.27    0.08
  10  -3   3    1.11    0.08
  10   3   4    2.35    0.06
  10   3   4    2.35    0.10
  10  -3   4    2.40    0.06
  10   4  -5    0.14    0.04
  10  -4  -5    0.13    0.04
  10   4  -4    0.10    0.04
  10  -4  -4    0.07    0.04
  10   4  -3    0.87    0.08
  10   4  -3    0.77    0.07
  10  -4  -3    0.75    0.07
  10   4  -2    1.14    0.07
  10   4  -2    1.11    0.09
  10  -4  -2    1.08    0.07
  10  -4  -2    1.08    0.09
  10   4  -1    2.19    0.11
  10   4  -1    2.25    0.09
  10  -4  -1    2.13    0.11
  10  -4  -1    2.35    0.10
  10  -4  -1    2.19    0.09
  10   4   0    0.20    0.05
  10  -4   0    0.22    0.05
  10  -4   0    0.21    0.03
  10  -4   0    0.26    0.05
  10   4   1    6.64    0.19
  10   4   1    6.54    0.15
  10   4   1    6.41    0.20
  10  -4   1    6.64    0.20
  10  -4   1    6.56    0.20
  10   4   2    0.42    0.06
  10   4   2    0.51    0.06
  10   4   2    0.48    0.03
  10  -4   2    0.45    0.06
  10  -4   2    0.51    0.07
  10  -4   2    0.49    0.04
  10   4   3    2.79    0.07
  10   4   3    2.68    0.11
  10  -4   3    2.75    0.07
  10  -4   3    2.71    0.11
  10  -4   3    2.71    0.11
  10   4   4    1.37    0.04
  10   4   4    1.27    0.08
  10  -4   4    1.27    0.04
  10   5  -5    0.25    0.04
  10  -5  -5    0.22    0.04
  10   5  -4    0.98    0.07
  10  -5  -4    0.94    0.07
  10   5  -3    1.80    0.10
  10   5  -3    2.18    0.09
  10  -5  -3    1.99    0.09
  10   5  -2    4.52    0.16
  10   5  -2    4.37    0.14
  10  -5  -2    4.16    0.15
  10  -5  -2    4.52    0.14
  10   5  -1    0.84    0.08
  10   5  -1    0.93    0.06
  10  -5  -1    1.03    0.08
  10  -5  -1    0.92    0.08
  10  -5  -1    0.96    0.06
  10   5   0    1.86    0.10
  10  -5   0    1.59    0.07
  10  -5   0    1.69    0.09
  10  -5   0    1.61    0.10
  10   5   1    6.74    0.15
  10   5   1    6.93    0.21
  10   5   1    6.79    0.20
  10  -5   1    6.92    0.21
  10  -5   1    6.95    0.20
  10   5   2    0.03    0.04
  10   5   2    0.03    0.02
  10   5   2   -0.02    0.04
  10  -5   2    0.00    0.02
  10  -5   2    0.01    0.04
  10  -5   2   -0.07    0.04
  10   5   3    0.02    0.04
  10   5   3    0.00    0.02
  10  -5   3    0.01    0.02
  10  -5   3    0.04    0.04
  10  -5   3    0.02    0.04
  10   5   4    0.04    0.04
  10   5   4    0.08    0.01
  10  -5   4    0.08    0.02
  10   6  -5    0.50    0.05
  10   6  -5    0.59    0.06
  10  -6  -5    0.66    0.06
  10   6  -4    0.59    0.06
  10   6  -4    0.55    0.07
  10  -6  -4    0.55    0.06
  10   6  -3    7.85    0.23
  10   6  -3    7.80    0.22
  10  -6  -3    8.09    0.22
  10   6  -2    0.17    0.05
  10   6  -2    0.12    0.03
  10  -6  -2    0.11    0.04
  10  -6  -2    0.07    0.05
  10   6  -1    0.05    0.04
  10   6  -1    0.01    0.03
  10  -6  -1   -0.04    0.04
  10  -6  -1   -0.05    0.04
  10  -6  -1   -0.01    0.03
  10   6   0    4.86    0.16
  10  -6   0    5.13    0.14
  10  -6   0    4.88    0.16
  10  -6   0    4.90    0.17
  10   6   1    2.62    0.08
  10   6   1    2.53    0.12
  10   6   1    2.55    0.10
  10  -6   1    2.65    0.11
  10  -6   1    2.64    0.11
  10   6   2    0.75    0.08
  10   6   2    0.61    0.04
  10  -6   2    0.64    0.07
  10  -6   2    0.50    0.04
  10  -6   2    0.59    0.06
  10   6   3    0.03    0.02
  10   6   3    0.01    0.04
  10  -6   3    0.03    0.04
  10  -6   3    0.03    0.02
  10   6   4    0.05    0.04
  10   6   4    0.04    0.01
  10  -6   4    0.05    0.02
  10   7  -5    1.89    0.09
  10   7  -5    1.90    0.08
  10  -7  -5    2.02    0.08
  10   7  -4   -0.02    0.03
  10   7  -4    0.01    0.04
  10  -7  -4    0.11    0.04
  10   7  -3    1.08    0.07
  10   7  -3    0.95    0.08
  10  -7  -3    1.08    0.08
  10   7  -2    0.94    0.08
  10   7  -2    1.09    0.07
  10  -7  -2    0.93    0.07
  10  -7  -2    1.02    0.07
  10  -7  -2    1.05    0.09
  10   7  -1    3.97    0.14
  10   7  -1    3.72    0.12
  10  -7  -1    3.94    0.14
  10  -7  -1    3.84    0.14
  10  -7  -1    3.98    0.13
  10   7   0    7.55    0.22
  10  -7   0    7.53    0.21
  10  -7   0    7.36    0.22
  10  -7   0    7.24    0.20
  10   7   1    4.98    0.12
  10   7   1    4.82    0.17
  10  -7   1    4.91    0.16
  10  -7   1    4.84    0.16
  10   7   2    0.86    0.08
  10   7   2    0.70    0.04
  10  -7   2    0.75    0.07
  10   7   3    0.59    0.07
  10   7   3    0.59    0.03
  10  -7   3    0.55    0.04
  10  -7   3    0.63    0.07
  10   7   4    0.66    0.03
  10   7   4    0.74    0.07
  10  -7   4    0.67    0.03
  10   8  -5    3.63    0.12
  10   8  -5    3.54    0.12
  10  -8  -5    3.71    0.12
  10   8  -4    0.13    0.04
  10   8  -4    0.12    0.04
  10  -8  -4    0.15    0.04
  10   8  -3    0.03    0.04
  10   8  -3    0.10    0.04
  10  -8  -3    0.05    0.04
  10   8  -2    1.97    0.09
  10   8  -2    2.07    0.10
  10  -8  -2    2.02    0.10
  10  -8  -2    1.90    0.09
  10  -8  -2    1.91    0.10
  10   8  -1    4.55    0.16
  10   8  -1    4.64    0.14
  10  -8  -1    4.61    0.16
  10  -8  -1    4.57    0.14
  10  -8  -1    4.96    0.16
  10   8   0    1.39    0.09
  10  -8   0    1.48    0.09
  10  -8   0    1.35    0.07
  10  -8   0    1.49    0.09
  10   8   1    3.46    0.13
  10   8   1    3.41    0.09
  10  -8   1    3.56    0.13
  10  -8   1    3.27    0.13
  10   8   2    0.04    0.02
  10   8   2    0.04    0.04
  10  -8   2    0.00    0.04
  10   8   3    6.82    0.20
  10   8   3    6.80    0.14
  10  -8   3    6.57    0.19
  10  -8   3    6.69    0.15
  10   8   4    0.06    0.04
  10   8   4    0.05    0.01
  10  -8   4    0.04    0.02
  10   9  -5    0.39    0.05
  10   9  -5    0.43    0.06
  10  -9  -5    0.38    0.05
  10   9  -4    1.07    0.07
  10   9  -4    1.07    0.07
  10  -9  -4    1.15    0.07
  10   9  -3    0.04    0.04
  10   9  -3    0.03    0.03
  10  -9  -3    0.00    0.04
  10   9  -2    0.14    0.03
  10   9  -2    0.07    0.04
  10  -9  -2    0.13    0.04
  10  -9  -2    0.13    0.04
  10  -9  -2    0.07    0.04
  10   9  -1    0.83    0.06
  10   9  -1    0.82    0.08
  10  -9  -1    0.87    0.08
  10  -9  -1    0.73    0.08
  10  -9  -1    0.77    0.06
  10   9   0    1.19    0.08
  10  -9   0    1.00    0.06
  10  -9   0    1.29    0.09
  10  -9   0    1.17    0.08
  10   9   1    2.54    0.11
  10   9   1    2.52    0.07
  10  -9   1    2.42    0.11
  10   9   2    6.13    0.19
  10   9   2    6.26    0.14
  10  -9   2    6.12    0.19
  10   9   3    3.88    0.09
  10   9   3    3.70    0.13
  10  -9   3    3.89    0.13
  10  -9   3    3.66    0.09
  10   9   4    0.97    0.03
  10   9   4    0.92    0.07
  10  -9   4    0.93    0.04
  10  10  -5    0.38    0.05
  10 -10  -5    0.43    0.05
  10  10  -4    4.01    0.14
  10  10  -4    4.46    0.14
  10 -10  -4    4.54    0.14
  10  10  -3    2.23    0.09
  10  10  -3    2.16    0.10
  10 -10  -3    2.22    0.10
  10  10  -2    2.31    0.11
  10  10  -2    2.40    0.09
  10 -10  -2    2.26    0.10
  10 -10  -2    2.40    0.10
  10 -10  -2    2.36    0.11
  10  10  -1    1.93    0.10
  10  10  -1    1.90    0.08
  10 -10  -1    1.72    0.10
  10 -10  -1    1.97    0.10
  10 -10  -1    1.91    0.09
  10  10   0    9.65    0.26
  10 -10   0    9.55    0.26
  10 -10   0    9.39    0.24
  10 -10   0    9.38    0.26
  10  10   1    0.14    0.04
  10  10   1    0.05    0.02
  10 -10   1    0.10    0.04
  10  10   2    0.84    0.08
  10  10   2    0.88    0.04
  10 -10   2    0.94    0.08
  10  10   3    1.02    0.04
  10  10   3    1.02    0.08
  10 -10   3    1.07    0.08
  10 -10   3    0.99    0.04
  10  10   4    0.45    0.02
  10  10   4    0.51    0.06
  10 -10   4    0.43    0.03
  10  11  -5    0.25    0.04
  10 -11  -5    0.22    0.04
  10  11  -4    0.06    0.03
  10  11  -4    0.00    0.04
  10 -11  -4    0.05    0.03
  10  11  -3    0.64    0.06
  10  11  -3    0.64    0.07
  10 -11  -3    0.78    0.07
  10  11  -2    0.79    0.08
  10  11  -2    0.74    0.06
  10 -11  -2    0.71    0.07
  10 -11  -2    0.75    0.08
  10 -11  -2    0.61    0.06
  10  11  -1    8.92    0.23
  10  11  -1    9.32    0.25
  10 -11  -1    8.96    0.25
  10 -11  -1    9.23    0.25
  10 -11  -1    8.88    0.24
  10  11   0    1.79    0.10
  10 -11   0    1.93    0.10
  10 -11   0    1.86    0.08
  10  11   1    4.38    0.15
  10 -11   1    4.36    0.15
  10  11   2    3.53    0.09
  10  11   2    3.55    0.13
  10 -11   2    3.59    0.13
  10  11   3    1.20    0.08
  10  11   3    1.26    0.04
  10 -11   3    1.19    0.08
  10  11   4    0.85    0.06
  10  11   4    0.85    0.03
  10 -11   4    0.81    0.04
  10  12  -5    1.20    0.06
  10 -12  -5    1.11    0.06
  10  12  -4    0.04    0.03
  10 -12  -4    0.01    0.03
  10  12  -3    0.33    0.05
  10  12  -3    0.33    0.04
  10 -12  -3    0.34    0.05
  10 -12  -3    0.33    0.05
  10  12  -2    0.95    0.06
  10  12  -2    1.10    0.08
  10 -12  -2    1.12    0.07
  10 -12  -2    0.96    0.08
  10 -12  -2    1.00    0.08
  10  12  -1    0.02    0.03
  10  12  -1    0.03    0.04
  10 -12  -1    0.09    0.04
  10 -12  -1    0.03    0.03
  10  12   0    0.62    0.07
  10 -12   0    0.55    0.06
  10 -12   0    0.60    0.08
  10  12   1    4.36    0.15
  10 -12   1    4.40    0.15
  10  12   2    3.74    0.09
  10  12   2    3.59    0.13
  10 -12   2    3.77    0.13
  10  12   3    0.98    0.07
  10  12   3    1.18    0.04
  10 -12   3    1.20    0.08
  10  12   4    0.26    0.02
  10  12   4    0.27    0.04
  10  13  -5   -0.01    0.03
  10 -13  -5   -0.01    0.03
  10  13  -4    0.03    0.03
  10 -13  -4    0.03    0.03
  10  13  -3    0.52    0.07
  10  13  -3    0.42    0.05
  10 -13  -3    0.45    0.06
  10 -13  -3    0.51    0.07
  10  13  -2    1.83    0.08
  10  13  -2    1.72    0.09
  10 -13  -2    1.77    0.09
  10 -13  -2    1.91    0.09
  10 -13  -2    1.65    0.09
  10  13  -1    0.00    0.04
  10  13  -1    0.01    0.03
  10 -13  -1    0.04    0.04
  10 -13  -1    0.03    0.03
  10  13   0    0.43    0.06
  10 -13   0    0.45    0.05
  10 -13   0    0.48    0.06
  10  13   1    2.89    0.12
  10 -13   1    2.97    0.12
  10  13   2    1.27    0.05
  10  13   2    1.23    0.08
  10 -13   2    1.19    0.08
  10  13   3    0.59    0.06
  10  13   3    0.59    0.03
  10 -13   3    0.60    0.07
  10  13   4    2.43    0.09
  10  13   4    2.46    0.06
  10  14  -5    0.46    0.05
  10  14  -4    0.19    0.04
  10 -14  -4    0.05    0.03
  10  14  -3    0.49    0.05
  10 -14  -3    0.35    0.05
  10 -14  -3    0.38    0.05
  10  14  -2    0.26    0.04
  10  14  -2    0.28    0.05
  10 -14  -2    0.24    0.04
  10 -14  -2    0.25    0.05
  10  14  -1    0.43    0.05
  10  14  -1    0.50    0.05
  10 -14  -1    0.46    0.06
  10 -14  -1    0.46    0.06
  10  14   0    0.48    0.06
  10 -14   0    0.47    0.05
  10 -14   0    0.48    0.06
  10  14   1    0.70    0.07
  10 -14   1    0.81    0.07
  10  14   2    0.34    0.03
  10  14   2    0.29    0.05
  10 -14   2    0.35    0.05
  10  14   3    2.17    0.09
  10  14   3    2.39    0.06
  10 -14   3    2.26    0.09
  10  14   4    0.05    0.01
  10  14   4    0.03    0.03
  10  15  -5    0.01    0.03
  10  15  -4    0.27    0.04
  10 -15  -4    0.26    0.04
  10  15  -3    2.00    0.09
  10 -15  -3    2.25    0.09
  10  15  -2    2.92    0.10
  10  15  -2    2.92    0.11
  10 -15  -2    3.28    0.12
  10 -15  -2    3.09    0.12
  10  15  -1   -0.01    0.02
  10  15  -1    0.04    0.04
  10 -15  -1    0.00    0.04
  10 -15  -1   -0.02    0.03
  10  15   0    0.12    0.04
  10 -15   0    0.10    0.05
  10 -15   0    0.09    0.03
  10  15   1    0.41    0.05
  10 -15   1    0.49    0.05
  10 -15   1    0.50    0.06
  10  15   2   -0.02    0.02
  10  15   2    0.01    0.04
  10 -15   2   -0.06    0.04
  10  15   3    0.32    0.04
  10  15   3    0.35    0.03
  10 -15   3    0.31    0.04
  10  16  -4    0.28    0.04
  10 -16  -4    0.31    0.04
  10  16  -3    0.04    0.03
  10 -16  -3   -0.03    0.03
  10  16  -2    0.21    0.04
  10 -16  -2    0.32    0.05
  10 -16  -2    0.26    0.04
  10  16  -1    0.36    0.05
  10  16  -1    0.33    0.04
  10 -16  -1    0.29    0.05
  10 -16  -1    0.28    0.04
  10  16   0    8.64    0.24
  10 -16   0    9.08    0.25
  10 -16   0    8.64    0.23
  10  16   1    0.06    0.04
  10 -16   1    0.02    0.04
  10 -16   1    0.03    0.02
  10  16   2    1.62    0.08
  10  16   2    1.67    0.05
  10 -16   2    1.72    0.09
  10  16   3    0.01    0.03
  10  16   3    0.04    0.02
  10 -16   3    0.04    0.03
  10  17  -4    0.03    0.03
  10 -17  -4    0.01    0.03
  10  17  -3    0.40    0.05
  10 -17  -3    0.38    0.05
  10  17  -2    0.22    0.03
  10 -17  -2    0.23    0.04
  10  17  -1    0.05    0.03
  10 -17  -1    0.04    0.04
  10 -17  -1   -0.04    0.03
  10  17   0    1.99    0.09
  10 -17   0    2.00    0.10
  10 -17   0    1.95    0.08
  10  17   1    0.65    0.06
  10 -17   1    0.80    0.07
  10 -17   1    0.67    0.05
  10  17   2    0.38    0.03
  10  17   2    0.43    0.06
  10 -17   2    0.50    0.05
  10  17   3    0.74    0.03
  10  17   3    0.75    0.06
  10 -17   3    0.92    0.06
  10  18  -4   -0.01    0.03
  10 -18  -4   -0.03    0.03
  10 -18  -4    0.03    0.03
  10  18  -3    0.16    0.03
  10 -18  -3    0.07    0.04
  10  18  -2    0.36    0.05
  10 -18  -2    0.38    0.05
  10 -18  -2    0.36    0.05
  10  18  -1    0.87    0.05
  10 -18  -1    1.03    0.08
  10 -18  -1    1.02    0.07
  10  18   0    0.31    0.04
  10 -18   0    0.24    0.05
  10 -18   0    0.27    0.04
  10  18   1    3.64    0.12
  10 -18   1    3.86    0.11
  10 -18   1    4.03    0.13
  10  18   2    1.56    0.07
  10  18   2    1.39    0.05
  10 -18   2    1.35    0.08
  10  18   3    2.71    0.09
  10  18   3    2.68    0.07
  10 -18   3    2.74    0.10
  10  19  -4    1.18    0.06
  10 -19  -4    1.15    0.06
  10  19  -3    0.01    0.03
  10 -19  -3    0.00    0.03
  10  19  -2    0.06    0.03
  10 -19  -2   -0.01    0.03
  10 -19  -2   -0.02    0.04
  10  19  -1    0.39    0.04
  10 -19  -1    0.30    0.05
  10 -19  -1    0.33    0.04
  10 -19   0    0.10    0.03
  10 -19   0    0.12    0.05
  10  19   1    0.48    0.05
  10 -19   1    0.48    0.07
  10 -19   1    0.52    0.04
  10  19   2    0.22    0.04
  10  19   2    0.20    0.02
  10 -19   2    0.16    0.04
  10 -19   3    0.18    0.03
  10  20  -4    2.51    0.08
  10  20  -3    0.05    0.03
  10 -20  -3    0.02    0.03
  10  20  -2    4.17    0.12
  10 -20  -2    4.13    0.14
  10 -20  -2    4.30    0.13
  10  20  -1    0.16    0.03
  10 -20  -1    0.18    0.04
  10 -20  -1    0.13    0.04
  10 -20   0    8.77    0.24
  10 -20   0    8.62    0.22
  10 -20   1    0.03    0.03
  10 -20   1    0.07    0.04
  10 -20   1    0.02    0.02
  10  20   2    5.44    0.15
  10 -20   2    5.83    0.16
  10  21  -3   -0.01    0.02
  10 -21  -3    0.03    0.03
  10  21  -2    0.43    0.04
  10 -21  -2    0.58    0.06
  10 -21  -2    0.39    0.04
  10 -21  -1    0.92    0.06
  10 -21  -1    0.96    0.07
  10 -21   0    1.00    0.06
  10 -21   0    1.20    0.08
  10 -21   1    1.25    0.05
  10 -21   1    1.25    0.07
  10 -21   1    1.51    0.08
  10 -21   2    0.47    0.05
  10  22  -3    3.16    0.10
  10 -22  -3    3.22    0.11
  10 -22  -3    3.32    0.11
  10  22  -2    0.49    0.04
  10 -22  -2    0.50    0.06
  10 -22  -2    0.51    0.05
  10 -22  -1    1.32    0.08
  10 -22  -1    1.29    0.07
  10 -22   0    0.03    0.03
  10 -22   0    0.08    0.04
  10 -22   1    3.28    0.11
  10 -22   1    3.33    0.09
  10 -22   1    3.40    0.12
  10 -22   2    0.00    0.03
  10 -23  -3   -0.02    0.03
  10  23  -2    0.87    0.05
  10 -23  -2    1.00    0.06
  10 -23  -2    1.05    0.07
  10 -23  -1    0.23    0.03
  10 -23  -1    0.21    0.04
  10 -23   0    0.40    0.04
  10 -23   0    0.51    0.06
  10 -23   1    0.65    0.06
  10 -23   1    0.68    0.06
  10 -24  -2    3.30    0.11
  10 -24  -2    3.52    0.11
  10 -24  -1   -0.03    0.03
  10 -24  -1    0.01    0.03
  10 -24   0    0.64    0.06
  10 -24   0    0.62    0.06
  10 -24   0    0.69    0.05
  10 -24   1    0.54    0.05
  10 -25  -1    4.52    0.13
  10 -25  -1    4.48    0.13
  10 -25   0    0.11    0.03
  10 -25   0    0.11    0.03
  11   0  -5    0.02    0.03
  11   0  -5    0.02    0.03
  11   0  -4    1.06    0.08
  11   0  -4    1.21    0.07
  11   0  -3    0.00    0.03
  11   0  -3   -0.05    0.04
  11   0  -2    1.65    0.10
  11   0  -2    1.84    0.08
  11   0  -1   -0.04    0.02
  11   0  -1    0.05    0.04
  11   0   0    0.04    0.04
  11   0   1   -0.05    0.03
  11   0   1    0.01    0.04
  11   0   2    1.62    0.05
  11   0   2    1.68    0.08
  11   0   2    1.75    0.09
  11   0   3   -0.01    0.01
  11   0   3   -0.03    0.03
  11   1  -5    0.17    0.04
  11   1  -5    0.12    0.03
  11  -1  -5    0.17    0.04
  11  -1  -5    0.17    0.03
  11   1  -4    3.90    0.12
  11   1  -4    4.15    0.13
  11  -1  -4    4.01    0.13
  11  -1  -4    4.12    0.13
  11   1  -3    0.14    0.04
  11   1  -3    0.24    0.04
  11  -1  -3    0.18    0.04
  11  -1  -3    0.12    0.05
  11   1  -2    6.87    0.19
  11   1  -2    6.81    0.20
  11  -1  -2    6.91    0.19
  11  -1  -2    6.78    0.20
  11   1  -1    0.61    0.08
  11   1  -1    0.63    0.05
  11  -1  -1    0.63    0.08
  11  -1  -1    0.73    0.05
  11   1   0   15.67    0.39
  11  -1   0   15.63    0.39
  11  -1   0   15.39    0.38
  11   1   1    0.43    0.06
  11   1   1    0.44    0.06
  11  -1   1    0.45    0.06
  11  -1   1    0.48    0.06
  11   1   2    0.09    0.02
  11   1   2    0.08    0.04
  11   1   2    0.09    0.04
  11  -1   2    0.11    0.02
  11  -1   2    0.06    0.04
  11  -1   2    0.11    0.04
  11   1   3    0.05    0.02
  11   1   3    0.01    0.03
  11  -1   3    0.06    0.03
  11  -1   3    0.05    0.02
  11   2  -5    3.75    0.11
  11   2  -5    3.62    0.11
  11  -2  -5    3.70    0.11
  11  -2  -5    3.60    0.12
  11   2  -4    2.92    0.11
  11   2  -4    3.04    0.10
  11  -2  -4    3.01    0.10
  11  -2  -4    3.01    0.11
  11   2  -3    0.54    0.05
  11   2  -3    0.64    0.07
  11  -2  -3    0.69    0.07
  11  -2  -3    0.54    0.06
  11   2  -2    0.38    0.05
  11   2  -2    0.55    0.07
  11  -2  -2    0.42    0.05
  11  -2  -2    0.60    0.07
  11   2  -1    2.11    0.10
  11   2  -1    1.88    0.08
  11  -2  -1    2.18    0.10
  11  -2  -1    2.01    0.08
  11   2   0    1.48    0.09
  11  -2   0    1.39    0.09
  11  -2   0    1.42    0.08
  11   2   1    0.49    0.06
  11   2   1    0.56    0.07
  11  -2   1    0.64    0.07
  11  -2   1    0.64    0.07
  11   2   2    0.16    0.05
  11   2   2    0.12    0.02
  11  -2   2    0.19    0.02
  11  -2   2    0.17    0.04
  11  -2   2    0.21    0.04
  11   2   3    0.01    0.01
  11   2   3    0.01    0.04
  11  -2   3    0.06    0.03
  11  -2   3    0.00    0.02
  11   3  -5    3.01    0.10
  11   3  -5    3.00    0.10
  11  -3  -5    3.07    0.10
  11   3  -4    4.76    0.15
  11   3  -4    4.63    0.14
  11  -3  -4    4.39    0.15
  11  -3  -4    4.70    0.14
  11   3  -3    2.37    0.09
  11   3  -3    2.49    0.11
  11  -3  -3    2.28    0.11
  11  -3  -3    2.40    0.09
  11   3  -2    1.78    0.10
  11   3  -2    1.88    0.08
  11  -3  -2    2.02    0.08
  11  -3  -2    1.68    0.10
  11   3  -1    2.70    0.09
  11   3  -1    2.79    0.12
  11  -3  -1    2.69    0.09
  11  -3  -1    2.74    0.12
  11   3   0    0.18    0.05
  11  -3   0    0.21    0.04
  11  -3   0    0.15    0.05
  11   3   1    0.42    0.06
  11   3   1    0.41    0.05
  11  -3   1    0.42    0.05
  11  -3   1    0.49    0.06
  11   3   2    0.71    0.04
  11   3   2    0.70    0.07
  11  -3   2    0.70    0.07
  11  -3   2    0.75    0.04
  11  -3   2    0.53    0.06
  11   3   3    0.27    0.03
  11   3   3    0.33    0.04
  11  -3   3    0.21    0.04
  11  -3   3    0.24    0.02
  11   4  -5    5.48    0.16
  11  -4  -5    5.91    0.16
  11   4  -4    0.80    0.06
  11   4  -4    0.88    0.07
  11  -4  -4    0.88    0.06
  11  -4  -4    0.77    0.07
  11   4  -3    1.33    0.07
  11   4  -3    1.58    0.09
  11  -4  -3    1.65    0.09
  11  -4  -3    1.31    0.07
  11   4  -2    0.06    0.03
  11   4  -2    0.18    0.05
  11  -4  -2    0.16    0.04
  11  -4  -2    0.14    0.05
  11   4  -1    1.01    0.06
  11   4  -1    0.95    0.08
  11  -4  -1    1.00    0.08
  11  -4  -1    1.05    0.06
  11   4   0    1.19    0.08
  11  -4   0    1.30    0.08
  11  -4   0    1.17    0.08
  11   4   1    3.76    0.14
  11  -4   1    3.94    0.13
  11  -4   1    3.70    0.13
  11   4   2    0.19    0.04
  11   4   2    0.11    0.02
  11  -4   2    0.08    0.04
  11  -4   2    0.18    0.04
  11   4   3    0.22    0.02
  11   4   3    0.12    0.04
  11  -4   3    0.22    0.02
  11   5  -4    0.03    0.04
  11   5  -4   -0.02    0.03
  11  -5  -4    0.07    0.04
  11  -5  -4    0.04    0.03
  11   5  -3    4.50    0.15
  11   5  -3    4.72    0.14
  11  -5  -3    4.66    0.15
  11  -5  -3    4.69    0.14
  11   5  -2    2.60    0.09
  11   5  -2    2.39    0.11
  11  -5  -2    2.53    0.11
  11  -5  -2    2.64    0.10
  11   5  -1    0.33    0.04
  11   5  -1    0.23    0.05
  11  -5  -1    0.27    0.04
  11  -5  -1    0.34    0.05
  11  -5  -1    0.30    0.04
  11   5   0    0.11    0.04
  11  -5   0    0.23    0.05
  11  -5   0    0.18    0.04
  11   5   1    0.46    0.05
  11  -5   1    0.39    0.05
  11  -5   1    0.49    0.05
  11   5   2    0.28    0.03
  11   5   2    0.30    0.05
  11  -5   2    0.25    0.04
  11  -5   2    0.30    0.05
  11   5   3    2.21    0.09
  11   5   3    2.04    0.05
  11  -5   3    1.92    0.06
  11  -5   3    2.14    0.09
  11   6  -4    0.05    0.03
  11   6  -4    0.06    0.04
  11  -6  -4    0.15    0.03
  11  -6  -4    0.01    0.04
  11   6  -3    3.19    0.12
  11   6  -3    3.22    0.11
  11  -6  -3    3.15    0.12
  11  -6  -3    3.15    0.11
  11   6  -2    0.16    0.05
  11   6  -2    0.20    0.03
  11  -6  -2    0.22    0.05
  11  -6  -2    0.16    0.03
  11   6  -1    0.73    0.05
  11   6  -1    0.71    0.08
  11  -6  -1    0.80    0.08
  11  -6  -1    0.75    0.07
  11  -6  -1    0.80    0.05
  11   6   0    4.10    0.14
  11  -6   0    4.09    0.14
  11  -6   0    4.16    0.14
  11   6   1    4.23    0.14
  11  -6   1    4.13    0.14
  11  -6   1    4.00    0.14
  11   6   2    0.05    0.02
  11   6   2    0.05    0.04
  11  -6   2    0.02    0.04
  11   6   3    0.42    0.03
  11   6   3    0.38    0.05
  11  -6   3    0.40    0.03
  11  -6   3    0.41    0.06
  11   7  -4    2.21    0.08
  11   7  -4    2.13    0.09
  11  -7  -4    2.21    0.09
  11  -7  -4    2.29    0.09
  11   7  -3    0.58    0.07
  11   7  -3    0.63    0.05
  11  -7  -3    0.59    0.07
  11  -7  -3    0.53    0.05
  11   7  -2    0.05    0.04
  11   7  -2    0.09    0.03
  11  -7  -2    0.05    0.03
  11  -7  -2    0.05    0.04
  11   7  -1    1.95    0.07
  11   7  -1    2.08    0.10
  11  -7  -1    2.04    0.08
  11  -7  -1    2.06    0.10
  11  -7  -1    1.94    0.09
  11   7   0    0.07    0.04
  11  -7   0    0.09    0.04
  11  -7   0    0.09    0.04
  11   7   1    0.51    0.07
  11  -7   1    0.49    0.07
  11  -7   1    0.43    0.05
  11   7   2    1.56    0.08
  11   7   2    1.38    0.05
  11  -7   2    1.43    0.08
  11   7   3    0.01    0.01
  11   7   3    0.03    0.03
  11  -7   3    0.01    0.02
  11  -7   3   -0.04    0.03
  11   8  -4    0.25    0.04
  11   8  -4    0.25    0.04
  11  -8  -4    0.26    0.04
  11  -8  -4    0.26    0.04
  11   8  -3    0.00    0.04
  11   8  -3   -0.01    0.03
  11  -8  -3    0.04    0.04
  11  -8  -3   -0.02    0.03
  11   8  -2    0.30    0.05
  11   8  -2    0.19    0.03
  11  -8  -2    0.25    0.04
  11  -8  -2    0.29    0.05
  11   8  -1    0.00    0.02
  11   8  -1    0.08    0.04
  11  -8  -1    0.02    0.04
  11  -8  -1   -0.01    0.04
  11  -8  -1    0.05    0.03
  11   8   0    4.44    0.15
  11  -8   0    4.51    0.15
  11  -8   0    4.43    0.14
  11   8   1   11.62    0.30
  11  -8   1   11.24    0.30
  11   8   2    0.01    0.02
  11   8   2   -0.01    0.04
  11  -8   2    0.01    0.04
  11   8   3    0.11    0.02
  11   8   3    0.10    0.04
  11  -8   3    0.12    0.04
  11   9  -4    0.02    0.03
  11   9  -4    0.05    0.03
  11  -9  -4   -0.02    0.03
  11  -9  -4    0.04    0.03
  11   9  -3    0.03    0.03
  11   9  -3    0.06    0.04
  11  -9  -3    0.09    0.04
  11  -9  -3    0.03    0.03
  11   9  -2    0.80    0.07
  11   9  -2    0.78    0.05
  11  -9  -2    0.75    0.07
  11  -9  -2    0.79    0.06
  11   9  -1    0.03    0.02
  11   9  -1    0.09    0.04
  11  -9  -1    0.01    0.04
  11  -9  -1    0.07    0.03
  11  -9  -1    0.04    0.04
  11   9   0    3.17    0.12
  11  -9   0    3.23    0.12
  11  -9   0    2.88    0.12
  11  -9   0    2.96    0.09
  11   9   1   15.01    0.37
  11  -9   1   14.80    0.37
  11   9   2    0.10    0.04
  11   9   2    0.11    0.02
  11  -9   2    0.11    0.04
  11   9   3    0.54    0.06
  11   9   3    0.58    0.03
  11  -9   3    0.62    0.06
  11  10  -4    0.84    0.05
  11  10  -4    0.84    0.06
  11 -10  -4    0.79    0.06
  11 -10  -4    0.85    0.06
  11  10  -3   -0.01    0.03
  11  10  -3   -0.02    0.04
  11 -10  -3    0.05    0.03
  11 -10  -3   -0.02    0.04
  11  10  -2    0.01    0.04
  11  10  -2    0.04    0.03
  11 -10  -2   -0.01    0.03
  11 -10  -2    0.00    0.03
  11 -10  -2    0.00    0.04
  11  10  -1    1.02    0.05
  11  10  -1    1.04    0.08
  11 -10  -1    1.06    0.06
  11 -10  -1    0.99    0.07
  11 -10  -1    1.09    0.08
  11  10   0    0.06    0.04
  11 -10   0    0.13    0.03
  11 -10   0    0.15    0.04
  11  10   1    1.67    0.09
  11 -10   1    1.69    0.09
  11  10   2    0.78    0.07
  11  10   2    0.77    0.04
  11 -10   2    0.85    0.07
  11  10   3   -0.01    0.03
  11  10   3    0.03    0.01
  11 -10   3   -0.01    0.03
  11  11  -4    3.46    0.11
  11 -11  -4    3.55    0.11
  11 -11  -4    3.38    0.11
  11  11  -3    0.18    0.03
  11  11  -3    0.23    0.04
  11 -11  -3    0.23    0.04
  11 -11  -3    0.21    0.04
  11  11  -2    5.54    0.17
  11  11  -2    5.52    0.15
  11 -11  -2    5.52    0.16
  11 -11  -2    5.57    0.16
  11 -11  -2    5.54    0.16
  11  11  -1    3.19    0.12
  11 -11  -1    3.30    0.11
  11 -11  -1    3.13    0.12
  11  11   0    4.38    0.14
  11 -11   0    4.21    0.14
  11 -11   0    4.04    0.12
  11  11   1    0.29    0.05
  11 -11   1    0.31    0.05
  11  11   2    0.07    0.04
  11  11   2    0.05    0.02
  11 -11   2    0.11    0.04
  11  11   3    0.04    0.03
  11 -11   3    0.05    0.03
  11  12  -4    0.07    0.03
  11 -12  -4    0.07    0.03
  11 -12  -4    0.03    0.03
  11  12  -3    0.19    0.03
  11  12  -3    0.22    0.04
  11 -12  -3    0.26    0.04
  11 -12  -3    0.23    0.04
  11  12  -2    0.71    0.05
  11  12  -2    0.57    0.06
  11 -12  -2    0.56    0.06
  11 -12  -2    0.67    0.07
  11 -12  -2    0.68    0.06
  11  12  -1    0.80    0.07
  11 -12  -1    0.77    0.07
  11 -12  -1    0.68    0.06
  11  12   0    0.03    0.04
  11 -12   0    0.03    0.03
  11 -12   0    0.01    0.04
  11  12   1    0.38    0.05
  11 -12   1    0.41    0.05
  11  12   2    0.08    0.03
  11  12   2    0.04    0.02
  11 -12   2    0.02    0.04
  11  12   3    0.57    0.05
  11 -12   3    0.63    0.05
  11  13  -4    3.22    0.10
  11 -13  -4    3.26    0.10
  11  13  -3    1.22    0.06
  11  13  -3    1.22    0.07
  11 -13  -3    1.23    0.07
  11  13  -2    0.02    0.02
  11  13  -2    0.03    0.04
  11 -13  -2    0.01    0.04
  11 -13  -2    0.03    0.03
  11  13  -1    0.45    0.05
  11 -13  -1    0.41    0.05
  11 -13  -1    0.39    0.05
  11  13   0    0.46    0.06
  11 -13   0    0.43    0.05
  11 -13   0    0.33    0.04
  11  13   1    1.80    0.08
  11 -13   1    1.75    0.09
  11  13   2    0.00    0.02
  11  13   2   -0.01    0.03
  11 -13   2    0.02    0.04
  11  14  -3    0.14    0.03
  11 -14  -3    0.16    0.03
  11  14  -2    0.33    0.04
  11  14  -2    0.30    0.04
  11 -14  -2    0.27    0.04
  11 -14  -2    0.32    0.04
  11  14  -1    0.18    0.04
  11 -14  -1    0.20    0.04
  11 -14  -1    0.23    0.03
  11  14   0    1.72    0.08
  11 -14   0    1.70    0.06
  11 -14   0    1.77    0.09
  11  14   1    0.57    0.06
  11 -14   1    0.55    0.06
  11  14   2    2.17    0.09
  11  14   2    2.01    0.06
  11 -14   2    2.36    0.09
  11  15  -3    0.13    0.03
  11 -15  -3    0.17    0.03
  11  15  -2    0.07    0.02
  11 -15  -2   -0.02    0.03
  11 -15  -2    0.07    0.03
  11  15  -1    1.57    0.08
  11 -15  -1    1.49    0.08
  11 -15  -1    1.59    0.07
  11  15   0    0.18    0.04
  11 -15   0    0.08    0.04
  11 -15   0    0.13    0.03
  11  15   1    0.56    0.06
  11 -15   1    0.57    0.06
  11  15   2    0.46    0.05
  11 -15   2    0.56    0.06
  11  16  -3    0.58    0.04
  11 -16  -3    0.59    0.05
  11  16  -2    1.49    0.06
  11 -16  -2    1.63    0.07
  11 -16  -2    1.55    0.08
  11  16  -1    0.96    0.06
  11 -16  -1    1.03    0.07
  11 -16  -1    1.03    0.06
  11  16   0    3.40    0.11
  11 -16   0    3.50    0.12
  11 -16   0    3.57    0.10
  11  16   1    0.85    0.06
  11 -16   1    0.78    0.07
  11  16   2    0.05    0.03
  11 -16   2    0.13    0.04
  11 -17  -3   -0.03    0.03
  11  17  -2    0.58    0.04
  11 -17  -2    0.52    0.06
  11 -17  -2    0.56    0.05
  11 -17  -1    0.47    0.05
  11 -17  -1    0.42    0.06
  11  17   0    0.99    0.06
  11 -17   0    0.85    0.05
  11 -17   0    0.94    0.07
  11  17   1    3.92    0.12
  11 -17   1    4.16    0.13
  11 -17   2   -0.04    0.03
  11 -18  -2    0.05    0.03
  11 -18  -2    0.09    0.03
  11 -18  -1    0.63    0.05
  11 -18  -1    0.54    0.06
  11 -18   0    0.81    0.07
  11 -18   0    0.77    0.04
  11 -18   1    0.28    0.04
  11 -19  -2    0.02    0.03
  11 -19  -2    0.02    0.03
  11 -19  -1    0.05    0.03
  11 -19  -1    0.10    0.03
  11 -19   0    0.40    0.06
  11 -19   1    2.62    0.09
  11 -20  -1    1.39    0.07
  11 -20  -1    1.44    0.06
  11 -20   0    1.30    0.07
  12   0  -3    0.01    0.03
  12   0  -3    0.00    0.02
  12   0  -2    2.12    0.07
  12   0  -2    2.21    0.09
  12   0  -1    0.02    0.04
  12   0   0    6.64    0.19
  12   0   1    0.03    0.03
  12   0   2    1.18    0.06
  12   1  -3    0.49    0.06
  12   1  -3    0.36    0.04
  12  -1  -3    0.50    0.06
  12  -1  -3    0.29    0.04
  12   1  -2    0.73    0.06
  12   1  -2    0.67    0.04
  12  -1  -2    0.75    0.05
  12  -1  -2    0.54    0.06
  12   1  -1    0.51    0.06
  12  -1  -1    0.54    0.06
  12   1   0    0.96    0.07
  12  -1   0    0.97    0.07
  12   1   1    0.54    0.06
  12  -1   1    0.56    0.06
  12  -1   1    0.54    0.05
  12   1   2    2.50    0.09
  12  -1   2    2.41    0.09
  12   2  -3    0.28    0.04
  12   2  -3    0.30    0.04
  12  -2  -3    0.31    0.04
  12  -2  -3    0.33    0.04
  12   2  -2    0.13    0.04
  12   2  -2    0.12    0.03
  12  -2  -2    0.21    0.04
  12  -2  -2    0.12    0.03
  12   2  -1    4.17    0.13
  12  -2  -1    4.09    0.13
  12   2   0    0.24    0.04
  12  -2   0    0.15    0.04
  12   2   1    0.31    0.04
  12  -2   1    0.28    0.04
  12  -2   1    0.25    0.04
  12   2   2    0.01    0.03
  12   3  -3    0.08    0.03
  12   3  -3    0.11    0.04
  12  -3  -3    0.08    0.03
  12  -3  -3    0.10    0.04
  12   3  -2    8.17    0.22
  12   3  -2    8.19    0.21
  12  -3  -2    8.62    0.21
  12  -3  -2    8.34    0.22
  12   3  -1    0.47    0.05
  12  -3  -1    0.55    0.06
  12   3   0    3.97    0.13
  12  -3   0    3.64    0.12
  12   3   1    0.28    0.04
  12  -3   1    0.31    0.04
  12  -3   1    0.25    0.04
  12   3   2    0.25    0.04
  12   4  -3    4.11    0.13
  12   4  -3    4.04    0.11
  12  -4  -3    4.00    0.12
  12  -4  -3    4.08    0.13
  12   4  -2    0.33    0.05
  12   4  -2    0.38    0.04
  12  -4  -2    0.31    0.04
  12  -4  -2    0.38    0.05
  12   4  -1    2.22    0.09
  12  -4  -1    2.22    0.09
  12   4   0    0.34    0.05
  12  -4   0    0.35    0.05
  12  -4   0    0.32    0.05
  12   4   1    0.12    0.04
  12  -4   1    0.16    0.04
  12  -4   1    0.14    0.03
  12   4   2    0.05    0.03
  12   5  -3    0.51    0.04
  12   5  -3    0.66    0.06
  12  -5  -3    0.54    0.04
  12  -5  -3    0.65    0.06
  12   5  -2    4.95    0.13
  12   5  -2    4.86    0.15
  12  -5  -2    4.99    0.13
  12  -5  -2    4.82    0.15
  12   5  -1    0.31    0.05
  12  -5  -1    0.31    0.04
  12   5   0    5.19    0.15
  12  -5   0    4.75    0.14
  12  -5   0    4.52    0.14
  12   5   1    0.92    0.07
  12  -5   1    0.92    0.06
  12  -5   1    0.98    0.06
  12   5   2    0.04    0.03
  12  -5   2    0.07    0.03
  12   6  -3    4.77    0.13
  12   6  -3    4.74    0.14
  12  -6  -3    4.72    0.14
  12  -6  -3    4.82    0.13
  12   6  -2    0.53    0.06
  12   6  -2    0.50    0.04
  12  -6  -2    0.65    0.06
  12  -6  -2    0.56    0.04
  12   6  -1    1.99    0.09
  12  -6  -1    1.94    0.08
  12   6   0    0.00    0.03
  12  -6   0   -0.03    0.03
  12  -6   0    0.07    0.03
  12   6   1    2.10    0.09
  12  -6   1    2.10    0.08
  12   7  -3    0.09    0.03
  12  -7  -3    0.08    0.03
  12  -7  -3    0.07    0.03
  12   7  -2    1.54    0.06
  12   7  -2    1.71    0.08
  12  -7  -2    1.46    0.07
  12  -7  -2    1.60    0.06
  12   7  -1    0.09    0.04
  12  -7  -1    0.05    0.03
  12   7   0    5.89    0.17
  12  -7   0    5.60    0.16
  12  -7   0    5.90    0.16
  12   7   1    0.45    0.05
  12  -7   1    0.44    0.05
  12   8  -2    0.36    0.04
  12  -8  -2    0.39    0.04
  12  -8  -2    0.33    0.04
  12   8  -1    0.69    0.06
  12  -8  -1    0.52    0.06
  12   8   0    1.25    0.07
  12  -8   0    1.31    0.07
  12   8   1    3.77    0.12
  12  -8   1    3.57    0.11
  12   9  -2    0.05    0.03
  12  -9  -2    0.05    0.02
  12  -9  -2    0.06    0.03
  12   9  -1    0.14    0.04
  12  -9  -1    0.12    0.04
  12  -9  -1    0.17    0.03
  12   9   0    0.82    0.06
  12  -9   0    0.86    0.06
  12   9   1    0.68    0.06
  12  -9   1    0.73    0.06
  12  10  -2   -0.01    0.03
  12 -10  -2    0.02    0.02
  12  10  -1    0.57    0.06
  12 -10  -1    0.57    0.05
  12  10   0    0.29    0.04
  12 -10   0    0.27    0.04
  12  10   1    0.80    0.06
  12 -10   1    0.84    0.06
  12  11  -1    0.45    0.05
  12 -11  -1    0.43    0.05
  12  11   0    0.90    0.06
  12 -11   0    0.91    0.06
  12  11   1    0.11    0.03
  12 -11   1    0.10    0.03
  12  12  -1    8.96    0.23
  12  12   0    0.04    0.03
  12 -12   0   -0.01    0.03
  12 -13   0    0.67    0.05
   0   0   0    0.00    0.00
;
_shelx_hkl_checksum              86134
_olex2_submission_original_sample_id 3-112-225
_olex2_submission_special_instructions 'No special instructions were received'
#END Tags that were not found in dictionaries
loop_
_space_group_symop_operation_xyz
'x, y, z'
'-x, y+1/2, -z+1/2'
'-x, -y, -z'
'x, -y-1/2, z-1/2'
loop_
_atom_site_label
_atom_site_type_symbol
_atom_site_fract_x
_atom_site_fract_y
_atom_site_fract_z
_atom_site_U_iso_or_equiv
_atom_site_adp_type
_atom_site_occupancy
_atom_site_site_symmetry_order
_atom_site_calc_flag
_atom_site_refinement_flags_posn
_atom_site_refinement_flags_occupancy
_atom_site_disorder_assembly
_atom_site_disorder_group
O3 O 0.30003(12) 0.79025(4) -0.62076(17) 0.0236(3) Uani 1 1 d . . . .
O6 O 1.02616(13) 0.77780(4) 0.50844(18) 0.0265(3) Uani 1 1 d . . . .
F3 F 0.3658(6) 1.1022(2) 0.2921(9) 0.0273(12) Uani 0.517(3) 1 d . P A 1
O5 O 0.91156(13) 0.81653(4) 0.66535(18) 0.0285(3) Uani 1 1 d . . . .
N1 N 0.49759(15) 0.87675(4) 0.0206(2) 0.0180(3) Uani 1 1 d . . . .
N2 N 0.53550(16) 0.96036(5) 0.1554(2) 0.0201(3) Uani 1 1 d . . . .
C1 C 0.41395(17) 0.90445(5) 0.0413(2) 0.0176(4) Uani 1 1 d . . . .
C11 C 0.30034(18) 0.82074(6) -0.5172(3) 0.0221(4) Uani 1 1 d . . . .
C5 C 0.47629(17) 0.84414(5) -0.0863(2) 0.0182(4) Uani 1 1 d . . . .
C9 C 0.53762(18) 0.78155(5) -0.1718(2) 0.0198(4) Uani 1 1 d . . . .
H9 H 0.5870 0.7593 -0.1505 0.024 Uiso 1 1 calc R . . .
C10 C 0.55148(17) 0.81165(5) -0.0525(2) 0.0183(4) Uani 1 1 d . . . .
O4 O 0.24528(18) 0.84965(5) -0.5561(2) 0.0438(5) Uani 1 1 d . . . .
C17 C 0.85218(18) 0.78747(6) 0.2148(3) 0.0221(4) Uani 1 1 d . . . .
H17 H 0.9304 0.7758 0.1963 0.027 Uiso 1 1 calc R . . .
C19 C 0.93242(18) 0.79636(6) 0.5229(3) 0.0218(4) Uani 1 1 d . . . .
C18 C 0.76286(18) 0.79201(5) 0.0761(3) 0.0211(4) Uani 1 1 d . . . .
H18 H 0.7811 0.7839 -0.0377 0.025 Uiso 1 1 calc R . . .
C14 C 0.62137(18) 0.81986(5) 0.2696(2) 0.0190(4) Uani 1 1 d . . . .
H14 H 0.5418 0.8305 0.2893 0.023 Uiso 1 1 calc R . . .
C16 C 0.82826(18) 0.79987(5) 0.3820(3) 0.0200(4) Uani 1 1 d . . . .
C15 C 0.71178(18) 0.81599(5) 0.4091(2) 0.0200(4) Uani 1 1 d . . . .
H15 H 0.6944 0.8243 0.5228 0.024 Uiso 1 1 calc R . . .
C13 C 0.64588(18) 0.80834(5) 0.1002(2) 0.0180(4) Uani 1 1 d . . . .
O1 O 0.18743(14) 0.88724(6) -0.0161(2) 0.0467(5) Uani 1 1 d . . . .
O2 O 0.22320(16) 0.97597(6) 0.1024(2) 0.0481(5) Uani 1 1 d . . . .
C6 C 0.39172(18) 0.84559(5) -0.2333(2) 0.0196(4) Uani 1 1 d . . . .
H6 H 0.3402 0.8674 -0.2538 0.024 Uiso 1 1 calc R . . .
C21 C 0.5670(8) 0.9947(3) 0.2430(17) 0.0137(16) Uani 0.517(3) 1 d . P A 1
F1 F 0.3013(3) 1.06168(7) 0.4739(3) 0.0261(6) Uani 0.517(3) 1 d . P A 1
F2 F 0.4433(3) 1.10313(6) 0.5570(3) 0.0302(6) Uani 0.517(3) 1 d . P A 1
C8 C 0.45476(18) 0.78302(5) -0.3191(2) 0.0202(4) Uani 1 1 d . . . .
H8 H 0.4476 0.7622 -0.3979 0.024 Uiso 1 1 calc R . . .
C7 C 0.38156(18) 0.81539(5) -0.3513(2) 0.0194(4) Uani 1 1 d . . . .
C2 C 0.27578(19) 0.90806(7) 0.0240(3) 0.0285(5) Uani 1 1 d . . . .
C4 C 0.42905(18) 0.94171(5) 0.1039(2) 0.0181(4) Uani 1 1 d . . . .
C12 C 0.22727(19) 0.79376(6) -0.7876(3) 0.0268(5) Uani 1 1 d . . . .
H12A H 0.2708 0.8108 -0.8642 0.040 Uiso 1 1 calc GR . . .
H12B H 0.1442 0.8042 -0.7690 0.040 Uiso 1 1 calc GR . . .
H12C H 0.2175 0.7687 -0.8425 0.040 Uiso 1 1 calc GR . . .
C26 C 0.6922(6) 1.0041(2) 0.2835(13) 0.0151(14) Uani 0.517(3) 1 d . P A 1
H26 H 0.7563 0.9875 0.2501 0.018 Uiso 0.517(3) 1 calc R P A 1
C3 C 0.29243(19) 0.94907(7) 0.0832(3) 0.0287(5) Uani 1 1 d . . . .
F6 F 0.8841(3) 1.08324(7) 0.4221(5) 0.0341(7) Uani 0.517(3) 1 d . P A 1
C22 C 0.4729(6) 1.0195(2) 0.2888(12) 0.0165(15) Uani 0.517(3) 1 d . P A 1
H22 H 0.3870 1.0139 0.2583 0.020 Uiso 0.517(3) 1 calc R P A 1
F4 F 0.9071(3) 1.03008(10) 0.5594(4) 0.0386(8) Uani 0.517(3) 1 d . P A 1
C20 C 1.0152(2) 0.81704(7) 0.8003(3) 0.0351(5) Uani 1 1 d . . . .
H20A H 1.0899 0.8278 0.7521 0.053 Uiso 1 1 calc GR . . .
H20B H 1.0334 0.7911 0.8407 0.053 Uiso 1 1 calc GR . . .
H20C H 0.9923 0.8326 0.8992 0.053 Uiso 1 1 calc GR . . .
C25 C 0.7247(5) 1.03733(15) 0.3721(7) 0.0183(11) Uani 0.517(3) 1 d . P A 1
C23 C 0.5068(6) 1.05278(15) 0.3802(7) 0.0171(12) Uani 0.517(3) 1 d . P A 1
C24 C 0.6325(6) 1.06175(17) 0.4234(6) 0.0181(11) Uani 0.517(3) 1 d . P A 1
H24 H 0.6548 1.0842 0.4871 0.022 Uiso 0.517(3) 1 calc R P A 1
C27 C 0.4055(5) 1.07959(11) 0.4262(5) 0.0197(9) Uani 0.517(3) 1 d . P A 1
C28 C 0.8615(5) 1.04664(14) 0.4105(6) 0.0239(9) Uani 0.517(3) 1 d . P A 1
C21A C 0.5334(8) 0.9960(3) 0.2403(19) 0.0168(19) Uani 0.483(3) 1 d . P A 2
C22A C 0.4301(7) 1.0180(2) 0.2730(13) 0.0180(15) Uani 0.483(3) 1 d . P A 2
H22A H 0.3475 1.0100 0.2343 0.022 Uiso 0.483(3) 1 calc R P A 2
C23A C 0.4496(6) 1.05192(16) 0.3636(8) 0.0209(13) Uani 0.483(3) 1 d . P A 2
C24A C 0.5691(7) 1.06358(16) 0.4246(7) 0.0203(12) Uani 0.483(3) 1 d . P A 2
H24A H 0.5804 1.0865 0.4894 0.024 Uiso 0.483(3) 1 calc R P A 2
C25A C 0.6720(6) 1.04160(19) 0.3903(7) 0.0205(13) Uani 0.483(3) 1 d . P A 2
C26A C 0.6539(7) 1.0078(3) 0.2971(14) 0.0184(17) Uani 0.483(3) 1 d . P A 2
H26A H 0.7244 0.9928 0.2722 0.022 Uiso 0.483(3) 1 calc R P A 2
C27A C 0.3376(6) 1.07657(14) 0.3944(7) 0.0251(10) Uani 0.483(3) 1 d . P A 2
C28A C 0.8012(6) 1.05348(14) 0.4509(6) 0.0268(11) Uani 0.483(3) 1 d . P A 2
F1A F 0.2280(3) 1.05828(9) 0.3703(6) 0.0612(12) Uani 0.483(3) 1 d . P A 2
F2A F 0.3448(4) 1.09101(11) 0.5542(4) 0.0604(13) Uani 0.483(3) 1 d . P A 2
F3A F 0.3285(6) 1.1060(2) 0.2844(11) 0.0331(15) Uani 0.483(3) 1 d . P A 2
F5A F 0.8067(3) 1.07189(8) 0.6038(3) 0.0373(8) Uani 0.483(3) 1 d . P A 2
F6A F 0.8504(3) 1.07713(11) 0.3374(4) 0.0444(9) Uani 0.483(3) 1 d . P A 2
F4A F 0.8806(4) 1.02426(12) 0.4722(7) 0.0576(12) Uani 0.483(3) 1 d . P A 2
F5 F 0.9321(2) 1.03293(8) 0.2872(4) 0.0388(7) Uani 0.517(3) 1 d . P A 1
S1 S 0.85585(18) 0.89692(6) 0.0451(3) 0.0330(2) Uani 0.542(4) 1 d . P B 1
O7 O 0.72865(13) 0.91093(5) 0.1002(2) 0.0330(2) Uani 1 1 d . . . .
C30 C 0.94782(19) 0.89217(7) 0.2472(3) 0.0330(2) Uani 1 1 d . . . .
H30A H 1.0321 0.8832 0.2251 0.050 Uiso 0.542(4) 1 calc R P B 1
H30B H 0.9542 0.9168 0.3064 0.050 Uiso 0.542(4) 1 calc R P B 1
H30C H 0.9080 0.8738 0.3217 0.050 Uiso 0.542(4) 1 calc R P B 1
H30D H 1.0371 0.8900 0.2266 0.050 Uiso 0.458(4) 1 calc R P B 2
H30E H 0.9379 0.9101 0.3430 0.050 Uiso 0.458(4) 1 calc R P B 2
H30F H 0.9156 0.8672 0.2788 0.050 Uiso 0.458(4) 1 calc R P B 2
C29 C 0.9212(3) 0.93731(12) -0.0549(6) 0.0330(2) Uani 0.542(4) 1 d . P B 1
H29A H 0.8753 0.9421 -0.1687 0.050 Uiso 0.542(4) 1 calc GR P B 1
H29B H 1.0100 0.9325 -0.0719 0.050 Uiso 0.542(4) 1 calc GR P B 1
H29C H 0.9144 0.9595 0.0209 0.050 Uiso 0.542(4) 1 calc GR P B 1
S1A S 0.8662(2) 0.90802(7) 0.0620(3) 0.0330(2) Uani 0.458(4) 1 d . P B 2
C29A C 0.9348(4) 0.95387(14) 0.0808(7) 0.0330(2) Uani 0.458(4) 1 d . P B 2
H29D H 0.8936 0.9707 -0.0083 0.050 Uiso 0.458(4) 1 calc GR P B 2
H29E H 1.0246 0.9521 0.0633 0.050 Uiso 0.458(4) 1 calc GR P B 2
H29F H 0.9239 0.9642 0.1977 0.050 Uiso 0.458(4) 1 calc GR P B 2
H1 H 0.578(2) 0.8823(7) 0.050(3) 0.029(6) Uiso 1 1 d . . . .
H2 H 0.607(2) 0.9480(7) 0.140(3) 0.030(6) Uiso 1 1 d . . . .
loop_
_atom_site_aniso_label
_atom_site_aniso_U_11
_atom_site_aniso_U_22
_atom_site_aniso_U_33
_atom_site_aniso_U_23
_atom_site_aniso_U_13
_atom_site_aniso_U_12
O3 0.0238(7) 0.0252(7) 0.0209(7) -0.0075(6) -0.0043(6) 0.0010(6)
O6 0.0231(7) 0.0334(8) 0.0227(7) 0.0007(6) 0.0000(6) 0.0020(6)
F3 0.034(3) 0.024(2) 0.0231(17) 0.0072(13) 0.0037(19) 0.008(2)
O5 0.0230(7) 0.0390(9) 0.0226(7) -0.0093(6) -0.0024(6) -0.0020(6)
N1 0.0188(8) 0.0147(8) 0.0200(8) -0.0020(6) -0.0022(6) -0.0016(6)
N2 0.0255(9) 0.0150(8) 0.0196(8) -0.0025(6) 0.0013(7) 0.0018(7)
C1 0.0178(9) 0.0215(9) 0.0133(9) 0.0004(7) 0.0001(7) -0.0011(7)
C11 0.0243(10) 0.0204(10) 0.0215(10) -0.0028(8) 0.0019(8) -0.0041(8)
C5 0.0219(9) 0.0150(9) 0.0181(9) -0.0004(7) 0.0031(7) -0.0047(7)
C9 0.0227(9) 0.0148(9) 0.0219(10) 0.0006(7) 0.0028(8) -0.0016(7)
C10 0.0206(9) 0.0165(9) 0.0184(9) 0.0014(7) 0.0043(7) -0.0036(7)
O4 0.0664(12) 0.0264(8) 0.0344(9) -0.0067(7) -0.0225(8) 0.0131(8)
C17 0.0202(9) 0.0225(10) 0.0237(10) -0.0026(8) 0.0020(8) -0.0004(8)
C19 0.0225(10) 0.0226(10) 0.0203(10) 0.0002(8) 0.0026(8) -0.0057(8)
C18 0.0255(10) 0.0198(10) 0.0183(9) -0.0034(7) 0.0033(8) -0.0017(8)
C14 0.0198(9) 0.0151(9) 0.0222(9) 0.0001(7) 0.0028(7) -0.0016(7)
C16 0.0220(9) 0.0168(9) 0.0213(9) 0.0000(7) 0.0019(8) -0.0042(7)
C15 0.0247(10) 0.0180(9) 0.0177(9) -0.0005(7) 0.0030(7) -0.0041(7)
C13 0.0223(9) 0.0111(8) 0.0204(9) 0.0012(7) 0.0016(7) -0.0040(7)
O1 0.0208(8) 0.0907(14) 0.0287(8) -0.0147(9) 0.0021(6) -0.0197(8)
O2 0.0426(10) 0.0695(12) 0.0329(9) 0.0042(8) 0.0059(7) 0.0398(9)
C6 0.0229(9) 0.0152(9) 0.0209(9) 0.0016(7) 0.0022(8) -0.0021(7)
C21 0.017(4) 0.012(2) 0.012(2) 0.0016(17) 0.002(3) 0.003(2)
F1 0.0339(15) 0.0183(12) 0.0283(14) 0.0022(11) 0.0161(12) 0.0050(10)
F2 0.0437(16) 0.0223(12) 0.0246(12) -0.0118(9) 0.0025(11) 0.0082(11)
C8 0.0248(10) 0.0167(9) 0.0197(9) -0.0033(7) 0.0046(8) -0.0050(7)
C7 0.0215(9) 0.0183(9) 0.0185(9) -0.0003(7) 0.0030(7) -0.0052(7)
C2 0.0184(10) 0.0519(14) 0.0152(10) -0.0025(9) 0.0005(8) -0.0006(9)
C4 0.0214(9) 0.0197(9) 0.0131(9) 0.0011(7) 0.0005(7) 0.0047(7)
C12 0.0249(10) 0.0346(12) 0.0200(10) -0.0059(9) -0.0039(8) -0.0008(9)
C26 0.016(3) 0.013(2) 0.016(3) 0.0011(17) 0.002(3) 0.002(2)
C3 0.0248(10) 0.0453(13) 0.0160(10) 0.0015(9) 0.0016(8) 0.0135(9)
F6 0.0285(15) 0.0204(13) 0.052(2) -0.0022(13) -0.0057(14) -0.0055(10)
C22 0.015(3) 0.019(2) 0.016(2) 0.0021(17) 0.002(3) 0.000(2)
F4 0.0331(17) 0.0429(19) 0.0374(17) 0.0130(15) -0.0121(13) -0.0027(13)
C20 0.0250(11) 0.0551(15) 0.0243(11) -0.0104(10) -0.0041(9) -0.0057(10)
C25 0.021(2) 0.017(2) 0.016(2) 0.0036(16) -0.002(2) 0.002(2)
C23 0.019(3) 0.018(2) 0.014(2) 0.0010(16) 0.001(2) 0.002(2)
C24 0.021(3) 0.017(2) 0.016(2) 0.0002(17) -0.001(2) 0.001(2)
C27 0.026(2) 0.016(2) 0.0168(19) 0.0012(15) 0.0026(18) 0.0032(18)
C28 0.023(2) 0.015(2) 0.032(2) -0.0015(19) -0.0085(18) 0.0011(18)
C21A 0.018(4) 0.017(3) 0.015(3) 0.001(2) 0.001(3) 0.000(3)
C22A 0.022(4) 0.014(2) 0.019(3) 0.0026(18) 0.006(3) 0.003(3)
C23A 0.029(3) 0.017(2) 0.018(2) 0.0051(17) 0.008(2) 0.001(2)
C24A 0.031(3) 0.013(2) 0.018(2) -0.0013(17) 0.006(3) 0.003(3)
C25A 0.025(3) 0.018(3) 0.019(2) -0.0012(19) 0.003(2) 0.001(3)
C26A 0.020(4) 0.017(3) 0.019(3) 0.0007(19) 0.005(3) 0.004(3)
C27A 0.034(3) 0.020(2) 0.023(2) -0.0002(19) 0.010(2) 0.005(2)
C28A 0.030(3) 0.026(2) 0.025(2) -0.0014(18) 0.001(2) -0.003(2)
F1A 0.0382(18) 0.0305(17) 0.120(4) -0.0121(19) 0.035(2) 0.0005(14)
F2A 0.089(3) 0.069(3) 0.0231(15) -0.0058(15) 0.0065(16) 0.055(2)
F3A 0.038(4) 0.033(2) 0.030(2) 0.0116(15) 0.005(2) 0.011(2)
F5A 0.0550(18) 0.0377(15) 0.0188(13) -0.0058(11) 0.0003(11) -0.0205(13)
F6A 0.046(2) 0.062(2) 0.0251(17) 0.0033(16) 0.0028(15) -0.0280(17)
F4A 0.039(2) 0.039(2) 0.089(4) -0.024(2) -0.030(2) 0.0031(15)
F5 0.0242(13) 0.0451(16) 0.0472(16) -0.0148(12) 0.0028(11) -0.0053(11)
S1 0.0159(3) 0.0422(7) 0.0411(4) 0.0059(5) 0.0021(3) 0.0039(4)
O7 0.0159(3) 0.0422(7) 0.0411(4) 0.0059(5) 0.0021(3) 0.0039(4)
C30 0.0159(3) 0.0422(7) 0.0411(4) 0.0059(5) 0.0021(3) 0.0039(4)
C29 0.0159(3) 0.0422(7) 0.0411(4) 0.0059(5) 0.0021(3) 0.0039(4)
S1A 0.0159(3) 0.0422(7) 0.0411(4) 0.0059(5) 0.0021(3) 0.0039(4)
C29A 0.0159(3) 0.0422(7) 0.0411(4) 0.0059(5) 0.0021(3) 0.0039(4)
loop_
_atom_type_symbol
_atom_type_description
_atom_type_scat_dispersion_real
_atom_type_scat_dispersion_imag
_atom_type_scat_source
C C 0.0181 0.0091 'International Tables Vol C Tables 4.2.6.8 and 6.1.1.4'
H H 0.0000 0.0000 'International Tables Vol C Tables 4.2.6.8 and 6.1.1.4'
F F 0.0727 0.0534 'International Tables Vol C Tables 4.2.6.8 and 6.1.1.4'
N N 0.0311 0.0180 'International Tables Vol C Tables 4.2.6.8 and 6.1.1.4'
O O 0.0492 0.0322 'International Tables Vol C Tables 4.2.6.8 and 6.1.1.4'
S S 0.3331 0.5567 'International Tables Vol C Tables 4.2.6.8 and 6.1.1.4'
loop_
_geom_angle_atom_site_label_1
_geom_angle_atom_site_label_2
_geom_angle_atom_site_label_3
_geom_angle
C11 O3 C12 115.55(16)
C19 O5 C20 114.89(16)
C1 N1 C5 125.40(16)
C1 N1 H1 116.5(15)
C5 N1 H1 115.6(16)
C21 N2 H2 107.9(16)
C4 N2 C21 136.3(4)
C4 N2 C21A 121.7(4)
C4 N2 H2 115.5(16)
C21A N2 H2 122.6(16)
N1 C1 C2 136.24(18)
N1 C1 C4 131.45(17)
C4 C1 C2 92.15(16)
O3 C11 C7 112.20(17)
O4 C11 O3 123.81(18)
O4 C11 C7 123.93(18)
C10 C5 N1 119.21(17)
C6 C5 N1 120.21(17)
C6 C5 C10 120.23(17)
C10 C9 H9 118.9
C8 C9 H9 118.9
C8 C9 C10 122.23(18)
C5 C10 C13 123.29(17)
C9 C10 C5 117.74(17)
C9 C10 C13 118.95(17)
C18 C17 H17 119.8
C18 C17 C16 120.32(18)
C16 C17 H17 119.8
O6 C19 O5 123.73(18)
O6 C19 C16 123.68(18)
O5 C19 C16 112.58(17)
C17 C18 H18 119.5
C17 C18 C13 121.08(18)
C13 C18 H18 119.5
C15 C14 H14 119.5
C15 C14 C13 120.90(18)
C13 C14 H14 119.5
C17 C16 C19 117.25(17)
C17 C16 C15 119.48(18)
C15 C16 C19 123.22(17)
C14 C15 C16 119.94(18)
C14 C15 H15 120.0
C16 C15 H15 120.0
C18 C13 C10 119.03(17)
C18 C13 C14 118.24(17)
C14 C13 C10 122.69(17)
C5 C6 H6 119.7
C5 C6 C7 120.68(18)
C7 C6 H6 119.7
C26 C21 N2 120.1(6)
C26 C21 C22 119.5(6)
C22 C21 N2 120.4(6)
C9 C8 H8 120.3
C9 C8 C7 119.40(17)
C7 C8 H8 120.3
C6 C7 C11 117.74(17)
C8 C7 C11 122.32(17)
C8 C7 C6 119.69(18)
C1 C2 C3 87.84(16)
O1 C2 C1 136.2(2)
O1 C2 C3 136.0(2)
N2 C4 C1 129.02(17)
N2 C4 C3 138.60(18)
C1 C4 C3 92.37(16)
O3 C12 H12A 109.5
O3 C12 H12B 109.5
O3 C12 H12C 109.5
H12A C12 H12B 109.5
H12A C12 H12C 109.5
H12B C12 H12C 109.5
C21 C26 H26 119.6
C25 C26 C21 120.8(6)
C25 C26 H26 119.6
O2 C3 C2 135.9(2)
O2 C3 C4 136.6(2)
C4 C3 C2 87.52(16)
C21 C22 H22 120.4
C21 C22 C23 119.2(6)
C23 C22 H22 120.4
O5 C20 H20A 109.5
O5 C20 H20B 109.5
O5 C20 H20C 109.5
H20A C20 H20B 109.5
H20A C20 H20C 109.5
H20B C20 H20C 109.5
C26 C25 C24 120.5(5)
C26 C25 C28 118.9(5)
C24 C25 C28 120.6(4)
C22 C23 C27 118.9(5)
C24 C23 C22 121.0(5)
C24 C23 C27 120.0(5)
C25 C24 C23 118.9(5)
C25 C24 H24 120.5
C23 C24 H24 120.5
F3 C27 F1 105.4(4)
F3 C27 C23 112.7(4)
F1 C27 C23 113.1(4)
F2 C27 F3 105.2(5)
F2 C27 F1 107.1(3)
F2 C27 C23 112.7(4)
F6 C28 F4 108.5(4)
F6 C28 C25 113.4(5)
F6 C28 F5 106.9(4)
F4 C28 C25 110.8(4)
F4 C28 F5 104.8(5)
F5 C28 C25 111.9(4)
C22A C21A N2 128.3(7)
C22A C21A C26A 120.4(7)
C26A C21A N2 111.3(7)
C21A C22A H22A 120.7
C21A C22A C23A 118.7(6)
C23A C22A H22A 120.7
C22A C23A C27A 118.8(5)
C24A C23A C22A 121.5(5)
C24A C23A C27A 119.7(5)
C23A C24A H24A 120.2
C25A C24A C23A 119.5(5)
C25A C24A H24A 120.2
C24A C25A C26A 119.6(6)
C24A C25A C28A 121.0(6)
C26A C25A C28A 119.4(6)
C21A C26A C25A 120.3(6)
C21A C26A H26A 119.8
C25A C26A H26A 119.8
F1A C27A C23A 113.3(4)
F2A C27A C23A 112.1(5)
F2A C27A F1A 107.5(5)
F2A C27A F3A 106.4(6)
F3A C27A C23A 111.6(5)
F3A C27A F1A 105.5(5)
F5A C28A C25A 112.8(5)
F5A C28A F6A 105.9(4)
F6A C28A C25A 112.0(4)
F4A C28A C25A 112.7(4)
F4A C28A F5A 106.5(4)
F4A C28A F6A 106.3(5)
O7 S1 C30 103.45(15)
O7 S1 C29 104.21(18)
C30 S1 C29 103.95(19)
S1 C30 H30A 109.5
S1 C30 H30B 109.5
S1 C30 H30C 109.5
H30A C30 H30B 109.5
H30A C30 H30C 109.5
H30B C30 H30C 109.5
H30D C30 H30E 109.5
H30D C30 H30F 109.5
H30E C30 H30F 109.5
S1A C30 H30D 109.5
S1A C30 H30E 109.5
S1A C30 H30F 109.5
S1 C29 H29A 109.5
S1 C29 H29B 109.5
S1 C29 H29C 109.5
H29A C29 H29B 109.5
H29A C29 H29C 109.5
H29B C29 H29C 109.5
O7 S1A C30 107.56(17)
O7 S1A C29A 108.7(2)
C30 S1A C29A 92.9(2)
S1A C29A H29D 109.5
S1A C29A H29E 109.5
S1A C29A H29F 109.5
H29D C29A H29E 109.5
H29D C29A H29F 109.5
H29E C29A H29F 109.5
loop_
_geom_bond_atom_site_label_1
_geom_bond_atom_site_label_2
_geom_bond_distance
O3 C11 1.334(2)
O3 C12 1.447(2)
O6 C19 1.207(2)
F3 C27 1.342(6)
O5 C19 1.334(2)
O5 C20 1.453(2)
N1 C1 1.340(2)
N1 C5 1.418(2)
N1 H1 0.89(2)
N2 C21 1.410(8)
N2 C4 1.344(3)
N2 C21A 1.415(8)
N2 H2 0.89(3)
C1 C2 1.475(3)
C1 C4 1.402(3)
C11 O4 1.201(3)
C11 C7 1.492(3)
C5 C10 1.410(3)
C5 C6 1.387(3)
C9 H9 0.9500
C9 C10 1.399(3)
C9 C8 1.378(3)
C10 C13 1.487(3)
C17 H17 0.9500
C17 C18 1.379(3)
C17 C16 1.394(3)
C19 C16 1.492(3)
C18 H18 0.9500
C18 C13 1.399(3)
C14 H14 0.9500
C14 C15 1.388(3)
C14 C13 1.402(3)
C16 C15 1.396(3)
C15 H15 0.9500
O1 C2 1.214(3)
O2 C3 1.217(3)
C6 H6 0.9500
C6 C7 1.394(3)
C21 C26 1.387(8)
C21 C22 1.396(8)
F1 C27 1.353(5)
F2 C27 1.337(5)
C8 H8 0.9500
C8 C7 1.393(3)
C2 C3 1.520(3)
C4 C3 1.477(3)
C12 H12A 0.9800
C12 H12B 0.9800
C12 H12C 0.9800
C26 H26 0.9500
C26 C25 1.383(7)
F6 C28 1.313(5)
C22 H22 0.9500
C22 C23 1.397(8)
F4 C28 1.337(5)
C20 H20A 0.9800
C20 H20B 0.9800
C20 H20C 0.9800
C25 C24 1.386(6)
C25 C28 1.502(6)
C23 C24 1.393(7)
C23 C27 1.497(6)
C24 H24 0.9500
C28 F5 1.342(7)
C21A C22A 1.387(8)
C21A C26A 1.388(8)
C22A H22A 0.9500
C22A C23A 1.388(8)
C23A C24A 1.385(7)
C23A C27A 1.510(7)
C24A H24A 0.9500
C24A C25A 1.385(7)
C25A C26A 1.392(8)
C25A C28A 1.480(7)
C26A H26A 0.9500
C27A F1A 1.335(7)
C27A F2A 1.321(5)
C27A F3A 1.333(8)
C28A F5A 1.334(5)
C28A F6A 1.340(5)
C28A F4A 1.334(6)
S1 O7 1.533(2)
S1 C30 1.773(3)
S1 C29 1.783(5)
O7 S1A 1.522(3)
C30 H30A 0.9800
C30 H30B 0.9800
C30 H30C 0.9800
C30 H30D 0.9800
C30 H30E 0.9800
C30 H30F 0.9800
C30 S1A 1.698(3)
C29 H29A 0.9800
C29 H29B 0.9800
C29 H29C 0.9800
S1A C29A 1.774(5)
C29A H29D 0.9800
C29A H29E 0.9800
C29A H29F 0.9800
loop_
_geom_torsion_atom_site_label_1
_geom_torsion_atom_site_label_2
_geom_torsion_atom_site_label_3
_geom_torsion_atom_site_label_4
_geom_torsion
O3 C11 C7 C6 178.78(16)
O3 C11 C7 C8 4.6(3)
O6 C19 C16 C17 -13.3(3)
O6 C19 C16 C15 168.98(19)
O5 C19 C16 C17 165.54(17)
O5 C19 C16 C15 -12.1(3)
N1 C1 C2 O1 -0.4(4)
N1 C1 C2 C3 178.1(2)
N1 C1 C4 N2 2.7(3)
N1 C1 C4 C3 -178.6(2)
N1 C5 C10 C9 -173.05(17)
N1 C5 C10 C13 5.5(3)
N1 C5 C6 C7 171.88(17)
N2 C21 C26 C25 -178.9(9)
N2 C21 C22 C23 178.1(9)
N2 C4 C3 O2 2.0(4)
N2 C4 C3 C2 -178.9(2)
N2 C21A C22A C23A 178.2(12)
N2 C21A C26A C25A -177.4(10)
C1 N1 C5 C10 -158.38(18)
C1 N1 C5 C6 28.4(3)
C1 C2 C3 O2 176.6(3)
C1 C2 C3 C4 -2.50(14)
C1 C4 C3 O2 -176.5(3)
C1 C4 C3 C2 2.63(15)
C5 N1 C1 C2 24.1(3)
C5 N1 C1 C4 -161.90(19)
C5 C10 C13 C18 -138.06(19)
C5 C10 C13 C14 44.0(3)
C5 C6 C7 C11 -172.73(17)
C5 C6 C7 C8 1.6(3)
C9 C10 C13 C18 40.5(2)
C9 C10 C13 C14 -137.50(19)
C9 C8 C7 C11 173.22(17)
C9 C8 C7 C6 -0.9(3)
C10 C5 C6 C7 -1.3(3)
C10 C9 C8 C7 -0.2(3)
O4 C11 C7 C6 1.4(3)
O4 C11 C7 C8 -172.8(2)
C17 C18 C13 C10 -178.34(17)
C17 C18 C13 C14 -0.3(3)
C17 C16 C15 C14 -0.6(3)
C19 C16 C15 C14 177.06(17)
C18 C17 C16 C19 -176.01(18)
C18 C17 C16 C15 1.8(3)
C16 C17 C18 C13 -1.3(3)
C15 C14 C13 C10 179.45(17)
C15 C14 C13 C18 1.5(3)
C13 C14 C15 C16 -1.1(3)
O1 C2 C3 O2 -4.8(5)
O1 C2 C3 C4 176.0(3)
C6 C5 C10 C9 0.2(3)
C6 C5 C10 C13 178.73(17)
C21 N2 C4 C1 -168.8(9)
C21 N2 C4 C3 13.1(9)
C21 N2 C21A C22A 179(6)
C21 N2 C21A C26A -2(4)
C21 C26 C25 C24 0.6(12)
C21 C26 C25 C28 -179.0(8)
C21 C22 C23 C24 1.0(12)
C21 C22 C23 C27 178.9(8)
C8 C9 C10 C5 0.6(3)
C8 C9 C10 C13 -178.04(17)
C2 C1 C4 N2 178.6(2)
C2 C1 C4 C3 -2.71(16)
C4 N2 C21 C26 176.3(6)
C4 N2 C21 C22 -3.9(16)
C4 N2 C21A C22A -4.6(18)
C4 N2 C21A C26A 173.8(7)
C4 C1 C2 O1 -175.9(3)
C4 C1 C2 C3 2.63(15)
C12 O3 C11 O4 -0.2(3)
C12 O3 C11 C7 -177.64(16)
C26 C21 C22 C23 -2.2(15)
C26 C25 C24 C23 -1.8(9)
C26 C25 C28 F6 152.0(7)
C26 C25 C28 F4 -85.6(7)
C26 C25 C28 F5 31.0(8)
C22 C21 C26 C25 1.4(16)
C22 C23 C24 C25 1.0(8)
C22 C23 C27 F3 -81.1(7)
C22 C23 C27 F1 38.4(7)
C22 C23 C27 F2 160.0(6)
C20 O5 C19 O6 4.4(3)
C20 O5 C19 C16 -174.44(17)
C24 C25 C28 F6 -27.6(7)
C24 C25 C28 F4 94.8(6)
C24 C25 C28 F5 -148.6(5)
C24 C23 C27 F3 96.8(6)
C24 C23 C27 F1 -143.7(4)
C24 C23 C27 F2 -22.1(6)
C27 C23 C24 C25 -176.9(4)
C28 C25 C24 C23 177.8(4)
C21A N2 C21 C26 -179(6)
C21A N2 C21 C22 1(4)
C21A N2 C4 C1 -170.2(8)
C21A N2 C4 C3 11.7(8)
C21A C22A C23A C24A -1.5(13)
C21A C22A C23A C27A 178.1(9)
C22A C21A C26A C25A 1.2(18)
C22A C23A C24A C25A 2.0(10)
C22A C23A C27A F1A 16.6(8)
C22A C23A C27A F2A 138.4(7)
C22A C23A C27A F3A -102.4(8)
C23A C24A C25A C26A -0.8(10)
C23A C24A C25A C28A 179.0(5)
C24A C23A C27A F1A -163.9(5)
C24A C23A C27A F2A -42.0(8)
C24A C23A C27A F3A 77.2(8)
C24A C25A C26A C21A -0.7(14)
C24A C25A C28A F5A 33.8(7)
C24A C25A C28A F6A -85.5(6)
C24A C25A C28A F4A 154.5(6)
C26A C21A C22A C23A -0.1(17)
C26A C25A C28A F5A -146.3(7)
C26A C25A C28A F6A 94.3(8)
C26A C25A C28A F4A -25.6(9)
C27A C23A C24A C25A -177.6(5)
C28A C25A C26A C21A 179.5(9)
S1 O7 S1A C30 -91.3(6)
S1 O7 S1A C29A 169.3(7)
S1 C30 S1A O7 84.3(6)
S1 C30 S1A C29A -165.1(7)
O7 S1 C30 S1A -75.5(6)
C30 S1 O7 S1A 69.8(6)
C29 S1 O7 S1A -38.6(6)
C29 S1 C30 S1A 33.1(6)
