#------------------------------------------------------------------------------
#$Date: 2016-03-22 22:11:28 +0200 (Tue, 22 Mar 2016) $
#$Revision: 179034 $
#$URL: svn://www.crystallography.net/cod/cif/4/12/32/4123293.cif $
#------------------------------------------------------------------------------
#
# This file is available in the Crystallography Open Database (COD),
# http://www.crystallography.net/
#
# All data on this site have been placed in the public domain by the
# contributors.
#
data_4123293
loop_
_publ_author_name
'McGuirk, C. Michael'
'Katz, Michael J.'
'Stern, Charlotte L.'
'Sarjeant, Amy A.'
'Hupp, Joseph T.'
'Farha, Omar K.'
'Mirkin, Chad A.'
_publ_section_title
;
 Turning on catalysis: incorporation of a hydrogen-bond-donating
 squaramide moiety into a zr metal-organic framework.
;
_journal_issue                   2
_journal_name_full               'Journal of the American Chemical Society'
_journal_page_first              919
_journal_page_last               925
_journal_paper_doi               10.1021/ja511403t
_journal_volume                  137
_journal_year                    2015
_chemical_formula_moiety         'C25 H18 F6 N2 O5, C2 H3 N'
_chemical_formula_sum            'C27 H21 F6 N3 O5'
_chemical_formula_weight         581.47
_space_group_crystal_system      triclinic
_space_group_IT_number           2
_space_group_name_Hall           '-P 1'
_space_group_name_H-M_alt        'P -1'
_symmetry_space_group_name_Hall  '-P 1'
_symmetry_space_group_name_H-M   'P -1'
_atom_sites_solution_hydrogens   mixed
_audit_creation_date             2014-08-04
_audit_creation_method
;
Olex2 1.2
(compiled 2014.07.22 svn.r2960 for OlexSys, GUI svn.r4862)
;
_cell_angle_alpha                70.1060(18)
_cell_angle_beta                 71.073(2)
_cell_angle_gamma                89.5000(19)
_cell_formula_units_Z            2
_cell_length_a                   10.8859(4)
_cell_length_b                   11.4845(5)
_cell_length_c                   11.4884(5)
_cell_measurement_reflns_used    5821
_cell_measurement_temperature    100(2)
_cell_measurement_theta_max      31.148
_cell_measurement_theta_min      3.275
_cell_volume                     1269.17(9)
_computing_cell_refinement       'SAINT V7.23A (Bruker, 2005)'
_computing_data_collection       'APEX2 V2.1-4 (Bruker, 2007)'
_computing_data_reduction        'Bruker SAINT'
_computing_molecular_graphics    'Olex2 (Dolomanov et al., 2009)'
_computing_publication_material  'Olex2 (Dolomanov et al., 2009)'
_computing_structure_refinement  'ShelXL (Sheldrick, 2008)'
_diffrn_ambient_temperature      100.02
_diffrn_detector_area_resol_mean 8
_diffrn_measured_fraction_theta_full 0.984
_diffrn_measured_fraction_theta_max 0.972
_diffrn_measurement_device_type  'Bruker Kappa APEX CCD area detector'
_diffrn_measurement_method       '\w and \f scans'
_diffrn_radiation_monochromator  graphite
_diffrn_radiation_type           MoK\a
_diffrn_radiation_wavelength     0.71073
_diffrn_reflns_av_R_equivalents  0.0339
_diffrn_reflns_av_unetI/netI     0.0537
_diffrn_reflns_Laue_measured_fraction_full 0.984
_diffrn_reflns_Laue_measured_fraction_max 0.972
_diffrn_reflns_limit_h_max       15
_diffrn_reflns_limit_h_min       -15
_diffrn_reflns_limit_k_max       16
_diffrn_reflns_limit_k_min       -12
_diffrn_reflns_limit_l_max       16
_diffrn_reflns_limit_l_min       -16
_diffrn_reflns_number            17525
_diffrn_reflns_point_group_measured_fraction_full 0.984
_diffrn_reflns_point_group_measured_fraction_max 0.972
_diffrn_reflns_theta_full        26.000
_diffrn_reflns_theta_max         31.231
_diffrn_reflns_theta_min         2.648
_diffrn_source                   'sealed tube'
_exptl_absorpt_coefficient_mu    0.135
_exptl_absorpt_correction_T_max  0.7462
_exptl_absorpt_correction_T_min  0.6797
_exptl_absorpt_correction_type   multi-scan
_exptl_absorpt_process_details
;
SADABS-2012/1 (Bruker,2012) was used for absorption correction.
wR2(int) was 0.0424 before and 0.0376 after correction.
The Ratio of minimum to maximum transmission is 0.9109.
The \l/2 correction factor is 0.0015.
;
_exptl_crystal_colour            colourless
_exptl_crystal_colour_primary    colourless
_exptl_crystal_density_diffrn    1.522
_exptl_crystal_description       block
_exptl_crystal_F_000             596
_exptl_crystal_size_max          0.34
_exptl_crystal_size_mid          0.214
_exptl_crystal_size_min          0.183
_refine_diff_density_max         0.615
_refine_diff_density_min         -0.432
_refine_diff_density_rms         0.065
_refine_ls_extinction_method     none
_refine_ls_goodness_of_fit_ref   0.864
_refine_ls_hydrogen_treatment    mixed
_refine_ls_matrix_type           full
_refine_ls_number_parameters     381
_refine_ls_number_reflns         8021
_refine_ls_number_restraints     0
_refine_ls_restrained_S_all      0.864
_refine_ls_R_factor_all          0.0647
_refine_ls_R_factor_gt           0.0442
_refine_ls_shift/su_max          0.001
_refine_ls_shift/su_mean         0.000
_refine_ls_structure_factor_coef Fsqd
_refine_ls_weighting_details
'w=1/[\s^2^(Fo^2^)+(0.0831P)^2^] where P=(Fo^2^+2Fc^2^)/3'
_refine_ls_weighting_scheme      calc
_refine_ls_wR_factor_gt          0.1164
_refine_ls_wR_factor_ref         0.1275
_reflns_Friedel_coverage         0.000
_reflns_number_gt                5644
_reflns_number_total             8021
_reflns_threshold_expression     'I > 2\s(I)'
_cod_data_source_file            ja511403t_si_003.cif
_cod_data_source_block           n3672
_cod_depositor_comments
'Adding full bibliography for 4123292--4123293.cif.'
_cod_database_code               4123293
#BEGIN Tags that were not found in dictionaries:
_shelxl_version_number           2013-4
_shelx_space_group_comment
;
The symmetry employed for this shelxl refinement is uniquely defined
by the following loop, which should always be used as a source of
symmetry information in preference to the above space-group names.
They are only intended as comments.
;
_shelx_estimated_absorpt_t_max   0.976
_shelx_estimated_absorpt_t_min   0.956
_olex2_refinement_description
;
1. Fixed Uiso
 At 1.2 times of:
  All C(H) groups
 At 1.5 times of:
  All C(H,H,H) groups
2.a Aromatic/amide H refined with riding coordinates:
 C2(H2A), C4(H4), C6(H6), C11(H11), C13(H13), C14(H14), C19(H19), C20(H20),
 C22(H22), C23(H23)
2.b Idealised Me refined as rotating group:
 C17(H17A,H17B,H17C), C25(H25A,H25B,H25C), C27(H27A,H27B,H27C)
;
_shelx_res_file
;
TITL n3672 in P-1
CELL 0.71073 10.8859 11.4845 11.4884 70.106 71.073 89.5
ZERR 2 0.0004 0.0005 0.0005 0.0018 0.002 0.0019
LATT 1

SFAC C H F N O
UNIT 54 42 12 6 10

L.S. 10
PLAN  20
SIZE 0.183 0.214 0.34
TEMP -173.13
HTAB C6 O1
HTAB C11 O1
REM Solution 1 R1 0.127 Rweak 0.005, Alpha = 0.0281 in P-1
BOND $h
wpdb -2
fmap 2
MORE -1
ACTA 52
CONF
OMIT 1 0 0
OMIT 0 0 1
OMIT -1 1 0
OMIT 1 1 0
OMIT 0 1 1
REM <HKL>Z:/Charlotte/n3672/n3672.hkl</HKL>

WGHT    0.083100
FVAR       0.40303
F1    3    0.363055    1.239827    0.300051    11.00000    0.02797    0.01417 =
         0.07335   -0.00660   -0.00393    0.00639
F2    3    0.235180    1.107282    0.289596    11.00000    0.04986    0.04489 =
         0.05430   -0.02960   -0.04183    0.03075
F3    3    0.228066    1.108573    0.476372    11.00000    0.03328    0.04012 =
         0.02437   -0.00950   -0.00573    0.02339
F4    3    0.769056    1.112604    0.064624    11.00000    0.02251    0.02334 =
         0.01685    0.00120   -0.00182   -0.00031
F5    3    0.837812    1.063657    0.228757    11.00000    0.01826    0.02974 =
         0.02778   -0.00870   -0.00726   -0.00504
F6    3    0.819321    0.927177    0.144173    11.00000    0.01718    0.01873 =
         0.03489   -0.01049    0.00279    0.00155
O1    5    0.607392    0.606255    0.510830    11.00000    0.01454    0.01652 =
         0.01732   -0.00254    0.00069    0.00385
O2    5    0.782780    0.112893    0.797980    11.00000    0.01201    0.01741 =
         0.03050   -0.00617   -0.00619    0.00603
O3    5    0.859423    0.313924    0.677818    11.00000    0.01246    0.02064 =
         0.02127   -0.00723   -0.00345    0.00121
O4    5   -0.223158    0.423937    0.927057    11.00000    0.01078    0.02837 =
         0.02237   -0.01372   -0.00617    0.00658
O5    5   -0.239986    0.362008    1.139823    11.00000    0.01514    0.02277 =
         0.01877   -0.00805   -0.00022    0.00389
N1    4    0.424031    0.707244    0.554603    11.00000    0.01063    0.01373 =
         0.01651   -0.00084    0.00003    0.00279
H1    2    0.346728    0.695644    0.600452    11.00000    0.02772
N2    4    0.428493    0.514352    0.697056    11.00000    0.01071    0.01291 =
         0.01386   -0.00305   -0.00084    0.00330
H2    2    0.357374    0.531258    0.744006    11.00000    0.02934
C1    1    0.466120    0.824440    0.455832    11.00000    0.01440    0.01279 =
         0.01326   -0.00308   -0.00494    0.00224
C2    1    0.374915    0.911723    0.453101    11.00000    0.01319    0.01562 =
         0.01506   -0.00420   -0.00374    0.00184
AFIX  43
H2A   2    0.288701    0.888783    0.515372    11.00000   -1.20000
AFIX   0
C3    1    0.410318    1.031110    0.359898    11.00000    0.01590    0.01419 =
         0.01670   -0.00551   -0.00667    0.00455
C4    1    0.535294    1.068160    0.268160    11.00000    0.01881    0.01256 =
         0.01594   -0.00316   -0.00543    0.00137
AFIX  43
H4    2    0.559265    1.150565    0.205257    11.00000   -1.20000
AFIX   0
C5    1    0.624355    0.980968    0.271135    11.00000    0.01399    0.01317 =
         0.01390   -0.00389   -0.00427    0.00035
C6    1    0.591807    0.859921    0.362843    11.00000    0.01352    0.01380 =
         0.01593   -0.00432   -0.00466    0.00186
AFIX  43
H6    2    0.654648    0.802010    0.362087    11.00000   -1.20000
AFIX   0
C7    1    0.309711    1.120997    0.356894    11.00000    0.01996    0.01611 =
         0.01984   -0.00485   -0.00705    0.00461
C8    1    0.761419    1.020443    0.177658    11.00000    0.01699    0.01420 =
         0.01850   -0.00393   -0.00467    0.00064
C9    1    0.497041    0.608765    0.580950    11.00000    0.01438    0.01154 =
         0.01434   -0.00353   -0.00493    0.00076
C10   1    0.466383    0.397241    0.753896    11.00000    0.01212    0.01185 =
         0.01262   -0.00464   -0.00448    0.00175
C11   1    0.595519    0.370250    0.715917    11.00000    0.01061    0.01386 =
         0.01377   -0.00464   -0.00328    0.00052
AFIX  43
H11   2    0.660585    0.429407    0.642846    11.00000   -1.20000
AFIX   0
C12   1    0.629027    0.256779    0.784991    11.00000    0.01156    0.01380 =
         0.01592   -0.00572   -0.00540    0.00214
C13   1    0.535264    0.169201    0.892823    11.00000    0.01448    0.01281 =
         0.01967   -0.00287   -0.00637    0.00252
AFIX  43
H13   2    0.559132    0.092700    0.940792    11.00000   -1.20000
AFIX   0
C14   1    0.407061    0.194959    0.929186    11.00000    0.01216    0.01443 =
         0.01627   -0.00218   -0.00338    0.00041
AFIX  43
H14   2    0.343039    0.135338    1.002895    11.00000   -1.20000
AFIX   0
C15   1    0.369287    0.306666    0.860107    11.00000    0.01030    0.01348 =
         0.01385   -0.00510   -0.00329    0.00112
C16   1    0.768770    0.233586    0.746087    11.00000    0.01352    0.01658 =
         0.01507   -0.00732   -0.00525    0.00291
C17   1    0.916305    0.083709    0.773096    11.00000    0.01369    0.02464 =
         0.03863   -0.00840   -0.00845    0.00866
AFIX 137
H17A  2    0.958708    0.099610    0.678901    11.00000   -1.50000
H17B  2    0.916782   -0.004288    0.823528    11.00000   -1.50000
H17C  2    0.963854    0.136040    0.800007    11.00000   -1.50000
AFIX   0
C18   1    0.229143    0.326556    0.900045    11.00000    0.01087    0.01056 =
         0.01533   -0.00408   -0.00355    0.00082
C19   1    0.157810    0.304327    1.032455    11.00000    0.01314    0.01462 =
         0.01405   -0.00284   -0.00492    0.00118
AFIX  43
H19   2    0.199959    0.277536    1.096135    11.00000   -1.20000
AFIX   0
C20   1    0.026691    0.320835    1.071931    11.00000    0.01325    0.01461 =
         0.01314   -0.00454   -0.00138   -0.00007
AFIX  43
H20   2   -0.020563    0.305940    1.162115    11.00000   -1.20000
AFIX   0
C21   1   -0.035815    0.359245    0.979454    11.00000    0.01157    0.01191 =
         0.01705   -0.00599   -0.00349    0.00075
C22   1    0.033080    0.379157    0.847189    11.00000    0.01260    0.01543 =
         0.01596   -0.00620   -0.00541    0.00172
AFIX  43
H22   2   -0.010215    0.403414    0.784348    11.00000   -1.20000
AFIX   0
C23   1    0.164645    0.363474    0.807800    11.00000    0.01243    0.01479 =
         0.01351   -0.00533   -0.00238    0.00057
AFIX  43
H23   2    0.211528    0.377827    0.717658    11.00000   -1.20000
AFIX   0
C24   1   -0.175445    0.380440    1.025934    11.00000    0.01227    0.01344 =
         0.01961   -0.00727   -0.00396    0.00085
C25   1   -0.357505    0.449468    0.964976    11.00000    0.01168    0.02983 =
         0.03180   -0.01766   -0.00853    0.00810
AFIX 137
H25A  2   -0.379567    0.492120    0.885855    11.00000   -1.50000
H25B  2   -0.369486    0.502713    1.017877    11.00000   -1.50000
H25C  2   -0.414734    0.370916    1.016957    11.00000   -1.50000
AFIX   0

N3    4    0.878864    0.312334    0.394329    11.00000    0.04447    0.06310 =
         0.02475   -0.01284   -0.00454   -0.02092
C26   1    0.974144    0.340316    0.404589    11.00000    0.03165    0.03071 =
         0.01922   -0.00848    0.00208   -0.00771
C27   1    1.095268    0.379729    0.415523    11.00000    0.01745    0.02253 =
         0.03794   -0.00634   -0.00223    0.00262
AFIX 137
H27A  2    1.169715    0.370760    0.344464    11.00000   -1.50000
H27B  2    1.100950    0.327817    0.500809    11.00000   -1.50000
H27C  2    1.096744    0.467165    0.408662    11.00000   -1.50000
AFIX   0
HKLF 4

REM  n3672 in P-1
REM R1 =  0.0442 for    5644 Fo > 4sig(Fo)  and  0.0647 for all    8021 data
REM    381 parameters refined using      0 restraints

END

WGHT      0.0593      0.0000

REM Highest difference peak  0.615,  deepest hole -0.432,  1-sigma level  0.065
Q1    1   0.9388  0.2532  0.4023  11.00000  0.05    0.61
Q2    1   0.5790  1.0220  0.2723  11.00000  0.05    0.44
Q3    1   0.3016  0.3223  0.8753  11.00000  0.05    0.41
Q4    1   0.4743  0.5593  0.6442  11.00000  0.05    0.39
Q5    1   0.4134  0.3499  0.8108  11.00000  0.05    0.38
Q6    1   0.6909  0.9961  0.2327  11.00000  0.05    0.37
Q7    1   1.0249  0.2917  0.4119  11.00000  0.05    0.37
Q8    1   0.4729  0.1827  0.9002  11.00000  0.05    0.36
Q9    1   0.3956  0.2419  0.8729  11.00000  0.05    0.36
Q10   1  -0.0985  0.3760  0.9980  11.00000  0.05    0.36
Q11   1   0.3638  1.0725  0.3635  11.00000  0.05    0.35
Q12   1   0.4624  0.6594  0.5685  11.00000  0.05    0.35
Q13   1   0.0984  0.3620  0.8357  11.00000  0.05    0.35
Q14   1   0.1817  0.3238  0.8647  11.00000  0.05    0.34
Q15   1   0.3396  1.2162  0.2460  11.00000  0.05    0.34
Q16   1   0.5948  0.9253  0.3088  11.00000  0.05    0.33
Q17   1   0.5840  0.2173  0.8482  11.00000  0.05    0.33
Q18   1   0.4200  0.8697  0.4555  11.00000  0.05    0.33
Q19   1   0.4813  1.0505  0.3243  11.00000  0.05    0.31
Q20   1   0.6163  0.9328  0.3205  11.00000  0.05    0.31
;
_shelx_res_checksum              25238
_shelx_hkl_file
;
   0  -3   0  980.23    4.13
   0   4   0 1796.04    6.40
   0   4   0 1789.97    6.38
   0   5   0  257.13    2.48
   0   5   0  259.01    2.51
   0   6   0   60.96    1.42
   0   6   0   58.72    1.42
   0   7   0   89.41    1.93
   0   7   0   91.77    1.98
   0   8   0   48.52    1.59
   0   8   0   47.86    1.60
   0   9   0    0.13    0.34
   0   9   0    0.44    0.38
   0  10   0   49.21    1.88
   0  10   0   50.62    1.92
   0  11   0   -0.02    0.40
   0  11   0   -0.14    0.43
   0  12   0    2.93    0.74
   0  13   0   27.36    1.65
   0  14   0   27.84    1.65
   0  13  -1    3.17    0.69
   0  12  -1    0.68    0.47
   0  12  -1    0.91    0.49
   0  11  -1   15.48    1.14
   0  11  -1   13.95    1.11
   0  10  -1    2.58    0.56
   0  10  -1    2.13    0.56
   0   9  -1   56.71    1.76
   0   9  -1   54.06    1.74
   0   8  -1   53.98    1.59
   0   8  -1   54.37    1.60
   0   7  -1    2.37    0.42
   0   7  -1    1.93    0.41
   0   6  -1    5.92    0.50
   0   6  -1    5.50    0.51
   0   5  -1   87.58    1.38
   0   5  -1   88.13    1.41
   0   4  -1   49.54    0.92
   0   4  -1   50.33    0.90
   0   3  -1   22.18    0.57
   0   3  -1   20.56    0.54
   0  -2   1   95.21    1.38
   0   2  -1   93.06    1.13
   0  -1   1  292.30    2.39
   0   1  -1   34.55    0.82
   0   0   1   -0.01    0.11
   0   0  -1    0.00    0.09
   0  -1  -1    0.04    0.14
   0   2   1   13.29    0.67
   0  -2  -1   53.17    1.27
   0   3   1   14.23    0.74
   0   3   1   14.64    0.78
   0  -3  -1   14.30    0.80
   0   4   1  107.61    1.97
   0   4   1  115.29    2.01
   0   4   1  111.73    1.96
   0   5   1   32.06    1.19
   0   5   1   29.47    1.16
   0   5   1   32.38    1.11
   0   5   1   31.59    1.09
   0   6   1   16.93    0.97
   0   6   1   15.64    0.96
   0   7   1   25.10    1.25
   0   7   1   26.57    1.29
   0   8   1    9.91    0.92
   0   8   1   10.89    0.97
   0   9   1    0.95    0.47
   0   9   1    1.13    0.53
   0  10   1   27.04    1.58
   0  10   1   28.53    1.64
   0  11   1    1.23    0.60
   0  11   1    1.02    0.58
   0  12   1   -0.17    0.49
   0  13   1   -0.10    0.51
   0  14   1   26.93    1.88
   0  15   1    2.16    0.84
   0  12  -2    3.00    0.65
   0  11  -2    3.06    0.63
   0  11  -2    2.54    0.63
   0  10  -2   49.74    1.80
   0  10  -2   53.54    1.87
   0   9  -2    4.13    0.65
   0   9  -2    4.11    0.69
   0   8  -2   17.06    1.04
   0   8  -2   17.24    1.06
   0   7  -2  103.05    2.19
   0   7  -2  102.76    2.20
   0   6  -2   23.68    1.04
   0   6  -2   22.81    1.03
   0   5  -2   13.66    0.79
   0   5  -2   14.70    0.81
   0  -4   2  289.04    3.36
   0   4  -2  280.38    3.14
   0   4  -2  271.26    3.07
   0  -3   2  152.19    2.46
   0   3  -2  140.44    2.22
   0   3  -2  140.75    2.21
   0   3  -2  151.17    2.16
   0  -2   2   12.80    0.83
   0   2  -2   12.25    0.76
   0   2  -2   13.25    0.79
   0  -1   2 2691.58   15.43
   0   1  -2 2547.80   13.76
   0   1  -2 2582.32   15.43
   0   0   2   86.45    1.97
   0   0  -2   86.68    1.97
   0  -1  -2    7.63    0.72
   0   2   2  379.19    4.20
   0   2   2  398.05    4.44
   0  -2  -2  394.15    4.43
   0   3   2   88.39    2.10
   0   3   2   89.15    2.17
   0   3   2   91.76    2.25
   0  -3  -2   87.35    2.22
   0   4   2  302.88    3.79
   0   4   2  311.15    4.16
   0   4   2  320.96    4.25
   0  -4  -2  301.21    4.20
   0   5   2  104.43    2.56
   0   5   2  114.89    2.64
   0   5   2  116.29    2.64
   0  -5  -2  110.52    2.68
   0   6   2   85.92    2.43
   0   6   2   84.99    2.44
   0   6   2   88.41    2.34
   0   6   2   86.80    2.30
   0   7   2   44.93    1.88
   0   7   2   38.38    1.76
   0   7   2   43.36    1.65
   0   7   2   42.21    1.61
   0   8   2   88.73    2.73
   0   8   2   88.20    2.74
   0   8   2   98.27    2.27
   0   9   2    8.66    1.16
   0   9   2    7.73    1.11
   0  10   2   13.73    1.34
   0  10   2   14.71    1.39
   0  11   2   14.00    1.43
   0  12   2   19.58    1.72
   0  13   2   -0.32    0.52
   0  14   2    7.15    1.32
   0  15   2    5.56    1.19
   0  16   2    5.07    1.19
   0  11  -3   15.04    1.20
   0  10  -3    1.00    0.53
   0  10  -3    1.35    0.55
   0   9  -3   83.61    2.49
   0   9  -3   83.57    2.48
   0   8  -3    7.07    0.92
   0   8  -3    7.77    0.91
   0   7  -3   56.48    1.96
   0   7  -3   52.87    1.91
   0   6  -3   15.57    1.09
   0   6  -3   18.24    1.15
   0   5  -3  161.73    3.11
   0   5  -3  164.18    3.11
   0   4  -3  423.12    4.92
   0   4  -3  413.21    4.84
   0   4  -3  445.96    4.32
   0  -3   3   34.52    1.53
   0   3  -3   30.64    0.97
   0   3  -3   29.19    1.37
   0   3  -3   30.54    1.38
   0   3  -3   33.63    1.39
   0  -2   3  677.79    6.44
   0   2  -3  640.86    5.34
   0   2  -3  665.38    6.20
   0   2  -3  682.26    6.24
   0  -1   3   20.82    1.27
   0   1  -3   18.75    1.12
   0   1  -3   19.61    1.18
   0   1  -3   18.73    1.19
   0   0   3    5.97    0.90
   0   0  -3    5.76    0.82
   0   0  -3    5.87    0.82
   0   0  -3    5.20    0.77
   0   1   3  847.77    7.40
   0   1   3  796.17    7.36
   0  -1  -3  832.39    7.29
   0  -1  -3  794.55    7.33
   0   2   3  652.16    6.63
   0  -2  -3  648.13    6.64
   0  -2  -3  659.98    6.86
   0   3   3   29.08    1.53
   0   3   3   30.10    1.57
   0   3   3   29.26    1.58
   0  -3  -3   31.08    1.62
   0  -3  -3   29.16    1.59
   0   4   3   11.85    1.06
   0   4   3   11.38    1.09
   0   4   3   13.94    1.20
   0  -4  -3   14.05    1.20
   0  -4  -3   12.77    1.18
   0   5   3  136.86    3.15
   0   5   3  127.58    3.26
   0   5   3  142.62    3.44
   0  -5  -3  140.17    3.47
   0  -5  -3  136.08    3.42
   0   6   3   76.76    2.33
   0   6   3   72.61    2.58
   0   6   3   75.85    2.57
   0  -6  -3   75.34    2.69
   0   7   3  323.79    5.51
   0   7   3  307.76    5.41
   0   7   3  338.88    5.38
   0   7   3  330.90    5.27
   0   8   3    0.85    0.53
   0   8   3    0.92    0.57
   0   8   3    1.16    0.52
   0   8   3    0.66    0.46
   0   9   3    1.06    0.62
   0   9   3   -0.07    0.40
   0   9   3    0.09    0.39
   0  10   3   45.06    2.44
   0  10   3   44.49    1.75
   0  11   3  311.56    6.36
   0  12   3   10.68    1.57
   0  13   3    3.99    1.14
   0  14   3    6.72    1.43
   0  15   3    3.29    1.13
   0  16   3    0.63    0.85
   0  12  -4   -0.16    0.44
   0  11  -4    4.59    0.90
   0  10  -4   -0.01    0.52
   0   9  -4    0.19    0.52
   0   8  -4    2.26    0.66
   0   8  -4    2.30    0.70
   0   7  -4  142.68    3.55
   0   7  -4  139.25    3.51
   0   6  -4  298.27    5.02
   0   6  -4  310.68    5.10
   0   5  -4   12.52    1.15
   0   5  -4   13.05    1.16
   0   4  -4   20.15    1.39
   0   4  -4   18.83    1.34
   0   4  -4   17.80    1.17
   0  -3   4    9.71    1.08
   0   3  -4    9.78    0.83
   0   3  -4   10.28    1.06
   0   3  -4    9.36    1.01
   0   3  -4   10.35    1.02
   0  -2   4  832.04    8.35
   0   2  -4  842.73    7.34
   0   2  -4  834.74    8.22
   0   2  -4  893.92    8.38
   0  -1   4   35.27    1.83
   0  -1   4   34.00    1.81
   0   1  -4   31.90    1.64
   0   1  -4   31.36    1.71
   0   1  -4   36.25    1.84
   0   0   4   85.16    2.75
   0   0   4   94.71    2.94
   0   0  -4   89.53    2.73
   0   0  -4   89.17    2.80
   0   0  -4   97.48    2.96
   0   1   4   21.69    1.53
   0   1   4   21.04    1.51
   0  -1  -4   20.37    1.47
   0  -1  -4   21.96    1.52
   0   2   4  312.14    5.30
   0  -2  -4  306.24    5.25
   0   3   4   81.72    2.81
   0   3   4   81.82    2.82
   0   3   4   88.40    2.99
   0  -3  -4   81.90    2.82
   0  -3  -4   87.28    2.98
   0   4   4   33.37    1.89
   0   4   4   31.80    1.86
   0   4   4   33.12    1.93
   0  -4  -4   31.47    1.90
   0  -4  -4   33.44    1.96
   0   5   4    0.70    0.57
   0   5   4    0.85    0.55
   0   5   4    0.99    0.62
   0  -5  -4    1.09    0.64
   0  -5  -4    1.19    0.64
   0   6   4  116.79    3.36
   0   6   4  113.56    3.57
   0   6   4  126.25    3.72
   0  -6  -4  125.57    3.75
   0  -6  -4  124.08    3.76
   0   7   4   79.65    3.11
   0   7   4   81.55    3.04
   0  -7  -4   80.39    3.13
   0   8   4  309.74    6.22
   0   8   4  314.05    5.92
   0   8   4  339.79    6.10
   0  -8  -4  336.83    6.51
   0   9   4   16.39    1.68
   0   9   4   20.71    1.66
   0   9   4   19.78    1.61
   0  10   4   24.99    2.06
   0  10   4   25.47    1.79
   0  10   4   25.85    1.77
   0  11   4   10.76    1.69
   0  11   4   10.86    1.23
   0  11   4   11.06    1.21
   0  12   4    2.95    1.03
   0  13   4    3.28    1.11
   0  14   4   -0.21    0.70
   0  15   4    2.84    1.18
   0  16   4   11.38    1.93
   0  12  -5  123.83    3.46
   0  11  -5   14.24    1.49
   0  10  -5   22.47    1.78
   0   9  -5   44.74    2.38
   0   8  -5   11.39    1.40
   0   7  -5    1.19    0.68
   0   7  -5    0.64    0.62
   0   6  -5   55.26    2.55
   0   5  -5    2.00    0.73
   0   5  -5    1.42    0.63
   0   4  -5  131.17    2.27
   0   4  -5  126.83    3.71
   0   4  -5  133.22    3.78
   0   4  -5  136.38    3.45
   0  -3   5  140.29    3.89
   0   3  -5  143.28    3.16
   0   3  -5  132.95    3.79
   0   3  -5  133.41    3.76
   0   3  -5  143.38    3.71
   0  -2   5   13.26    1.35
   0  -2   5   13.69    1.41
   0   2  -5   11.99    1.17
   0   2  -5   14.41    1.40
   0   2  -5   13.97    1.34
   0  -1   5   49.70    2.42
   0  -1   5   50.75    2.44
   0   1  -5   51.23    2.28
   0   1  -5   54.12    2.48
   0   1  -5   56.77    2.54
   0   0   5   54.29    2.53
   0   0   5   60.06    2.68
   0   0  -5   56.19    2.46
   0   0  -5   54.19    2.52
   0   0  -5   60.09    2.65
   0   1   5   67.29    2.82
   0   1   5   70.09    2.90
   0  -1  -5   69.19    2.79
   0  -1  -5   71.84    2.89
   0  -1  -5   68.79    2.87
   0   2   5    6.87    1.20
   0  -2  -5    5.70    1.07
   0  -2  -5    6.68    1.13
   0  -2  -5    5.39    0.96
   0   3   5   41.51    2.31
   0   3   5   38.80    2.22
   0   3   5   42.28    2.35
   0  -3  -5   39.45    2.27
   0  -3  -5   41.48    2.35
   0   4   5  466.35    7.40
   0   4   5  486.61    7.64
   0   4   5  498.44    7.87
   0  -4  -5  477.02    7.60
   0  -4  -5  503.73    7.92
   0   5   5   91.84    3.36
   0   5   5   89.96    3.42
   0   5   5   93.02    3.51
   0  -5  -5   99.68    3.62
   0  -5  -5   96.40    3.60
   0   6   5  135.27    4.06
   0   6   5  149.61    4.48
   0  -6  -5  137.51    4.32
   0  -6  -5  145.24    4.46
   0   7   5    5.18    1.10
   0   7   5    4.71    1.10
   0   7   5    6.32    1.19
   0  -7  -5    6.71    1.29
   0   8   5    9.47    1.53
   0   8   5    9.67    1.50
   0  -8  -5   12.26    1.79
   0   9   5   19.90    1.98
   0   9   5   23.76    1.96
   0   9   5   21.38    1.89
   0  10   5    1.65    0.88
   0  10   5    2.56    0.93
   0  10   5    3.47    0.99
   0  11   5    2.75    1.04
   0  11   5    2.39    0.92
   0  11   5    2.17    0.87
   0  12   5   26.15    2.44
   0  12   5   31.14    2.07
   0  12   5   26.80    1.91
   0  13   5   15.13    2.19
   0  14   5    5.73    1.55
   0  15   5   22.39    2.51
   0  16   5    4.17    1.42
   0  12  -6   12.16    1.56
   0  11  -6    3.44    1.05
   0  10  -6    0.69    0.71
   0   9  -6   18.99    1.88
   0   8  -6   59.87    3.00
   0   7  -6   64.29    3.09
   0   7  -6   59.79    2.99
   0   6  -6   31.07    2.22
   0   5  -6   13.06    1.59
   0   4  -6   41.80    1.66
   0   4  -6   42.60    2.50
   0   4  -6   40.64    2.19
   0   3  -6    1.97    0.67
   0   3  -6    2.12    0.81
   0   3  -6    1.88    0.76
   0  -2   6   10.72    1.58
   0  -2   6    9.16    1.39
   0   2  -6   10.89    1.27
   0   2  -6    8.65    1.36
   0   2  -6    9.23    1.33
   0  -1   6    1.83    0.82
   0  -1   6    1.36    0.69
   0   1  -6    1.61    0.72
   0   1  -6    1.88    0.72
   0   1  -6    1.69    0.78
   0   0   6   20.61    1.84
   0   0   6   26.92    2.05
   0   0  -6   23.11    1.84
   0   0  -6   24.67    1.96
   0   0  -6   24.50    1.95
   0   1   6    0.50    0.63
   0   1   6   -0.04    0.53
   0  -1  -6   -0.06    0.55
   0  -1  -6   -0.02    0.52
   0  -1  -6    0.27    0.49
   0   2   6   17.00    1.74
   0   2   6   18.53    1.79
   0  -2  -6   18.32    1.76
   0  -2  -6   16.99    1.70
   0  -2  -6   19.01    1.81
   0   3   6   10.99    1.61
   0   3   6   14.05    1.58
   0  -3  -6   13.03    1.79
   0  -3  -6   13.53    1.59
   0  -3  -6    8.56    1.41
   0   4   6  213.27    5.53
   0   4   6  213.08    5.54
   0   4   6  223.27    5.80
   0  -4  -6  211.40    5.55
   0  -4  -6  212.45    5.65
   0  -4  -6  231.97    5.91
   0   5   6    1.69    0.79
   0   5   6    1.41    0.77
   0   5   6    1.41    0.77
   0  -5  -6    1.53    0.88
   0  -5  -6    1.25    0.81
   0   6   6    3.35    1.04
   0   6   6    4.48    1.16
   0   6   6    3.35    1.01
   0  -6  -6    4.45    1.21
   0  -6  -6    4.62    1.16
   0   7   6  215.03    5.63
   0   7   6  219.23    5.99
   0   7   6  236.22    6.17
   0  -7  -6  223.33    6.09
   0   8   6    3.04    0.99
   0   8   6    2.80    0.99
   0   8   6    4.12    1.17
   0  -8  -6    3.51    1.15
   0   9   6   38.61    2.79
   0   9   6   43.73    2.81
   0  -9  -6   41.08    2.91
   0  10   6    0.96    0.83
   0  10   6    1.79    0.93
   0  10   6    2.21    0.94
   0  11   6    0.65    0.81
   0  11   6    0.78    0.76
   0  11   6    1.28    0.77
   0  12   6    2.85    1.15
   0  12   6    4.06    1.18
   0  12   6    3.12    1.03
   0  13   6    6.17    1.59
   0  13   6    6.74    1.40
   0  14   6    9.88    2.00
   0  15   6    1.33    1.12
   0  16   6    0.66    1.03
   0  11  -7   45.78    2.84
   0  10  -7    9.48    1.64
   0   9  -7   13.34    1.90
   0   8  -7   22.30    2.20
   0   7  -7   52.19    3.10
   0   7  -7   50.64    3.04
   0   6  -7    0.34    0.76
   0   5  -7   15.94    1.87
   0   4  -7    0.42    0.52
   0   4  -7    0.08    0.67
   0   3  -7   29.34    1.91
   0   3  -7   28.98    2.36
   0   3  -7   32.21    2.28
   0  -2   7    2.26    0.97
   0   2  -7    1.78    0.80
   0   2  -7    3.11    1.05
   0   2  -7    1.39    0.78
   0  -1   7   50.05    2.97
   0  -1   7   55.28    3.10
   0   1  -7   48.44    2.66
   0   1  -7   49.98    2.94
   0   1  -7   51.56    2.92
   0   0   7    0.10    0.65
   0   0   7   -0.27    0.49
   0   0  -7    0.00    0.59
   0   0  -7    0.88    0.75
   0   0  -7    0.17    0.62
   0   1   7  114.99    4.39
   0   1   7  117.71    4.47
   0  -1  -7  107.36    4.10
   0  -1  -7  110.79    4.29
   0  -1  -7  116.37    4.41
   0   2   7   28.36    2.33
   0   2   7   26.30    2.26
   0  -2  -7   25.18    2.16
   0  -2  -7   25.12    2.20
   0  -2  -7   31.46    2.44
   0   3   7  201.37    5.79
   0   3   7  211.49    5.86
   0  -3  -7  208.81    5.87
   0  -3  -7  210.08    5.89
   0  -3  -7  220.48    6.16
   0   4   7   52.92    3.07
   0   4   7   55.41    3.16
   0   4   7   56.74    3.27
   0  -4  -7   51.40    3.08
   0  -4  -7   55.25    3.15
   0  -4  -7   55.21    3.22
   0   5   7    1.64    0.88
   0   5   7    1.28    0.76
   0   5   7    1.91    0.94
   0  -5  -7    1.22    0.90
   0  -5  -7    1.43    0.83
   0   6   7   43.04    2.86
   0   6   7   41.15    2.87
   0   6   7   44.84    3.01
   0  -6  -7   45.05    3.02
   0  -6  -7   45.25    3.04
   0   7   7   28.67    2.40
   0   7   7   26.76    2.43
   0   7   7   30.73    2.58
   0  -7  -7   30.38    2.62
   0  -7  -7   32.15    2.66
   0   8   7    3.54    1.20
   0   8   7    4.27    1.32
   0   8   7    5.69    1.43
   0  -8  -7    4.83    1.45
   0   9   7   74.55    4.03
   0   9   7   79.98    4.02
   0  -9  -7   76.82    4.13
   0  10   7   22.12    2.45
   0  10   7   21.78    2.32
   0  11   7    0.02    0.72
   0  11   7   -0.02    0.69
   0  12   7    3.68    1.38
   0  12   7    1.55    0.98
   0  13   7    6.20    1.74
   0  14   7    4.55    1.62
   0  15   7   26.28    3.02
   0  16   7   -0.15    1.03
   0  10  -8   18.36    2.23
   0   9  -8   14.29    2.19
   0   8  -8    0.91    0.95
   0   7  -8   -0.41    0.72
   0   6  -8    5.75    1.49
   0   6  -8    7.23    1.57
   0   5  -8   -0.48    0.71
   0   4  -8    9.14    1.75
   0   3  -8    0.22    0.62
   0   3  -8    0.26    0.82
   0   3  -8    0.76    0.79
   0   2  -8    0.83    0.73
   0   2  -8    0.81    0.85
   0   2  -8    0.21    0.65
   0  -1   8   82.44    4.10
   0   1  -8   82.74    3.69
   0   1  -8   80.87    4.02
   0   1  -8   86.94    4.04
   0   0   8    3.50    1.25
   0   0  -8    4.49    1.27
   0   0  -8    3.65    1.18
   0   0  -8    4.11    1.22
   0   1   8   37.05    2.82
   0  -1  -8   36.16    2.68
   0  -1  -8   37.57    2.85
   0  -1  -8   36.70    2.79
   0   2   8   24.43    2.39
   0   2   8   23.99    2.43
   0  -2  -8   24.67    2.31
   0  -2  -8   28.13    2.51
   0  -2  -8   24.29    2.35
   0   3   8   67.20    3.72
   0  -3  -8   60.30    3.46
   0  -3  -8   62.29    3.59
   0   4   8    0.18    0.69
   0   4   8    0.39    0.75
   0   4   8   -0.10    0.60
   0  -4  -8   -0.11    0.76
   0  -4  -8    0.30    0.76
   0   5   8  102.48    4.58
   0   5   8  109.15    4.74
   0   5   8  106.73    4.78
   0  -5  -8  108.72    4.77
   0   6   8    0.52    0.85
   0   6   8    0.43    0.81
   0   6   8    1.19    0.94
   0  -6  -8    0.81    0.99
   0   7   8    9.82    1.83
   0   7   8   12.95    2.18
   0   7   8   13.32    2.14
   0  -7  -8   13.78    2.32
   0   8   8    3.16    1.27
   0   8   8    3.64    1.32
   0   8   8    3.66    1.30
   0  -8  -8    4.20    1.49
   0   9   8    5.53    1.57
   0   9   8    4.54    1.36
   0  -9  -8    6.02    1.66
   0  10   8   21.43    2.65
   0  10   8   21.30    2.50
   0 -10  -8   18.78    2.79
   0  11   8   -0.78    0.81
   0  11   8   -0.70    0.69
   0  12   8    0.30    1.04
   0  12   8    1.15    0.99
   0  13   8    2.42    1.38
   0  14   8    5.38    1.84
   0  15   8    9.57    2.23
   0  16   8    2.63    1.51
   0   9  -9    6.88    1.74
   0   8  -9    9.99    1.99
   0   7  -9    0.67    0.98
   0   6  -9   -0.08    0.86
   0   6  -9    0.17    0.91
   0   5  -9   22.28    2.57
   0   4  -9    8.30    1.83
   0   3  -9    1.87    0.92
   0   3  -9    1.47    1.07
   0   2  -9    9.77    1.71
   0   2  -9   10.43    1.98
   0  -1   9    0.65    1.05
   0   1  -9    0.61    0.85
   0   1  -9    0.17    0.85
   0   0   9   16.20    2.40
   0   0  -9   15.27    2.16
   0   0  -9   15.98    2.47
   0   1   9    7.38    1.78
   0  -1  -9    9.63    1.91
   0  -1  -9    7.28    1.67
   0   2   9   23.25    2.54
   0  -2  -9   19.16    2.28
   0  -2  -9   24.61    2.60
   0   3   9   19.50    2.40
   0  -3  -9   20.76    2.37
   0  -3  -9   23.01    2.58
   0   4   9    1.12    1.07
   0  -4  -9    0.64    0.94
   0  -4  -9    0.38    0.94
   0   5   9    1.82    1.12
   0  -5  -9    2.76    1.34
   0   6   9   -0.50    0.74
   0   6   9   -0.30    0.72
   0  -6  -9    0.08    0.90
   0   7   9    0.67    0.96
   0   7   9    1.05    1.06
   0  -7  -9    0.64    1.06
   0   8   9   34.18    3.06
   0   8   9   39.70    3.41
   0  -8  -9   42.87    3.54
   0   9   9   12.19    2.20
   0   9   9   11.89    2.23
   0  -9  -9   11.99    2.35
   0  10   9   13.68    2.62
   0 -10  -9   12.36    2.48
   0  11   9   -0.50    0.86
   0  12   9    2.18    1.54
   0  12   9    2.70    1.33
   0  13   9   17.94    3.01
   0  14   9    3.99    1.77
   0  15   9    4.18    1.81
   0  16   9    2.64    1.66
   0   8 -10   18.29    2.74
   0   7 -10    3.49    1.38
   0   6 -10   55.13    4.02
   0   6 -10   48.92    3.80
   0   5 -10    0.94    1.11
   0   5 -10    1.48    1.23
   0   4 -10   15.68    2.54
   0   3 -10   -0.47    0.71
   0   3 -10   -0.06    0.96
   0   2 -10   27.44    2.48
   0   2 -10   31.96    3.17
   0   1 -10   45.06    3.17
   0   1 -10   48.71    3.73
   0   0  10    9.51    2.16
   0   0 -10    8.96    1.86
   0   0 -10   11.01    2.22
   0   1  10   20.95    3.02
   0  -1 -10   18.72    2.67
   0  -1 -10   19.25    2.81
   0   2  10   15.95    2.58
   0  -2 -10   18.88    2.69
   0  -2 -10   20.02    2.92
   0   3  10    4.07    1.52
   0  -3 -10    0.88    1.04
   0  -3 -10    1.19    1.10
   0   4  10   41.72    3.44
   0  -4 -10   40.04    3.37
   0   5  10    3.35    1.45
   0  -5 -10    1.56    1.27
   0   6  10   17.88    2.78
   0  -6 -10   12.62    2.40
   0   7  10    1.15    1.15
   0  -7 -10    1.86    1.38
   0   8  10    0.03    0.99
   0   8  10    0.77    1.15
   0  -8 -10    0.17    1.17
   0   9  10    0.32    0.99
   0   9  10    0.43    1.02
   0  -9 -10   -0.75    1.08
   0  10  10   12.39    2.47
   0 -10 -10   11.06    2.46
   0  11  10    1.06    1.23
   0 -11 -10    0.12    1.48
   0  12  10   14.00    2.83
   0  13  10   -0.54    1.08
   0  14  10   11.13    2.63
   0  15  10    2.43    1.72
   0   7 -11    2.52    1.47
   0   6 -11   13.13    2.57
   0   5 -11   22.66    3.27
   0   5 -11   21.86    3.16
   0   4 -11    2.68    1.56
   0   4 -11    2.24    1.40
   0   3 -11    8.76    2.15
   0   2 -11   -0.49    0.76
   0   2 -11   -0.03    0.98
   0   1 -11   52.93    3.64
   0   1 -11   51.46    4.13
   0   0  11   -0.34    1.12
   0   0 -11    0.31    1.02
   0   0 -11    0.13    1.04
   0   1  11   50.07    4.07
   0  -1 -11   41.85    3.50
   0  -1 -11   47.97    4.01
   0   2  11    8.65    2.19
   0  -2 -11   11.77    2.38
   0  -2 -11    8.78    2.15
   0   3  11   17.16    2.81
   0  -3 -11   16.63    2.84
   0   4  11   18.02    2.90
   0  -4 -11   21.84    3.17
   0   5  11    1.00    1.23
   0  -5 -11    0.52    1.23
   0   6  11    8.84    2.17
   0  -6 -11    7.28    2.16
   0   7  11   42.75    3.82
   0  -7 -11   45.55    4.01
   0   8  11    1.80    1.35
   0  -8 -11    1.73    1.46
   0  -9 -11   58.55    4.70
   0 -10 -11    5.36    2.06
   0  11  11    3.04    1.62
   0 -11 -11    3.67    1.85
   0  12  11   17.37    3.08
   0  13  11   40.82    4.27
   0  14  11    0.09    1.41
   0  15  11    7.89    2.54
   0   5 -12   79.97    5.37
   0   5 -12   82.58    5.41
   0   4 -12    0.95    1.43
   0   4 -12   -1.44    1.00
   0   3 -12   -0.34    1.19
   0   2 -12    0.12    1.04
   0   2 -12    0.36    1.25
   0   1 -12   27.56    2.94
   0   1 -12   35.28    3.81
   0   0 -12    2.78    1.46
   0   0 -12    3.01    1.66
   0   1  12    2.63    1.59
   0  -1 -12    0.18    1.09
   0  -1 -12    0.24    1.23
   0   2  12    0.24    1.20
   0  -2 -12   -0.58    1.04
   0  -2 -12    0.72    1.35
   0   3  12   35.89    3.78
   0  -3 -12   40.10    3.84
   0   4  12    0.95    1.32
   0  -4 -12   -0.88    1.01
   0   5  12    1.15    1.37
   0  -5 -12   -0.56    1.10
   0   6  12    0.97    1.26
   0  -6 -12    0.73    1.33
   0   7  12    0.67    1.24
   0  -7 -12   -0.99    1.11
   0   8  12   33.41    3.68
   0  -8 -12   40.11    4.06
   0  -9 -12   34.79    3.94
   0 -10 -12    6.65    2.35
   0 -11 -12   50.62    4.77
   0  13  12    8.07    2.74
   0  14  12    3.90    2.08
   0   4 -13   -0.46    1.22
   0   3 -13    0.53    1.36
   0   3 -13    0.44    1.38
   0   2 -13    0.44    1.41
   0   2 -13    0.66    1.36
   0   1 -13   -0.75    1.00
   0   1 -13    0.91    1.33
   0   0 -13    1.51    1.37
   0   0 -13    1.13    1.50
   0  -1 -13   -0.44    1.12
   0  -1 -13   -0.48    1.23
   0   2  13    4.11    1.90
   0  -2 -13    2.42    1.63
   0   3  13   16.40    3.07
   0  -3 -13   12.90    2.73
   0   4  13    2.54    1.68
   0  -4 -13    1.02    1.44
   0   5  13   16.00    3.19
   0  -5 -13   13.62    2.81
   0   6  13    3.32    1.91
   0  -6 -13    3.23    1.74
   0   7  13    0.65    1.31
   0  -7 -13    0.54    1.38
   0  -8 -13   37.18    4.16
   0  -9 -13    0.31    1.49
   0 -10 -13   20.41    3.75
   0 -11 -13    0.37    1.56
   0 -12 -13   13.64    3.17
   0   2 -14    0.95    1.56
   0   1 -14    1.77    1.43
   0   1 -14    0.63    1.64
   0   1 -14    1.06    1.62
   0   0 -14    4.47    1.86
   0   0 -14    7.16    2.49
   0  -1 -14    9.56    2.45
   0  -2 -14    1.93    1.69
   0  -3 -14   14.46    3.08
   0  -4 -14   11.26    2.78
   0  -5 -14   11.48    2.90
   0  -6 -14    2.07    1.79
   0  -7 -14   12.97    3.01
   0  -8 -14    8.24    2.69
   0  -9 -14   10.13    2.75
   0 -10 -14    0.21    1.64
   0 -11 -14    1.85    1.87
   0 -12 -14    5.71    2.51
   0  -1 -15   -0.45    1.24
   0  -2 -15    3.38    1.85
   0  -3 -15    0.88    1.74
   0  -4 -15    0.06    1.35
   0  -5 -15    2.12    1.71
   0  -6 -15    3.16    2.03
   0  -7 -15   -0.31    1.52
   0  -8 -15    1.31    1.73
   0  -9 -15   16.97    3.58
   0 -10 -15   -0.13    1.58
   1  -9 -15    0.20    1.84
   1  -8 -15   22.93    4.11
   1  -7 -15    3.89    2.19
   1  -6 -15   26.50    4.20
   1  -5 -15   -0.55    1.32
   1  -4 -15   14.40    3.25
   1  -3 -15   11.38    2.89
   1 -11 -14   45.33    5.03
   1 -10 -14    0.95    1.70
   1  -9 -14    7.21    2.54
   1  -8 -14   10.41    2.80
   1  -7 -14    8.09    2.65
   1  -6 -14    1.19    1.74
   1  -5 -14    1.41    1.69
   1  -4 -14    1.02    1.61
   1  -3 -14   11.50    2.82
   1  -2 -14    2.79    1.81
   1  -1 -14    2.78    1.71
   1   0 -14    9.19    2.46
   1   1 -14    0.94    1.44
   1   1 -14   -0.25    1.54
   1   1 -14    0.41    1.75
   1 -12 -13    1.37    1.79
   1 -11 -13    8.20    2.70
   1 -10 -13    3.62    2.03
   1  -9 -13    1.09    1.62
   1  -8 -13   15.24    3.11
   1  -7 -13    1.43    1.71
   1  -6 -13   -0.40    1.31
   1  -5 -13    2.18    1.73
   1  -4 -13   19.44    3.31
   1  -3 -13    0.19    1.32
   1  -2 -13    3.33    1.74
   1  -1 -13    0.34    1.24
   1   0 -13   10.32    2.37
   1   0 -13   11.13    2.87
   1   0 -13   11.76    2.92
   1   1 -13    3.25    1.61
   1   1 -13    4.24    2.18
   1   1 -13    1.15    1.57
   1   2 -13    1.61    1.75
   1   2 -13    0.73    1.34
   1   3 -13    8.96    2.64
  -1  14  12    3.09    1.76
   1 -11 -12    1.42    1.72
   1 -10 -12   27.16    3.98
   1  -9 -12   -0.33    1.23
   1  -8 -12   19.15    3.43
   1  -7 -12    4.51    1.87
   1  -6 -12   12.00    2.64
   1  -5 -12   52.76    4.54
   1  -4 -12   12.43    2.63
   1  -3 -12    6.30    2.03
   1  -2 -12   14.82    2.82
   1  -1 -12   15.59    2.84
   1  -1 -12   14.00    2.85
   1   0 -12   24.56    3.01
   1   0 -12   22.78    3.56
   1   1 -12   -0.15    0.99
   1   1 -12   -0.34    1.26
   1   1 -12    0.09    1.22
   1   2 -12    1.31    1.18
   1   2 -12   -0.45    1.21
   1   2 -12    0.63    1.33
   1   3 -12    6.39    2.29
   1   3 -12    7.97    2.37
   1   4 -12    6.30    2.19
   1   5 -12   12.52    2.76
  -1  15  11    1.58    1.65
  -1  14  11   70.13    5.55
  -1  13  11    1.69    1.55
  -1  12  11    0.79    1.43
   1 -11 -11    2.28    1.73
  -1  11  11    4.85    2.01
   1 -10 -11   40.69    4.14
   1  -9 -11   40.97    4.08
   1  -8 -11    3.13    1.67
   1  -7 -11    9.76    2.36
   1  -6 -11   19.38    3.14
   1  -5 -11   21.09    3.16
   1  -4 -11    0.85    1.24
   1  -3 -11    3.45    1.53
   1  -2 -11   -0.37    1.00
   1  -2 -11    0.44    1.18
   1  -1 -11   -0.65    0.94
   1  -1 -11    0.11    1.14
   1   0 -11    8.94    2.07
   1   0 -11    5.78    1.81
   1   1 -11    5.75    1.67
   1   1 -11    6.76    2.06
   1   2 -11    0.70    1.00
   1   2 -11   -0.17    1.14
   1   2 -11   -0.46    1.00
   1   3 -11   12.53    2.65
   1   3 -11    8.37    2.22
   1   4 -11    0.08    1.14
   1   4 -11    1.11    1.25
   1   5 -11    2.09    1.46
   1   6 -11   11.37    2.48
  -1  15  10    3.76    1.95
  -1  14  10    3.35    1.79
  -1  13  10   -0.61    1.08
  -1  12  10    1.37    1.37
  -1  11  10    0.26    1.08
   1 -10 -10    0.23    1.10
  -1  10  10    0.86    1.19
   1  -9 -10   21.96    3.29
  -1   9  10   21.01    3.09
   1  -8 -10   79.58    5.00
   1  -7 -10   11.69    2.44
   1  -6 -10   71.07    4.61
   1  -5 -10   46.29    3.76
  -1   5  10   46.34    3.71
   1  -4 -10    2.90    1.45
  -1   4  10    3.91    1.57
   1  -3 -10    8.14    1.93
   1  -3 -10    8.13    2.15
  -1   3  10    7.83    1.97
   1  -2 -10   29.21    2.99
   1  -2 -10   28.41    3.11
  -1   2  10   28.39    3.09
   1  -1 -10   44.89    3.49
   1  -1 -10   50.13    3.92
  -1   1  10   50.93    3.92
   1   0 -10    8.41    1.91
   1   0 -10    9.59    2.12
   1   1 -10    0.42    0.91
   1   1 -10    0.90    1.12
   1   2 -10   -0.46    0.85
   1   2 -10    0.36    1.08
   1   3 -10    8.94    1.71
   1   3 -10    5.51    1.79
   1   3 -10    5.25    1.77
   1   4 -10    3.68    1.57
   1   4 -10    3.10    1.46
   1   5 -10    1.09    1.16
   1   6 -10    4.35    1.64
   1   7 -10   14.72    2.63
  -1  16   9   -0.51    1.13
  -1  15   9    2.94    1.70
  -1  14   9    1.79    1.46
  -1  13   9   17.44    2.97
  -1  12   9    3.94    1.69
  -1  11   9   11.62    2.34
   1 -10  -9   13.13    2.51
  -1  10   9   13.80    2.65
   1  -9  -9   61.75    4.33
  -1   9   9   57.03    4.15
   1  -8  -9    0.48    1.09
  -1   8   9   -0.53    0.80
   1  -7  -9   -0.73    0.79
  -1   7   9   -0.05    0.89
   1  -6  -9   16.51    2.63
  -1   6   9   16.51    2.59
   1  -5  -9    1.95    1.29
  -1   5   9    3.26    1.35
   1  -4  -9   13.93    2.41
  -1   4   9   13.46    2.39
   1  -3  -9    9.29    2.01
   1  -3  -9   11.41    2.30
  -1   3   9    8.58    1.89
   1  -2  -9    6.69    1.67
   1  -2  -9    8.15    1.90
  -1   2   9    7.18    1.78
   1  -1  -9    0.17    0.85
   1  -1  -9    0.12    0.89
  -1   1   9   -1.34    0.77
   1   0  -9    1.98    1.14
   1   0  -9    1.73    1.16
  -1   0   9    1.03    1.14
   1   1  -9   25.36    2.49
   1   1  -9   32.38    3.08
   1   2  -9   33.42    2.69
   1   2  -9   38.46    3.28
   1   3  -9    1.35    0.90
   1   3  -9    1.34    1.09
   1   4  -9    1.52    1.19
   1   4  -9    1.36    1.12
   1   5  -9    2.89    1.40
   1   5  -9    5.20    1.62
   1   6  -9    5.62    1.65
   1   7  -9   13.98    2.35
   1   8  -9   12.54    2.28
   1   9  -9    0.29    1.01
  -1  16   8    2.51    1.49
  -1  15   8    1.27    1.33
  -1  14   8   -0.41    0.97
  -1  13   8   13.55    2.56
  -1  12   8    4.29    1.62
  -1  12   8    3.27    1.34
  -1  11   8   10.45    2.20
  -1  11   8   11.46    2.25
   1 -10  -8   18.04    2.87
  -1  10   8   11.38    2.14
  -1  10   8   13.06    2.24
   1  -9  -8   18.02    2.79
  -1   9   8   13.72    2.36
  -1   9   8   15.49    2.32
   1  -8  -8    0.13    1.00
  -1   8   8   -0.30    0.78
  -1   8   8   -0.10    0.77
   1  -7  -8   65.07    3.99
  -1   7   8   56.64    3.72
  -1   7   8   61.25    3.85
   1  -6  -8   25.49    2.64
  -1   6   8   26.28    2.58
  -1   6   8   27.95    2.71
  -1   6   8   28.02    2.72
   1  -5  -8    2.30    1.19
  -1   5   8    1.60    1.09
  -1   5   8    2.20    1.04
  -1   5   8    1.72    1.05
   1  -4  -8   38.97    3.03
   1  -4  -8   37.65    2.98
  -1   4   8   36.12    2.93
   1  -3  -8    6.18    1.51
   1  -3  -8    4.97    1.42
  -1   3   8    8.94    1.87
   1  -2  -8   46.87    3.17
   1  -2  -8   50.83    3.38
  -1   2   8   48.89    3.35
   1  -1  -8    0.94    0.85
   1  -1  -8    0.51    0.88
  -1   1   8    0.54    0.95
   1   0  -8   78.00    3.85
   1   0  -8   81.11    4.19
  -1   0   8   76.47    4.09
   1   1  -8   38.06    2.74
   1   1  -8   37.29    3.00
  -1  -1   8   37.48    2.99
   1   2  -8  166.80    5.20
   1   2  -8  160.72    5.83
   1   2  -8  180.63    6.10
   1   3  -8  109.89    4.02
   1   3  -8  103.78    4.74
   1   3  -8  109.20    4.53
   1   4  -8   36.78    2.21
   1   4  -8   37.80    3.05
   1   4  -8   33.76    2.90
   1   4  -8   37.43    2.71
   1   5  -8    1.24    1.07
   1   5  -8    0.93    0.95
   1   5  -8    3.13    1.10
   1   6  -8   20.80    2.45
   1   7  -8    2.83    1.29
   1   8  -8   14.72    2.28
   1   9  -8    1.32    1.07
   1  10  -8    0.21    0.89
  -1  16   7    1.70    1.37
  -1  15   7   11.11    2.29
  -1  14   7   12.68    2.37
  -1  13   7    0.22    0.95
  -1  12   7    7.41    1.44
  -1  12   7    7.19    1.79
  -1  12   7    7.30    1.64
  -1  11   7    4.06    1.42
  -1  11   7    5.81    1.54
  -1  10   7    6.82    1.64
  -1  10   7    9.64    1.97
   1  -9  -7    2.08    1.20
  -1   9   7    1.92    1.09
  -1   9   7    2.16    1.07
   1  -8  -7    1.55    1.09
  -1   8   7    1.69    0.93
  -1   8   7    2.26    1.04
   1  -7  -7    0.81    0.91
  -1   7   7    1.09    0.86
  -1   7   7    0.57    0.79
   1  -6  -7   26.06    2.46
   1  -6  -7   27.70    2.54
  -1   6   7   25.87    2.37
  -1   6   7   26.66    2.46
  -1   6   7   27.78    2.51
   1  -5  -7    8.65    1.70
   1  -5  -7    9.31    1.90
  -1   5   7   10.63    1.75
  -1   5   7    6.43    1.42
  -1   5   7   10.61    1.95
   1  -4  -7    3.26    1.18
   1  -4  -7    3.31    1.10
   1  -4  -7    4.92    1.45
  -1   4   7    3.37    1.18
  -1   4   7    4.39    1.27
  -1   4   7    4.67    1.31
   1  -3  -7   27.80    2.39
   1  -3  -7   30.13    2.46
   1  -3  -7   29.71    2.49
  -1   3   7   27.84    2.41
  -1   3   7   31.75    2.51
   1  -2  -7    1.48    0.90
   1  -2  -7    2.54    1.04
   1  -2  -7    2.31    0.99
  -1   2   7    2.60    1.08
  -1   2   7    1.92    1.04
   1  -1  -7   93.01    3.98
   1  -1  -7  103.94    4.33
   1  -1  -7  101.10    4.28
  -1   1   7  100.11    4.26
  -1   1   7  106.52    4.44
   1   0  -7   24.87    2.16
   1   0  -7   27.55    2.39
   1   0  -7   26.15    2.32
  -1   0   7   23.91    2.26
  -1   0   7   24.43    2.30
   1   1  -7   32.45    2.38
   1   1  -7   29.19    2.45
   1   1  -7   35.68    2.62
  -1  -1   7   30.37    2.50
  -1  -1   7   32.87    2.69
   1   2  -7    8.32    1.43
   1   2  -7    7.44    1.52
   1   2  -7    6.53    1.35
   1   3  -7    3.11    0.96
   1   3  -7    2.76    1.13
   1   3  -7    2.66    1.06
   1   4  -7   79.98    2.89
   1   4  -7   78.09    3.89
   1   4  -7   81.21    3.56
   1   5  -7   13.66    2.08
   1   5  -7    9.80    1.71
   1   5  -7   12.93    1.60
   1   6  -7    6.01    1.44
   1   7  -7    9.30    1.73
   1   8  -7    5.27    1.39
   1   9  -7    3.96    1.34
   1  10  -7    6.48    1.50
   1  11  -7    0.86    0.93
  -1  16   6   18.40    2.70
  -1  15   6    3.90    1.51
  -1  14   6   16.17    2.51
  -1  13   6   -0.08    0.82
  -1  12   6   12.09    2.14
  -1  12   6   13.39    1.88
  -1  12   6   11.74    1.76
  -1  11   6    0.85    0.89
  -1  11   6    1.08    0.81
  -1  11   6    1.19    0.90
  -1  10   6    0.07    0.72
  -1  10   6    0.94    0.81
   1  -9  -6   53.50    3.37
  -1   9   6   52.54    3.27
  -1   9   6   58.56    3.28
   1  -8  -6   26.17    2.43
  -1   8   6   26.21    2.36
  -1   8   6   26.70    2.32
   1  -7  -6   33.22    2.57
  -1   7   6   32.43    2.53
  -1   7   6   37.88    2.67
   1  -6  -6    6.93    1.50
   1  -6  -6    7.61    1.53
  -1   6   6    8.68    1.61
  -1   6   6    9.56    1.69
   1  -5  -6   16.66    1.86
   1  -5  -6   18.71    1.95
  -1   5   6   16.66    1.82
  -1   5   6   14.63    1.77
  -1   5   6   17.14    1.89
   1  -4  -6    6.48    1.43
   1  -4  -6    4.41    1.15
   1  -4  -6    4.34    1.12
  -1   4   6    4.49    1.13
  -1   4   6    3.53    1.01
  -1   4   6    3.70    0.97
   1  -3  -6  357.46    7.32
   1  -3  -6  375.47    7.45
   1  -3  -6  374.63    7.65
  -1   3   6  340.81    7.16
  -1   3   6  350.93    7.20
   1  -2  -6  231.76    5.83
   1  -2  -6  235.15    5.91
   1  -2  -6  243.12    6.12
  -1   2   6  238.96    5.99
  -1   2   6  256.67    6.35
   1  -1  -6    7.12    1.26
   1  -1  -6    7.74    1.36
   1  -1  -6    8.00    1.33
  -1   1   6    8.54    1.45
  -1   1   6   11.46    1.78
   1   0  -6    4.17    1.08
   1   0  -6    3.88    1.08
   1   0  -6    3.96    1.01
  -1   0   6    4.05    1.13
  -1   0   6    4.92    1.20
   1   1  -6   45.90    2.54
   1   1  -6   41.28    2.59
   1   1  -6   46.98    2.71
  -1  -1   6   49.40    2.81
  -1  -1   6   52.83    2.93
   1   2  -6  122.33    3.88
   1   2  -6  129.48    4.43
   1   2  -6  132.75    4.36
  -1  -2   6  128.97    4.43
  -1  -2   6  131.70    4.49
   1   3  -6   16.03    1.49
   1   3  -6   18.31    1.88
   1   3  -6   16.09    1.68
   1   4  -6    9.12    1.12
   1   4  -6   10.94    1.70
   1   4  -6   11.75    1.46
   1   5  -6    6.82    1.43
   1   5  -6    6.47    1.35
   1   5  -6    7.25    1.21
   1   6  -6    0.92    0.75
   1   7  -6   36.95    2.62
   1   8  -6    2.54    1.03
   1   9  -6    4.76    1.27
   1  10  -6    6.62    1.46
   1  11  -6   10.27    1.69
  -1  16   5    9.71    1.97
  -1  15   5    0.86    0.92
  -1  14   5    8.65    1.77
  -1  13   5   13.13    2.04
  -1  12   5    0.54    0.74
  -1  12   5    0.48    0.60
  -1  12   5    0.21    0.57
  -1  11   5    4.94    1.25
  -1  11   5    4.73    1.11
  -1  11   5    4.38    1.14
  -1  10   5   22.13    2.16
  -1  10   5   22.20    1.95
  -1   9   5    2.10    0.90
  -1   9   5    3.16    0.97
   1  -8  -5   41.24    2.66
  -1   8   5   42.10    2.67
  -1   8   5   44.85    2.63
   1  -7  -5   80.73    3.52
  -1   7   5   78.42    3.47
  -1   7   5   80.89    3.45
   1  -6  -5   41.51    2.55
   1  -6  -5   39.63    2.50
  -1   6   5   39.20    2.46
  -1   6   5   43.27    2.55
   1  -5  -5    4.96    1.12
   1  -5  -5    4.61    1.07
  -1   5   5    2.58    0.86
  -1   5   5    2.04    0.80
  -1   5   5    4.75    1.06
   1  -4  -5  307.73    6.35
   1  -4  -5  307.60    6.44
  -1   4   5  302.79    6.20
  -1   4   5  313.20    6.37
  -1   4   5  331.19    6.67
   1  -3  -5   29.66    2.05
   1  -3  -5   35.34    2.22
   1  -3  -5   31.53    2.17
  -1   3   5   30.79    2.12
  -1   3   5   30.45    2.09
  -1   3   5   33.01    2.19
   1  -2  -5  122.85    3.94
   1  -2  -5  120.93    3.90
   1  -2  -5  121.26    3.99
  -1   2   5  121.08    3.94
   1  -1  -5  603.97    8.43
   1  -1  -5  615.11    8.63
   1  -1  -5  624.44    8.85
  -1   1   5  599.20    8.55
  -1   1   5  646.71    9.05
   1   0  -5  758.60    9.26
   1   0  -5  768.87    9.62
   1   0  -5  816.78   10.01
  -1   0   5  809.37    9.89
  -1   0   5  906.01   10.64
   1   1  -5   39.04    2.16
   1   1  -5   41.18    2.34
   1   1  -5   42.19    2.36
  -1  -1   5   40.96    2.34
  -1  -1   5   44.52    2.48
   1   2  -5   48.56    2.28
   1   2  -5   56.55    2.71
   1   2  -5   53.77    2.61
  -1  -2   5   53.05    2.65
  -1  -2   5   52.49    2.65
   1   3  -5   99.69    3.01
   1   3  -5  101.43    3.59
   1   3  -5  106.58    3.51
  -1  -3   5  111.39    4.08
   1   4  -5    0.57    0.45
   1   4  -5    0.99    0.68
   1   4  -5    0.75    0.60
   1   5  -5   39.68    2.39
   1   5  -5   41.16    2.42
   1   5  -5   41.75    2.08
   1   6  -5   11.00    1.54
   1   6  -5   13.86    1.21
   1   7  -5   73.64    3.25
   1   8  -5    0.04    0.61
   1   9  -5    6.31    1.29
   1  10  -5    0.57    0.75
   1  11  -5   36.52    2.44
   1  12  -5   22.65    1.97
  -1  16   4   14.55    2.19
  -1  15   4    9.51    1.76
  -1  14   4    8.93    1.71
  -1  13   4   38.32    2.75
  -1  12   4    1.68    0.84
  -1  11   4   11.51    1.73
  -1  11   4   10.53    1.24
  -1  11   4   11.80    1.25
  -1  10   4    1.78    0.81
  -1  10   4    1.86    0.73
  -1  10   4    2.36    0.78
  -1   9   4   20.87    1.35
  -1   9   4   20.19    1.82
  -1   9   4   21.91    1.72
   1  -8  -4  111.86    3.94
  -1   8   4  108.20    3.79
  -1   8   4  115.37    3.67
   1  -7  -4   29.78    2.07
  -1   7   4   27.62    1.96
  -1   7   4   29.72    1.96
   1  -6  -4    0.99    0.67
   1  -6  -4    0.59    0.54
  -1   6   4    0.58    0.54
  -1   6   4    1.05    0.65
   1  -5  -4   11.11    1.50
   1  -5  -4   10.95    1.31
  -1   5   4    9.60    1.30
  -1   5   4    9.58    1.34
   1  -4  -4   20.14    1.63
   1  -4  -4   17.65    1.54
  -1   4   4   17.96    1.52
  -1   4   4   17.37    1.53
  -1   4   4   19.51    1.62
   1  -3  -4    0.66    0.58
   1  -3  -4    1.00    0.63
  -1   3   4    0.36    0.53
  -1   3   4    0.97    0.55
  -1   3   4    0.72    0.58
   1  -2  -4  103.81    3.28
   1  -2  -4  106.58    3.31
   1  -2  -4  106.18    3.39
  -1   2   4  107.97    3.33
   1  -1  -4   15.19    1.39
   1  -1  -4   17.40    1.45
   1  -1  -4   15.22    1.41
  -1   1   4   15.51    1.43
  -1   1   4   16.12    1.45
   1   0  -4    3.29    0.85
   1   0  -4    2.96    0.82
   1   0  -4    3.39    0.85
  -1   0   4    3.13    0.82
  -1   0   4    4.27    0.91
   1   1  -4   40.29    1.99
   1   1  -4   43.45    2.15
   1   1  -4   46.08    2.22
  -1  -1   4   41.10    2.10
  -1  -1   4   45.46    2.25
   1   2  -4    0.69    0.48
   1   2  -4    0.83    0.55
   1   2  -4    0.37    0.48
  -1  -2   4    0.32    0.52
  -1  -2   4    0.63    0.55
   1   3  -4  129.40    3.05
   1   3  -4  132.17    3.66
   1   3  -4  131.23    3.51
  -1  -3   4  133.68    3.70
   1   4  -4   55.94    1.74
   1   4  -4   51.65    2.37
   1   4  -4   53.26    2.37
   1   4  -4   58.48    2.31
   1   5  -4    0.81    0.59
   1   5  -4    0.97    0.60
   1   5  -4    0.72    0.55
   1   5  -4    0.78    0.50
   1   6  -4   32.62    2.16
   1   6  -4   26.44    1.81
   1   6  -4   31.32    1.44
   1   7  -4    4.17    0.96
   1   8  -4   25.99    1.91
   1   9  -4    2.60    0.85
   1  10  -4   37.79    2.28
   1  11  -4   -0.45    0.55
   1  12  -4   22.59    1.82
   1  13  -4    8.14    1.25
  -1  16   3    2.14    1.05
  -1  15   3    2.31    1.00
  -1  14   3    1.39    0.86
  -1  13   3   -0.25    0.60
  -1  12   3   47.23    2.68
  -1  11   3   32.74    2.21
  -1  10   3   65.94    2.90
  -1  10   3   66.62    2.17
  -1   9   3    4.47    0.96
  -1   9   3    5.59    0.92
  -1   9   3    5.55    0.91
  -1   8   3    4.10    0.61
  -1   8   3    3.63    0.82
  -1   8   3    3.01    0.78
  -1   8   3    3.36    0.76
   1  -7  -3    1.06    0.67
  -1   7   3    1.41    0.58
  -1   7   3    1.78    0.63
  -1   7   3    1.09    0.55
   1  -6  -3  116.34    3.35
  -1   6   3  102.88    3.14
  -1   6   3  126.55    3.39
   1  -5  -3  378.98    5.79
   1  -5  -3  382.12    5.88
  -1   5   3  355.06    5.60
  -1   5   3  381.87    5.78
   1  -4  -3    0.70    0.54
   1  -4  -3    0.52    0.48
  -1   4   3    0.60    0.47
  -1   4   3    0.31    0.45
   1  -3  -3   35.19    1.80
   1  -3  -3   35.64    1.83
  -1   3   3   31.50    1.68
  -1   3   3   33.35    1.74
  -1   3   3   34.49    1.81
   1  -2  -3  222.20    4.20
   1  -2  -3  222.89    4.30
  -1   2   3  225.85    4.21
   1  -1  -3  862.33    8.06
   1  -1  -3  842.64    8.53
   1  -1  -3  860.05    8.28
  -1   1   3  835.80    7.97
  -1   1   3  834.80    8.60
   1   0  -3  181.58    3.67
   1   0  -3  189.21    3.80
   1   0  -3  178.73    3.77
  -1   0   3  190.11    3.82
  -1   0   3  186.27    3.88
   1   1  -3    0.31    0.42
   1   1  -3    0.71    0.46
   1   1  -3    0.31    0.43
  -1  -1   3    0.27    0.46
  -1  -1   3    0.60    0.47
   1   2  -3    0.61    0.43
   1   2  -3    0.85    0.51
   1   2  -3    1.96    0.60
  -1  -2   3    1.77    0.60
   1   3  -3   90.71    2.25
   1   3  -3   87.96    2.64
   1   3  -3  100.22    2.73
  -1  -3   3   91.28    2.73
   1   4  -3   -0.02    0.24
   1   4  -3    0.56    0.44
   1   4  -3    0.15    0.35
   1   4  -3   -0.08    0.35
   1   4  -3   -0.13    0.36
   1   5  -3    0.37    0.42
   1   5  -3    0.35    0.44
   1   5  -3    0.12    0.36
   1   6  -3    0.11    0.40
   1   6  -3    0.27    0.42
   1   7  -3  172.38    3.95
   1   7  -3  168.74    3.93
   1   8  -3  255.48    4.93
   1   8  -3  248.70    4.87
   1   9  -3  133.15    3.69
   1  10  -3    0.52    0.57
   1  11  -3    6.24    1.10
   1  12  -3    3.64    0.90
   1  13  -3    0.73    0.64
  -1  16   2    1.52    0.84
  -1  15   2    3.42    1.01
  -1  14   2    1.58    0.84
  -1  13   2   13.24    1.51
  -1  12   2    1.15    0.64
  -1  11   2   49.49    2.40
  -1  10   2   65.87    2.62
  -1  10   2   59.64    2.51
  -1   9   2    2.07    0.69
  -1   9   2    2.32    0.69
  -1   8   2    0.05    0.36
  -1   8   2   -0.19    0.36
  -1   8   2   -0.01    0.30
  -1   8   2    0.08    0.32
  -1   7   2   33.34    1.66
  -1   7   2   31.31    1.63
  -1   7   2   38.16    1.58
  -1   7   2   34.90    1.50
  -1   6   2  127.49    2.22
  -1   6   2  127.44    3.01
  -1   6   2  123.68    2.99
  -1   6   2  124.71    2.81
   1  -5  -2    8.88    0.95
  -1   5   2    9.03    0.91
  -1   5   2    9.99    0.96
   1  -4  -2  872.27    7.50
  -1   4   2  875.17    7.35
  -1   4   2  876.45    7.38
   1  -3  -2   14.55    1.10
  -1   3   2   13.23    1.02
  -1   3   2   14.48    1.09
   1  -2  -2    0.31    0.38
  -1   2   2    0.71    0.42
   1  -1  -2  533.79    5.44
   1  -1  -2  492.21    5.37
   1   0  -2  701.48    6.12
   1   0  -2  708.10    6.38
  -1   0   2  734.93    6.52
   1   1  -2  436.86    4.72
   1   1  -2  437.33    4.89
   1   1  -2  443.81    5.03
  -1  -1   2  441.92    5.06
   1   2  -2   13.67    0.91
   1   2  -2   15.44    1.04
   1   2  -2   15.80    1.08
  -1  -2   2   17.23    1.13
   1   3  -2  114.77    2.11
   1   3  -2  110.61    2.54
   1   3  -2  108.74    2.52
   1   3  -2  122.70    2.62
  -1  -3   2  121.78    2.74
   1   4  -2  103.38    2.49
   1   4  -2   99.02    2.46
   1   4  -2  111.33    2.41
  -1  -4   2  108.71    2.63
   1   5  -2   79.12    2.26
   1   5  -2   70.70    2.15
   1   5  -2   76.67    1.85
   1   6  -2    0.23    0.37
   1   6  -2    0.01    0.35
   1   7  -2   78.07    2.43
   1   7  -2   74.80    2.40
   1   8  -2   41.16    1.89
   1   8  -2   40.07    1.88
   1   9  -2    1.51    0.59
   1   9  -2    2.25    0.69
   1  10  -2    1.86    0.70
   1  11  -2    0.98    0.64
   1  12  -2    6.80    1.08
   1  13  -2    0.30    0.59
  -1  15   1    1.25    0.68
  -1  14   1   17.67    1.50
  -1  13   1    1.51    0.67
  -1  12   1   57.04    2.34
  -1  11   1   33.76    1.77
  -1  11   1   33.03    1.77
  -1  10   1    0.35    0.39
  -1  10   1    0.06    0.44
  -1   9   1   22.40    1.33
  -1   9   1   24.19    1.39
  -1   8   1   40.14    1.61
  -1   8   1   36.84    1.57
  -1   7   1  324.57    4.17
  -1   7   1  310.50    4.11
  -1   6   1  352.09    4.09
  -1   6   1  341.87    4.06
   1  -5  -1   45.14    1.50
  -1   5   1   43.78    1.41
  -1   5   1   45.28    1.45
  -1   5   1   47.03    1.35
   1  -4  -1  100.33    2.11
  -1   4   1   96.69    1.53
  -1   4   1   98.47    2.00
  -1   4   1  101.89    2.00
   1  -3  -1 1099.83    6.64
  -1   3   1 1076.17    5.85
  -1   3   1 1061.22    6.28
  -1   3   1 1085.52    6.44
   1  -2  -1  170.30    2.60
  -1   2   1  164.85    2.53
   1  -1  -1   74.70    1.72
   1   0  -1  394.30    3.89
  -1   0   1  151.16    2.42
   1   1  -1  128.39    2.28
  -1  -1   1  130.07    2.30
   1   2  -1   70.34    1.57
   1   2  -1   70.15    1.68
   1   2  -1   72.11    1.75
  -1  -2   1   72.04    1.78
   1   3  -1  237.27    2.44
   1   3  -1  226.22    3.06
   1   3  -1  232.70    3.08
  -1  -3   1  241.89    3.30
   1   4  -1  597.23    5.12
   1   4  -1  561.98    5.01
   1   4  -1  609.45    4.85
  -1  -4   1  569.99    5.22
   1   5  -1   99.67    2.24
   1   5  -1   95.99    2.22
   1   6  -1  140.87    2.81
   1   6  -1  141.50    2.84
   1   7  -1   36.17    1.56
   1   7  -1   36.63    1.59
   1   8  -1  185.86    3.63
   1   8  -1  179.70    3.58
   1   9  -1   82.39    2.59
   1   9  -1   76.56    2.51
   1  10  -1   34.59    1.83
   1  10  -1   34.80    1.84
   1  11  -1    2.73    0.83
   1  12  -1   25.50    1.72
   1  13  -1    2.58    0.82
   1  14  -1   18.83    1.55
  -1  13   0    0.08    0.44
  -1  12   0   14.83    1.14
  -1  12   0   14.27    1.14
  -1  11   0    9.12    0.90
  -1  11   0    7.89    0.91
  -1  10   0   -0.14    0.32
  -1  10   0   -0.14    0.35
  -1   9   0   45.02    1.51
  -1   9   0   40.68    1.46
  -1   8   0    8.00    0.67
  -1   8   0    7.00    0.65
  -1   7   0   76.77    1.57
  -1   7   0   75.95    1.59
  -1   6   0   14.71    0.65
  -1   6   0   16.72    0.70
  -1   5   0  368.42    2.61
  -1   5   0  360.23    2.53
  -1   4   0  148.14    1.46
  -1   4   0  152.18    1.45
   1  -3   0  461.40    2.99
  -1   3   0  433.65    2.39
  -1   3   0  437.15    2.42
   1  -2   0   28.58    0.80
  -1   2   0   22.45    0.69
  -1   1   0    0.06    0.13
   1   0   0   -0.01    0.10
   1   1   0   -0.03    0.15
  -1  -1   0    0.66    0.23
   1   2   0  169.17    2.25
   1   2   0  172.21    2.35
  -1  -2   0  168.04    2.36
   1   3   0 1106.24    6.10
   1   3   0 1192.07    6.38
  -1  -3   0 1177.40    6.64
   1   4   0  238.75    3.05
   1   4   0  232.75    3.04
   1   4   0  250.54    3.02
  -1  -4   0  248.75    3.29
   1   5   0   59.88    1.68
   1   5   0   58.70    1.69
  -1  -5   0   63.76    1.80
   1   6   0   -0.27    0.20
   1   6   0    0.17    0.30
   1   7   0   38.69    1.59
   1   7   0   37.04    1.58
   1   8   0   23.52    1.36
   1   8   0   23.51    1.39
   1   9   0   79.15    2.54
   1   9   0   75.34    2.48
   1  10   0   18.50    1.42
   1  10   0   18.49    1.43
   1  11   0    1.20    0.62
   1  12   0    5.00    1.02
   1  13   0    0.10    0.59
   1  14   0   13.35    1.45
   1  15   0   -0.18    0.56
   1  -1   1   12.59    0.54
   1   1   1   -0.02    0.15
  -1  -1  -1   -0.07    0.12
   1   2   1 1024.83    6.67
  -1  -2  -1 1036.31    6.15
   1   3   1 3796.85   17.86
   1   3   1 3939.92   19.56
   1   3   1 3900.31   20.43
  -1  -3  -1 4131.55   21.65
   1   4   1  438.93    3.72
   1   4   1  402.19    4.28
   1   4   1  441.86    4.45
  -1  -4  -1  442.92    4.66
   1   5   1  157.16    1.88
   1   5   1  163.24    2.92
   1   5   1  155.08    2.87
   1   5   1  161.40    2.77
   1   5   1  164.12    2.79
  -1  -5  -1  167.46    3.07
   1   6   1   81.33    2.23
   1   6   1   76.84    2.18
   1   6   1   77.93    1.95
   1   6   1   79.67    1.95
   1   7   1  685.17    6.77
   1   7   1  682.36    6.81
   1   8   1   40.24    1.81
   1   8   1   40.58    1.85
   1   9   1    9.82    1.08
   1   9   1   10.47    1.13
   1  10   1   11.00    1.21
   1  10   1    9.84    1.18
   1  11   1   21.07    1.65
   1  12   1    0.34    0.61
   1  13   1    5.41    1.08
   1  14   1   12.07    1.58
   1  15   1    1.80    0.88
   1  -3   2   33.92    1.00
  -1   3  -2   32.41    0.84
  -1   3  -2   32.09    0.83
   1  -2   2   17.98    0.83
  -1   2  -2   18.99    0.77
   1  -1   2  194.62    2.63
  -1   1  -2  180.38    2.42
   1   2   2   26.23    1.22
   1   2   2   25.48    1.23
   1   3   2 1926.46    9.77
   1   3   2 1842.94   11.51
   1   3   2 1816.77   10.01
   1   3   2 1937.04   10.31
   1   4   2  313.04    4.01
   1   4   2  313.00    4.31
   1   4   2  315.99    4.37
   1   4   2  331.17    4.46
   1   5   2  174.93    2.97
   1   5   2  167.44    3.35
   1   5   2  181.49    3.43
   1   5   2  173.59    3.34
   1   6   2   32.52    1.25
   1   6   2   32.93    1.62
   1   6   2   28.92    1.54
   1   6   2   34.33    1.58
   1   6   2   33.14    1.55
   1   7   2  523.08    6.47
   1   7   2  497.50    6.35
   1   7   2  517.24    5.81
   1   7   2  523.79    5.82
   1   8   2   60.68    2.38
   1   8   2   59.78    2.39
   1   8   2   66.72    2.08
   1   8   2   60.98    1.98
   1   9   2   73.22    2.74
   1   9   2   73.00    2.76
   1  10   2   22.08    1.70
   1  11   2   20.30    1.73
   1  12   2   18.56    1.75
   1  13   2   10.01    1.51
   1  14   2   -0.12    0.67
   1  15   2    6.49    1.36
   1  16   2   17.25    1.87
  -1   9  -3   24.12    1.11
  -1   8  -3   22.96    1.07
  -1   8  -3   22.99    1.09
  -1   7  -3   47.11    1.46
  -1   7  -3   47.73    1.45
  -1   6  -3    5.12    0.58
  -1   6  -3    5.01    0.58
  -1   5  -3  139.30    2.40
  -1   5  -3  140.63    2.40
  -1   4  -3   65.56    1.70
  -1   4  -3   65.67    1.69
   1  -3   3    4.18    0.64
  -1   3  -3    3.64    0.57
  -1   3  -3    3.36    0.53
   1  -2   3   84.58    2.13
  -1   2  -3   78.00    1.64
  -1   2  -3   78.20    1.98
   1  -1   3  137.54    2.79
  -1   1  -3  122.62    2.41
  -1   1  -3  126.58    2.60
   1   0   3   41.07    1.64
  -1   0  -3   38.59    1.53
  -1   0  -3   40.12    1.58
   1   1   3  477.15    5.39
   1   1   3  465.18    5.46
  -1  -1  -3  466.98    5.31
  -1  -1  -3  462.36    5.44
   1   2   3 6262.38   34.38
  -1  -2  -3 6268.66   33.28
   1   3   3  366.72    5.02
   1   3   3  363.86    5.07
   1   3   3  381.80    5.31
  -1  -3  -3  369.75    5.13
   1   4   3   98.21    2.70
   1   4   3   93.06    2.72
   1   4   3   98.65    2.83
  -1  -4  -3   97.06    2.79
   1   5   3   94.19    2.65
   1   5   3   86.31    2.73
   1   5   3   90.46    2.78
   1   5   3   91.53    2.79
  -1  -5  -3   92.61    2.84
   1   6   3  128.16    3.03
   1   6   3  119.47    3.32
   1   6   3  132.43    3.42
   1   6   3  126.85    3.33
  -1  -6  -3  133.63    3.57
   1   7   3   23.43    1.32
   1   7   3   24.27    1.70
   1   7   3   25.01    1.68
   1   7   3   23.27    1.56
   1   7   3   25.63    1.61
   1   8   3   55.48    2.48
   1   8   3   53.96    2.48
   1   8   3   54.69    2.27
   1   8   3   55.98    2.26
   1   9   3    5.88    1.10
   1   9   3    7.15    1.01
   1   9   3    8.05    1.01
   1  10   3    1.38    0.70
   1  10   3    0.71    0.51
   1  10   3    1.12    0.54
   1  11   3    6.65    1.32
   1  12   3    6.86    1.35
   1  13   3    3.73    1.10
   1  14   3   24.98    2.28
   1  15   3    2.25    1.10
   1  16   3   10.53    1.78
  -1  10  -4    6.29    0.86
  -1  10  -4    6.24    0.85
  -1   9  -4   -0.09    0.38
  -1   9  -4    0.22    0.40
  -1   8  -4   63.39    2.12
  -1   8  -4   67.19    2.16
  -1   8  -4   63.78    2.13
  -1   7  -4    2.29    0.58
  -1   7  -4    1.65    0.54
  -1   6  -4    2.00    0.56
  -1   6  -4    1.97    0.55
  -1   5  -4  249.63    4.08
  -1   5  -4  246.54    4.03
  -1   4  -4  124.28    2.91
  -1   4  -4  129.65    2.96
   1  -3   4  350.62    4.98
  -1   3  -4  324.73    3.16
  -1   3  -4  318.27    4.68
  -1   3  -4  331.76    4.75
   1  -2   4  106.46    2.85
  -1   2  -4  106.58    2.42
  -1   2  -4  101.73    2.73
   1  -1   4  317.70    4.97
  -1   1  -4  298.67    4.42
  -1   1  -4  306.83    4.77
  -1   1  -4  325.59    4.94
   1   0   4  431.22    5.78
   1   0   4  419.89    5.83
  -1   0  -4  410.55    5.48
  -1   0  -4  433.39    5.79
  -1   0  -4  413.60    5.75
   1   1   4  719.66    7.63
  -1  -1  -4  716.16    7.53
  -1  -1  -4  697.35    7.49
  -1  -1  -4  764.41    8.02
   1   2   4  257.95    4.71
  -1  -2  -4  256.18    4.70
  -1  -2  -4  258.60    4.82
   1   3   4  858.61    8.71
   1   3   4  845.98    8.68
   1   3   4  876.43    9.06
  -1  -3  -4  822.08    8.59
  -1  -3  -4  874.32    9.05
   1   4   4    6.91    1.09
   1   4   4    6.45    1.07
   1   4   4    6.09    1.04
  -1  -4  -4    6.57    1.12
  -1  -4  -4    5.53    0.92
   1   5   4   72.93    2.67
   1   5   4   71.44    2.77
   1   5   4   76.64    2.87
  -1  -5  -4   73.18    2.82
   1   6   4   37.05    1.97
   1   6   4   37.31    2.12
   1   6   4   38.45    2.12
   1   6   4   38.11    2.11
  -1  -6  -4   39.22    2.20
   1   7   4   28.15    1.72
   1   7   4   27.10    1.91
   1   7   4   29.74    1.93
   1   7   4   27.62    1.86
  -1  -7  -4   28.45    1.95
   1   8   4    0.60    0.50
   1   8   4    0.53    0.60
   1   8   4    1.15    0.65
   1   8   4    0.20    0.50
  -1  -8  -4    0.78    0.72
   1   9   4   17.84    1.75
   1   9   4   19.66    1.64
   1   9   4   20.43    1.65
   1  10   4    0.27    0.62
   1  10   4   -0.18    0.46
   1  10   4    0.47    0.52
   1  11   4   47.69    2.86
   1  11   4   56.47    2.44
   1  11   4   51.78    2.30
   1  12   4   36.84    2.65
   1  13   4   16.04    1.97
   1  14   4    9.91    1.76
   1  15   4   -0.81    0.63
   1  16   4    4.93    1.47
  -1  11  -5    8.69    1.08
  -1  10  -5    1.60    0.68
  -1   9  -5    7.09    1.08
  -1   8  -5    9.63    1.24
  -1   8  -5   10.69    1.21
  -1   7  -5    0.40    0.49
  -1   7  -5    0.46    0.52
  -1   6  -5   86.40    2.87
  -1   6  -5   91.12    2.94
  -1   5  -5    0.40    0.46
  -1   5  -5    0.53    0.47
  -1   4  -5   29.10    1.74
  -1   4  -5   30.08    1.76
  -1   3  -5    7.57    0.79
  -1   3  -5    5.76    0.98
  -1   3  -5    7.22    1.06
   1  -2   5   19.68    1.52
   1  -2   5   20.68    1.53
  -1   2  -5   19.78    1.33
  -1   2  -5   19.86    1.49
   1  -1   5    2.12    0.74
   1  -1   5    1.38    0.67
  -1   1  -5    1.88    0.64
  -1   1  -5    1.61    0.63
  -1   1  -5    1.65    0.65
   1   0   5   30.25    1.87
   1   0   5   29.12    1.85
  -1   0  -5   24.61    1.66
  -1   0  -5   28.63    1.83
  -1   0  -5   31.72    1.92
   1   1   5   49.87    2.37
   1   1   5   52.37    2.46
  -1  -1  -5   49.68    2.33
  -1  -1  -5   50.41    2.37
  -1  -1  -5   49.26    2.38
   1   2   5  179.32    4.40
  -1  -2  -5  188.97    4.50
  -1  -2  -5  187.26    4.48
  -1  -2  -5  198.45    4.72
   1   3   5   10.62    1.49
   1   3   5    9.55    1.32
   1   3   5    7.22    1.07
  -1  -3  -5   11.11    1.51
  -1  -3  -5    8.88    1.33
   1   4   5   84.33    3.17
   1   4   5   79.80    3.11
   1   4   5   82.77    3.23
  -1  -4  -5   76.89    3.09
  -1  -4  -5   78.72    3.17
   1   5   5   71.86    2.95
   1   5   5   71.50    3.04
   1   5   5   82.49    3.28
  -1  -5  -5   72.94    3.09
  -1  -5  -5   74.08    3.15
   1   6   5   -0.18    0.48
   1   6   5    0.26    0.56
   1   6   5    0.10    0.46
  -1  -6  -5    0.07    0.56
   1   7   5  191.02    4.76
   1   7   5  186.04    5.09
   1   7   5  208.72    5.28
  -1  -7  -5  196.66    5.24
   1   8   5    3.46    0.91
   1   8   5    2.80    0.95
   1   8   5    4.25    1.14
   1   8   5    3.45    0.99
  -1  -8  -5    3.74    1.10
   1   9   5   41.24    2.22
   1   9   5   37.51    2.57
   1   9   5   40.56    2.49
   1   9   5   37.50    2.39
   1  10   5   27.31    2.33
   1  10   5   31.24    2.25
   1  10   5   27.40    2.10
   1  11   5   -0.24    0.60
   1  11   5    0.05    0.58
   1  11   5    0.06    0.56
   1  12   5   12.92    2.01
   1  12   5   13.18    1.53
   1  12   5   12.94    1.47
   1  13   5    2.79    1.12
   1  14   5    2.73    1.19
   1  15   5    2.18    1.11
   1  16   5    4.23    1.46
  -1  11  -6    7.34    1.18
  -1  10  -6    3.69    0.98
  -1   9  -6   33.74    2.15
  -1   8  -6    6.05    1.17
  -1   8  -6    5.42    1.12
  -1   7  -6   83.70    3.25
  -1   6  -6   69.18    2.95
  -1   5  -6  196.73    4.87
  -1   4  -6   13.56    0.75
  -1   4  -6   10.17    1.42
  -1   3  -6    0.22    0.43
  -1   3  -6    0.41    0.55
   1  -2   6   -0.20    0.55
   1  -2   6   -0.04    0.48
  -1   2  -6    0.11    0.45
  -1   2  -6   -0.09    0.52
   1  -1   6  390.19    6.91
   1  -1   6  387.83    6.95
  -1   1  -6  356.56    6.11
  -1   1  -6  359.44    6.63
  -1   1  -6  394.43    6.86
   1   0   6   25.35    1.96
  -1   0  -6   26.20    1.85
  -1   0  -6   28.60    2.01
  -1   0  -6   29.94    2.06
   1   1   6   27.03    2.02
   1   1   6   28.13    2.06
  -1  -1  -6   32.32    2.10
  -1  -1  -6   30.79    2.10
  -1  -1  -6   31.17    2.13
   1   2   6   38.85    2.39
   1   2   6   39.97    2.43
  -1  -2  -6   37.75    2.32
  -1  -2  -6   37.57    2.33
  -1  -2  -6   40.81    2.44
   1   3   6   70.22    3.16
   1   3   6   71.92    3.14
  -1  -3  -6   69.48    3.15
  -1  -3  -6   72.30    3.17
  -1  -3  -6   73.56    3.28
   1   4   6  231.36    5.65
   1   4   6  230.06    5.64
   1   4   6  236.38    5.85
  -1  -4  -6  231.73    5.71
  -1  -4  -6  245.42    5.97
   1   5   6   49.99    2.74
   1   5   6   55.09    2.96
  -1  -5  -6   51.02    2.86
  -1  -5  -6   56.43    3.00
   1   6   6   15.16    1.70
   1   6   6   15.13    1.72
   1   6   6   15.67    1.74
  -1  -6  -6   17.63    1.86
  -1  -6  -6   17.61    1.86
   1   7   6   17.33    1.79
   1   7   6   16.57    1.85
   1   7   6   18.14    1.87
  -1  -7  -6   15.54    1.89
   1   8   6   62.92    3.09
   1   8   6   67.09    3.46
   1   8   6   65.59    3.34
  -1  -8  -6   62.05    3.36
   1   9   6   -0.36    0.55
   1   9   6    0.07    0.69
   1   9   6   -0.38    0.54
   1   9   6    0.33    0.66
  -1  -9  -6   -0.89    0.63
   1  10   6   16.11    2.23
   1  10   6   14.81    1.81
   1  10   6   14.14    1.99
   1  11   6   70.40    3.87
   1  11   6   77.46    3.68
   1  11   6   77.03    3.61
   1  12   6   61.75    3.74
   1  12   6   63.91    3.31
   1  12   6   59.76    3.14
   1  13   6   30.24    2.86
   1  13   6   36.41    2.51
   1  14   6    6.92    1.73
   1  15   6    0.82    1.01
   1  16   6    0.65    1.03
  -1  11  -7    1.82    0.91
  -1  10  -7    2.92    1.04
  -1   9  -7   56.12    2.97
  -1   8  -7   27.60    2.25
  -1   8  -7   28.96    2.27
  -1   7  -7   10.92    1.60
  -1   6  -7   26.76    2.18
  -1   5  -7  452.73    8.16
  -1   4  -7    5.59    0.86
  -1   4  -7    3.19    1.01
  -1   3  -7   -0.40    0.42
  -1   3  -7    0.28    0.60
   1  -2   7  249.30    6.10
  -1   2  -7  236.42    5.15
  -1   2  -7  231.77    5.87
   1  -1   7   40.19    2.57
   1  -1   7   37.75    2.51
  -1   1  -7   36.67    2.26
  -1   1  -7   34.18    2.39
  -1   1  -7   40.38    2.52
   1   0   7  137.66    4.60
   1   0   7  134.35    4.59
  -1   0  -7  124.15    4.15
  -1   0  -7  132.78    4.52
  -1   0  -7  139.92    4.60
   1   1   7    9.65    1.59
   1   1   7   11.51    1.79
  -1  -1  -7   11.62    1.67
  -1  -1  -7   11.33    1.63
  -1  -1  -7   11.13    1.64
   1   2   7  388.16    7.76
   1   2   7  406.95    8.07
  -1  -2  -7  364.76    7.38
  -1  -2  -7  398.25    7.83
  -1  -2  -7  402.77    7.99
   1   3   7  115.43    4.34
   1   3   7  116.78    4.28
  -1  -3  -7  125.93    4.50
  -1  -3  -7  121.99    4.44
  -1  -3  -7  126.48    4.61
   1   4   7    0.48    0.72
   1   4   7    1.98    0.86
   1   4   7    2.05    0.92
  -1  -4  -7    1.56    0.86
  -1  -4  -7    1.93    0.84
  -1  -4  -7    1.56    0.81
   1   5   7    5.46    1.35
   1   5   7    5.24    1.29
   1   5   7    4.40    1.17
  -1  -5  -7    3.84    1.18
  -1  -5  -7    5.44    1.42
  -1  -5  -7    4.80    1.28
   1   6   7   82.69    3.79
   1   6   7   80.22    3.82
   1   6   7   84.89    3.96
  -1  -6  -7   81.38    3.88
  -1  -6  -7   89.87    4.13
   1   7   7   12.98    1.90
   1   7   7   12.74    1.96
   1   7   7   16.49    1.96
  -1  -7  -7   11.02    1.85
   1   8   7  187.48    5.67
   1   8   7  191.63    6.10
   1   8   7  206.31    6.24
  -1  -8  -7  205.36    6.35
   1   9   7   14.23    2.00
   1   9   7   18.45    2.22
   1   9   7   17.45    2.57
   1   9   7   16.84    2.04
  -1  -9  -7   16.73    2.38
   1  10   7   49.28    2.99
   1  10   7   53.27    3.53
   1  10   7   50.73    3.29
   1  11   7   50.57    3.54
   1  11   7   56.00    3.40
   1  12   7   28.96    2.88
   1  12   7   29.27    2.57
   1  13   7   25.97    2.85
   1  14   7    1.11    1.18
   1  15   7    4.49    1.63
   1  16   7    7.81    2.08
  -1  10  -8   80.69    3.76
  -1   9  -8    3.87    1.25
  -1   8  -8   21.65    2.23
  -1   8  -8   19.05    2.14
  -1   7  -8    1.99    1.03
  -1   6  -8   98.64    4.28
  -1   5  -8    6.31    1.44
  -1   4  -8   47.83    3.06
  -1   3  -8   16.37    1.56
  -1   3  -8   14.68    2.03
  -1   2  -8    1.38    0.78
  -1   2  -8    0.37    0.72
   1  -1   8   20.37    2.20
  -1   1  -8   20.64    1.98
  -1   1  -8   20.67    2.13
  -1   1  -8   21.34    2.11
   1   0   8   40.11    2.84
   1   0   8   35.20    2.84
  -1   0  -8   37.72    2.57
  -1   0  -8   35.11    2.67
  -1   0  -8   38.84    2.76
   1   1   8    0.61    0.78
   1   1   8    0.39    0.73
  -1  -1  -8    0.52    0.70
  -1  -1  -8    0.72    0.74
  -1  -1  -8    0.07    0.63
   1   2   8   19.52    2.13
   1   2   8   18.49    2.07
  -1  -2  -8   17.13    1.97
  -1  -2  -8   17.39    2.01
  -1  -2  -8   18.22    2.06
   1   3   8  100.24    4.39
  -1  -3  -8  100.68    4.33
  -1  -3  -8   99.90    4.36
  -1  -3  -8  104.46    4.53
   1   4   8   31.01    2.60
   1   4   8   30.24    2.54
  -1  -4  -8   26.06    2.45
  -1  -4  -8   30.35    2.57
  -1  -4  -8   31.05    2.65
   1   5   8    2.84    1.18
   1   5   8    2.95    1.16
   1   5   8    2.18    0.94
  -1  -5  -8    3.31    1.26
   1   6   8   93.23    4.33
   1   6   8   89.02    4.32
   1   6   8  103.47    4.68
  -1  -6  -8   88.48    4.30
   1   7   8   47.56    3.21
   1   7   8   52.74    3.45
   1   7   8   49.76    3.39
  -1  -7  -8   49.64    3.42
   1   8   8    2.48    1.11
   1   8   8    1.95    1.02
   1   8   8    2.96    1.17
  -1  -8  -8    2.31    1.13
   1   9   8    1.93    1.05
   1   9   8    1.71    1.09
   1   9   8    2.59    1.16
  -1  -9  -8    1.74    1.19
   1  10   8   66.15    3.73
   1  10   8   70.35    4.27
   1  10   8   74.07    4.20
  -1 -10  -8   73.41    4.41
   1  11   8    9.56    1.98
   1  11   8   14.35    2.34
   1  12   8   -0.89    0.84
   1  12   8    0.78    0.98
   1  13   8   19.37    2.94
   1  14   8    0.46    1.12
   1  15   8    4.78    1.72
   1  16   8    1.50    1.33
  -1   9  -9    0.56    0.88
  -1   8  -9    0.90    1.00
  -1   7  -9    5.59    1.53
  -1   7  -9    6.57    1.59
  -1   6  -9   52.72    3.52
  -1   5  -9    1.82    1.11
  -1   4  -9   31.84    2.80
  -1   3  -9   11.06    1.56
  -1   3  -9    9.76    1.82
  -1   2  -9    5.09    1.26
  -1   2  -9    4.40    1.37
   1  -1   9    7.05    1.70
  -1   1  -9    6.11    1.41
  -1   1  -9    6.24    1.55
   1   0   9    0.30    0.88
  -1   0  -9    0.21    0.84
  -1   0  -9    0.67    0.88
   1   1   9    4.53    1.44
  -1  -1  -9    3.84    1.29
  -1  -1  -9    4.19    1.32
   1   2   9   94.12    4.58
  -1  -2  -9   84.59    4.20
  -1  -2  -9   91.87    4.50
   1   3   9   30.53    2.78
  -1  -3  -9   24.31    2.50
  -1  -3  -9   25.54    2.58
   1   4   9   16.24    2.45
  -1  -4  -9   18.64    2.61
  -1  -4  -9   16.98    2.44
   1   5   9   18.51    2.56
  -1  -5  -9   20.04    2.42
   1   6   9    0.25    0.86
   1   6   9    0.63    0.85
  -1  -6  -9   -0.70    0.77
   1   7   9   36.36    3.07
   1   7   9   40.65    3.29
  -1  -7  -9   36.45    3.20
   1   8   9    7.44    1.75
   1   8   9    6.04    1.70
  -1  -8  -9    8.96    2.04
   1   9   9   20.37    2.49
   1   9   9   22.81    2.70
  -1  -9  -9   25.88    2.93
   1  10   9   30.45    2.93
   1  10   9   31.60    3.17
  -1 -10  -9   33.96    3.36
   1  11   9    2.77    1.40
   1  11   9    4.27    1.65
   1  12   9    4.27    1.64
   1  12   9    6.05    1.80
   1  13   9    3.11    1.57
   1  14   9   13.32    2.62
   1  15   9    3.38    1.75
   1  16   9   13.69    2.82
  -1   8 -10   10.83    2.10
  -1   7 -10    8.99    2.02
  -1   7 -10   10.04    2.13
  -1   6 -10   -0.36    0.86
  -1   5 -10    2.51    1.32
  -1   4 -10   30.99    3.02
  -1   3 -10    6.86    1.37
  -1   3 -10    6.96    1.79
  -1   2 -10    3.12    1.17
  -1   2 -10    1.60    1.12
  -1   1 -10    0.05    0.82
  -1   1 -10   -0.91    0.71
   1   0  10   20.76    2.59
  -1   0 -10   19.72    2.32
  -1   0 -10   22.03    2.65
   1   1  10    0.68    1.07
  -1  -1 -10    0.77    0.99
  -1  -1 -10    1.38    1.15
   1   2  10   12.69    2.30
  -1  -2 -10   12.63    2.22
  -1  -2 -10   13.42    2.35
   1   3  10    0.28    0.87
  -1  -3 -10    0.13    0.91
  -1  -3 -10   -0.07    0.98
   1   4  10   23.96    2.75
  -1  -4 -10   29.23    2.96
   1   5  10   37.50    3.30
  -1  -5 -10   32.79    3.05
   1   6  10   37.49    3.33
  -1  -6 -10   43.61    3.60
   1   7  10   21.70    2.65
  -1  -7 -10   16.17    2.69
   1   8  10    2.21    1.32
   1   8  10    1.93    1.30
  -1  -8 -10    2.21    1.43
   1   9  10   -0.01    1.01
   1   9  10    0.26    1.04
  -1  -9 -10   -0.34    1.12
   1  10  10    6.98    1.88
   1  10  10    7.58    2.05
  -1 -10 -10    6.97    2.06
   1  11  10   11.81    2.60
  -1 -11 -10   11.27    2.59
   1  12  10    1.87    1.40
   1  13  10    0.84    1.27
   1  14  10   -0.45    1.32
   1  15  10   -0.36    1.22
   1  16  10   -0.26    1.15
  -1   7 -11   -0.39    1.04
  -1   7 -11    0.01    1.01
  -1   6 -11   -0.37    1.02
  -1   6 -11    0.58    1.16
  -1   5 -11    4.18    1.64
  -1   4 -11   30.24    3.21
  -1   3 -11    1.93    1.31
  -1   2 -11    0.57    0.91
  -1   2 -11   -0.07    0.96
  -1   1 -11   59.02    3.66
  -1   1 -11   53.12    4.08
   1   0  11  129.69    6.26
  -1   0 -11  116.64    5.21
  -1   0 -11  122.49    5.93
   1   1  11  209.07    7.66
  -1  -1 -11  208.51    7.06
  -1  -1 -11  222.50    7.88
   1   2  11    0.49    1.08
  -1  -2 -11    1.97    1.31
  -1  -2 -11    2.68    1.46
   1   3  11    0.43    1.04
  -1  -3 -11    0.02    1.00
  -1  -3 -11   -0.17    0.94
   1   4  11    5.42    1.84
  -1  -4 -11    6.93    1.92
   1   5  11   73.03    4.71
  -1  -5 -11   67.71    4.52
   1   6  11    4.93    1.71
  -1  -6 -11    4.49    1.66
   1   7  11   -0.68    0.86
  -1  -7 -11    0.92    1.17
   1   8  11    0.01    1.03
  -1  -8 -11    1.24    1.29
   1   9  11   15.68    2.87
  -1  -9 -11   20.62    3.32
   1  10  11    4.82    1.87
   1  10  11    4.57    1.86
  -1 -10 -11    3.75    1.86
   1  11  11   15.70    3.01
  -1 -11 -11   13.11    2.95
   1  12  11    0.58    1.19
   1  13  11    6.36    2.16
   1  14  11   -0.25    1.35
   1  15  11   10.02    2.69
  -1   6 -12   13.39    2.67
  -1   6 -12   12.30    2.55
  -1   5 -12    0.80    1.46
  -1   4 -12    4.34    1.81
  -1   3 -12   17.43    2.92
  -1   2 -12    2.06    1.23
  -1   2 -12    1.74    1.41
  -1   1 -12   10.48    2.07
  -1   1 -12   11.58    2.56
  -1   0 -12    7.47    1.89
  -1   0 -12    8.46    2.30
   1   1  12    1.02    1.30
  -1  -1 -12    0.64    1.14
  -1  -1 -12   -1.26    1.05
   1   2  12    2.01    1.52
  -1  -2 -12    2.31    1.40
  -1  -2 -12    3.83    1.76
   1   3  12    0.64    1.21
  -1  -3 -12    2.02    1.33
   1   4  12   71.20    4.95
  -1  -4 -12   76.87    4.95
   1   5  12    2.87    1.62
  -1  -5 -12    4.27    1.78
   1   6  12    7.93    2.35
  -1  -6 -12    7.05    2.15
   1   7  12   32.63    3.59
  -1  -7 -12   32.10    3.63
   1   8  12   -0.97    1.16
  -1  -8 -12   -0.39    1.17
   1   9  12    1.15    1.36
  -1  -9 -12   -0.78    1.17
   1  10  12   18.02    3.11
  -1 -10 -12   14.22    2.96
  -1 -11 -12    1.15    1.56
   1  13  12    1.72    1.60
   1  14  12    5.40    2.19
  -1   4 -13    7.01    2.30
  -1   3 -13    6.37    2.16
  -1   2 -13   21.91    3.64
  -1   1 -13    4.02    1.57
  -1   1 -13    6.81    2.27
  -1   0 -13    2.16    1.41
  -1   0 -13    4.14    1.91
  -1  -1 -13   27.82    3.23
  -1  -1 -13   22.68    3.47
   1   2  13    5.11    2.02
  -1  -2 -13    8.22    2.25
   1   3  13   33.71    3.90
  -1  -3 -13   35.41    3.70
   1   4  13   -0.38    1.08
  -1  -4 -13    0.28    1.20
   1   5  13   -0.45    1.14
  -1  -5 -13    0.29    1.32
   1   6  13    0.21    1.28
  -1  -6 -13    2.78    1.71
   1   7  13   -0.18    1.21
  -1  -7 -13    1.86    1.52
   1   8  13    1.34    1.39
  -1  -8 -13    0.50    1.31
   1   9  13    0.35    1.27
  -1  -9 -13    0.41    1.49
   1  10  13    1.03    1.37
  -1 -10 -13    0.15    1.37
  -1 -11 -13    2.74    1.91
  -1 -12 -13    1.72    1.80
  -1   2 -14   23.61    3.93
  -1   1 -14    1.06    1.32
  -1   1 -14    0.26    1.37
  -1   0 -14    2.32    1.58
  -1   0 -14    0.13    1.52
  -1  -1 -14    0.90    1.34
  -1  -1 -14    1.17    1.68
   1   2  14    5.11    2.13
  -1  -2 -14    7.63    2.27
   1   3  14   27.49    4.22
  -1  -3 -14   22.09    3.53
   1   4  14    0.14    1.31
  -1  -4 -14    1.33    1.59
   1   5  14    1.49    1.61
  -1  -5 -14    2.33    1.72
   1   6  14   12.13    2.86
  -1  -6 -14   11.54    2.83
   1   7  14    1.75    1.64
  -1  -7 -14    2.24    1.80
   1   8  14    8.78    2.56
  -1  -8 -14    8.09    2.53
   1   9  14   -0.21    1.22
  -1  -9 -14    2.08    1.81
  -1 -10 -14    0.23    1.51
  -1 -11 -14   -0.07    1.49
  -1 -12 -14   22.89    4.01
  -1   0 -15   -0.07    1.23
  -1   0 -15    0.87    1.78
  -1  -1 -15   -0.46    1.32
  -1  -2 -15    0.71    1.44
   1   3  15    8.69    2.69
  -1  -3 -15   10.09    2.68
   1   4  15    1.19    1.61
  -1  -4 -15    1.64    1.72
   1   5  15   10.17    2.95
  -1  -5 -15    9.93    2.70
   1   6  15    4.58    2.15
  -1  -6 -15    5.03    2.26
   1   7  15   14.14    3.19
  -1  -7 -15   16.80    3.56
   1   8  15   -0.82    1.31
  -1  -8 -15    0.00    1.54
  -1  -9 -15    1.89    1.89
  -1 -10 -15   -0.77    1.58
  -1 -11 -15    4.73    2.34
  -1  -4 -16    0.47    1.54
  -1  -5 -16   -0.40    1.37
  -1  -6 -16    4.91    2.27
  -1  -7 -16    0.78    1.74
  -1  -8 -16   -0.36    1.63
   2  -6 -15   32.22    4.66
   2  -5 -15    6.58    2.47
   2 -11 -14   21.16    4.21
   2 -10 -14   10.24    3.00
   2  -9 -14    4.24    2.36
   2  -8 -14    1.40    1.77
   2  -7 -14   12.38    2.96
   2  -6 -14   77.39    5.96
   2  -5 -14    2.67    1.98
   2  -4 -14    7.48    2.48
   2  -3 -14    7.37    2.45
   2  -2 -14   34.95    4.11
   2  -1 -14    7.87    2.49
   2 -12 -13    1.32    1.85
   2 -11 -13   23.63    4.16
   2 -10 -13    0.95    1.62
   2  -9 -13    5.25    2.42
   2  -8 -13   40.67    4.52
   2  -7 -13   11.44    2.86
   2  -6 -13    1.66    1.58
   2  -5 -13    2.75    1.73
   2  -4 -13    0.06    1.28
   2  -3 -13    6.96    2.23
   2  -2 -13    0.26    1.38
   2  -1 -13    6.46    2.19
   2   0 -13    1.48    1.42
   2   1 -13    8.26    2.25
   2   1 -13    5.41    2.11
   2   2 -13    6.49    2.32
   2 -11 -12    4.30    2.07
   2 -10 -12   10.52    2.73
   2  -9 -12    0.08    1.31
   2  -8 -12   19.05    3.36
   2  -7 -12    7.99    2.49
   2  -6 -12   16.53    3.20
   2  -5 -12    5.77    2.20
   2  -4 -12   31.21    3.63
   2  -3 -12    3.35    1.71
   2  -2 -12    0.11    1.23
   2  -1 -12   19.25    3.13
   2   0 -12    1.89    1.42
   2   0 -12    1.44    1.77
   2   0 -12    1.27    1.54
   2   1 -12   13.02    2.54
   2   1 -12   16.43    3.27
   2   1 -12   14.76    3.05
   2   2 -12    0.44    1.19
   2   2 -12    0.07    1.24
   2   3 -12   21.66    3.57
   2   4 -12    1.32    1.49
  -2  14  11   64.65    4.47
  -2  14  11   56.16    5.16
  -2  13  11    0.31    1.34
  -2  12  11    4.59    1.99
   2 -11 -11    2.56    1.82
   2 -10 -11   16.31    3.18
   2  -9 -11   80.34    5.52
   2  -8 -11   19.78    3.24
   2  -7 -11    4.24    1.85
   2  -6 -11    2.48    1.70
   2  -5 -11   49.52    4.24
   2  -4 -11   21.49    3.14
   2  -3 -11   10.65    2.35
   2  -2 -11    1.12    1.24
   2  -1 -11  116.56    5.82
   2  -1 -11  125.05    6.51
   2  -1 -11  115.64    6.29
   2   0 -11   13.05    2.52
   2   0 -11   11.18    2.52
   2   0 -11   13.20    2.70
   2   1 -11   -0.25    0.93
   2   1 -11    0.69    1.31
   2   1 -11    0.96    1.29
   2   2 -11   30.93    3.05
   2   2 -11   32.11    3.67
   2   3 -11    4.59    1.86
   2   4 -11    4.53    1.83
   2   5 -11   10.21    2.47
  -2  15  10    8.54    2.40
  -2  14  10   -0.39    1.21
  -2  13  10    0.34    1.16
  -2  12  10    3.76    1.83
  -2  11  10   17.29    2.96
   2 -10 -10   -0.90    1.00
  -2  10  10   -0.51    0.93
   2  -9 -10   16.76    3.05
  -2   9  10   13.40    2.70
   2  -8 -10   14.25    2.76
   2  -7 -10    0.23    1.14
   2  -6 -10   59.07    4.38
   2  -5 -10    7.00    1.99
   2  -4 -10   13.08    2.52
   2  -3 -10    6.41    1.86
   2  -2 -10   44.94    3.67
   2  -2 -10   43.48    3.83
   2  -2 -10   44.15    3.85
   2  -1 -10   26.15    2.96
   2  -1 -10   29.16    3.28
   2  -1 -10   26.83    3.20
   2   0 -10    1.40    1.17
   2   0 -10    3.97    1.66
   2   0 -10    1.78    1.36
   2   1 -10   12.66    2.23
   2   1 -10   13.34    2.53
   2   1 -10   14.75    2.68
   2   2 -10    6.80    1.77
   2   2 -10    7.58    2.12
   2   2 -10    5.96    1.87
   2   3 -10    6.88    1.67
   2   3 -10    9.48    2.21
   2   4 -10    0.70    1.29
   2   5 -10    3.85    1.73
   2   6 -10    1.43    1.29
   2   7 -10   13.48    2.58
  -2  15   9   31.45    3.66
  -2  14   9    0.74    1.28
  -2  13   9    9.90    1.99
  -2  13   9    9.33    2.41
  -2  12   9   14.21    2.90
  -2  11   9   25.72    3.17
   2 -10  -9    0.28    1.20
  -2  10   9    0.33    0.96
   2  -9  -9   15.80    2.68
  -2   9   9   12.94    2.42
   2  -8  -9   42.51    3.73
  -2   8   9   42.36    3.68
   2  -7  -9   12.76    2.53
  -2   7   9   10.11    2.10
   2  -6  -9   -0.27    0.98
   2  -5  -9   76.64    4.60
   2  -4  -9    5.05    1.66
   2  -3  -9   -0.17    0.99
   2  -3  -9    0.39    0.98
   2  -2  -9  181.07    6.58
   2  -2  -9  196.72    7.11
   2  -1  -9  144.93    5.81
   2  -1  -9  153.39    6.33
   2  -1  -9  147.99    6.20
   2   0  -9   -0.20    0.84
   2   0  -9    0.02    0.98
   2   0  -9   -0.71    0.85
   2   1  -9   31.17    2.85
   2   1  -9   34.07    3.28
   2   1  -9   31.96    3.19
   2   2  -9    4.52    1.44
   2   2  -9    6.18    1.78
   2   2  -9    4.45    1.63
   2   3  -9   11.15    1.88
   2   3  -9   11.26    2.31
   2   3  -9    9.84    2.07
   2   4  -9    4.47    1.62
   2   5  -9   24.61    2.94
   2   6  -9    1.81    1.24
   2   7  -9   46.53    3.84
   2   8  -9    0.43    1.14
  -2  16   8    8.95    2.30
  -2  15   8    7.19    2.17
  -2  14   8    1.83    1.37
  -2  13   8   20.31    3.12
  -2  12   8   26.21    2.60
  -2  12   8   24.40    3.00
  -2  12   8   28.89    2.90
  -2  11   8    2.74    1.42
  -2  11   8    1.15    1.12
  -2  10   8   44.44    3.66
  -2  10   8   52.97    3.77
   2  -9  -8    0.66    1.12
  -2   9   8    1.27    1.13
  -2   9   8    0.86    1.00
   2  -8  -8    0.42    1.04
  -2   8   8    0.53    1.03
   2  -7  -8   27.11    2.86
  -2   7   8   31.34    3.02
   2  -6  -8    5.00    1.56
  -2   6   8    4.65    1.45
   2  -5  -8    0.35    0.89
  -2   5   8    0.94    1.05
   2  -4  -8    2.69    1.27
   2  -3  -8   30.08    2.79
   2  -2  -8    4.00    1.36
   2  -2  -8    4.42    1.37
   2  -1  -8    2.59    1.19
   2  -1  -8    1.78    1.16
   2   0  -8    3.80    1.31
   2   0  -8    6.30    1.72
   2   1  -8   83.89    4.07
   2   1  -8   86.19    4.55
   2   1  -8   84.86    4.51
   2   2  -8   89.03    4.08
   2   2  -8   86.67    4.59
   2   2  -8   87.61    4.59
   2   3  -8   28.16    2.39
   2   3  -8   32.06    3.04
   2   3  -8   28.09    2.82
   2   4  -8    0.11    0.70
   2   4  -8   -0.38    0.80
   2   5  -8    2.60    1.26
   2   6  -8    3.19    1.33
   2   7  -8    9.07    2.02
   2   8  -8   13.40    2.38
   2   9  -8    0.00    0.97
  -2  16   7   13.92    2.60
  -2  15   7    0.73    1.12
  -2  14   7    0.00    0.95
  -2  13   7   35.27    3.35
  -2  12   7    3.54    1.18
  -2  12   7    3.56    1.38
  -2  12   7    3.79    1.34
  -2  11   7    0.76    1.00
  -2  11   7   -0.41    0.71
  -2  10   7    6.97    1.78
  -2  10   7    7.36    1.73
   2  -9  -7    1.80    1.18
  -2   9   7    1.80    1.12
  -2   9   7    2.19    1.12
   2  -8  -7   32.05    2.88
  -2   8   7   27.10    2.69
  -2   8   7   34.90    2.91
   2  -7  -7    1.81    1.13
  -2   7   7    2.36    1.07
  -2   7   7    3.20    1.30
   2  -6  -7   80.45    4.18
  -2   6   7   82.25    4.22
  -2   6   7   84.10    4.27
   2  -5  -7  159.48    5.69
  -2   5   7  163.77    5.75
  -2   5   7  181.93    6.14
   2  -4  -7    5.96    1.54
   2  -4  -7    5.63    1.48
  -2   4   7    5.48    1.45
  -2   4   7    4.76    1.39
   2  -3  -7  242.55    6.77
   2  -3  -7  258.75    7.03
  -2   3   7  267.04    7.30
   2  -2  -7   22.69    2.27
   2  -2  -7   25.60    2.42
   2  -2  -7   25.98    2.48
  -2   2   7   27.63    2.55
   2  -1  -7   59.01    3.38
   2  -1  -7   59.10    3.48
   2  -1  -7   55.51    3.39
   2   0  -7   44.12    2.90
   2   0  -7   44.91    3.13
   2   0  -7   46.08    3.09
   2   1  -7   99.63    4.15
   2   1  -7  107.16    4.65
   2   1  -7  111.78    4.76
   2   1  -7  110.50    4.65
   2   2  -7   42.47    2.74
   2   2  -7   52.53    3.39
   2   2  -7   46.26    3.19
   2   2  -7   52.22    3.25
   2   3  -7  103.91    3.96
   2   3  -7  108.25    4.76
   2   3  -7  104.79    4.68
   2   3  -7  111.01    4.54
   2   4  -7   25.72    1.98
   2   4  -7   22.45    2.42
   2   4  -7   23.00    2.24
   2   5  -7   43.11    3.18
   2   5  -7   51.33    3.01
   2   6  -7    0.76    0.93
   2   6  -7    1.70    0.84
   2   7  -7    9.28    1.85
   2   8  -7    0.51    0.91
   2   9  -7    1.40    0.99
   2  10  -7    6.75    1.69
  -2  16   6    5.12    1.66
  -2  15   6    8.16    1.97
  -2  14   6   -0.26    0.84
  -2  13   6    4.26    1.45
  -2  12   6   -0.19    0.73
  -2  12   6    0.08    0.69
  -2  11   6   13.11    1.60
  -2  11   6   15.40    2.38
  -2  11   6   17.37    2.04
  -2  10   6   26.61    2.42
   2  -9  -6    4.60    1.46
  -2   9   6    2.68    1.13
  -2   9   6    3.83    1.20
   2  -8  -6    0.53    0.87
  -2   8   6    0.08    0.71
  -2   8   6   -0.27    0.63
   2  -7  -6    6.27    1.53
  -2   7   6    4.76    1.25
  -2   7   6    4.37    1.21
   2  -6  -6    9.20    1.77
   2  -6  -6    7.43    1.49
  -2   6   6   10.47    1.85
  -2   6   6    9.83    1.77
   2  -5  -6  287.84    7.07
   2  -5  -6  301.10    7.30
  -2   5   6  303.05    7.23
  -2   5   6  325.15    7.56
   2  -4  -6    4.97    1.29
   2  -4  -6    2.95    0.99
   2  -4  -6    4.16    1.11
   2  -4  -6    5.08    1.37
  -2   4   6    4.40    1.19
  -2   4   6    4.12    1.22
   2  -3  -6  107.27    4.27
   2  -3  -6  112.89    4.35
   2  -3  -6  107.28    4.35
  -2   3   6  105.46    4.22
   2  -2  -6    1.69    0.93
   2  -2  -6    4.36    1.21
   2  -2  -6    2.90    0.95
  -2   2   6    4.84    1.20
   2  -1  -6   42.43    2.71
   2  -1  -6   44.73    2.83
   2  -1  -6   40.58    2.74
  -2   1   6   40.17    2.75
   2   0  -6   79.72    3.55
   2   0  -6   82.50    3.77
   2   0  -6   83.14    3.79
  -2   0   6   80.04    3.77
   2   1  -6   29.55    2.25
   2   1  -6   28.77    2.36
   2   1  -6   32.32    2.47
   2   1  -6   29.80    2.38
  -2  -1   6   30.89    2.45
   2   2  -6   62.17    3.04
   2   2  -6   64.12    3.40
   2   2  -6   61.26    3.33
   2   2  -6   69.01    3.43
  -2  -2   6   66.45    3.45
   2   3  -6   75.39    3.19
   2   3  -6   86.55    3.96
   2   3  -6   80.94    3.82
   2   3  -6   84.55    3.72
   2   4  -6   28.50    1.92
   2   4  -6   26.90    2.37
   2   4  -6   27.94    2.24
   2   5  -6   19.95    2.13
   2   5  -6   19.74    1.89
   2   6  -6   12.08    1.88
   2   6  -6   13.34    1.52
   2   7  -6    9.37    1.70
   2   7  -6   11.27    1.30
   2   8  -6   12.49    1.98
   2   9  -6   21.39    2.31
   2  10  -6    4.31    1.38
   2  11  -6   -0.13    0.76
  -2  16   5    4.43    1.51
  -2  15   5    8.36    1.79
  -2  14   5    3.05    1.20
  -2  13   5   -0.16    0.74
  -2  12   5    0.64    0.88
  -2  12   5    1.00    0.71
  -2  11   5    2.57    1.08
  -2  11   5    3.96    1.12
  -2  10   5   10.24    1.40
  -2  10   5   10.14    1.77
  -2  10   5   11.19    1.69
  -2   9   5    3.04    1.06
  -2   9   5    3.13    1.07
   2  -8  -5   15.66    2.12
  -2   8   5   13.16    1.87
  -2   8   5   15.14    1.74
   2  -7  -5   30.70    2.39
  -2   7   5   30.39    2.34
  -2   7   5   29.47    2.26
   2  -6  -5   33.90    2.43
   2  -6  -5   30.38    2.32
  -2   6   5   32.83    2.39
  -2   6   5   29.40    2.27
   2  -5  -5    8.11    1.47
   2  -5  -5   10.98    1.77
  -2   5   5    9.82    1.60
  -2   5   5    9.72    1.59
   2  -4  -5   90.52    3.69
   2  -4  -5   88.51    3.69
  -2   4   5   94.48    3.75
  -2   4   5   93.11    3.77
   2  -3  -5   28.81    2.13
   2  -3  -5   26.15    2.04
   2  -3  -5   28.56    2.18
  -2   3   5   27.57    2.11
  -2   3   5   27.52    2.14
   2  -2  -5    8.60    1.39
   2  -2  -5   13.53    1.60
   2  -2  -5   14.44    1.63
  -2   2   5   11.02    1.50
   2  -1  -5   10.11    1.52
   2  -1  -5   11.17    1.63
   2  -1  -5    9.30    1.40
  -2   1   5   13.28    1.61
   2   0  -5   95.01    3.58
   2   0  -5   93.79    3.68
   2   0  -5   96.11    3.75
  -2   0   5   95.88    3.78
   2   1  -5    6.18    1.18
   2   1  -5    7.73    1.36
   2   1  -5    7.01    1.28
   2   1  -5    7.60    1.35
  -2  -1   5    6.58    1.29
   2   2  -5   12.25    1.42
   2   2  -5   10.41    1.59
   2   2  -5   11.53    1.64
   2   2  -5   12.53    1.68
  -2  -2   5   12.57    1.56
   2   3  -5   86.40    3.15
   2   3  -5   83.65    3.56
   2   3  -5   82.57    3.53
   2   3  -5   92.25    3.58
  -2  -3   5   93.79    3.75
   2   4  -5    4.20    0.90
   2   4  -5    2.77    0.97
   2   4  -5    4.72    1.08
   2   5  -5    4.56    0.79
   2   5  -5    3.80    1.07
   2   5  -5    5.10    1.10
   2   6  -5    3.02    1.04
   2   6  -5    6.18    1.12
   2   7  -5    4.29    1.14
   2   7  -5    4.96    0.89
   2   8  -5    0.80    0.79
   2   9  -5   28.15    2.38
   2  10  -5    2.09    1.04
   2  11  -5    4.14    1.30
   2  12  -5    6.99    1.51
  -2  16   4    6.36    1.54
  -2  15   4    4.12    1.34
  -2  14   4   17.77    2.11
  -2  13   4   37.61    2.78
  -2  12   4   91.90    4.03
  -2  11   4   49.12    2.97
  -2  11   4   57.23    2.53
  -2  11   4   53.30    2.40
  -2  10   4   20.23    1.98
  -2  10   4   18.01    1.63
  -2   9   4   10.73    1.15
  -2   9   4   10.93    1.63
  -2   9   4    9.11    1.39
   2  -8  -4  230.75    5.74
  -2   8   4  212.41    4.60
  -2   8   4  210.85    5.45
  -2   8   4  225.34    5.31
   2  -7  -4  163.43    4.73
  -2   7   4  146.94    4.47
  -2   7   4  170.78    4.66
   2  -6  -4  145.05    4.38
   2  -6  -4  153.75    4.50
  -2   6   4  139.62    4.28
  -2   6   4  148.36    4.35
   2  -5  -4  176.61    4.72
   2  -5  -4  180.52    4.81
  -2   5   4  179.28    4.75
  -2   5   4  180.17    4.77
   2  -4  -4   36.54    2.22
   2  -4  -4   43.82    2.43
  -2   4   4   38.05    2.26
  -2   4   4   41.62    2.38
   2  -3  -4   19.27    1.69
   2  -3  -4   22.07    1.80
  -2   3   4   23.34    1.82
  -2   3   4   24.34    1.88
   2  -2  -4  187.41    4.69
   2  -2  -4  194.54    4.74
   2  -2  -4  194.31    4.74
   2  -2  -4  187.47    4.78
  -2   2   4  197.73    4.78
   2  -1  -4   12.72    1.42
   2  -1  -4   12.66    1.41
   2  -1  -4   13.43    1.43
   2  -1  -4   12.42    1.42
  -2   1   4   16.12    1.58
   2   0  -4   68.78    2.83
   2   0  -4   72.26    2.96
   2   0  -4   72.37    2.96
   2   0  -4   70.91    2.98
  -2   0   4   80.35    3.18
   2   1  -4  217.35    4.83
   2   1  -4  231.25    5.21
   2   1  -4  220.35    5.09
   2   1  -4  231.56    5.24
  -2  -1   4  232.33    5.30
   2   2  -4    3.48    0.86
   2   2  -4    4.43    1.04
   2   2  -4    2.75    0.81
   2   2  -4    3.94    0.92
  -2  -2   4    3.43    0.89
   2   3  -4  202.09    4.37
   2   3  -4  192.16    4.84
   2   3  -4  215.44    4.97
  -2  -3   4  211.59    5.10
   2   4  -4   18.15    1.34
   2   4  -4   18.90    1.70
   2   4  -4   19.87    1.64
   2   5  -4   38.77    1.54
   2   5  -4   38.58    2.35
   2   5  -4   40.49    2.15
   2   6  -4  232.72    5.57
   2   6  -4  236.92    4.67
   2   7  -4    3.47    0.99
   2   7  -4    5.39    0.86
   2   8  -4   16.54    1.78
   2   9  -4   12.51    1.73
   2  10  -4    0.19    0.70
   2  11  -4    7.45    1.43
   2  12  -4    2.25    0.97
   2  13  -4    7.32    1.40
  -2  16   3    7.48    1.48
  -2  15   3    1.13    0.91
  -2  14   3   19.98    2.03
  -2  13   3   24.49    2.14
  -2  12   3    1.91    0.91
  -2  11   3   15.63    1.70
  -2  10   3  114.89    3.92
  -2  10   3  120.73    3.08
  -2  10   3  119.23    2.99
  -2   9   3    1.22    0.67
  -2   9   3    1.45    0.61
  -2   8   3    0.18    0.38
  -2   8   3    0.04    0.42
  -2   8   3    0.51    0.54
  -2   8   3    0.60    0.52
   2  -7  -3   86.23    3.15
  -2   7   3   85.29    2.59
  -2   7   3   78.83    3.00
  -2   7   3   86.37    2.98
   2  -6  -3   16.75    1.51
  -2   6   3   15.05    1.42
  -2   6   3   17.65    1.48
   2  -5  -3   21.76    1.63
   2  -5  -3   18.09    1.52
  -2   5   3   19.27    1.55
  -2   5   3   21.10    1.60
   2  -4  -3  105.94    3.28
   2  -4  -3  113.46    3.44
  -2   4   3  104.56    3.25
  -2   4   3  113.54    3.42
   2  -3  -3  101.32    3.18
   2  -3  -3  103.16    3.25
  -2   3   3  106.02    3.24
  -2   3   3  109.37    3.34
   2  -2  -3   32.14    1.86
   2  -2  -3   33.84    1.94
  -2   2   3   32.91    1.87
  -2   2   3   32.00    1.87
   2  -1  -3  231.63    4.66
   2  -1  -3  248.43    4.83
   2  -1  -3  238.79    4.73
   2  -1  -3  236.62    4.83
   2   0  -3   48.41    2.19
   2   0  -3   51.77    2.31
   2   0  -3   46.78    2.19
   2   0  -3   49.16    2.29
  -2   0   3   47.12    2.24
   2   1  -3  123.67    3.35
   2   1  -3  118.98    3.42
   2   1  -3  115.93    3.36
   2   1  -3  125.30    3.54
  -2  -1   3  123.84    3.54
   2   2  -3  269.51    4.79
   2   2  -3  268.84    5.11
   2   2  -3  283.18    5.25
  -2  -2   3  285.36    5.35
   2   3  -3   87.16    2.67
   2   3  -3   82.02    2.91
   2   3  -3   90.46    2.99
  -2  -3   3   90.38    3.09
   2   4  -3  132.46    3.01
   2   4  -3  125.63    3.61
   2   4  -3  119.31    3.54
   2   4  -3  135.98    3.59
  -2  -4   3  130.07    3.76
   2   5  -3    4.38    0.61
   2   5  -3    3.44    0.82
   2   5  -3    4.56    0.96
   2   5  -3    3.86    0.84
   2   6  -3   17.67    1.57
   2   6  -3   19.42    1.37
   2   7  -3   17.38    1.61
   2   8  -3   13.87    1.54
   2   9  -3    1.39    0.73
   2  10  -3    0.60    0.71
   2  11  -3    3.93    1.10
   2  12  -3   11.70    1.62
   2  13  -3    0.19    0.63
  -2  16   2    2.80    0.92
  -2  15   2    5.68    1.19
  -2  14   2   12.45    1.55
  -2  13   2    2.41    0.89
  -2  12   2    0.08    0.58
  -2  11   2    8.44    1.29
  -2  10   2   -0.26    0.47
  -2   9   2   53.80    2.36
  -2   9   2   47.03    2.23
  -2   8   2    2.83    0.73
  -2   8   2    3.43    0.79
  -2   8   2    3.39    0.65
  -2   7   2   46.37    1.22
  -2   7   2   47.21    2.08
  -2   7   2   43.91    2.03
  -2   7   2   47.58    1.89
  -2   6   2   64.09    1.89
  -2   6   2   67.30    2.39
  -2   6   2   58.96    2.26
  -2   6   2   63.58    2.23
   2  -5  -2  167.94    3.72
  -2   5   2  167.13    3.27
  -2   5   2  165.04    3.64
  -2   5   2  180.16    3.73
   2  -4  -2  453.52    5.99
  -2   4   2  434.49    5.44
  -2   4   2  422.88    5.69
  -2   4   2  447.62    5.87
   2  -3  -2   15.06    1.21
   2  -3  -2   14.58    1.22
  -2   3   2   15.28    1.22
  -2   3   2   14.28    1.22
   2  -2  -2  321.79    4.90
   2  -2  -2  337.25    5.12
  -2   2   2  314.54    4.83
  -2   2   2  343.20    5.16
   2  -1  -2  416.77    5.53
   2  -1  -2  409.18    5.63
   2   0  -2    0.95    0.54
   2   0  -2    1.02    0.51
   2   0  -2    1.21    0.54
  -2   0   2    1.85    0.64
   2   1  -2   23.84    1.44
   2   1  -2   24.11    1.47
   2   1  -2   25.20    1.53
  -2  -1   2   28.68    1.62
   2   2  -2  372.05    5.09
   2   2  -2  373.47    5.40
   2   2  -2  381.42    5.50
  -2  -2   2  396.96    5.69
   2   3  -2   57.58    2.00
   2   3  -2   55.07    2.18
   2   3  -2   59.39    2.24
  -2  -3   2   59.93    2.32
   2   4  -2   13.90    0.99
   2   4  -2   14.46    1.29
   2   4  -2   14.30    1.23
   2   4  -2   14.65    1.22
  -2  -4   2   14.02    1.25
   2   5  -2    0.04    0.26
   2   5  -2    0.07    0.38
   2   5  -2    0.38    0.48
   2   5  -2    0.22    0.40
   2   6  -2    3.36    0.78
   2   6  -2    3.19    0.78
   2   6  -2    4.16    0.76
   2   7  -2   20.67    1.59
   2   7  -2   19.66    1.56
   2   8  -2   12.65    1.37
   2   9  -2   23.97    1.84
   2  10  -2    0.03    0.58
   2  11  -2   11.45    1.57
   2  12  -2   -0.32    0.63
   2  13  -2   16.13    1.72
   2  14  -2   69.80    3.03
  -2  15   1    0.98    0.61
  -2  14   1    2.17    0.76
  -2  13   1    1.15    0.64
  -2  12   1   -0.47    0.44
  -2  11   1    0.97    0.57
  -2  11   1    0.75    0.54
  -2  10   1  118.07    3.11
  -2  10   1  108.04    3.00
  -2   9   1   94.07    2.68
  -2   9   1   94.59    2.70
  -2   8   1    6.82    0.85
  -2   8   1    6.82    0.90
  -2   7   1   23.90    1.31
  -2   7   1   24.71    1.34
  -2   6   1  192.57    3.41
  -2   6   1  185.52    3.37
  -2   6   1  191.26    2.95
   2  -5  -1  259.44    3.93
  -2   5   1  261.47    2.75
  -2   5   1  269.23    3.92
  -2   5   1  252.47    3.83
  -2   5   1  265.08    3.89
  -2   5   1  272.86    3.75
   2  -4  -1    3.43    0.67
  -2   4   1    2.51    0.50
  -2   4   1    2.55    0.55
  -2   4   1    3.07    0.61
   2  -3  -1   40.84    1.62
  -2   3   1   41.42    1.52
  -2   3   1   40.85    1.58
  -2   3   1   43.13    1.64
   2  -2  -1    3.45    0.68
  -2   2   1    2.52    0.59
  -2   2   1    1.68    0.49
  -2   2   1    2.43    0.56
   2  -1  -1  139.37    2.92
  -2   1   1  136.23    2.81
   2   0  -1  655.08    6.13
   2   0  -1  636.22    6.22
  -2   0   1  642.24    6.10
   2   1  -1   -0.07    0.37
   2   1  -1    0.30    0.37
   2   1  -1   -0.19    0.36
  -2  -1   1   -0.22    0.38
   2   2  -1    9.25    0.91
   2   2  -1    9.52    0.93
   2   2  -1   10.61    1.01
  -2  -2   1    9.79    0.99
   2   3  -1  305.03    4.10
   2   3  -1  295.20    4.44
   2   3  -1  322.34    4.64
  -2  -3   1  306.44    4.63
   2   4  -1   22.05    1.12
   2   4  -1   21.19    1.33
   2   4  -1   21.12    1.31
  -2  -4   1   22.06    1.40
   2   5  -1   10.15    0.68
   2   5  -1    9.86    1.00
   2   5  -1    9.37    1.00
   2   5  -1    8.98    0.95
   2   6  -1   78.20    2.58
   2   6  -1   74.02    2.53
   2   6  -1   81.01    2.28
   2   7  -1   57.04    2.33
   2   7  -1   53.44    2.26
   2   8  -1   57.58    2.45
   2   8  -1   59.66    2.50
   2   9  -1    0.32    0.53
   2  10  -1   16.76    1.60
   2  11  -1    5.67    1.14
   2  12  -1    0.18    0.65
   2  13  -1   -0.32    0.58
   2  14  -1    0.37    0.65
  -2  13   0    3.94    0.70
  -2  12   0   16.78    1.16
  -2  12   0   16.26    1.17
  -2  11   0    4.77    0.74
  -2  11   0    4.12    0.72
  -2  10   0  151.37    2.92
  -2  10   0  147.78    2.91
  -2   9   0  277.03    3.74
  -2   9   0  270.70    3.73
  -2   8   0  103.60    2.19
  -2   8   0  104.40    2.22
  -2   7   0    1.29    0.38
  -2   7   0    2.00    0.42
  -2   7   0    1.61    0.40
  -2   6   0   73.38    1.70
  -2   6   0   73.07    1.69
  -2   5   0  335.96    3.50
  -2   5   0  348.23    3.54
   2  -4   0   42.53    1.36
  -2   4   0   40.46    1.26
  -2   4   0   39.75    1.24
  -2   4   0   44.42    1.23
   2  -3   0   40.89    1.36
  -2   3   0   44.19    1.14
  -2   3   0   42.73    1.32
  -2   3   0   45.76    1.37
   2  -2   0  266.38    3.39
  -2   2   0  260.25    3.09
  -2   2   0  258.52    3.23
  -2   2   0  263.74    3.33
   2  -1   0 1320.82    7.72
  -2   1   0 1232.96    8.18
   2   0   0  200.77    3.14
   2   1   0  172.64    2.94
   2   1   0  167.02    2.98
  -2  -1   0  174.69    3.06
   2   2   0    0.09    0.35
   2   2   0    0.11    0.33
   2   2   0    0.15    0.36
  -2  -2   0    0.34    0.36
   2   3   0   13.35    0.94
   2   3   0   13.42    1.01
   2   3   0   14.84    1.07
  -2  -3   0   14.80    1.08
   2   4   0   75.86    1.94
   2   4   0   78.30    2.28
   2   4   0   84.53    2.34
  -2  -4   0   83.31    2.41
   2   5   0  262.75    3.18
   2   5   0  255.69    4.21
   2   5   0  246.51    4.17
   2   5   0  271.42    4.14
  -2  -5   0  277.65    4.48
   2   6   0  331.47    5.04
   2   6   0  306.40    4.88
   2   6   0  342.48    4.59
   2   7   0    5.42    0.87
   2   7   0    6.04    0.95
   2   7   0    6.52    0.81
   2   8   0    0.85    0.53
   2   8   0    0.38    0.49
   2   9   0  185.87    4.40
   2  10   0  100.53    3.42
   2  11   0   13.39    1.53
   2  12   0   -0.05    0.57
   2  13   0   26.62    2.08
   2  14   0    0.61    0.76
   2  15   0    0.73    0.75
  -2   4  -1   77.18    1.29
  -2   4  -1   77.78    1.28
   2  -3   1  268.33    2.86
  -2   3  -1  260.45    2.60
  -2   3  -1  265.89    2.60
   2  -2   1  565.18    4.42
  -2   2  -1  587.11    4.28
  -2   2  -1  576.56    4.31
   2  -1   1  181.85    2.70
  -2   1  -1  176.23    2.72
  -2   1  -1  171.44    2.60
   2   0   1  384.87    4.13
   2   1   1  184.49    3.05
  -2  -1  -1  197.66    3.23
   2   2   1   38.38    1.49
   2   2   1   43.92    1.59
   2   2   1   40.27    1.57
  -2  -2  -1   42.76    1.61
   2   3   1   82.97    2.14
   2   3   1   85.50    2.27
   2   3   1   85.78    2.32
  -2  -3  -1   88.87    2.38
   2   4   1    8.37    0.81
   2   4   1    8.36    0.88
   2   4   1   10.11    0.97
  -2  -4  -1    9.95    0.98
   2   5   1   40.36    1.47
   2   5   1   37.64    1.72
   2   5   1   39.79    1.72
  -2  -5  -1   43.80    1.88
   2   6   1   19.13    0.95
   2   6   1   18.56    1.29
   2   6   1   18.01    1.31
   2   6   1   18.91    1.27
  -2  -6  -1   19.62    1.39
   2   7   1  384.79    5.76
   2   7   1  369.81    5.68
   2   7   1  391.85    5.09
   2   8   1   19.52    1.50
   2   8   1   17.51    1.44
   2   8   1   19.38    1.20
   2   8   1   18.39    1.15
   2   9   1    0.71    0.57
   2  10   1  233.51    5.22
   2  11   1   81.27    3.27
   2  12   1   54.88    2.83
   2  13   1    7.57    1.38
   2  14   1    1.59    0.93
   2  15   1    0.58    0.79
  -2   4  -2  144.11    1.81
  -2   4  -2  147.44    1.81
   2  -3   2    4.34    0.52
  -2   3  -2    3.94    0.46
  -2   3  -2    4.88    0.48
   2  -2   2  543.86    4.58
  -2   2  -2  517.84    4.27
   2  -1   2   41.40    1.43
  -2   1  -2   38.02    1.26
  -2   1  -2   39.04    1.34
   2   0   2  160.90    2.87
  -2   0  -2  159.64    2.75
  -2   0  -2  160.81    2.86
   2   1   2   12.77    0.99
  -2  -1  -2   12.40    0.95
   2   2   2 1366.54    8.85
   2   2   2 1448.19    9.43
  -2  -2  -2 1369.69    9.19
   2   3   2   31.43    1.48
   2   3   2   27.89    1.44
   2   3   2   28.69    1.48
  -2  -3  -2   30.05    1.53
   2   4   2  347.49    4.71
   2   4   2  333.93    4.89
   2   4   2  364.81    5.15
  -2  -4  -2  346.31    5.09
   2   5   2  206.72    3.64
   2   5   2  196.89    3.96
   2   5   2  195.30    3.90
  -2  -5  -2  212.78    4.18
   2   6   2  665.28    6.28
   2   6   2  655.60    7.51
   2   6   2  666.88    7.28
  -2  -6  -2  674.20    7.69
   2   7   2  134.63    2.58
   2   7   2  135.24    3.60
   2   7   2  129.01    3.55
   2   7   2  139.09    3.40
   2   7   2  134.49    3.33
   2   8   2   36.71    2.04
   2   8   2   35.32    2.03
   2   8   2   38.24    1.83
   2   8   2   36.23    1.78
   2   9   2   50.39    2.49
   2   9   2   50.24    1.99
   2   9   2   49.30    1.95
   2  10   2  240.10    5.49
   2  11   2   63.47    3.02
   2  12   2    5.39    1.22
   2  13   2   -0.12    0.64
   2  14   2    0.01    0.71
   2  15   2   -0.33    0.76
  -2   6  -3   15.39    0.78
  -2   6  -3   15.06    0.77
  -2   5  -3    2.80    0.45
  -2   5  -3    2.59    0.42
  -2   4  -3   17.79    0.92
  -2   4  -3   17.25    0.90
   2  -3   3  161.32    2.80
  -2   3  -3  141.11    2.53
  -2   3  -3  146.62    2.56
  -2   2  -3   49.60    1.36
  -2   2  -3   51.90    1.66
  -2   1  -3    0.59    0.40
  -2   1  -3    0.78    0.37
  -2   0  -3  111.83    2.59
  -2   0  -3  116.25    2.69
   2   1   3 1132.32    8.60
   2   1   3 1062.49    8.54
  -2  -1  -3 1081.90    8.36
   2   2   3 4437.19   27.76
   2   2   3 4244.20   28.70
  -2  -2  -3 4147.78   22.16
   2   3   3   55.88    2.15
   2   3   3   54.07    2.16
  -2  -3  -3   58.69    2.23
   2   4   3   11.18    1.10
   2   4   3   10.51    1.11
   2   4   3    9.35    1.08
  -2  -4  -3    9.62    1.12
   2   5   3  306.24    4.96
   2   5   3  299.95    5.23
   2   5   3  305.32    5.29
   2   5   3  332.65    5.51
  -2  -5  -3  313.01    5.35
   2   6   3   37.89    1.84
   2   6   3   31.90    1.89
   2   6   3   36.46    1.96
   2   6   3   36.93    1.97
  -2  -6  -3   35.18    1.99
   2   7   3  157.33    3.47
   2   7   3  145.51    4.00
   2   7   3  161.46    4.01
   2   7   3  160.91    3.99
  -2  -7  -3  160.33    4.19
   2   8   3    7.74    0.89
   2   8   3    7.22    1.20
   2   8   3    6.48    1.14
   2   8   3    9.23    1.15
   2   8   3    9.04    1.23
   2   9   3  228.97    5.42
   2   9   3  250.90    4.93
   2   9   3  240.23    4.80
   2  10   3    4.49    1.09
   2  10   3    3.69    0.82
   2  10   3    4.86    0.93
   2  11   3    0.48    0.66
   2  12   3   77.75    3.63
   2  13   3   12.33    1.85
   2  14   3    8.76    1.65
   2  15   3   -0.84    0.65
   2  16   3   62.83    3.62
  -2   8  -4   14.11    0.98
  -2   8  -4   15.08    1.00
  -2   7  -4  206.36    3.36
  -2   7  -4  206.44    3.34
  -2   6  -4  111.51    2.54
  -2   6  -4  114.64    2.56
  -2   5  -4   38.72    1.57
  -2   5  -4   37.21    1.54
  -2   4  -4    6.55    0.78
  -2   4  -4    7.02    0.80
   2  -3   4   64.04    2.13
  -2   3  -4   58.21    1.18
  -2   3  -4   55.90    1.96
  -2   3  -4   61.75    2.04
   2  -2   4   36.85    1.72
  -2   2  -4   35.70    1.42
  -2   2  -4   36.86    1.67
   2  -1   4  112.38    2.98
  -2   1  -4  110.20    2.70
  -2   1  -4  111.69    2.90
   2   0   4  159.89    3.56
   2   0   4  165.31    3.70
  -2   0  -4  157.19    3.44
  -2   0  -4  163.63    3.60
   2   1   4   43.21    1.99
   2   1   4   43.76    2.05
  -2  -1  -4   39.82    1.92
  -2  -1  -4   43.26    1.98
   2   2   4  179.53    4.00
   2   3   4  394.16    6.02
   2   3   4  425.80    6.44
  -2  -3  -4  405.63    6.17
   2   4   4    2.51    0.73
   2   4   4    2.35    0.68
   2   4   4    3.24    0.85
   2   4   4    3.34    0.82
  -2  -4  -4    2.46    0.76
   2   5   4   13.85    1.35
   2   5   4   11.98    1.32
   2   5   4   11.39    1.30
   2   5   4   13.43    1.38
  -2  -5  -4   12.27    1.37
   2   6   4   33.10    1.93
   2   6   4   28.97    1.95
   2   6   4   32.70    2.03
   2   6   4   34.95    2.09
  -2  -6  -4   30.40    2.02
   2   7   4  382.41    6.14
   2   7   4  355.15    6.61
   2   7   4  404.08    6.88
   2   7   4  375.19    6.60
  -2  -7  -4  379.87    6.85
   2   8   4    0.54    0.54
   2   8   4    0.06    0.49
   2   8   4    0.19    0.52
   2   8   4   -0.25    0.44
  -2  -8  -4   -0.37    0.58
   2   9   4    0.10    0.44
   2   9   4    0.27    0.58
   2   9   4   -0.18    0.51
   2   9   4    0.31    0.50
   2  10   4   91.81    3.84
   2  10   4   98.87    3.47
   2  10   4   91.51    3.30
   2  11   4   21.21    2.09
   2  11   4   23.58    1.77
   2  11   4   23.92    1.75
   2  12   4    4.03    1.23
   2  12   4    5.65    1.00
   2  13   4    0.56    0.88
   2  14   4    2.47    1.18
   2  15   4    0.80    0.89
   2  16   4    0.65    0.97
  -2  10  -5    1.86    0.57
  -2  10  -5    2.21    0.60
  -2   9  -5   38.51    1.78
  -2   9  -5   42.84    1.85
  -2   8  -5   33.11    1.72
  -2   8  -5   35.31    1.76
  -2   7  -5    1.99    0.62
  -2   7  -5    0.81    0.53
  -2   6  -5   -0.21    0.38
  -2   6  -5    0.00    0.40
  -2   5  -5    0.60    0.45
  -2   5  -5    0.35    0.42
  -2   4  -5  288.23    4.97
  -2   4  -5  298.80    5.03
  -2   3  -5  190.79    2.93
  -2   3  -5  187.32    4.08
  -2   3  -5  187.84    4.06
   2  -2   5  867.69    8.95
  -2   2  -5  777.37    7.23
  -2   2  -5  762.52    8.31
   2  -1   5    6.74    1.06
   2  -1   5    7.32    1.08
  -2   1  -5    7.31    1.03
  -2   1  -5    8.56    1.20
   2   0   5   12.90    1.34
   2   0   5   14.42    1.41
  -2   0  -5   11.78    1.25
  -2   0  -5   13.27    1.33
   2   1   5  133.71    3.75
   2   1   5  148.89    4.03
  -2  -1  -5  136.07    3.72
  -2  -1  -5  134.35    3.75
   2   2   5  517.96    7.43
  -2  -2  -5  522.43    7.42
  -2  -2  -5  531.70    7.49
   2   3   5  314.38    5.92
  -2  -3  -5  332.99    6.12
   2   4   5    9.22    1.38
   2   4   5    9.30    1.42
   2   4   5    8.51    1.28
  -2  -4  -5    6.98    1.18
   2   5   5  136.17    4.06
   2   5   5  139.17    4.22
   2   5   5  139.16    4.25
   2   5   5  143.66    4.31
  -2  -5  -5  140.72    4.25
   2   6   5  125.51    3.95
   2   6   5  124.45    4.11
   2   6   5  121.38    4.06
   2   6   5  130.23    4.19
  -2  -6  -5  115.77    4.01
   2   7   5   13.29    1.48
   2   7   5   13.28    1.59
   2   7   5   12.89    1.55
   2   7   5   13.08    1.53
  -2  -7  -5   15.41    1.98
   2   8   5   19.79    1.72
   2   8   5   17.74    1.84
   2   8   5   21.52    1.90
   2   8   5   21.00    1.87
  -2  -8  -5   20.16    2.00
   2   9   5    1.99    0.77
   2   9   5    1.52    0.80
   2   9   5    1.45    0.78
   2   9   5    1.01    0.72
   2  10   5   62.60    2.60
   2  10   5   63.43    3.43
   2  10   5   63.61    3.13
   2  10   5   66.22    3.14
   2  11   5    0.67    0.79
   2  11   5    0.62    0.68
   2  11   5   -0.06    0.54
   2  12   5    8.11    1.62
   2  12   5   12.75    1.57
   2  12   5    9.80    1.47
   2  13   5    3.55    1.29
   2  14   5   21.60    2.50
   2  15   5    6.28    1.63
   2  16   5    2.92    1.33
  -2  10  -6    8.89    1.21
  -2   9  -6    8.42    1.22
  -2   8  -6    3.64    0.91
  -2   7  -6    9.40    1.32
  -2   6  -6    5.97    1.09
  -2   5  -6   16.71    1.53
  -2   4  -6   22.36    1.71
  -2   4  -6   20.58    1.88
  -2   3  -6   26.02    1.39
  -2   3  -6   23.37    1.74
  -2   3  -6   22.96    1.72
   2  -2   6  135.22    4.00
   2  -2   6  127.17    3.88
  -2   2  -6  126.10    3.32
  -2   2  -6  130.15    3.91
   2  -1   6   25.77    1.90
   2  -1   6   25.12    1.87
  -2   1  -6   22.31    1.63
  -2   1  -6   23.97    1.82
   2   0   6   18.36    1.70
   2   0   6   20.74    1.75
  -2   0  -6   16.34    1.53
  -2   0  -6   17.80    1.64
   2   1   6   25.97    1.95
   2   1   6   23.43    1.92
  -2  -1  -6   23.95    1.83
  -2  -1  -6   23.37    1.86
   2   2   6   25.47    1.97
   2   2   6   29.22    2.12
  -2  -2  -6   23.41    1.87
  -2  -2  -6   25.08    1.93
   2   3   6   21.69    1.83
  -2  -3  -6   21.46    1.89
   2   4   6  486.23    8.13
   2   4   6  480.14    8.10
   2   4   6  509.01    8.53
  -2  -4  -6  480.69    8.16
  -2  -4  -6  462.87    8.46
   2   5   6   20.10    1.85
   2   5   6   25.56    2.07
   2   5   6   23.54    2.04
  -2  -5  -6   20.88    1.90
   2   6   6    3.04    1.00
   2   6   6    1.09    0.72
   2   6   6    2.03    0.94
  -2  -6  -6    2.43    0.99
   2   7   6   56.95    2.96
   2   7   6   52.59    3.02
   2   7   6   56.65    3.10
   2   7   6   60.48    3.18
  -2  -7  -6   57.11    3.17
   2   8   6   22.50    1.99
   2   8   6   22.83    2.20
   2   8   6   27.57    2.29
   2   8   6   25.89    2.22
  -2  -8  -6   26.79    2.40
   2   9   6   14.20    1.66
   2   9   6   15.37    2.14
   2   9   6   15.09    1.82
   2   9   6   16.05    2.23
  -2  -9  -6   14.62    2.13
   2  10   6    9.74    1.52
   2  10   6    9.57    1.83
   2  10   6   11.66    1.85
   2  10   6    9.69    1.64
   2  11   6    1.31    1.04
   2  11   6    0.63    0.85
   2  11   6    0.62    0.76
   2  12   6  122.55    5.23
   2  12   6  128.74    4.66
   2  12   6  130.56    4.62
   2  13   6   25.84    2.70
   2  13   6   29.96    2.35
   2  14   6    0.42    0.92
   2  15   6    9.88    2.12
   2  16   6   11.98    2.32
  -2  11  -7   34.16    2.03
  -2  10  -7   18.18    1.71
  -2   9  -7   16.32    1.71
  -2   9  -7   13.86    1.62
  -2   8  -7   91.45    3.57
  -2   7  -7    3.82    1.06
  -2   6  -7   50.78    2.76
  -2   5  -7   43.00    2.58
  -2   4  -7   95.66    3.70
  -2   3  -7   44.35    1.99
  -2   3  -7   46.50    2.66
   2  -2   7  154.52    4.72
  -2   2  -7  148.72    3.98
  -2   2  -7  153.17    4.69
   2  -1   7    2.73    0.93
   2  -1   7    1.43    0.80
  -2   1  -7    1.79    0.78
  -2   1  -7    1.11    0.71
   2   0   7   65.84    3.19
   2   0   7   68.85    3.28
  -2   0  -7   63.57    2.97
  -2   0  -7   59.69    3.04
   2   1   7    1.93    0.91
   2   1   7    3.53    1.08
  -2  -1  -7    2.68    0.98
  -2  -1  -7    2.81    0.94
   2   2   7    4.77    1.22
   2   2   7    3.79    0.94
  -2  -2  -7    3.65    1.05
  -2  -2  -7    3.81    1.05
   2   3   7  490.44    8.72
   2   3   7  478.89    8.47
  -2  -3  -7  494.23    8.69
  -2  -3  -7  503.88    8.80
   2   4   7   36.88    2.58
   2   4   7   29.02    2.35
  -2  -4  -7   30.11    2.32
  -2  -4  -7   30.83    2.35
   2   5   7   66.05    3.38
   2   5   7   76.22    3.72
  -2  -5  -7   69.15    3.51
  -2  -5  -7   66.68    3.60
   2   6   7  130.37    4.71
   2   6   7  129.29    4.81
   2   6   7  143.68    5.10
  -2  -6  -7  132.89    4.90
   2   7   7    1.64    0.90
   2   7   7    0.96    0.86
   2   7   7    0.67    0.76
  -2  -7  -7    1.95    1.07
   2   8   7   36.22    2.66
   2   8   7   31.18    2.65
   2   8   7   32.26    2.61
   2   8   7   35.46    2.75
  -2  -8  -7   31.90    2.72
   2   9   7   26.40    2.34
   2   9   7   24.12    2.47
   2   9   7   27.15    2.47
  -2  -9  -7   30.32    2.74
   2  10   7   56.22    3.19
   2  10   7   56.52    3.64
   2  10   7   56.68    3.44
   2  11   7    2.55    1.07
   2  11   7    1.54    1.11
   2  11   7    1.70    0.95
   2  12   7    1.82    1.14
   2  12   7    2.81    1.17
   2  13   7   14.71    2.48
   2  14   7    7.18    1.89
   2  15   7    2.93    1.47
   2  16   7    0.41    1.13
  -2  10  -8    2.59    1.06
  -2   9  -8    3.83    1.18
  -2   9  -8    3.01    1.11
  -2   8  -8    0.31    0.73
  -2   7  -8    6.51    1.42
  -2   6  -8   16.16    1.91
  -2   5  -8   23.31    2.20
  -2   4  -8  110.21    4.37
  -2   3  -8   20.77    1.63
  -2   3  -8   25.11    2.27
  -2   2  -8  220.27    5.21
  -2   2  -8  221.68    6.14
   2  -1   8   22.87    2.19
  -2   1  -8   24.53    2.00
  -2   1  -8   22.11    2.16
   2   0   8    0.39    0.74
   2   0   8    0.03    0.59
  -2   0  -8    0.05    0.59
  -2   0  -8   -0.05    0.62
   2   1   8   19.30    2.06
   2   1   8   20.02    2.07
  -2  -1  -8   17.22    1.85
  -2  -1  -8   18.45    2.04
   2   2   8  138.65    5.02
   2   2   8  135.39    5.02
  -2  -2  -8  126.42    4.68
  -2  -2  -8  138.00    4.99
   2   3   8    2.71    1.13
  -2  -3  -8    1.85    0.95
  -2  -3  -8    1.55    0.85
   2   4   8   18.73    2.13
  -2  -4  -8   19.49    2.15
  -2  -4  -8   21.40    2.19
   2   5   8   16.04    2.23
   2   5   8   12.92    1.97
  -2  -5  -8   11.60    1.93
   2   6   8    5.35    1.37
   2   6   8    4.47    1.31
   2   6   8    7.90    1.75
  -2  -6  -8    4.68    1.40
   2   7   8    4.86    1.37
   2   7   8    5.55    1.41
   2   7   8    5.07    1.31
  -2  -7  -8    7.36    1.77
   2   8   8   15.83    2.24
   2   8   8   18.69    2.30
   2   8   8   19.64    2.30
  -2  -8  -8   20.27    2.80
   2   9   8  124.39    5.02
   2   9   8  123.54    5.38
   2   9   8  126.21    5.31
  -2  -9  -8  135.04    5.65
   2  10   8    0.87    1.00
   2  10   8    1.02    1.06
   2  10   8    1.78    1.20
  -2 -10  -8    1.06    1.14
   2  11   8   81.91    4.06
   2  11   8   82.21    4.69
   2  11   8   84.09    4.44
   2  12   8    0.13    0.96
   2  12   8   -0.33    0.79
   2  13   8    4.22    1.66
   2  14   8   26.63    3.18
   2  15   8    0.54    1.23
   2  16   8    2.06    1.43
  -2   9  -9    4.80    1.40
  -2   8  -9    5.93    1.49
  -2   7  -9    9.07    1.76
  -2   6  -9    5.85    1.47
  -2   5  -9   84.56    4.21
  -2   4  -9   13.83    2.11
  -2   3  -9  256.43    5.40
  -2   3  -9  246.23    6.99
  -2   2  -9  224.26    5.63
  -2   2  -9  213.48    6.55
   2  -1   9    2.34    1.16
  -2   1  -9    3.36    1.13
  -2   1  -9    3.24    1.12
   2   0   9   37.04    2.98
  -2   0  -9   36.25    2.70
  -2   0  -9   33.48    2.81
   2   1   9   82.09    4.20
  -2  -1  -9   83.73    4.03
  -2  -1  -9   83.92    4.23
   2   2   9    2.82    1.14
  -2  -2  -9    2.37    1.08
  -2  -2  -9    3.74    1.26
   2   3   9   24.74    2.53
  -2  -3  -9   21.82    2.37
  -2  -3  -9   23.64    2.48
   2   4   9    0.26    0.77
  -2  -4  -9    0.46    0.92
  -2  -4  -9   -0.07    0.85
   2   5   9   72.04    4.07
  -2  -5  -9   70.86    4.07
   2   6   9    7.87    1.80
   2   6   9    6.03    1.61
  -2  -6  -9    6.70    1.64
   2   7   9    0.33    0.90
   2   7   9    0.41    0.82
  -2  -7  -9    0.48    0.97
   2   8   9   21.92    2.53
   2   8   9   20.57    2.53
  -2  -8  -9   21.13    2.62
   2   9   9    1.39    1.09
   2   9   9    0.14    0.91
  -2  -9  -9    0.12    1.06
   2  10   9    2.18    1.21
   2  10   9    0.71    1.00
  -2 -10  -9    1.45    1.33
   2  11   9   27.65    2.82
   2  11   9   26.26    3.05
   2  12   9   12.24    2.11
   2  12   9   11.64    2.33
   2  12   9   11.27    2.18
   2  13   9   41.49    3.85
   2  14   9   12.25    2.58
   2  15   9   29.01    3.93
   2  16   9    6.10    2.03
  -2   8 -10    5.67    1.58
  -2   8 -10    6.78    1.70
  -2   7 -10   10.39    1.99
  -2   6 -10    8.39    1.86
  -2   5 -10    0.34    0.90
  -2   4 -10    0.85    1.00
  -2   3 -10   20.73    1.87
  -2   3 -10   16.01    2.45
  -2   2 -10   64.14    3.32
  -2   2 -10   68.33    4.12
  -2   1 -10    8.01    1.62
  -2   1 -10    9.13    1.91
   2   0  10    0.82    1.08
  -2   0 -10    0.56    0.90
  -2   0 -10    1.09    1.09
   2   1  10    8.30    1.87
  -2  -1 -10    7.98    1.74
  -2  -1 -10    8.82    1.85
   2   2  10   16.10    2.50
  -2  -2 -10   15.68    2.35
  -2  -2 -10   15.28    2.40
   2   3  10   56.94    3.88
  -2  -3 -10   52.02    3.60
  -2  -3 -10   55.06    3.79
   2   4  10   51.00    3.71
  -2  -4 -10   57.93    3.87
  -2  -4 -10   52.01    3.73
  -2  -5 -10   51.78    3.75
   2   6  10    0.39    1.02
  -2  -6 -10   -0.33    1.00
   2   7  10    0.01    0.87
  -2  -7 -10   -0.47    0.94
   2   8  10   -0.57    0.83
   2   8  10   -0.59    0.80
  -2  -8 -10   -0.07    0.98
   2   9  10   38.96    3.40
   2   9  10   43.73    3.77
  -2  -9 -10   48.20    3.96
   2  10  10  102.89    5.21
   2  10  10  101.95    5.61
  -2 -10 -10  113.66    5.96
   2  11  10   36.70    3.34
   2  11  10   39.00    3.78
  -2 -11 -10   35.84    3.69
   2  12  10   -0.07    1.00
   2  12  10   -0.49    1.10
   2  13  10    7.81    2.23
   2  14  10   33.18    3.79
   2  15  10   13.95    2.98
   2  16  10    1.17    1.46
  -2   7 -11    1.97    1.28
  -2   6 -11    0.32    1.03
  -2   5 -11    0.43    0.97
  -2   4 -11    3.68    1.50
  -2   3 -11    7.04    1.83
  -2   2 -11   46.48    3.06
  -2   2 -11   45.61    3.75
  -2   1 -11    0.01    0.89
  -2   1 -11   -0.55    0.86
   2   0  11   28.98    3.18
  -2   0 -11   26.06    2.67
  -2   0 -11   25.93    3.01
   2   1  11    5.86    1.84
  -2  -1 -11    6.20    1.75
  -2  -1 -11    6.78    1.90
   2   2  11    4.47    1.63
  -2  -2 -11    5.24    1.65
  -2  -2 -11    5.01    1.62
   2   3  11    0.19    1.08
  -2  -3 -11    1.51    1.20
  -2  -3 -11    0.28    1.05
   2   4  11   14.53    2.60
  -2  -4 -11   15.03    2.57
   2   5  11   59.82    4.28
  -2  -5 -11   57.76    4.16
   2   6  11    0.06    0.99
  -2  -6 -11    0.21    1.10
   2   7  11    0.28    1.10
  -2  -7 -11    0.38    1.16
   2   8  11    5.81    1.81
  -2  -8 -11    7.03    2.10
   2   9  11    1.11    1.21
  -2  -9 -11    0.70    1.28
   2  10  11   -0.15    1.07
   2  10  11    0.46    1.12
  -2 -10 -11    0.42    1.26
   2  11  11    1.42    1.37
   2  11  11    1.84    1.51
  -2 -11 -11    2.25    1.76
   2  12  11    2.16    1.46
   2  12  11    3.66    1.77
   2  13  11    6.71    2.27
   2  14  11    4.93    2.04
   2  15  11    1.31    1.52
  -2   6 -12   -0.16    1.06
  -2   5 -12   -0.77    1.00
  -2   4 -12    6.29    1.92
  -2   3 -12    5.68    1.89
  -2   2 -12   15.16    2.20
  -2   2 -12   13.31    2.60
  -2   1 -12   38.71    3.17
  -2   1 -12   34.64    3.58
  -2   0 -12    3.37    1.47
  -2   0 -12    4.54    1.72
   2   1  12    4.29    1.80
  -2  -1 -12    2.21    1.36
  -2  -1 -12    2.12    1.44
   2   2  12   13.28    2.69
  -2  -2 -12   10.50    2.23
  -2  -2 -12   12.14    2.50
   2   3  12   -0.44    0.97
  -2  -3 -12    0.81    1.21
   2   4  12  104.08    5.79
  -2  -4 -12  104.95    5.65
   2   5  12   -0.30    1.06
  -2  -5 -12   -0.04    1.17
   2   6  12    0.37    1.21
  -2  -6 -12    0.54    1.27
   2   7  12    0.90    1.35
  -2  -7 -12    1.39    1.45
   2   8  12   10.89    2.46
  -2  -8 -12   13.46    2.92
   2   9  12    1.95    1.45
  -2  -9 -12    0.44    1.33
   2  10  12    5.97    2.01
  -2 -10 -12    5.54    2.17
   2  11  12    0.83    1.37
  -2 -11 -12   -0.04    1.39
   2  12  12   10.95    2.48
   2  13  12    2.40    1.80
   2  14  12    9.21    2.66
   2  15  12    0.46    1.57
  -2   4 -13   -0.52    1.15
  -2   3 -13    0.62    1.30
  -2   2 -13    0.31    1.20
  -2   1 -13    9.72    2.08
  -2   1 -13    8.92    2.39
  -2   0 -13   -0.04    1.03
  -2   0 -13   -0.15    1.13
  -2  -1 -13    6.88    2.01
  -2  -1 -13    6.65    2.28
   2   2  13   23.72    3.57
  -2  -2 -13   29.73    3.32
  -2  -2 -13   29.35    3.63
   2   3  13    0.06    1.19
  -2  -3 -13    0.07    1.18
   2   4  13    2.84    1.58
  -2  -4 -13    2.93    1.63
   2   5  13    0.96    1.48
  -2  -5 -13    1.29    1.41
   2   6  13   34.92    3.84
  -2  -6 -13   37.25    3.96
   2   7  13   30.66    3.64
  -2  -7 -13   29.47    3.64
   2   8  13    3.30    1.81
  -2  -8 -13    4.50    1.93
   2   9  13    5.51    2.02
  -2  -9 -13    6.19    2.22
   2  10  13    0.56    1.42
  -2 -10 -13    1.98    1.74
   2  11  13    3.60    1.77
  -2 -11 -13    4.53    2.17
   2  12  13    4.80    1.99
  -2 -12 -13    5.12    2.31
  -2   3 -14    0.69    1.45
  -2   2 -14    0.60    1.48
  -2   1 -14    0.66    1.21
  -2   1 -14   -0.90    1.20
  -2   0 -14    0.17    1.17
  -2   0 -14    0.16    1.35
  -2  -1 -14   31.39    3.49
  -2  -1 -14   33.04    4.07
   2   2  14    3.92    2.02
  -2  -2 -14    3.77    1.85
   2   3  14   62.28    5.16
  -2  -3 -14   68.07    5.07
   2   4  14    6.38    2.45
  -2  -4 -14    3.72    1.88
   2   5  14   -0.65    1.15
  -2  -5 -14    0.81    1.41
   2   6  14   10.24    2.72
  -2  -6 -14    8.03    2.37
   2   7  14   -0.06    1.25
  -2  -7 -14   -0.78    1.22
   2   8  14   -1.35    1.15
  -2  -8 -14    0.68    1.51
   2   9  14    0.85    1.38
  -2  -9 -14    0.75    1.62
   2  10  14    1.24    1.48
  -2 -10 -14    1.89    1.70
   2  11  14    0.62    1.56
  -2 -11 -14    1.73    1.76
  -2 -12 -14    0.10    1.58
  -2   0 -15    0.42    1.34
  -2   0 -15   -0.65    1.40
  -2  -1 -15    0.41    1.42
  -2  -2 -15   16.30    3.16
   2   3  15    0.33    1.65
  -2  -3 -15   -0.07    1.39
   2   4  15   17.47    3.65
  -2  -4 -15   10.88    2.83
   2   5  15    0.94    1.61
  -2  -5 -15    2.96    1.91
   2   6  15    7.85    2.59
  -2  -6 -15    8.57    2.67
   2   7  15    0.39    1.49
  -2  -7 -15    1.53    1.70
   2   8  15   33.48    4.78
  -2  -8 -15   28.19    4.28
   2   9  15    0.66    1.45
  -2  -9 -15    0.57    1.69
   2  10  15   -0.23    1.31
  -2 -10 -15    1.38    1.76
   2  11  15    1.17    1.59
  -2 -11 -15    0.04    1.72
  -2  -3 -16   10.51    2.80
   2   4  16   11.28    3.06
  -2  -4 -16   13.42    3.11
   2   5  16   19.08    3.90
  -2  -5 -16   23.97    4.09
   2   6  16    0.78    1.65
  -2  -6 -16    2.98    2.02
   2   7  16    1.60    1.81
  -2  -7 -16   -1.61    1.40
   2   8  16    2.36    1.92
  -2  -8 -16    0.79    1.70
   2   9  16   -0.18    1.43
  -2  -9 -16    0.11    1.68
   3  -9 -14    5.86    2.63
   3  -8 -14    7.02    2.64
   3  -7 -14    7.14    2.66
   3  -6 -14   11.14    3.06
   3  -5 -14   25.25    4.21
   3  -4 -14    1.85    1.73
   3  -3 -14   45.36    4.73
   3  -2 -14   39.01    4.36
   3 -11 -13    8.53    2.80
   3 -10 -13    6.05    2.56
   3  -9 -13    3.34    1.96
   3  -8 -13    1.01    1.69
   3  -7 -13    2.53    1.89
   3  -6 -13   22.18    3.87
   3  -5 -13    3.71    1.94
   3  -4 -13   11.58    2.88
   3  -3 -13   13.33    3.05
   3  -2 -13   10.67    2.67
   3  -1 -13   13.53    2.90
   3   0 -13    3.59    1.87
   3   1 -13    3.40    1.81
  -3  13  12    0.56    1.54
   3 -11 -12    3.43    2.11
   3 -10 -12    1.15    1.70
   3  -9 -12    4.26    2.17
   3  -8 -12    1.78    1.71
   3  -7 -12    8.55    2.57
   3  -6 -12   91.74    6.04
   3  -5 -12   15.64    3.20
   3  -4 -12    1.26    1.46
   3  -3 -12   11.01    2.70
   3  -2 -12   17.54    3.15
   3  -1 -12    3.34    1.78
   3   0 -12   -1.44    0.97
   3   1 -12   23.57    3.43
   3   1 -12   19.17    3.48
   3   2 -12    9.37    2.18
   3   2 -12   10.40    2.68
   3   3 -12    1.09    1.59
  -3  14  11    0.82    1.37
  -3  14  11    1.11    1.58
  -3  13  11   36.96    3.82
  -3  13  11   34.33    4.27
   3 -11 -11   10.45    2.74
   3 -10 -11   45.38    4.55
   3  -9 -11    5.53    2.18
   3  -8 -11    1.03    1.41
   3  -7 -11    7.92    2.27
   3  -6 -11   30.57    3.64
   3  -5 -11  110.82    6.24
   3  -4 -11   -0.15    1.16
   3  -3 -11    3.16    1.64
   3  -2 -11   -0.69    1.07
   3  -1 -11    4.82    1.79
   3   0 -11   13.52    2.64
   3   0 -11   12.99    2.90
   3   1 -11   -0.75    0.95
   3   1 -11   -0.68    1.10
   3   2 -11    3.98    1.64
   3   2 -11    2.65    1.65
   3   3 -11   13.79    2.91
   3   4 -11    2.29    1.58
   3   5 -11   -0.46    1.13
  -3  14  10   13.20    2.95
  -3  13  10    9.87    2.24
  -3  13  10   11.67    2.67
  -3  12  10   11.93    2.47
  -3  12  10    8.36    2.34
  -3  11  10   -0.27    1.20
   3 -10 -10   46.87    4.35
  -3  10  10   44.11    4.21
   3  -9 -10   17.04    3.17
   3  -8 -10   -0.29    1.12
   3  -7 -10   32.04    3.54
   3  -6 -10   18.55    2.97
   3  -5 -10   13.95    2.67
   3  -4 -10    2.73    1.58
   3  -3 -10   -0.61    0.95
   3  -2 -10   18.03    2.95
   3  -1 -10   -0.30    0.99
   3  -1 -10   -0.71    1.02
   3   0 -10    8.42    2.02
   3   0 -10    8.83    2.28
   3   1 -10    2.63    1.43
   3   1 -10    2.45    1.44
   3   2 -10    0.41    1.09
   3   2 -10    0.75    1.31
   3   3 -10    6.68    1.73
   3   3 -10    1.78    1.47
   3   4 -10    1.31    1.28
   3   5 -10    0.43    1.21
   3   6 -10    5.17    1.93
  -3  15   9   10.48    2.66
  -3  14   9   40.07    4.13
  -3  13   9  135.13    5.54
  -3  13   9  132.57    6.84
  -3  12   9    2.52    1.40
  -3  12   9    2.91    1.64
  -3  11   9   10.48    2.40
   3 -10  -9   -0.70    1.16
  -3  10   9    0.78    1.23
   3  -9  -9    7.71    2.21
  -3   9   9    6.79    2.06
   3  -8  -9   38.82    3.70
  -3   8   9   36.24    3.63
   3  -7  -9    0.29    1.05
   3  -6  -9   25.13    2.99
   3  -5  -9   18.43    2.82
   3  -4  -9   25.10    2.93
   3  -3  -9   12.49    2.35
   3  -2  -9    0.93    1.14
   3  -2  -9    1.72    1.39
   3  -2  -9   -0.17    0.98
   3  -1  -9    9.44    2.07
   3  -1  -9   10.43    2.35
   3  -1  -9   11.66    2.37
   3   0  -9    9.01    2.02
   3   0  -9   12.14    2.46
   3   1  -9    0.58    1.04
   3   1  -9    0.02    0.93
   3   2  -9   68.29    4.03
   3   2  -9   70.51    4.67
   3   3  -9    2.68    1.27
   3   3  -9    2.76    1.43
   3   4  -9    4.30    1.71
   3   5  -9    0.26    1.09
   3   6  -9    1.34    1.29
   3   7  -9   25.15    3.44
  -3  15   8   25.49    3.61
  -3  14   8   82.76    5.35
  -3  13   8   12.90    2.68
  -3  12   8  187.48    6.20
  -3  12   8  173.18    7.28
  -3  11   8  116.39    5.16
  -3  11   8  114.94    5.91
  -3  11   8  120.36    5.97
  -3  10   8    1.95    1.27
   3  -9  -8   29.47    3.14
  -3   9   8   25.26    3.01
   3  -8  -8  175.77    6.88
  -3   8   8  177.80    6.92
   3  -7  -8   46.30    3.68
  -3   7   8   46.30    3.67
   3  -6  -8   13.92    2.44
  -3   6   8   11.58    2.23
   3  -5  -8    8.66    1.96
   3  -4  -8   90.47    4.76
   3  -3  -8   -0.80    0.75
   3  -2  -8  143.17    5.80
   3  -2  -8  148.68    6.06
   3  -2  -8  144.39    5.97
   3  -1  -8    2.88    1.26
   3  -1  -8    2.11    1.31
   3  -1  -8    3.37    1.49
   3   0  -8    0.66    0.99
   3   0  -8    0.23    1.05
   3   0  -8    1.32    1.06
   3   1  -8   80.89    4.25
   3   1  -8   89.14    4.84
   3   2  -8  125.14    5.06
   3   2  -8  121.87    5.63
   3   3  -8    2.43    1.12
   3   3  -8    1.24    1.19
   3   4  -8   17.41    2.00
   3   4  -8   18.32    2.78
   3   5  -8   43.74    3.62
   3   6  -8    0.57    1.08
   3   7  -8    0.58    1.05
   3   8  -8    0.83    1.17
   3   9  -8   -0.59    1.03
  -3  16   7    0.50    1.25
  -3  15   7   18.58    2.98
  -3  14   7   29.70    3.26
  -3  13   7    1.57    1.23
  -3  12   7   -0.19    0.77
  -3  12   7   -0.27    0.83
  -3  11   7    6.11    1.47
  -3  11   7    4.10    1.57
  -3  11   7    3.72    1.34
  -3  10   7   20.95    2.29
  -3  10   7   20.90    2.91
  -3  10   7   22.66    2.58
   3  -9  -7   62.73    4.14
  -3   9   7   58.03    3.92
  -3   9   7   65.54    4.00
   3  -8  -7    4.08    1.45
  -3   8   7    3.31    1.34
  -3   8   7    4.04    1.42
   3  -7  -7    0.77    0.98
  -3   7   7    0.10    0.89
  -3   7   7   -0.15    0.83
   3  -6  -7    2.15    1.08
  -3   6   7    2.05    1.18
  -3   6   7    2.71    1.21
   3  -5  -7   19.87    2.29
  -3   5   7   20.58    2.39
  -3   5   7   19.51    2.36
   3  -4  -7    2.43    1.11
  -3   4   7    4.52    1.42
   3  -3  -7   -0.06    0.70
   3  -3  -7    0.32    0.97
   3  -3  -7    0.72    0.87
   3  -2  -7   38.91    3.01
   3  -2  -7   40.54    3.16
   3  -2  -7   35.85    2.95
   3  -1  -7    9.86    1.88
   3  -1  -7   10.41    1.95
   3  -1  -7    9.88    1.92
   3   0  -7   13.50    2.10
   3   0  -7   20.27    2.38
   3   0  -7   18.99    2.57
   3   1  -7   18.37    2.09
   3   1  -7   23.53    2.55
   3   2  -7   25.27    2.38
   3   2  -7   23.64    2.56
   3   3  -7   60.21    3.32
   3   3  -7   54.88    3.70
   3   4  -7    3.26    1.10
   3   4  -7    2.24    1.20
   3   5  -7    9.45    1.97
   3   6  -7    0.54    0.89
   3   6  -7    0.76    0.86
   3   7  -7    3.36    1.34
   3   8  -7    3.31    1.41
   3   9  -7    3.35    1.43
   3  10  -7    0.08    0.90
  -3  16   6    0.53    1.03
  -3  15   6    4.36    1.61
  -3  14   6    0.60    1.08
  -3  13   6    0.94    1.04
  -3  12   6   43.39    3.45
  -3  11   6   56.48    2.95
  -3  11   6   49.89    3.58
  -3  11   6   55.69    3.39
  -3  10   6    4.21    1.22
  -3  10   6    4.79    1.49
  -3  10   6    3.89    1.30
  -3   9   6    3.16    1.16
  -3   9   6    2.67    1.19
  -3   9   6    3.08    1.18
   3  -8  -6   85.19    4.32
  -3   8   6   82.40    4.24
  -3   8   6   84.59    4.16
   3  -7  -6  109.11    4.77
  -3   7   6  112.25    4.83
  -3   7   6  116.68    4.85
   3  -6  -6   13.16    2.04
  -3   6   6   11.08    1.84
  -3   6   6   13.16    1.97
   3  -5  -6    0.33    0.77
   3  -5  -6   -0.04    0.59
  -3   5   6    0.08    0.64
  -3   5   6   -0.08    0.64
   3  -4  -6   53.23    3.30
   3  -4  -6   56.23    3.42
  -3   4   6   55.63    3.35
  -3   4   6   63.09    3.61
   3  -3  -6   52.09    3.22
   3  -3  -6   56.38    3.33
   3  -3  -6   55.53    3.29
   3  -3  -6   52.71    3.30
  -3   3   6   55.10    3.28
  -3   3   6   57.83    3.45
   3  -2  -6   17.04    1.99
   3  -2  -6   18.56    2.08
   3  -2  -6   17.77    2.00
   3  -2  -6   15.83    1.98
   3  -1  -6   49.34    3.08
   3  -1  -6   56.18    3.36
   3  -1  -6   60.15    3.45
   3  -1  -6   53.82    3.31
  -3   1   6   59.40    3.47
   3   0  -6   20.59    2.09
   3   0  -6   21.97    2.24
   3   0  -6   24.76    2.36
  -3   0   6   24.56    2.45
   3   1  -6    5.68    1.38
   3   1  -6    4.65    1.26
   3   1  -6    4.64    1.27
   3   2  -6   81.40    3.71
   3   2  -6   80.61    4.04
   3   2  -6   88.58    4.13
   3   3  -6    3.03    1.07
   3   3  -6    2.26    1.07
   3   3  -6    2.28    1.01
   3   4  -6    0.46    0.72
   3   4  -6    0.14    0.82
   3   4  -6    0.73    0.84
   3   5  -6    6.70    1.20
   3   5  -6    5.47    1.49
   3   5  -6    6.34    1.38
   3   6  -6   55.55    3.58
   3   6  -6   57.71    3.10
   3   7  -6    4.69    1.44
   3   8  -6    4.43    1.40
   3   9  -6   12.45    2.19
   3  10  -6   28.00    2.79
   3  11  -6    1.89    1.17
  -3  16   5    1.07    1.08
  -3  15   5    2.33    1.18
  -3  14   5    3.39    1.33
  -3  13   5    4.22    1.38
  -3  12   5   13.10    2.14
  -3  11   5   47.42    3.27
  -3  11   5   51.47    2.94
  -3  10   5   41.86    2.38
  -3  10   5   36.47    2.86
  -3  10   5   42.60    2.77
  -3   9   5    9.43    1.53
  -3   9   5    8.25    1.66
  -3   9   5   10.46    1.74
   3  -8  -5   65.43    3.59
  -3   8   5   63.00    3.13
  -3   8   5   63.92    3.52
  -3   8   5   67.81    3.46
   3  -7  -5    2.23    1.01
  -3   7   5    1.90    0.92
  -3   7   5    1.70    0.93
   3  -6  -5    3.21    1.14
   3  -6  -5    2.62    0.98
  -3   6   5    2.73    1.01
  -3   6   5    3.73    1.17
   3  -5  -5   88.11    3.89
   3  -5  -5   94.75    4.06
  -3   5   5   88.79    3.91
  -3   5   5   88.79    3.93
   3  -4  -5   53.91    3.08
   3  -4  -5   56.55    3.17
  -3   4   5   48.09    2.90
  -3   4   5   60.62    3.28
   3  -3  -5   27.99    2.29
   3  -3  -5   29.68    2.30
   3  -3  -5   30.76    2.39
  -3   3   5   28.16    2.28
  -3   3   5   29.50    2.38
   3  -2  -5  203.92    5.68
   3  -2  -5  210.34    5.76
   3  -2  -5  217.97    5.99
  -3   2   5  214.59    5.78
   3  -1  -5    8.08    1.45
   3  -1  -5    6.63    1.30
   3  -1  -5    8.52    1.58
  -3   1   5    7.62    1.29
   3   0  -5   26.98    2.16
   3   0  -5   30.16    2.35
   3   0  -5   30.16    2.38
  -3   0   5   32.15    2.43
   3   1  -5   16.70    1.73
   3   1  -5   20.23    1.99
   3   1  -5   17.92    1.91
  -3  -1   5   18.98    1.96
   3   2  -5  199.30    5.34
   3   2  -5  199.58    5.77
   3   2  -5  228.01    6.07
  -3  -2   5  219.38    6.09
   3   3  -5  359.03    6.93
   3   3  -5  372.21    7.92
   3   3  -5  399.56    7.94
  -3  -3   5  391.55    8.25
   3   4  -5  242.06    5.43
   3   4  -5  243.84    6.52
   3   4  -5  257.61    6.33
   3   5  -5   61.64    2.59
   3   5  -5   64.25    3.52
   3   5  -5   67.43    3.28
   3   6  -5   15.10    2.15
   3   6  -5   18.12    1.81
   3   7  -5    0.16    0.71
   3   7  -5    1.02    0.69
   3   8  -5    6.86    1.56
   3   9  -5    0.74    0.89
   3  10  -5   -0.43    0.79
   3  11  -5   -0.37    0.79
  -3  16   4    1.39    1.04
  -3  15   4    3.17    1.27
  -3  14   4   13.95    2.09
  -3  13   4    2.39    1.07
  -3  12   4    0.21    0.74
  -3  12   4    0.53    0.53
  -3  11   4    1.59    0.93
  -3  11   4    1.15    0.65
  -3  10   4   16.05    1.91
  -3  10   4   17.67    1.70
  -3   9   4   15.04    1.43
  -3   9   4   13.07    1.87
  -3   9   4   12.23    1.53
   3  -8  -4   -0.21    0.62
  -3   8   4   -0.10    0.52
  -3   8   4    0.46    0.65
  -3   8   4    0.12    0.57
   3  -7  -4   35.31    2.47
  -3   7   4   36.32    2.22
  -3   7   4   31.95    2.34
  -3   7   4   35.75    2.38
   3  -6  -4   18.66    1.83
   3  -6  -4   18.88    2.08
  -3   6   4   18.93    1.84
  -3   6   4   16.72    1.73
   3  -5  -4   73.20    3.30
   3  -5  -4   77.99    3.41
  -3   5   4   72.57    3.28
  -3   5   4   76.42    3.36
   3  -4  -4   64.76    3.09
   3  -4  -4   68.87    3.20
  -3   4   4   62.27    3.01
  -3   4   4   67.63    3.17
   3  -3  -4    7.84    1.35
   3  -3  -4   10.74    1.68
  -3   3   4    9.44    1.50
  -3   3   4    8.89    1.53
   3  -2  -4  138.67    4.36
   3  -2  -4  151.14    4.53
   3  -2  -4  147.23    4.58
  -3   2   4  144.57    4.42
   3  -1  -4  135.56    4.30
   3  -1  -4  134.04    4.28
   3  -1  -4  128.39    4.28
  -3   1   4  140.57    4.55
   3   0  -4    1.98    0.82
   3   0  -4    1.08    0.66
   3   0  -4    1.75    0.80
  -3   0   4    1.70    0.75
   3   1  -4   21.84    1.84
   3   1  -4   22.06    1.90
   3   1  -4   21.35    1.91
  -3  -1   4   20.36    1.88
   3   2  -4   72.29    3.06
   3   2  -4   69.34    3.20
   3   2  -4   79.45    3.42
  -3  -2   4   74.35    3.36
   3   3  -4   58.35    2.71
   3   3  -4   60.83    3.06
   3   3  -4   59.94    2.98
  -3  -3   4   62.60    3.12
   3   4  -4   10.89    1.29
   3   4  -4    9.83    1.52
   3   4  -4   12.50    1.67
  -3  -4   4   11.76    1.78
   3   5  -4   10.73    1.21
   3   5  -4   10.25    1.62
   3   5  -4   13.13    1.69
   3   6  -4    0.85    0.80
   3   6  -4    1.24    0.73
   3   7  -4    1.84    0.92
   3   7  -4    1.65    0.76
   3   8  -4    0.33    0.76
   3   9  -4   19.81    2.17
   3  10  -4    7.03    1.55
   3  11  -4   -0.18    0.72
   3  12  -4    1.85    1.07
  -3  16   3   -0.09    0.80
  -3  15   3    3.35    1.19
  -3  14   3    0.77    0.84
  -3  13   3    4.93    1.30
  -3  12   3    1.17    0.79
  -3  11   3   30.26    2.29
  -3  10   3    9.75    1.53
  -3  10   3   12.56    1.24
  -3   9   3   16.07    1.02
  -3   9   3   13.98    1.60
  -3   9   3   15.88    1.45
  -3   8   3   73.77    2.44
  -3   8   3   66.58    3.04
  -3   8   3   68.24    2.82
   3  -7  -3  371.52    6.86
  -3   7   3  364.67    5.80
  -3   7   3  359.05    6.73
  -3   7   3  372.88    6.53
   3  -6  -3   44.63    2.45
  -3   6   3   45.97    2.25
  -3   6   3   44.36    2.42
  -3   6   3   49.66    2.50
   3  -5  -3    6.16    1.13
   3  -5  -3    6.25    1.10
  -3   5   3    8.70    1.27
  -3   5   3    7.64    1.22
  -3   5   3    6.91    1.18
   3  -4  -3  256.48    5.49
   3  -4  -3  251.21    5.50
  -3   4   3  243.84    5.35
  -3   4   3  246.83    5.42
   3  -3  -3  455.33    7.24
   3  -3  -3  471.03    7.47
  -3   3   3  449.47    7.16
  -3   3   3  459.57    7.37
   3  -2  -3  527.21    7.74
   3  -2  -3  536.67    7.96
  -3   2   3  522.24    7.67
  -3   2   3  574.62    8.24
   3  -1  -3  379.45    6.54
   3  -1  -3  377.44    6.52
   3  -1  -3  407.43    6.95
   3   0  -3  259.59    5.41
   3   0  -3  263.96    5.53
   3   0  -3  296.07    5.95
  -3   0   3  308.80    6.11
   3   1  -3  251.68    5.28
   3   1  -3  258.76    5.53
   3   1  -3  278.58    5.79
  -3  -1   3  281.42    5.87
   3   2  -3   38.88    2.15
   3   2  -3   34.51    2.15
   3   2  -3   44.92    2.44
  -3  -2   3   39.69    2.33
   3   3  -3    0.27    0.49
   3   3  -3   -0.47    0.40
   3   3  -3    0.13    0.52
  -3  -3   3    0.03    0.55
   3   4  -3    2.87    0.79
   3   4  -3    2.52    0.81
   3   4  -3    4.41    1.02
  -3  -4   3    4.08    1.08
  -3  -4   3    6.10    1.27
   3   5  -3    4.73    0.87
   3   5  -3    5.30    1.13
   3   5  -3    5.57    1.13
   3   6  -3   20.44    1.15
   3   6  -3   20.10    1.86
   3   6  -3   18.28    1.60
   3   7  -3    0.30    0.63
   3   7  -3    0.12    0.51
   3   8  -3   14.22    1.72
   3   9  -3   19.30    2.02
   3  10  -3   33.83    2.58
   3  11  -3    0.43    0.80
   3  12  -3    8.10    1.58
   3  13  -3    2.79    1.13
  -3  16   2    4.08    1.11
  -3  15   2    0.20    0.72
  -3  14   2    2.87    0.99
  -3  13   2    3.79    1.06
  -3  12   2   -0.50    0.50
  -3  11   2   11.24    1.54
  -3  10   2   19.09    1.68
  -3   9   2   10.19    1.38
  -3   9   2   12.91    1.06
  -3   8   2    5.93    1.05
  -3   8   2    6.98    1.14
  -3   8   2    7.79    0.96
  -3   7   2  114.37    2.56
  -3   7   2  114.41    3.46
  -3   7   2  117.36    3.53
  -3   7   2  114.10    3.20
   3  -6  -2    9.29    1.27
  -3   6   2    8.75    0.96
  -3   6   2    8.48    1.18
  -3   6   2    8.21    1.12
   3  -5  -2  565.67    7.43
   3  -5  -2  555.98    7.40
  -3   5   2  523.39    6.53
  -3   5   2  528.75    7.19
  -3   5   2  554.39    7.23
   3  -4  -2  225.60    4.68
   3  -4  -2  238.16    4.86
  -3   4   2  233.09    4.53
  -3   4   2  221.02    4.63
  -3   4   2  235.38    4.79
   3  -3  -2   17.68    1.45
   3  -3  -2   19.73    1.54
  -3   3   2   17.15    1.41
  -3   3   2   15.98    1.39
  -3   3   2   18.71    1.51
   3  -2  -2    7.11    1.06
   3  -2  -2    7.03    1.05
  -3   2   2    7.34    1.07
  -3   2   2    6.21    0.99
  -3   2   2    7.56    1.11
   3  -1  -2   91.90    3.02
   3  -1  -2  101.39    3.23
  -3   1   2   98.55    3.12
   3   0  -2  353.71    5.81
   3   0  -2  342.03    5.74
   3   0  -2  359.42    6.03
  -3   0   2  350.24    5.84
  -3   0   2  360.13    6.05
   3   1  -2   25.63    1.69
   3   1  -2   25.77    1.73
   3   1  -2   26.72    1.78
  -3  -1   2   24.54    1.73
  -3  -1   2   25.01    1.75
   3   2  -2  293.82    5.27
   3   2  -2  271.08    5.28
   3   2  -2  298.97    5.59
  -3  -2   2  287.53    5.44
  -3  -2   2  304.30    5.70
   3   3  -2   18.68    1.45
   3   3  -2   18.96    1.56
   3   3  -2   19.43    1.58
  -3  -3   2   20.20    1.65
  -3  -3   2   18.85    1.61
   3   4  -2   53.39    2.20
   3   4  -2   53.18    2.51
   3   4  -2   51.68    2.42
  -3  -4   2   52.65    2.52
  -3  -4   2   53.92    2.57
   3   5  -2  174.08    3.61
   3   5  -2  178.95    4.88
   3   5  -2  166.85    4.45
   3   5  -2  183.09    4.39
  -3  -5   2  180.35    4.80
   3   6  -2   25.00    1.23
   3   6  -2   24.56    1.89
   3   6  -2   25.40    1.73
   3   7  -2   10.79    1.50
   3   7  -2   12.79    1.28
   3   8  -2    2.84    0.94
   3   8  -2    2.27    0.67
   3   9  -2    6.07    1.27
   3  10  -2    2.10    0.96
   3  11  -2    8.30    1.54
   3  12  -2   10.79    1.77
   3  13  -2    0.98    0.84
  -3  15   1    0.75    0.64
  -3  14   1    8.47    1.24
  -3  13   1    0.35    0.61
  -3  12   1   32.90    1.98
  -3  11   1  114.08    3.41
  -3  10   1   51.72    2.29
  -3  10   1   47.21    2.20
  -3   9   1   47.36    2.13
  -3   9   1   45.65    2.11
  -3   8   1   13.50    1.22
  -3   8   1   12.70    1.20
  -3   7   1   10.71    1.08
  -3   7   1   10.21    1.07
  -3   7   1    9.76    1.04
  -3   7   1   10.64    0.91
  -3   6   1    0.29    0.28
  -3   6   1    0.47    0.42
  -3   6   1   -0.01    0.32
  -3   6   1    0.27    0.38
  -3   5   1  120.93    2.60
  -3   5   1  116.83    3.06
  -3   5   1  118.03    2.96
   3  -4  -1  301.73    4.90
  -3   4   1  309.16    4.49
  -3   4   1  288.03    4.73
  -3   4   1  305.00    4.83
   3  -3  -1  670.28    7.19
   3  -3  -1  697.77    7.45
  -3   3   1  677.75    6.93
  -3   3   1  643.79    7.04
  -3   3   1  719.66    7.51
   3  -2  -1   13.90    1.21
   3  -2  -1   14.60    1.25
  -3   2   1   15.90    1.25
  -3   2   1   17.50    1.30
  -3   2   1   16.75    1.32
   3  -1  -1    3.54    0.81
   3  -1  -1    3.31    0.80
  -3   1   1    3.66    0.82
  -3   1   1    2.50    0.68
  -3   1   1    3.35    0.74
   3   0  -1   70.56    2.46
   3   0  -1   67.55    2.54
   3   0  -1   68.37    2.48
  -3   0   1   70.56    2.48
   3   1  -1  339.21    5.28
   3   1  -1  340.54    5.36
   3   1  -1  344.37    5.51
  -3  -1   1  345.87    5.42
  -3  -1   1  348.72    5.56
   3   2  -1  221.11    4.28
   3   2  -1  225.35    4.47
   3   2  -1  236.39    4.65
  -3  -2   1  224.85    4.48
  -3  -2   1  243.14    4.74
   3   3  -1   18.26    1.36
   3   3  -1   18.49    1.45
   3   3  -1   19.33    1.50
  -3  -3   1   18.01    1.47
  -3  -3   1   19.63    1.53
   3   4  -1   27.51    1.56
   3   4  -1   26.27    1.71
   3   4  -1   29.66    1.79
  -3  -4   1   29.82    1.84
  -3  -4   1   28.14    1.80
   3   5  -1   11.74    1.04
   3   5  -1   10.72    1.24
   3   5  -1   10.75    1.21
  -3  -5   1   11.66    1.33
  -3  -5   1   12.61    1.32
   3   6  -1  158.62    2.94
   3   6  -1  150.90    4.09
   3   6  -1  151.83    4.13
   3   6  -1  165.82    3.95
   3   7  -1    7.43    1.20
   3   7  -1    8.13    1.12
   3   8  -1    1.75    0.75
   3   8  -1    1.54    0.61
   3   9  -1   15.62    1.69
   3  10  -1    2.57    0.91
   3  11  -1    2.73    1.02
   3  12  -1    9.89    1.65
   3  13  -1    4.64    1.25
   3  14  -1    9.10    1.62
  -3  13   0    7.53    0.97
  -3  12   0    0.28    0.42
  -3  12   0    0.44    0.49
  -3  11   0   29.97    1.57
  -3  11   0   29.26    1.58
  -3  10   0   14.61    1.14
  -3  10   0   12.16    1.10
  -3   9   0  220.08    3.85
  -3   9   0  206.90    3.76
  -3   8   0  285.91    4.27
  -3   8   0  278.70    4.25
  -3   8   0  282.13    4.25
  -3   7   0    2.14    0.54
  -3   7   0    1.80    0.50
  -3   6   0  335.39    4.51
  -3   6   0  346.70    4.56
  -3   5   0   49.83    1.79
  -3   5   0   51.76    1.81
  -3   5   0   46.32    1.57
   3  -4   0    1.34    0.49
  -3   4   0    1.04    0.40
  -3   4   0    1.37    0.47
  -3   4   0    1.19    0.46
   3  -3   0    3.17    0.64
  -3   3   0    3.08    0.62
  -3   3   0    2.82    0.61
  -3   3   0    2.99    0.65
   3  -2   0  384.62    5.09
  -3   2   0  384.64    4.82
  -3   2   0  364.19    4.85
  -3   2   0  390.27    5.10
   3  -1   0  122.41    2.91
   3  -1   0  120.48    2.95
  -3   1   0  122.97    2.88
  -3   1   0  118.51    2.85
  -3   1   0  126.69    3.02
   3   0   0  414.00    5.39
   3   0   0  384.91    5.32
  -3   0   0  429.73    5.49
   3   1   0   91.97    2.64
   3   1   0   87.58    2.60
   3   1   0   86.22    2.64
  -3  -1   0   89.46    2.62
  -3  -1   0   88.54    2.68
   3   2   0    5.17    0.90
   3   2   0    3.82    0.76
   3   2   0    4.29    0.81
  -3  -2   0    4.21    0.83
  -3  -2   0    3.70    0.76
   3   3   0   50.42    2.03
   3   3   0   49.35    2.11
   3   3   0   56.16    2.25
  -3  -3   0   56.72    2.25
  -3  -3   0   57.38    2.30
   3   4   0  822.41    7.79
   3   4   0  807.29    8.46
   3   4   0  870.73    8.71
  -3  -4   0  852.12    8.69
  -3  -4   0  879.97    8.96
   3   5   0   19.27    1.27
   3   5   0   18.74    1.48
   3   5   0   18.94    1.46
  -3  -5   0   18.57    1.51
  -3  -5   0   20.54    1.55
   3   6   0   74.14    2.14
   3   6   0   76.65    2.85
   3   6   0   73.79    2.82
   3   6   0   76.81    2.69
  -3  -6   0   72.90    3.24
   3   7   0  102.87    1.88
   3   7   0   97.36    3.33
   3   7   0   93.62    3.28
   3   7   0  107.83    3.12
   3   8   0   -0.19    0.46
   3   8   0    0.92    0.53
   3   9   0    3.74    0.97
   3  10   0  133.96    4.37
   3  11   0   26.27    2.15
   3  12   0    0.41    0.72
   3  13   0    6.31    1.40
   3  14   0    2.63    1.07
  -3  10  -1   94.70    2.10
  -3  10  -1   92.85    2.11
  -3   9  -1   16.85    0.98
  -3   9  -1   15.40    0.95
  -3   8  -1   66.63    1.78
  -3   8  -1   68.17    1.79
  -3   7  -1    8.26    0.74
  -3   7  -1    8.06    0.71
  -3   6  -1   75.05    1.88
  -3   6  -1   78.38    1.90
  -3   5  -1  221.02    3.22
  -3   5  -1  229.06    3.25
   3  -4   1   28.74    1.29
  -3   4  -1   29.95    1.28
  -3   4  -1   28.47    1.24
  -3   4  -1   26.27    1.12
   3  -3   1  359.48    4.44
  -3   3  -1  326.15    3.49
  -3   3  -1  322.30    4.10
  -3   3  -1  320.52    4.03
   3  -2   1   32.60    1.47
  -3   2  -1   33.49    1.37
  -3   2  -1   30.20    1.38
  -3   2  -1   31.97    1.44
   3  -1   1  164.06    3.25
  -3   1  -1  166.05    3.12
  -3   1  -1  146.93    3.00
  -3   1  -1  144.04    3.04
   3   0   1    5.69    0.84
   3   0   1    5.41    0.84
  -3   0  -1    5.94    0.87
  -3   0  -1    4.93    0.83
   3   1   1 1028.66    8.36
   3   1   1 1041.83    8.66
  -3  -1  -1 1005.41    8.30
   3   2   1   60.52    2.16
   3   2   1   55.54    2.10
   3   2   1   58.16    2.20
  -3  -2  -1   55.63    2.12
  -3  -2  -1   64.24    2.31
   3   3   1  137.51    3.23
   3   3   1  129.33    3.25
   3   3   1  148.57    3.53
  -3  -3  -1  139.79    3.39
  -3  -3  -1  140.27    3.47
   3   4   1    0.25    0.44
   3   4   1    0.51    0.46
   3   4   1    0.43    0.47
  -3  -4  -1    0.73    0.55
  -3  -4  -1    0.43    0.50
   3   5   1    2.94    0.67
   3   5   1    2.98    0.73
   3   5   1    3.37    0.79
  -3  -5  -1    3.02    0.78
  -3  -5  -1    3.93    0.91
   3   6   1  304.35    4.56
   3   6   1  284.02    5.38
   3   6   1  319.81    5.43
  -3  -6  -1  295.48    5.49
  -3  -6  -1  316.83    5.70
   3   7   1   72.38    2.03
   3   7   1   70.22    2.83
   3   7   1   66.60    2.78
   3   7   1   71.37    2.63
   3   8   1   34.08    2.14
   3   8   1   39.26    1.98
   3   9   1   43.53    2.49
   3   9   1   46.22    2.01
   3   9   1   47.90    2.02
   3  10   1    2.67    0.90
   3  11   1   34.65    2.45
   3  12   1   31.04    2.41
   3  13   1    3.77    1.19
   3  14   1    1.44    0.94
   3  15   1    6.37    1.49
  -3   7  -2   89.34    1.79
  -3   7  -2   92.08    1.80
  -3   6  -2   25.79    1.04
  -3   6  -2   27.65    1.07
  -3   5  -2   58.88    1.60
  -3   5  -2   59.00    1.58
  -3   4  -2   21.71    1.06
  -3   4  -2   23.01    1.08
   3  -3   2  658.24    5.87
  -3   3  -2  636.06    4.02
  -3   3  -2  616.00    5.53
  -3   3  -2  635.87    5.57
  -3   3  -2  678.50    5.55
   3  -2   2  212.35    3.52
  -3   2  -2  212.18    3.11
  -3   2  -2  220.14    3.49
  -3   2  -2  225.33    3.54
   3  -1   2   75.01    2.22
  -3   1  -2   72.30    2.07
  -3   1  -2   72.61    2.14
  -3   1  -2   78.91    2.27
   3   0   2   61.03    2.11
  -3   0  -2   62.38    2.07
  -3   0  -2   57.78    2.00
  -3   0  -2   63.54    2.15
   3   1   2    0.96    0.54
   3   1   2    0.89    0.49
  -3  -1  -2    0.69    0.55
   3   2   2  163.88    3.54
   3   2   2  149.16    3.39
   3   2   2  145.04    3.43
  -3  -2  -2  148.80    3.40
  -3  -2  -2  150.19    3.51
   3   3   2  374.34    5.43
   3   3   2  390.57    5.68
   3   3   2  381.28    5.71
  -3  -3  -2  410.99    5.84
  -3  -3  -2  401.81    5.90
   3   4   2    0.74    0.50
   3   4   2    0.63    0.48
   3   4   2    1.79    0.66
  -3  -4  -2    1.48    0.64
  -3  -4  -2    0.79    0.54
   3   5   2   50.06    2.10
   3   5   2   51.64    2.32
   3   5   2   55.20    2.37
  -3  -5  -2   57.04    2.46
  -3  -5  -2   57.37    2.46
   3   6   2  116.34    3.10
   3   6   2  107.13    3.40
   3   6   2  117.92    3.46
  -3  -6  -2  112.30    3.53
  -3  -6  -2  120.29    3.62
   3   7   2   29.92    1.58
   3   7   2   32.75    2.23
   3   7   2   32.03    2.04
   3   7   2   36.42    2.02
  -3  -7  -2   34.29    2.13
   3   8   2   54.12    1.82
   3   8   2   49.68    2.60
   3   8   2   52.18    2.38
   3   9   2   16.10    1.68
   3   9   2   16.65    1.45
   3   9   2   15.35    1.39
   3  10   2   43.81    2.65
   3  10   2   50.54    2.19
   3  10   2   48.25    2.10
   3  11   2    5.86    1.28
   3  12   2    2.47    1.04
   3  13   2   -0.19    0.70
   3  14   2   20.62    2.25
   3  15   2    0.28    0.80
  -3   7  -3   97.26    1.97
  -3   7  -3   95.93    1.95
  -3   6  -3   24.66    1.10
  -3   6  -3   25.04    1.10
  -3   5  -3  189.96    3.02
  -3   5  -3  188.24    2.98
  -3   4  -3   77.33    2.04
  -3   4  -3   80.56    2.07
   3  -3   3  136.37    3.07
  -3   3  -3  135.95    1.82
  -3   3  -3  141.37    2.86
  -3   3  -3  137.33    2.80
   3  -2   3  760.38    6.99
  -3   2  -3  792.80    6.16
  -3   2  -3  775.23    6.92
   3  -1   3    0.34    0.40
  -3   1  -3    0.14    0.37
  -3   1  -3    0.54    0.41
   3   0   3    9.96    1.05
   3   0   3    9.50    1.04
  -3   0  -3    9.58    1.00
  -3   0  -3   10.02    1.03
  -3   0  -3   11.00    1.07
   3   1   3  166.40    3.65
   3   1   3  168.32    3.75
  -3  -1  -3  159.99    3.56
  -3  -1  -3  160.25    3.56
  -3  -1  -3  149.49    3.52
   3   2   3 1865.80   12.42
   3   2   3 1920.65   12.94
  -3  -2  -3 1792.52   12.21
   3   3   3   -0.06    0.44
   3   3   3    0.08    0.42
   3   3   3    0.36    0.52
  -3  -3  -3    0.52    0.60
  -3  -3  -3    0.00    0.37
   3   4   3    2.59    0.72
   3   4   3    1.69    0.63
   3   4   3    2.43    0.75
  -3  -4  -3    3.46    0.91
  -3  -4  -3    1.94    0.73
   3   5   3   65.55    2.55
   3   5   3   60.33    2.59
   3   5   3   73.27    2.84
  -3  -5  -3   65.49    2.71
  -3  -5  -3   67.69    2.77
   3   6   3    5.29    0.96
   3   6   3    3.78    0.89
   3   6   3    4.27    0.94
  -3  -6  -3    4.48    1.00
  -3  -6  -3    3.19    0.86
   3   7   3  129.13    3.48
   3   7   3  122.40    3.92
   3   7   3  134.90    3.96
  -3  -7  -3  133.90    4.11
  -3  -7  -3  136.16    4.13
   3   8   3   54.24    2.23
   3   8   3   48.82    2.66
   3   8   3   50.66    2.51
   3   8   3   51.92    2.53
   3   9   3   30.29    1.53
   3   9   3   32.31    2.30
   3   9   3   29.88    1.99
   3   9   3   32.27    2.03
   3  10   3   70.86    3.42
   3  10   3   82.94    3.09
   3  10   3   74.51    2.91
   3  11   3  242.92    6.36
   3  11   3  261.15    5.01
   3  11   3  256.25    4.93
   3  12   3    1.49    0.92
   3  13   3   36.31    2.81
   3  14   3   74.91    3.97
   3  15   3    3.31    1.29
   3  16   3    3.36    1.35
  -3   9  -4   49.69    1.47
  -3   8  -4   15.19    0.99
  -3   8  -4   12.34    0.91
  -3   7  -4    5.02    0.73
  -3   7  -4    4.47    0.70
  -3   6  -4    0.28    0.34
  -3   6  -4    0.40    0.37
  -3   5  -4  355.38    4.74
  -3   5  -4  351.48    4.68
  -3   4  -4   63.52    2.11
  -3   4  -4   62.76    2.09
  -3   3  -4  623.25    4.51
  -3   3  -4  606.47    6.56
  -3   3  -4  619.09    6.58
   3  -2   4   12.03    1.12
  -3   2  -4   11.27    0.95
  -3   2  -4   12.28    1.11
   3  -1   4   11.91    1.17
   3  -1   4   12.51    1.17
  -3   1  -4   11.44    1.09
  -3   1  -4   11.33    1.13
   3   0   4   16.69    1.35
   3   0   4   16.06    1.34
  -3   0  -4   17.04    1.31
  -3   0  -4   17.83    1.38
   3   1   4    4.98    0.94
  -3  -1  -4    3.85    0.85
  -3  -1  -4    4.36    0.87
   3   2   4  711.05    8.25
  -3  -2  -4  723.54    8.31
   3   3   4  105.64    3.32
   3   3   4  109.28    3.39
   3   3   4  112.59    3.52
  -3  -3  -4  114.89    3.51
   3   4   4  193.01    4.54
   3   4   4  180.68    4.48
   3   4   4  198.74    4.76
  -3  -4  -4  182.63    4.52
   3   5   4   85.28    3.10
   3   5   4   81.32    3.15
   3   5   4   82.52    3.19
  -3  -5  -4   82.29    3.20
   3   6   4    0.32    0.56
   3   6   4    0.35    0.47
   3   6   4    0.17    0.43
  -3  -6  -4    0.86    0.73
   3   7   4    5.85    1.11
   3   7   4    5.17    1.12
   3   7   4    5.26    1.14
   3   7   4    5.85    1.13
  -3  -7  -4    5.25    1.21
   3   8   4   21.60    1.70
   3   8   4   20.76    1.93
   3   8   4   23.32    1.91
   3   8   4   21.33    1.83
  -3  -8  -4   21.30    2.02
   3   9   4   10.66    1.26
   3   9   4    8.65    1.48
   3   9   4   10.90    1.59
   3   9   4    9.25    1.47
   3  10   4  111.20    2.96
   3  10   4  104.78    4.27
   3  10   4  108.29    3.85
   3  10   4  108.12    3.80
   3  11   4   63.30    3.51
   3  11   4   67.98    3.02
   3  11   4   69.99    3.01
   3  12   4  223.83    6.57
   3  12   4  258.17    5.32
   3  13   4   75.45    4.04
   3  14   4   11.02    1.99
   3  15   4   19.78    2.70
   3  16   4   25.56    2.73
  -3   9  -5   17.23    1.20
  -3   9  -5   16.63    1.18
  -3   8  -5   13.71    1.17
  -3   8  -5   13.90    1.17
  -3   7  -5   15.79    1.25
  -3   7  -5   16.39    1.27
  -3   6  -5   -0.16    0.34
  -3   6  -5   -0.11    0.36
  -3   5  -5   52.82    2.17
  -3   5  -5   56.90    2.23
  -3   4  -5    1.43    0.56
  -3   4  -5    1.79    0.61
  -3   3  -5    6.79    0.71
  -3   3  -5    5.93    0.95
  -3   3  -5    5.58    0.92
   3  -2   5    2.28    0.79
   3  -2   5    2.37    0.75
  -3   2  -5    2.50    0.65
  -3   2  -5    1.76    0.64
   3  -1   5   13.08    1.35
   3  -1   5   15.35    1.42
  -3   1  -5   12.31    1.22
  -3   1  -5   11.38    1.24
   3   0   5   11.62    1.31
  -3   0  -5   14.43    1.34
  -3   0  -5   13.60    1.35
   3   1   5  123.05    3.70
   3   1   5  128.52    3.83
  -3  -1  -5  117.70    3.54
  -3  -1  -5  120.28    3.63
   3   2   5    2.93    0.84
   3   2   5    3.70    1.04
  -3  -2  -5    1.90    0.70
  -3  -2  -5    3.10    0.88
   3   3   5    6.44    1.19
   3   3   5    6.38    1.13
   3   3   5    8.92    1.53
  -3  -3  -5    6.07    1.13
  -3  -3  -5    8.24    1.34
   3   4   5  468.11    7.53
   3   4   5  447.19    7.45
   3   4   5  438.72    7.51
   3   4   5  495.52    7.99
  -3  -4  -5  462.21    7.61
   3   5   5  184.60    4.84
   3   5   5  184.06    4.96
   3   5   5  181.70    4.98
   3   5   5  197.57    5.20
  -3  -5  -5  188.90    5.05
   3   6   5   50.11    2.64
   3   6   5   47.70    2.71
   3   6   5   53.75    2.84
   3   6   5   55.29    2.89
  -3  -6  -5   53.29    2.87
   3   7   5    0.12    0.58
   3   7   5    0.25    0.57
   3   7   5    0.21    0.61
   3   7   5    0.81    0.67
  -3  -7  -5   -0.27    0.63
   3   8   5   74.09    3.16
   3   8   5   73.47    3.54
   3   8   5   78.41    3.51
   3   8   5   73.01    3.38
  -3  -8  -5   75.07    3.58
   3   9   5    0.24    0.58
   3   9   5   -0.55    0.58
   3   9   5    0.66    0.69
   3   9   5    0.18    0.59
   3  10   5   24.34    1.87
   3  10   5   26.05    2.44
   3  10   5   25.80    2.20
   3  10   5   25.77    2.16
   3  11   5   20.33    2.25
   3  11   5   21.34    2.06
   3  11   5   19.63    1.91
   3  12   5   13.76    2.20
   3  12   5   15.15    1.77
   3  13   5   79.01    4.29
   3  14   5    4.22    1.47
   3  15   5    0.82    1.05
   3  16   5    0.94    1.14
  -3  10  -6    4.23    0.83
  -3   9  -6    7.30    1.09
  -3   8  -6    1.92    0.71
  -3   7  -6    2.54    0.80
  -3   6  -6    5.94    1.07
  -3   5  -6   39.55    2.16
  -3   4  -6    7.59    1.20
  -3   4  -6    7.23    1.16
  -3   3  -6    0.21    0.39
  -3   3  -6   -0.01    0.42
  -3   3  -6    0.27    0.47
   3  -2   6   56.33    2.65
   3  -2   6   52.70    2.58
  -3   2  -6   51.98    2.18
  -3   2  -6   49.76    2.48
   3  -1   6  162.94    4.44
   3  -1   6  171.62    4.60
  -3   1  -6  158.06    4.02
  -3   1  -6  151.54    4.28
   3   0   6   20.84    1.79
   3   0   6   19.65    1.74
  -3   0  -6   17.68    1.59
  -3   0  -6   17.83    1.65
   3   1   6    6.76    1.24
   3   1   6    8.54    1.49
  -3  -1  -6    6.86    1.25
  -3  -1  -6    5.76    1.08
   3   2   6    3.86    0.98
   3   2   6    5.04    1.09
  -3  -2  -6    4.10    1.01
  -3  -2  -6    3.97    1.00
   3   3   6   85.84    3.49
   3   3   6   92.82    3.60
  -3  -3  -6   79.77    3.38
  -3  -3  -6   94.04    3.62
   3   4   6  626.78    9.36
   3   4   6  667.41    9.69
   3   4   6  661.13    9.85
   3   4   6  677.07    9.98
  -3  -4  -6  642.55    9.55
  -3  -4  -6  667.94    9.59
   3   5   6  568.32    9.04
   3   5   6  603.78    9.47
   3   5   6  615.16    9.70
   3   5   6  606.27    9.63
  -3  -5  -6  573.81    9.27
   3   6   6   24.96    2.10
   3   6   6   25.01    2.18
   3   6   6   26.03    2.20
   3   6   6   26.12    2.20
  -3  -6  -6   27.25    2.32
   3   7   6    0.62    0.71
   3   7   6    0.87    0.76
   3   7   6    0.57    0.63
   3   7   6    0.79    0.63
  -3  -7  -6   -0.04    0.75
   3   8   6    0.77    0.75
   3   8   6    0.69    0.75
   3   8   6    0.87    0.74
   3   8   6   -0.10    0.56
  -3  -8  -6    0.92    0.94
   3   9   6   90.72    3.76
   3   9   6   83.54    4.08
   3   9   6   98.43    4.23
   3   9   6   90.74    4.04
  -3  -9  -6   94.97    4.40
   3  10   6   16.05    1.79
   3  10   6   14.64    2.11
   3  10   6   18.52    2.07
   3  10   6   15.79    1.90
   3  11   6   34.16    2.28
   3  11   6   33.97    2.92
   3  11   6   32.60    2.62
   3  11   6   35.38    2.65
   3  12   6    1.41    1.14
   3  12   6    2.85    1.12
   3  12   6    3.14    1.09
   3  13   6    4.15    1.51
   3  13   6    6.05    1.39
   3  14   6    0.85    1.11
   3  15   6    0.78    1.07
   3  16   6   -0.62    0.90
  -3  11  -7    4.74    0.92
  -3  10  -7   -0.05    0.54
  -3  10  -7   -0.12    0.58
  -3   9  -7   11.40    1.52
  -3   8  -7   -0.14    0.60
  -3   7  -7   -0.27    0.55
  -3   6  -7   28.06    2.08
  -3   5  -7    4.64    1.06
  -3   4  -7    3.25    0.95
  -3   3  -7  139.80    3.32
  -3   3  -7  138.93    4.41
   3  -2   7    0.56    0.70
  -3   2  -7    1.04    0.63
  -3   2  -7   -0.26    0.51
   3  -1   7   68.69    3.23
   3  -1   7   67.15    3.22
  -3   1  -7   68.87    2.92
  -3   1  -7   65.27    3.13
   3   0   7   19.05    1.85
   3   0   7   20.80    1.95
  -3   0  -7   19.90    1.81
  -3   0  -7   19.69    1.86
   3   1   7   53.39    2.93
   3   1   7   54.00    2.99
  -3  -1  -7   48.48    2.72
  -3  -1  -7   49.34    2.83
   3   2   7   20.81    1.99
   3   2   7   24.47    2.15
  -3  -2  -7   22.36    2.00
  -3  -2  -7   23.34    2.09
   3   3   7  115.77    4.34
   3   3   7  117.91    4.30
  -3  -3  -7  118.72    4.37
  -3  -3  -7  116.13    4.33
   3   4   7   74.42    3.57
   3   4   7   82.67    3.73
   3   4   7   91.32    4.02
  -3  -4  -7   79.15    3.69
  -3  -4  -7   75.54    3.56
   3   5   7   91.66    3.97
   3   5   7   98.51    4.15
   3   5   7  101.56    4.29
   3   5   7  105.45    4.38
  -3  -5  -7   99.25    4.20
  -3  -5  -7   97.31    4.07
   3   6   7   10.60    1.80
   3   6   7    9.79    1.72
   3   6   7    8.39    1.40
   3   6   7   11.70    2.04
  -3  -6  -7    9.76    1.81
   3   7   7   15.42    1.89
   3   7   7   13.98    2.09
   3   7   7   12.23    1.80
   3   7   7   13.58    2.00
  -3  -7  -7   11.67    1.89
   3   8   7    0.72    0.82
   3   8   7    0.92    0.87
   3   8   7    0.69    0.86
   3   8   7    2.36    1.11
  -3  -8  -7   -0.39    0.75
   3   9   7    0.29    0.81
   3   9   7   -0.11    0.74
   3   9   7   -0.76    0.48
  -3  -9  -7    0.55    0.94
   3  10   7    1.55    0.94
   3  10   7    1.74    1.15
   3  10   7    1.51    0.97
   3  11   7   45.90    2.90
   3  11   7   43.22    3.39
   3  11   7   48.86    3.27
   3  12   7   -0.20    0.69
   3  12   7   -0.24    0.85
   3  12   7    0.36    0.81
   3  13   7   11.55    2.21
   3  14   7   -0.49    0.89
   3  15   7    4.87    1.77
   3  16   7    1.36    1.34
  -3  11  -8   14.74    1.56
  -3  10  -8    0.19    0.70
  -3   9  -8    3.84    1.09
  -3   8  -8    0.07    0.66
  -3   7  -8    0.61    0.73
  -3   6  -8   23.90    2.16
  -3   5  -8   16.08    1.86
  -3   4  -8    5.21    1.29
  -3   3  -8   10.93    1.26
  -3   3  -8    7.76    1.47
  -3   2  -8    6.91    1.26
  -3   2  -8    6.37    1.37
   3  -1   8   33.81    2.59
   3  -1   8   31.68    2.46
  -3   1  -8   33.42    2.27
  -3   1  -8   33.00    2.53
   3   0   8   25.22    2.27
   3   0   8   25.98    2.29
  -3   0  -8   21.42    1.99
  -3   0  -8   23.79    2.22
   3   1   8   19.31    2.08
   3   1   8   20.49    2.10
  -3  -1  -8   18.69    1.93
  -3  -1  -8   20.72    2.09
   3   2   8   12.47    1.97
   3   2   8   11.67    1.77
  -3  -2  -8   11.95    1.82
  -3  -2  -8   13.88    2.06
   3   3   8   79.20    3.86
   3   3   8   86.91    4.60
  -3  -3  -8   76.05    3.75
  -3  -3  -8   76.15    3.79
   3   4   8    5.80    1.49
   3   4   8    7.27    1.59
  -3  -4  -8    5.21    1.38
  -3  -4  -8    7.63    1.61
   3   5   8  162.87    5.61
   3   5   8  165.03    5.65
   3   5   8  176.84    5.99
  -3  -5  -8  159.69    5.57
   3   6   8   18.79    2.17
   3   6   8   21.46    2.31
   3   6   8   20.66    2.30
  -3  -6  -8   20.72    2.32
   3   7   8   39.03    2.96
   3   7   8   36.26    2.93
   3   7   8   43.58    3.19
  -3  -7  -8   41.61    3.18
   3   8   8   -0.04    0.76
   3   8   8   -0.04    0.74
   3   8   8    0.32    0.81
  -3  -8  -8   -0.56    0.76
   3   9   8    0.97    0.96
   3   9   8    1.51    1.05
   3   9   8    2.65    1.21
  -3  -9  -8    1.30    1.13
   3  10   8   77.80    4.05
   3  10   8   70.72    4.33
   3  10   8   78.16    4.30
  -3 -10  -8   72.21    4.40
   3  11   8    9.01    1.76
   3  11   8    7.32    1.87
   3  11   8    9.78    1.97
   3  12   8   34.55    2.79
   3  12   8   30.90    3.19
   3  12   8   37.41    3.14
   3  13   8    3.49    1.56
   3  14   8    1.64    1.38
   3  15   8   43.37    3.99
   3  16   8    1.24    1.34
  -3  10  -9    4.28    1.28
  -3   9  -9   20.69    2.19
  -3   8  -9   12.55    1.97
  -3   7  -9    2.69    1.18
  -3   6  -9    9.66    1.76
  -3   5  -9    3.41    1.22
  -3   4  -9   20.93    2.26
  -3   3  -9   -0.26    0.59
  -3   3  -9    1.46    0.95
  -3   2  -9    3.25    1.08
  -3   2  -9    4.67    1.37
   3  -1   9   51.21    3.38
  -3   1  -9   50.36    2.95
  -3   1  -9   53.31    3.39
   3   0   9   18.03    2.41
  -3   0  -9   14.84    2.04
  -3   0  -9   13.22    2.06
   3   1   9  307.25    7.86
  -3  -1  -9  298.67    7.36
  -3  -1  -9  298.28    7.73
   3   2   9  119.38    5.01
  -3  -2  -9  109.81    4.66
  -3  -2  -9  111.18    4.84
   3   3   9    3.17    1.30
  -3  -3  -9    2.36    1.13
  -3  -3  -9    2.02    1.02
   3   4   9   43.63    3.24
  -3  -4  -9   46.03    3.28
  -3  -4  -9   40.62    3.14
   3   5   9   45.94    3.35
  -3  -5  -9   55.23    3.64
   3   6   9   40.67    3.20
   3   6   9   39.86    3.17
  -3  -6  -9   44.44    3.41
   3   7   9   97.34    4.76
   3   7   9   91.64    4.75
  -3  -7  -9  111.74    5.24
   3   8   9   32.56    2.93
   3   8   9   30.32    2.97
  -3  -8  -9   30.00    3.04
   3   9   9    4.55    1.48
   3   9   9    7.16    1.92
  -3  -9  -9    4.65    1.62
   3  10   9    5.61    1.65
   3  10   9    5.29    1.60
  -3 -10  -9    6.05    1.90
   3  11   9   10.66    2.07
   3  11   9   14.70    2.68
   3  12   9    4.13    1.47
   3  12   9    3.03    1.62
   3  13   9   13.05    2.15
   3  13   9   11.43    2.47
   3  14   9   30.33    3.53
   3  15   9    2.59    1.63
   3  16   9   -1.12    1.02
  -3   9 -10   32.03    2.82
  -3   9 -10   27.38    2.63
  -3   8 -10   -0.31    0.78
  -3   7 -10    0.34    0.83
  -3   6 -10    9.29    1.89
  -3   5 -10   19.57    2.43
  -3   4 -10   16.61    2.42
  -3   3 -10    1.23    0.76
  -3   3 -10    1.28    1.08
  -3   2 -10   79.50    3.58
  -3   2 -10   75.24    4.26
  -3   1 -10   63.78    3.45
  -3   1 -10   63.47    3.95
   3   0  10   39.50    3.24
  -3   0 -10   42.20    3.03
  -3   0 -10   42.58    3.34
   3   1  10   79.06    4.40
  -3  -1 -10   81.64    4.17
  -3  -1 -10   81.25    4.44
   3   2  10   92.78    4.77
  -3  -2 -10   90.35    4.51
  -3  -2 -10   87.96    4.65
   3   3  10   25.21    2.72
  -3  -3 -10   22.56    2.59
  -3  -3 -10   27.53    2.85
   3   4  10   30.92    3.01
  -3  -4 -10   30.92    2.97
  -3  -4 -10   31.70    3.01
   3   5  10    0.64    0.99
  -3  -5 -10    0.03    1.00
   3   6  10    3.48    1.46
  -3  -6 -10    3.12    1.38
   3   7  10    1.36    1.19
  -3  -7 -10    1.53    1.26
   3   8  10    0.47    1.04
   3   8  10    1.43    1.19
  -3  -8 -10    0.34    1.11
   3   9  10    0.22    1.03
   3   9  10   -0.23    0.94
  -3  -9 -10    0.62    1.19
   3  10  10   -0.43    0.93
   3  10  10    0.63    1.13
  -3 -10 -10   -0.22    1.29
   3  11  10    3.49    1.51
   3  11  10    3.30    1.54
  -3 -11 -10    2.21    1.55
   3  12  10   -0.19    1.00
   3  12  10    1.10    1.28
   3  13  10    0.07    1.05
   3  13  10   -0.10    1.06
   3  14  10    0.39    1.20
   3  15  10    0.01    1.24
  -3   7 -11    4.10    1.51
  -3   6 -11    2.42    1.31
  -3   5 -11   23.97    2.84
  -3   4 -11    9.25    2.05
  -3   3 -11    2.52    1.36
  -3   2 -11  126.35    4.67
  -3   2 -11  128.85    5.87
  -3   1 -11    7.85    1.73
  -3   1 -11    5.69    1.67
   3   0  11   -0.16    1.08
  -3   0 -11    0.50    0.90
  -3   0 -11    0.48    1.07
   3   1  11  164.03    6.64
  -3  -1 -11  166.89    6.20
  -3  -1 -11  176.40    6.87
   3   2  11    0.38    1.05
  -3  -2 -11    0.21    1.01
  -3  -2 -11    0.00    0.96
   3   3  11    0.92    1.19
  -3  -3 -11    0.21    1.02
  -3  -3 -11    2.05    1.32
   3   4  11    0.23    1.02
  -3  -4 -11    1.75    1.30
   3   5  11  251.57    8.31
  -3  -5 -11  243.07    8.08
   3   6  11    4.49    1.66
  -3  -6 -11    3.51    1.62
   3   7  11   16.24    2.83
  -3  -7 -11   15.72    2.75
   3   8  11    0.53    1.13
  -3  -8 -11    1.03    1.29
   3   9  11    0.64    1.14
  -3  -9 -11   -0.49    1.07
   3  10  11    5.28    1.87
   3  10  11    3.76    1.64
  -3 -10 -11    4.04    1.80
   3  11  11    4.30    1.71
   3  11  11    1.82    1.56
  -3 -11 -11    4.91    1.96
   3  12  11    9.75    2.27
   3  12  11   13.05    2.91
   3  13  11    6.77    2.02
   3  13  11    9.02    2.56
   3  14  11   -0.57    1.20
   3  15  11    3.11    1.90
  -3   6 -12   -0.29    0.89
  -3   5 -12    8.77    2.13
  -3   4 -12   25.44    3.12
  -3   3 -12   -0.78    0.93
  -3   2 -12    0.19    0.87
  -3   2 -12   -0.18    1.05
  -3   1 -12   55.91    3.62
  -3   1 -12   54.15    4.25
  -3   0 -12    4.27    1.54
  -3   0 -12    4.15    1.62
   3   1  12    0.56    1.30
  -3  -1 -12   -0.06    0.99
  -3  -1 -12    0.36    1.11
   3   2  12   18.89    3.09
  -3  -2 -12   23.55    2.91
  -3  -2 -12   20.15    3.08
   3   3  12    6.53    2.00
  -3  -3 -12    6.82    1.98
  -3  -3 -12   10.85    2.46
   3   4  12    0.44    1.25
  -3  -4 -12    1.06    1.24
   3   5  12   18.11    3.12
  -3  -5 -12   18.44    3.03
   3   6  12    0.65    1.25
  -3  -6 -12    1.35    1.38
   3   7  12   11.29    2.44
  -3  -7 -12   16.41    2.81
   3   8  12    4.81    1.85
  -3  -8 -12    4.50    1.87
   3   9  12   -0.24    1.15
  -3  -9 -12    0.89    1.40
   3  10  12    2.45    1.60
  -3 -10 -12    4.56    2.03
   3  11  12    2.49    1.56
  -3 -11 -12    1.29    1.69
   3  12  12    8.07    2.25
  -3 -12 -12    7.81    2.56
   3  13  12    3.23    1.74
   3  13  12    3.48    1.95
   3  14  12    4.11    1.96
   3  15  12    3.81    1.97
  -3   5 -13    0.08    1.10
  -3   4 -13    5.98    2.01
  -3   3 -13    0.31    1.23
  -3   2 -13   21.82    3.37
  -3   1 -13    0.21    1.00
  -3   1 -13   -0.15    1.11
  -3   0 -13    0.92    1.26
  -3   0 -13   -0.57    0.99
  -3  -1 -13   10.79    2.40
  -3  -1 -13   10.78    2.61
   3   2  13    0.15    1.28
  -3  -2 -13   -0.88    1.04
  -3  -2 -13   -0.14    1.12
   3   3  13   26.37    3.73
  -3  -3 -13   18.19    3.03
   3   4  13    0.83    1.26
  -3  -4 -13    0.93    1.39
   3   5  13    9.54    2.48
  -3  -5 -13    6.52    2.04
   3   6  13    7.22    2.09
  -3  -6 -13    9.83    2.49
   3   7  13   30.48    3.61
  -3  -7 -13   34.69    3.87
   3   8  13   17.94    3.20
  -3  -8 -13   18.06    3.34
   3   9  13   -0.37    1.12
  -3  -9 -13    0.30    1.35
   3  10  13    6.99    2.25
  -3 -10 -13    8.65    2.59
   3  11  13   21.23    3.47
  -3 -11 -13   26.63    4.25
   3  12  13   -0.35    1.24
  -3 -12 -13    0.36    1.56
   3  13  13    6.55    2.23
  -3   3 -14    2.31    1.72
  -3   2 -14    4.01    1.95
  -3   1 -14    4.13    1.63
  -3   1 -14    3.40    1.90
  -3   0 -14   20.75    3.09
  -3   0 -14   18.94    3.33
  -3  -1 -14   44.00    3.93
  -3  -1 -14   41.37    4.39
   3   2  14   36.75    4.19
  -3  -2 -14   35.52    3.74
   3   3  14    0.00    1.29
  -3  -3 -14    1.08    1.42
   3   4  14    0.43    1.55
  -3  -4 -14    0.41    1.44
   3   5  14    2.82    1.75
  -3  -5 -14    2.88    1.67
   3   6  14   37.74    4.22
  -3  -6 -14   43.90    4.37
   3   7  14    3.80    1.84
  -3  -7 -14    4.98    2.13
   3   8  14    0.42    1.36
  -3  -8 -14    2.46    1.84
   3   9  14    1.52    1.59
  -3  -9 -14   -0.81    1.16
   3  10  14   -0.53    1.25
  -3 -10 -14   -0.07    1.40
   3  11  14    9.07    2.61
  -3 -11 -14   10.31    2.96
   3  12  14    3.97    2.08
  -3 -12 -14    3.13    1.95
   3  13  14   -0.07    1.39
  -3   1 -15    3.12    1.82
  -3   0 -15   -0.18    1.24
  -3   0 -15    0.93    1.64
  -3  -1 -15   17.19    3.05
  -3  -1 -15   21.06    4.00
  -3  -2 -15    2.48    1.70
   3   3  15   -0.54    1.40
  -3  -3 -15   -0.84    1.35
   3   4  15    0.19    1.35
  -3  -4 -15    1.16    1.51
   3   5  15   13.50    3.07
  -3  -5 -15    8.46    2.54
   3   6  15   58.12    5.24
  -3  -6 -15   64.17    5.38
   3   7  15   -0.86    1.28
  -3  -7 -15    0.69    1.52
   3   8  15    1.43    1.53
  -3  -8 -15    0.10    1.45
   3   9  15   13.90    3.11
  -3  -9 -15   15.03    3.41
   3  10  15   -0.17    1.41
  -3 -10 -15    0.14    1.65
   3  11  15    0.00    1.49
  -3 -11 -15    0.47    1.78
   3  12  15    0.82    1.61
  -3 -12 -15   -0.58    1.49
  -3  -2 -16    0.14    1.37
  -3  -3 -16    1.33    1.57
   3   4  16   12.15    3.18
  -3  -4 -16    8.61    2.55
   3   5  16    0.79    1.67
  -3  -5 -16    2.02    1.82
   3   6  16   -0.07    1.47
  -3  -6 -16    1.45    1.77
   3   7  16    9.57    2.81
  -3  -7 -16   10.14    3.00
   3   8  16    9.22    2.90
  -3  -8 -16    9.25    2.88
   3   9  16    1.23    1.76
  -3  -9 -16   -0.10    1.72
   4 -10 -13    4.05    2.32
   4  -9 -13    2.23    1.98
   4  -8 -13    4.13    2.21
   4  -7 -13    1.85    1.73
   4  -6 -13    2.63    1.95
   4  -5 -13   13.08    3.14
   4  -4 -13    3.82    1.99
   4  -3 -13   13.61    3.07
   4  -2 -13    7.40    2.47
   4  -1 -13    2.32    1.80
  -4  12  12    0.93    1.53
   4 -11 -12    3.06    2.06
  -4  11  12    4.97    2.22
   4 -10 -12    2.80    1.98
   4  -9 -12   -0.18    1.48
   4  -8 -12    0.11    1.44
   4  -7 -12   13.64    3.10
   4  -6 -12   28.92    4.30
   4  -5 -12    1.17    1.68
   4  -4 -12    2.74    1.81
   4  -3 -12    5.29    2.10
   4  -2 -12    0.52    1.43
   4  -1 -12    0.66    1.46
   4   0 -12   32.69    3.79
   4   1 -12   36.70    3.90
   4   2 -12    1.72    1.49
   4   2 -12    1.18    1.76
  -4  13  11   17.26    3.04
  -4  12  11    0.51    1.46
   4 -11 -11    3.98    2.09
  -4  11  11    4.28    2.01
   4 -10 -11    7.82    2.49
   4  -9 -11   33.68    4.02
   4  -8 -11    9.94    2.76
   4  -7 -11    7.95    2.38
   4  -6 -11    4.01    1.91
   4  -5 -11    3.82    1.86
   4  -4 -11   54.41    4.72
   4  -3 -11    1.70    1.43
   4  -2 -11    1.02    1.40
   4  -1 -11    0.88    1.28
   4   0 -11    0.24    1.31
   4   1 -11   58.55    4.50
   4   1 -11   52.73    4.86
   4   2 -11    3.65    1.69
   4   2 -11    4.48    2.15
   4   3 -11    0.07    1.39
   4   4 -11    2.55    1.81
  -4  14  10    0.50    1.54
  -4  13  10    0.12    1.26
  -4  13  10    2.23    1.73
  -4  12  10   -0.93    1.16
  -4  12  10    0.29    1.37
  -4  11  10   33.56    3.66
  -4  11  10   30.34    4.36
   4 -10 -10   -0.25    1.23
   4  -9 -10    7.01    2.29
   4  -8 -10    9.95    2.48
   4  -7 -10    1.73    1.44
   4  -6 -10    1.28    1.35
   4  -5 -10    4.00    1.80
   4  -4 -10    0.43    1.24
   4  -3 -10   24.73    3.53
   4  -2 -10  142.80    6.72
   4  -1 -10    0.71    1.26
   4   0 -10    1.56    1.33
   4   0 -10    2.12    1.56
   4   1 -10    5.89    1.92
   4   1 -10    6.55    2.13
   4   2 -10    9.19    2.16
   4   2 -10    7.35    2.22
   4   3 -10    3.56    1.55
   4   3 -10    4.52    1.88
   4   4 -10    0.27    1.43
   4   5 -10    3.60    1.81
  -4  15   9   -0.90    1.28
  -4  14   9    2.55    1.61
  -4  13   9    7.70    1.86
  -4  13   9    8.34    2.36
  -4  12   9    6.82    1.89
  -4  12   9    6.28    2.19
  -4  11   9   26.59    3.47
  -4  11   9   22.25    3.49
   4 -10  -9   17.60    3.14
  -4  10   9   21.05    3.10
  -4  10   9   23.56    3.59
   4  -9  -9   13.48    2.86
  -4   9   9   13.55    2.82
   4  -8  -9   17.21    3.01
   4  -7  -9    9.76    2.30
   4  -6  -9   19.53    3.03
   4  -5  -9   12.43    2.61
   4  -4  -9   20.10    2.97
   4  -3  -9   10.54    2.44
   4  -2  -9    0.99    1.11
   4  -1  -9    3.78    1.56
   4  -1  -9    2.87    1.55
   4   0  -9    3.25    1.50
   4   0  -9    1.17    1.37
   4   1  -9   22.85    2.80
   4   1  -9   27.31    3.30
   4   2  -9    2.71    1.39
   4   2  -9    3.70    1.69
   4   3  -9    3.95    1.48
   4   3  -9    1.39    1.28
   4   4  -9   10.50    1.98
   4   4  -9   10.26    2.33
   4   5  -9   23.98    3.49
   4   6  -9    4.79    1.89
   4   7  -9   -0.22    1.20
  -4  15   8   14.20    2.90
  -4  14   8    1.43    1.40
  -4  13   8    3.06    1.68
  -4  12   8    2.47    1.34
  -4  12   8    4.08    1.79
  -4  11   8    4.08    1.60
  -4  11   8    4.95    1.76
  -4  10   8   38.57    3.35
  -4  10   8   37.48    3.67
   4  -9  -8    2.40    1.58
  -4   9   8    1.48    1.26
   4  -8  -8    8.34    2.08
  -4   8   8    9.99    2.12
   4  -7  -8  144.92    6.44
  -4   7   8  142.50    6.39
   4  -6  -8    1.77    1.15
   4  -5  -8    6.58    1.84
   4  -4  -8    0.53    1.04
   4  -3  -8  123.90    5.72
   4  -2  -8    2.87    1.34
   4  -2  -8    4.60    1.76
   4  -1  -8   37.60    3.27
   4  -1  -8   36.85    3.41
   4   0  -8   -0.19    0.87
   4   0  -8   -0.22    0.83
   4   1  -8    0.40    0.95
   4   1  -8   -1.24    0.79
   4   2  -8   13.47    2.30
   4   2  -8   11.64    2.27
   4   3  -8   16.05    2.37
   4   3  -8   16.11    2.71
   4   4  -8    5.82    1.54
   4   4  -8    4.34    1.59
   4   5  -8    5.31    1.84
   4   6  -8   -0.40    1.06
   4   7  -8    4.69    1.87
   4   8  -8    9.46    2.32
  -4  15   7    1.73    1.48
  -4  14   7   18.38    3.00
  -4  13   7   12.90    2.54
  -4  12   7    9.77    1.79
  -4  12   7    8.95    2.18
  -4  11   7   82.29    4.17
  -4  11   7   75.18    4.73
  -4  11   7   84.18    4.60
  -4  10   7  217.61    6.76
  -4  10   7  208.67    7.53
  -4  10   7  214.95    7.24
   4  -9  -7   -0.35    0.97
  -4   9   7   -0.17    0.82
  -4   9   7   -0.60    0.78
  -4   9   7    0.76    0.91
   4  -8  -7  128.34    5.84
  -4   8   7  134.59    5.93
   4  -7  -7   47.61    3.68
  -4   7   7   46.31    3.63
   4  -6  -7  131.35    5.74
  -4   6   7  121.79    5.53
   4  -5  -7   25.63    2.76
  -4   5   7   18.59    2.57
   4  -4  -7   16.22    2.43
   4  -3  -7   13.32    2.28
   4  -2  -7   63.13    3.95
   4  -2  -7   66.50    4.08
   4  -1  -7   26.54    2.68
   4  -1  -7   25.83    2.76
   4   0  -7   -0.44    0.75
   4   0  -7    0.79    0.98
   4   1  -7   11.98    2.10
   4   1  -7   15.46    2.48
   4   2  -7   27.87    2.64
   4   2  -7   25.88    2.82
   4   3  -7   13.61    2.10
   4   3  -7   12.04    2.23
   4   4  -7   21.01    2.23
   4   4  -7   18.53    2.70
   4   5  -7   71.16    3.76
   4   5  -7   62.99    4.25
   4   6  -7    8.63    2.06
   4   7  -7    9.57    2.13
   4   8  -7   -0.97    0.81
   4   9  -7   46.02    3.91
  -4  15   6    1.59    1.36
  -4  14   6    2.70    1.48
  -4  13   6    3.06    1.44
  -4  12   6    8.25    1.93
  -4  11   6  383.53    7.67
  -4  11   6  370.59    9.56
  -4  11   6  376.19    8.71
  -4  10   6    0.60    0.91
  -4  10   6    0.85    1.04
  -4  10   6    1.74    1.06
  -4   9   6    9.21    1.76
  -4   9   6    9.35    2.03
  -4   9   6    7.22    1.62
   4  -8  -6   20.76    2.51
  -4   8   6   19.57    2.25
  -4   8   6   17.32    2.51
  -4   8   6   20.38    2.35
   4  -7  -6   22.04    2.51
  -4   7   6   22.32    2.52
  -4   7   6   21.33    2.40
   4  -6  -6    2.91    1.21
  -4   6   6    1.61    1.00
  -4   6   6    1.21    1.06
   4  -5  -6   -0.13    0.73
  -4   5   6   -0.32    0.71
  -4   5   6    0.13    0.73
   4  -4  -6    0.68    0.93
  -4   4   6    0.86    0.94
  -4   4   6    0.78    0.82
   4  -3  -6   -0.35    0.76
   4  -3  -6    0.61    0.83
  -4   3   6    0.73    0.91
  -4   3   6    0.42    0.79
   4  -2  -6   -0.19    0.77
   4  -2  -6    0.08    0.66
   4  -1  -6   31.19    2.68
   4  -1  -6   35.17    2.88
   4   0  -6    7.06    1.57
   4   0  -6    8.42    1.78
   4   1  -6   72.14    3.80
   4   1  -6   76.22    4.17
   4   2  -6   18.34    2.12
   4   2  -6   18.13    2.49
   4   3  -6   20.93    2.16
   4   3  -6   16.37    2.44
   4   4  -6   73.53    3.58
   4   4  -6   70.82    4.15
   4   5  -6   60.33    3.05
   4   5  -6   51.87    3.69
   4   6  -6    2.47    1.23
   4   7  -6    4.18    1.44
   4   8  -6   32.73    3.13
   4   9  -6    0.70    1.08
   4  10  -6   10.37    2.17
  -4  16   5    3.88    1.43
  -4  15   5    1.74    1.20
  -4  14   5    5.05    1.64
  -4  13   5   -0.31    0.83
  -4  12   5   58.20    3.81
  -4  11   5    0.66    0.97
  -4  11   5    0.21    0.65
  -4  10   5   27.28    2.16
  -4  10   5   28.44    2.73
  -4  10   5   26.87    2.41
  -4   9   5   81.83    3.63
  -4   9   5   80.31    4.19
  -4   9   5   74.72    3.81
   4  -8  -5   61.32    3.66
  -4   8   5   59.47    3.25
  -4   8   5   60.09    3.61
  -4   8   5   68.19    3.68
   4  -7  -5   26.67    2.51
  -4   7   5   26.56    2.33
  -4   7   5   26.59    2.51
  -4   7   5   25.82    2.41
   4  -6  -5   32.65    2.68
   4  -6  -5   35.10    2.78
  -4   6   5   30.60    2.53
  -4   6   5   28.68    2.56
  -4   6   5   36.56    2.78
   4  -5  -5   72.61    3.78
   4  -5  -5   77.81    3.93
  -4   5   5   77.62    3.91
  -4   5   5   84.98    4.08
   4  -4  -5   29.82    2.52
   4  -4  -5   32.09    2.62
  -4   4   5   29.75    2.52
  -4   4   5   28.10    2.51
   4  -3  -5   73.93    3.76
   4  -3  -5   69.75    3.60
   4  -3  -5   69.25    3.68
  -4   3   5   72.13    3.69
  -4   3   5   69.20    3.71
   4  -2  -5   28.70    2.44
   4  -2  -5   30.42    2.50
   4  -2  -5   29.25    2.52
  -4   2   5   26.81    2.35
   4  -1  -5   28.06    2.40
   4  -1  -5   26.84    2.38
   4  -1  -5   30.04    2.55
  -4   1   5   29.01    2.52
   4   0  -5   -0.12    0.62
   4   0  -5   -0.14    0.61
   4   0  -5    0.39    0.66
  -4   0   5    0.23    0.66
   4   1  -5   37.23    2.68
   4   1  -5   39.51    2.89
   4   1  -5   42.17    2.96
   4   2  -5   15.16    1.84
   4   2  -5   12.02    1.93
   4   2  -5   15.29    2.19
   4   3  -5   71.58    3.51
   4   3  -5   74.85    3.95
   4   3  -5   77.61    3.92
  -4  -3   5   71.61    3.93
   4   4  -5   11.68    1.74
   4   4  -5   13.65    2.13
   4   4  -5   14.47    2.16
   4   5  -5   51.40    2.73
   4   5  -5   50.60    3.40
   4   5  -5   52.57    3.21
   4   6  -5    1.33    1.02
   4   6  -5    2.62    1.06
   4   7  -5    1.33    1.02
   4   7  -5    0.65    0.75
   4   8  -5    3.34    1.35
   4   9  -5    0.34    0.92
   4  10  -5    5.80    1.69
   4  11  -5    1.63    1.17
  -4  16   4    3.11    1.33
  -4  15   4   35.97    3.05
  -4  14   4    6.73    1.65
  -4  13   4    7.77    1.73
  -4  12   4   17.76    2.18
  -4  11   4  178.57    5.92
  -4  11   4  190.76    5.02
  -4  10   4    6.89    1.07
  -4  10   4    4.18    1.28
  -4  10   4    6.37    1.27
  -4   9   4  129.45    3.94
  -4   9   4  124.95    4.82
  -4   9   4  129.47    4.51
  -4   8   4   14.89    1.63
  -4   8   4   13.84    2.02
  -4   8   4   12.68    1.82
   4  -7  -4    8.61    1.65
  -4   7   4    7.01    1.35
  -4   7   4    7.04    1.52
  -4   7   4    8.23    1.54
   4  -6  -4  147.82    5.00
  -4   6   4  139.68    4.58
  -4   6   4  153.47    5.09
  -4   6   4  168.73    5.26
   4  -5  -4   14.13    2.00
   4  -5  -4   15.04    2.15
  -4   5   4   13.59    1.65
  -4   5   4   12.70    1.84
  -4   5   4   11.56    1.73
   4  -4  -4   10.65    1.65
   4  -4  -4   13.28    1.94
  -4   4   4   11.41    1.66
  -4   4   4   12.56    1.76
  -4   4   4   13.26    1.89
   4  -3  -4  452.50    8.45
   4  -3  -4  475.98    8.50
   4  -3  -4  479.61    8.82
  -4   3   4  457.10    8.45
  -4   3   4  461.03    8.65
   4  -2  -4    5.56    1.28
   4  -2  -4    5.91    1.31
   4  -2  -4    8.16    1.57
  -4   2   4    5.84    1.25
  -4   2   4    5.55    1.35
   4  -1  -4   39.43    2.60
   4  -1  -4   34.41    2.46
   4  -1  -4   40.41    2.69
  -4   1   4   35.82    2.48
   4   0  -4    8.45    1.56
   4   0  -4   11.14    1.73
   4   0  -4    9.32    1.58
  -4   0   4   10.24    1.70
   4   1  -4   43.99    2.72
   4   1  -4   45.56    2.84
   4   1  -4   47.10    2.92
  -4  -1   4   46.82    2.91
  -4  -1   4   47.09    2.94
   4   2  -4   11.54    1.67
   4   2  -4   10.70    1.75
   4   2  -4   12.60    1.81
  -4  -2   4   14.66    1.81
  -4  -2   4   12.99    1.95
   4   3  -4   96.03    3.79
   4   3  -4   97.54    4.18
   4   3  -4  113.19    4.40
  -4  -3   4   96.60    4.16
  -4  -3   4  108.77    4.46
   4   4  -4   16.53    1.75
   4   4  -4   14.44    1.99
   4   4  -4   19.71    2.06
  -4  -4   4   18.57    2.15
   4   5  -4  180.07    4.72
   4   5  -4  199.63    6.08
   4   5  -4  192.67    5.60
   4   6  -4   12.30    1.34
   4   6  -4   10.49    1.82
   4   6  -4   14.75    1.81
   4   7  -4    0.37    0.84
   4   7  -4    0.75    0.78
   4   8  -4    3.26    1.21
   4   8  -4    2.74    0.92
   4   9  -4    1.51    1.00
   4  10  -4    5.19    1.49
   4  11  -4    2.33    1.14
   4  12  -4    0.48    0.93
  -4  16   3    3.51    1.27
  -4  15   3   15.94    2.20
  -4  14   3    3.29    1.19
  -4  13   3    0.63    0.82
  -4  12   3    9.86    1.69
  -4  11   3    0.14    0.56
  -4  11   3    0.31    0.49
  -4  10   3    0.97    0.77
  -4  10   3    0.81    0.64
  -4   9   3    0.14    0.48
  -4   9   3    0.45    0.70
  -4   9   3   -0.08    0.47
  -4   8   3   13.98    1.38
  -4   8   3   10.33    1.60
  -4   8   3   14.60    1.59
   4  -7  -3    0.48    0.68
  -4   7   3    0.65    0.57
  -4   7   3    0.32    0.63
  -4   7   3    0.48    0.58
   4  -6  -3   12.35    1.54
  -4   6   3   13.94    1.50
  -4   6   3   13.94    1.61
  -4   6   3   13.85    1.60
   4  -5  -3   13.34    1.59
   4  -5  -3   14.51    1.64
  -4   5   3   14.50    1.56
  -4   5   3   12.99    1.60
  -4   5   3   16.01    1.69
   4  -4  -3    4.04    1.08
   4  -4  -3    2.75    0.84
  -4   4   3    3.68    1.01
  -4   4   3    3.54    0.96
  -4   4   3    4.08    1.03
   4  -3  -3   17.99    1.77
   4  -3  -3   16.93    1.74
  -4   3   3   17.19    1.70
  -4   3   3   14.21    1.58
  -4   3   3   18.06    1.79
   4  -2  -3  156.83    4.67
   4  -2  -3  162.64    4.68
   4  -2  -3  153.91    4.71
  -4   2   3  156.39    4.63
  -4   2   3  163.38    4.74
  -4   2   3  162.03    4.84
   4  -1  -3   13.34    1.57
   4  -1  -3   15.32    1.66
   4  -1  -3   14.23    1.62
  -4   1   3   11.60    1.62
  -4   1   3   15.70    1.64
   4   0  -3  161.69    4.72
   4   0  -3  162.63    4.79
   4   0  -3  164.26    4.90
  -4   0   3  171.90    4.94
  -4   0   3  159.30    4.84
   4   1  -3    0.58    0.60
   4   1  -3    0.29    0.58
   4   1  -3    0.40    0.57
  -4  -1   3    0.18    0.66
  -4  -1   3   -0.61    0.42
   4   2  -3    5.63    1.19
   4   2  -3    5.47    1.21
   4   2  -3    6.38    1.27
  -4  -2   3    7.03    1.40
  -4  -2   3    6.06    1.24
   4   3  -3    3.05    0.93
   4   3  -3    3.51    1.06
   4   3  -3    5.21    1.17
  -4  -3   3    3.95    1.14
  -4  -3   3    5.20    1.25
   4   4  -3   53.48    2.66
   4   4  -3   49.45    2.90
   4   4  -3   59.78    3.09
  -4  -4   3   55.35    3.06
  -4  -4   3   57.70    3.13
   4   5  -3   26.04    1.86
   4   5  -3   23.85    2.18
   4   5  -3   28.43    2.21
   4   6  -3   35.53    1.95
   4   6  -3   32.55    2.53
   4   6  -3   35.13    2.40
   4   7  -3    0.77    0.83
   4   7  -3    2.53    0.93
   4   8  -3    0.40    0.76
   4   8  -3   -0.05    0.54
   4   9  -3    3.45    1.25
   4  10  -3   25.92    2.54
   4  11  -3    5.18    1.49
   4  12  -3    4.66    1.41
  -4  15   2   -0.46    0.66
  -4  14   2   -0.02    0.73
  -4  13   2    0.42    0.73
  -4  12   2   20.10    1.95
  -4  11   2    0.47    0.67
  -4  10   2   47.77    2.68
  -4   9   2    7.82    1.35
  -4   9   2    9.05    1.18
  -4   8   2    1.25    0.49
  -4   8   2    1.50    0.69
  -4   8   2    0.66    0.52
  -4   7   2  202.49    4.05
  -4   7   2  191.53    4.92
  -4   7   2  221.52    4.92
   4  -6  -2    0.61    0.59
  -4   6   2   -0.37    0.39
  -4   6   2    0.37    0.55
  -4   6   2    1.08    0.65
   4  -5  -2  113.26    3.73
   4  -5  -2  121.78    3.88
  -4   5   2  111.09    3.43
  -4   5   2  108.42    3.66
  -4   5   2  119.36    3.78
   4  -4  -2   14.98    1.52
   4  -4  -2   13.82    1.47
  -4   4   2   14.46    1.42
  -4   4   2   12.74    1.43
  -4   4   2   14.31    1.49
   4  -3  -2  537.40    7.96
   4  -3  -2  529.03    8.00
  -4   3   2  552.45    7.87
  -4   3   2  518.87    7.81
  -4   3   2  567.27    8.26
   4  -2  -2    8.75    1.36
   4  -2  -2    6.85    1.19
  -4   2   2    8.52    1.28
  -4   2   2    6.90    1.15
  -4   2   2    8.14    1.24
   4  -1  -2   41.08    2.30
   4  -1  -2   36.97    2.20
   4  -1  -2   39.97    2.34
  -4   1   2   39.58    2.30
  -4   1   2   41.88    2.33
   4   0  -2  114.23    3.75
   4   0  -2  118.27    3.82
   4   0  -2  120.65    3.94
  -4   0   2  115.22    3.81
  -4   0   2  120.29    4.06
   4   1  -2  233.49    5.30
   4   1  -2  219.67    5.25
   4   1  -2  249.34    5.67
  -4  -1   2  241.22    5.51
  -4  -1   2  262.27    5.85
   4   2  -2    0.55    0.59
   4   2  -2    0.12    0.51
   4   2  -2    0.31    0.55
  -4  -2   2    0.36    0.62
  -4  -2   2    0.28    0.58
   4   3  -2   15.69    1.53
   4   3  -2   16.74    1.66
   4   3  -2   19.95    1.78
  -4  -3   2   16.71    1.69
  -4  -3   2   18.62    1.79
   4   4  -2   38.16    2.17
   4   4  -2   38.51    2.42
   4   4  -2   39.16    2.40
  -4  -4   2   39.88    2.52
  -4  -4   2   39.51    2.48
   4   5  -2   14.01    1.40
   4   5  -2   13.82    1.63
   4   5  -2   14.48    1.61
  -4  -5   2   14.09    1.88
   4   6  -2   33.34    1.87
   4   6  -2   26.74    2.20
   4   6  -2   33.45    2.25
   4   7  -2   17.91    1.93
   4   7  -2   16.66    1.67
   4   8  -2   51.84    3.08
   4   8  -2   55.30    2.62
   4   9  -2   43.59    2.96
   4   9  -2   43.74    2.11
   4  10  -2   16.63    2.07
   4  11  -2   12.30    2.01
   4  12  -2   19.25    2.32
   4  13  -2   14.07    2.23
  -4  15   1    0.77    0.72
  -4  14   1    6.16    1.21
  -4  13   1   30.83    2.12
  -4  12   1    1.12    0.71
  -4  11   1   20.86    1.76
  -4  10   1   10.24    1.42
  -4   9   1    0.94    0.64
  -4   8   1   28.61    1.89
  -4   8   1   26.14    1.80
  -4   8   1   26.99    1.84
  -4   8   1   25.89    1.43
  -4   7   1  270.17    3.08
  -4   7   1  264.11    5.28
  -4   7   1  273.83    5.34
  -4   7   1  274.96    4.75
   4  -6  -1    0.19    0.49
  -4   6   1    0.66    0.45
  -4   6   1   -0.17    0.41
  -4   6   1   -0.02    0.37
  -4   6   1    0.50    0.47
   4  -5  -1   -0.01    0.49
  -4   5   1    0.27    0.43
  -4   5   1    0.40    0.48
  -4   5   1    0.44    0.48
   4  -4  -1  557.44    7.50
   4  -4  -1  569.72    7.64
  -4   4   1  555.71    6.99
  -4   4   1  550.93    7.46
  -4   4   1  565.72    7.50
   4  -3  -1  244.92    5.02
   4  -3  -1  243.90    5.06
  -4   3   1  244.96    4.82
  -4   3   1  245.68    5.01
  -4   3   1  250.32    5.09
   4  -2  -1   99.29    3.25
   4  -2  -1  100.72    3.32
  -4   2   1  103.59    3.25
  -4   2   1   98.69    3.23
  -4   2   1  106.60    3.41
   4  -1  -1   41.86    2.20
   4  -1  -1   42.23    2.22
  -4   1   1   39.65    2.14
  -4   1   1   41.55    2.16
  -4   1   1   45.40    2.32
   4   0  -1  994.79   10.21
   4   0  -1  989.34   10.16
   4   0  -1  979.98   10.39
  -4   0   1  959.58   10.05
   4   1  -1   51.62    2.45
   4   1  -1   49.41    2.41
   4   1  -1   46.26    2.40
  -4  -1   1   51.68    2.50
  -4  -1   1   50.83    2.52
   4   2  -1   39.41    2.18
   4   2  -1   36.75    2.16
   4   2  -1   37.24    2.21
  -4  -2   1   36.71    2.17
  -4  -2   1   38.43    2.26
   4   3  -1   34.96    2.06
   4   3  -1   36.98    2.21
   4   3  -1   35.29    2.18
  -4  -3   1   36.83    2.22
  -4  -3   1   37.54    2.27
   4   4  -1   27.11    1.80
   4   4  -1   24.56    1.89
   4   4  -1   28.88    2.02
  -4  -4   1   29.02    2.07
  -4  -4   1   29.63    2.07
   4   5  -1   48.30    2.28
   4   5  -1   45.96    2.56
   4   5  -1   52.05    2.63
  -4  -5   1   49.10    2.67
  -4  -5   1   48.68    2.65
   4   6  -1   35.13    1.89
   4   6  -1   31.63    2.25
   4   6  -1   37.72    2.28
   4   7  -1    1.29    0.55
   4   7  -1    1.15    0.74
   4   7  -1    1.09    0.68
   4   8  -1   -0.06    0.62
   4   8  -1    0.72    0.66
   4   9  -1    9.99    1.68
   4   9  -1   12.62    1.34
   4  10  -1   12.46    1.91
   4  11  -1   -0.13    0.75
   4  12  -1   28.63    2.58
   4  13  -1    0.94    0.87
   4  14  -1    9.92    1.84
  -4  13   0   38.57    1.99
  -4  12   0    0.69    0.60
  -4  11   0   15.26    1.39
  -4  10   0    0.17    0.46
  -4  10   0    0.07    0.48
  -4   9   0   73.77    2.63
  -4   9   0   73.28    2.64
  -4   9   0   70.42    2.58
  -4   8   0   65.65    2.48
  -4   8   0   71.57    2.57
  -4   7   0    0.14    0.41
  -4   7   0    0.15    0.40
  -4   7   0    0.33    0.34
  -4   6   0    8.85    1.05
  -4   6   0    9.08    1.02
  -4   6   0    8.04    0.90
  -4   5   0    1.19    0.46
  -4   5   0    1.76    0.57
  -4   5   0    1.19    0.53
  -4   5   0    1.33    0.52
   4  -4   0  855.66    8.64
  -4   4   0  870.30    7.72
  -4   4   0  823.57    8.41
  -4   4   0  921.09    8.71
   4  -3   0  124.70    3.35
   4  -3   0  128.08    3.43
  -4   3   0  124.11    3.16
  -4   3   0  123.21    3.33
  -4   3   0  131.87    3.45
   4  -2   0   25.66    1.65
   4  -2   0   24.62    1.64
  -4   2   0   23.59    1.57
  -4   2   0   24.33    1.58
  -4   2   0   25.33    1.65
   4  -1   0  226.79    4.60
   4  -1   0  206.67    4.47
  -4   1   0  209.79    4.37
  -4   1   0  215.63    4.47
  -4   1   0  215.39    4.57
   4   0   0   14.71    1.39
   4   0   0   13.41    1.32
  -4   0   0   15.79    1.41
   4   1   0    1.45    0.67
   4   1   0    1.72    0.65
   4   1   0    1.30    0.62
  -4  -1   0    1.12    0.66
  -4  -1   0    1.58    0.66
   4   2   0   26.37    1.79
   4   2   0   24.62    1.74
   4   2   0   25.49    1.79
  -4  -2   0   22.35    1.69
  -4  -2   0   26.79    1.82
   4   3   0   72.76    2.78
   4   3   0   68.02    2.80
   4   3   0   67.36    2.81
  -4  -3   0   69.76    2.85
  -4  -3   0   68.71    2.87
   4   4   0  272.03    5.24
   4   4   0  267.40    5.58
   4   4   0  283.42    5.70
  -4  -4   0  274.54    5.65
  -4  -4   0  298.47    5.95
   4   5   0    3.34    0.83
   4   5   0    3.50    0.92
   4   5   0    4.98    1.04
  -4  -5   0    4.29    1.06
  -4  -5   0    3.91    0.97
   4   6   0    6.71    1.04
   4   6   0    7.52    1.26
   4   6   0    7.46    1.22
  -4  -6   0    6.52    1.31
   4   7   0    0.62    0.51
   4   7   0    0.78    0.68
   4   7   0    0.72    0.64
   4   8   0    6.15    1.29
   4   8   0    7.62    1.23
   4   9   0   11.15    1.71
   4   9   0   11.16    1.34
   4  10   0    1.66    0.95
   4  11   0    3.62    1.19
   4  12   0    9.26    1.72
   4  13   0   20.15    2.29
   4  14   0    7.52    1.70
  -4  12  -1   16.88    1.15
  -4  12  -1   16.37    1.17
  -4  11  -1    2.90    0.69
  -4  11  -1    3.12    0.70
  -4  10  -1   13.63    1.16
  -4  10  -1   13.94    1.17
  -4   9  -1   46.20    1.91
  -4   9  -1   48.83    1.95
  -4   8  -1   16.78    1.23
  -4   8  -1   17.72    1.25
  -4   7  -1   10.20    1.01
  -4   7  -1    9.46    0.96
  -4   6  -1    2.64    0.61
  -4   6  -1    3.71    0.69
  -4   5  -1    6.56    0.90
  -4   5  -1    6.73    0.90
  -4   5  -1    7.05    0.79
  -4   4  -1    5.94    0.72
  -4   4  -1    6.40    0.91
  -4   4  -1    7.14    0.89
   4  -3   1  929.11    8.60
  -4   3  -1  906.11    7.63
  -4   3  -1  867.95    8.20
  -4   3  -1  969.58    8.59
   4  -2   1   39.79    1.89
   4  -2   1   43.38    1.99
  -4   2  -1   40.48    1.83
  -4   2  -1   36.71    1.81
  -4   2  -1   41.45    1.94
   4  -1   1   39.56    1.94
   4  -1   1   38.10    1.93
  -4   1  -1   37.40    1.85
  -4   1  -1   38.76    1.90
  -4   1  -1   38.32    1.94
   4   0   1    0.34    0.54
   4   0   1    0.45    0.51
  -4   0  -1    0.11    0.51
  -4   0  -1    0.21    0.46
  -4   0  -1    0.33    0.46
   4   1   1  182.88    4.15
   4   1   1  174.72    4.04
   4   1   1  164.62    4.03
  -4  -1  -1  177.93    4.10
   4   2   1  180.32    4.17
   4   2   1  179.85    4.22
   4   2   1  178.25    4.30
  -4  -2  -1  181.84    4.27
  -4  -2  -1  186.67    4.41
   4   3   1   32.27    1.89
   4   3   1   32.43    1.94
   4   3   1   31.40    1.97
  -4  -3  -1   32.35    1.97
  -4  -3  -1   35.74    2.08
   4   4   1  192.57    4.40
   4   4   1  205.96    4.80
   4   4   1  213.86    4.90
  -4  -4  -1  213.40    4.90
  -4  -4  -1  226.31    5.11
   4   5   1  212.31    4.61
   4   5   1  199.03    4.88
   4   5   1  215.73    5.00
  -4  -5  -1  220.24    5.13
  -4  -5  -1  223.59    5.21
   4   6   1   51.72    2.30
   4   6   1   50.97    2.64
   4   6   1   56.19    2.66
  -4  -6  -1   54.06    2.73
  -4  -6  -1   52.01    2.66
   4   7   1  102.93    3.04
   4   7   1   99.51    3.74
   4   7   1  102.52    3.55
   4   8   1   10.34    1.05
   4   8   1   10.74    1.62
   4   8   1    9.86    1.39
   4   9   1    3.96    1.13
   4   9   1    5.85    1.13
   4  10   1    4.79    1.23
   4  10   1    4.67    0.98
   4  10   1    4.88    0.98
   4  11   1    9.53    1.69
   4  12   1   16.36    2.23
   4  13   1    7.42    1.67
   4  14   1   19.15    2.29
   4  15   1   28.83    2.71
  -4  10  -2   18.61    1.11
  -4  10  -2   19.99    1.13
  -4   9  -2    1.52    0.50
  -4   9  -2    1.37    0.50
  -4   8  -2   71.79    2.13
  -4   8  -2   74.76    2.16
  -4   7  -2   51.64    1.85
  -4   7  -2   56.74    1.92
  -4   6  -2   27.28    1.40
  -4   6  -2   27.54    1.40
  -4   5  -2    1.90    0.55
  -4   5  -2    1.32    0.48
  -4   4  -2   17.72    0.81
  -4   4  -2   17.31    1.20
  -4   4  -2   17.66    1.21
  -4   4  -2   20.18    1.19
   4  -3   2  296.33    4.75
  -4   3  -2  295.55    4.04
  -4   3  -2  283.94    4.58
  -4   3  -2  289.63    4.52
   4  -2   2  183.05    3.86
  -4   2  -2  189.24    3.62
  -4   2  -2  179.58    3.76
  -4   2  -2  192.22    3.89
   4  -1   2    7.72    1.08
   4  -1   2    5.67    0.90
  -4   1  -2    6.66    0.96
  -4   1  -2    7.70    1.03
  -4   1  -2    6.57    0.91
   4   0   2   -0.27    0.44
   4   0   2   -0.22    0.40
  -4   0  -2    0.36    0.56
  -4   0  -2   -0.05    0.41
  -4   0  -2   -0.07    0.37
   4   1   2   16.20    1.40
   4   1   2   17.32    1.44
  -4  -1  -2   18.09    1.48
   4   2   2    1.07    0.63
   4   2   2    0.81    0.57
   4   2   2    1.04    0.55
  -4  -2  -2    0.85    0.58
  -4  -2  -2    1.46    0.66
   4   3   2    3.70    0.89
   4   3   2    4.11    0.92
   4   3   2    3.00    0.85
  -4  -3  -2    4.45    1.00
  -4  -3  -2    4.07    0.99
   4   4   2   41.21    2.14
   4   4   2   41.21    2.24
   4   4   2   43.84    2.33
  -4  -4  -2   44.57    2.34
  -4  -4  -2   45.63    2.39
   4   5   2   16.95    1.49
   4   5   2   13.84    1.48
   4   5   2   17.71    1.61
  -4  -5  -2   16.65    1.62
  -4  -5  -2   18.09    1.65
   4   6   2    0.27    0.49
   4   6   2    0.65    0.58
   4   6   2    0.82    0.63
  -4  -6  -2    0.49    0.68
  -4  -6  -2   -0.12    0.47
   4   7   2   52.30    2.35
   4   7   2   49.44    2.71
   4   7   2   56.85    2.75
  -4  -7  -2   54.88    2.86
   4   8   2    2.84    0.76
   4   8   2    3.12    0.95
   4   8   2    2.25    0.84
   4   9   2    0.71    0.49
   4   9   2    1.11    0.76
   4   9   2    0.99    0.66
   4  10   2    2.72    1.04
   4  10   2    2.47    0.90
   4  10   2    1.96    0.77
   4  11   2   16.56    2.02
   4  11   2   19.39    1.59
   4  12   2    2.94    1.19
   4  13   2    5.88    1.52
   4  14   2    3.87    1.36
   4  15   2    2.41    1.26
  -4   9  -3   55.73    1.73
  -4   9  -3   55.79    1.74
  -4   8  -3  249.49    3.76
  -4   8  -3  248.77    3.74
  -4   7  -3  203.17    3.53
  -4   7  -3  207.48    3.55
  -4   6  -3   83.94    2.37
  -4   6  -3   85.06    2.37
  -4   5  -3   14.80    1.12
  -4   5  -3   16.22    1.15
  -4   4  -3    1.07    0.46
  -4   4  -3    0.36    0.39
  -4   3  -3   32.28    1.35
  -4   3  -3   32.65    1.66
   4  -2   3  331.81    5.26
  -4   2  -3  302.87    4.53
  -4   2  -3  319.47    5.09
  -4   2  -3  331.99    5.14
   4  -1   3   26.87    1.65
   4  -1   3   25.37    1.63
  -4   1  -3   25.51    1.54
  -4   1  -3   27.32    1.64
  -4   1  -3   27.98    1.67
   4   0   3  153.41    3.77
   4   0   3  157.19    3.89
  -4   0  -3  149.26    3.65
  -4   0  -3  149.81    3.71
  -4   0  -3  152.47    3.82
   4   1   3    0.29    0.51
   4   1   3   -0.16    0.43
  -4  -1  -3    0.43    0.52
  -4  -1  -3    0.24    0.45
  -4  -1  -3   -0.17    0.42
   4   2   3   10.65    1.27
   4   2   3   10.32    1.33
  -4  -2  -3    9.97    1.34
   4   3   3  118.40    3.58
   4   3   3  121.44    3.67
   4   3   3  119.15    3.69
  -4  -3  -3  115.81    3.61
  -4  -3  -3  128.37    3.85
   4   4   3    7.39    1.24
   4   4   3    6.34    1.11
   4   4   3    8.78    1.38
  -4  -4  -3    7.19    1.23
  -4  -4  -3    6.44    1.22
   4   5   3    7.77    1.20
   4   5   3    8.08    1.25
   4   5   3   10.07    1.49
  -4  -5  -3   10.77    1.55
  -4  -5  -3    9.43    1.39
   4   6   3  138.14    3.99
   4   6   3  128.62    4.17
   4   6   3  139.77    4.28
  -4  -6  -3  131.89    4.26
  -4  -6  -3  142.93    4.42
   4   7   3   66.96    2.81
   4   7   3   64.78    3.13
   4   7   3   73.03    3.18
  -4  -7  -3   71.71    3.33
  -4  -7  -3   66.13    3.14
   4   8   3   20.67    1.66
   4   8   3   20.76    1.98
   4   8   3   22.55    1.92
   4   9   3   48.38    2.23
   4   9   3   43.58    2.83
   4   9   3   50.72    2.76
   4  10   3    0.33    0.73
   4  10   3    0.12    0.63
   4  10   3    0.28    0.61
   4  11   3    0.42    0.78
   4  11   3    0.30    0.65
   4  11   3    0.53    0.57
   4  12   3  149.23    5.52
   4  13   3    0.07    0.85
   4  14   3   33.16    2.97
   4  15   3   12.10    2.17
  -4   9  -4    7.98    0.84
  -4   9  -4    8.02    0.86
  -4   8  -4   31.41    1.50
  -4   8  -4   31.46    1.50
  -4   7  -4   97.66    2.64
  -4   7  -4   96.29    2.61
  -4   6  -4   32.00    1.62
  -4   6  -4   34.37    1.66
  -4   5  -4   23.72    1.44
  -4   5  -4   25.17    1.48
  -4   4  -4   86.04    2.68
  -4   4  -4   86.06    2.67
  -4   3  -4   40.12    1.51
  -4   3  -4   40.98    1.95
  -4   3  -4   44.18    2.00
   4  -2   4  172.36    3.96
   4  -2   4  161.57    3.88
  -4   2  -4  161.70    3.43
  -4   2  -4  155.73    3.77
   4  -1   4  136.34    3.65
   4  -1   4  140.40    3.74
  -4   1  -4  131.50    3.37
  -4   1  -4  128.23    3.53
   4   0   4   40.54    2.12
   4   0   4   46.95    2.30
  -4   0  -4   42.94    2.10
  -4   0  -4   44.71    2.21
  -4   0  -4   47.11    2.27
   4   1   4   74.30    2.88
   4   1   4   79.36    3.02
  -4  -1  -4   77.76    2.90
  -4  -1  -4   75.62    2.89
  -4  -1  -4   74.38    2.91
   4   2   4  415.20    6.77
   4   2   4  429.65    7.50
   4   2   4  404.99    6.83
  -4  -2  -4  387.55    6.53
  -4  -2  -4  416.91    6.74
   4   3   4    2.18    0.81
   4   3   4    1.84    0.67
   4   3   4    1.64    0.75
  -4  -3  -4    2.44    0.90
   4   4   4   57.15    2.70
   4   4   4   53.81    2.66
   4   4   4   61.30    2.88
  -4  -4  -4   62.49    2.90
  -4  -4  -4   57.77    2.81
   4   5   4   62.92    2.88
   4   5   4   58.17    2.87
   4   5   4   66.58    3.06
  -4  -5  -4   62.34    2.97
  -4  -5  -4   63.18    3.00
   4   6   4    5.11    1.09
   4   6   4    5.84    1.27
   4   6   4    3.85    0.99
  -4  -6  -4    6.24    1.29
  -4  -6  -4    5.44    1.29
   4   7   4    7.10    1.26
   4   7   4    6.59    1.33
   4   7   4    7.30    1.29
  -4  -7  -4    8.60    1.56
  -4  -7  -4   11.15    1.76
   4   8   4   28.27    2.01
   4   8   4   28.94    2.34
   4   8   4   32.39    2.36
  -4  -8  -4   28.51    2.39
   4   9   4    6.02    1.18
   4   9   4    4.47    1.26
   4   9   4    6.94    1.37
   4   9   4    6.48    1.29
   4  10   4    4.59    0.99
   4  10   4    2.63    1.11
   4  10   4    5.23    1.24
   4  10   4    4.57    1.17
   4  11   4   11.09    1.90
   4  11   4   12.41    1.78
   4  11   4   11.80    1.69
   4  12   4    0.39    0.86
   4  12   4    0.06    0.64
   4  13   4   37.06    3.11
   4  14   4   32.32    3.02
   4  15   4   -0.23    0.93
  -4   9  -5    0.34    0.43
  -4   9  -5    0.28    0.46
  -4   8  -5    4.68    0.85
  -4   8  -5    4.83    0.86
  -4   7  -5   38.89    1.90
  -4   7  -5   40.11    1.93
  -4   6  -5    0.22    0.45
  -4   6  -5    0.82    0.54
  -4   5  -5   80.82    2.78
  -4   5  -5   91.14    2.94
  -4   4  -5   36.82    1.96
  -4   4  -5   34.88    1.92
  -4   3  -5   27.60    1.36
  -4   3  -5   25.18    1.69
  -4   3  -5   29.26    1.80
   4  -2   5  451.10    6.84
  -4   2  -5  423.80    5.83
  -4   2  -5  408.87    6.52
   4  -1   5   79.06    2.99
   4  -1   5   86.69    3.16
  -4   1  -5   82.41    2.86
  -4   1  -5   74.52    2.91
   4   0   5  125.16    3.82
   4   0   5  130.03    3.93
  -4   0  -5  122.08    3.64
  -4   0  -5  121.62    3.75
   4   1   5   50.00    2.53
   4   1   5   44.03    2.43
  -4  -1  -5   42.18    2.30
  -4  -1  -5   43.43    2.38
   4   2   5  540.04    8.15
   4   2   5  534.86    8.26
  -4  -2  -5  545.25    8.15
   4   3   5  273.03    5.94
   4   3   5  282.03    6.01
   4   3   5  286.03    6.21
  -4  -3  -5  284.17    6.08
  -4  -3  -5  293.32    6.10
   4   4   5    3.69    1.03
   4   4   5    5.18    1.12
   4   4   5    4.01    1.07
  -4  -4  -5    4.14    1.11
   4   5   5   20.98    1.86
   4   5   5   22.82    1.99
   4   5   5   24.20    2.02
  -4  -5  -5   24.46    2.12
   4   6   5   26.55    2.10
   4   6   5   27.02    2.19
   4   6   5   28.61    2.23
  -4  -6  -5   28.50    2.30
   4   7   5  131.37    4.37
   4   7   5  129.28    4.65
   4   7   5  128.82    4.57
  -4  -7  -5  134.26    4.77
   4   8   5  109.32    4.01
   4   8   5  102.62    4.31
   4   8   5  101.72    4.17
   4   8   5  114.73    4.40
  -4  -8  -5  109.45    4.51
   4   9   5   20.82    1.92
   4   9   5   16.37    2.25
   4   9   5   19.52    2.04
   4   9   5   18.49    1.96
   4  10   5    0.56    0.70
   4  10   5    0.04    0.75
   4  10   5    0.09    0.73
   4  10   5   -0.15    0.62
   4  11   5   46.59    2.41
   4  11   5   48.21    3.38
   4  11   5   55.25    3.19
   4  11   5   47.71    2.94
   4  12   5   13.32    2.20
   4  12   5   11.55    1.77
   4  13   5    6.74    1.79
   4  14   5    9.46    2.03
   4  15   5    7.41    1.94
   4  16   5   38.68    3.53
  -4  10  -6    0.35    0.48
  -4   9  -6   10.14    1.19
  -4   8  -6   -0.23    0.48
  -4   7  -6    0.19    0.53
  -4   6  -6    0.64    0.56
  -4   5  -6   20.51    1.66
  -4   4  -6    0.32    0.54
  -4   3  -6  168.54    3.41
  -4   3  -6  158.81    4.37
   4  -2   6    2.87    0.92
   4  -2   6    3.62    0.98
  -4   2  -6    3.41    0.82
  -4   2  -6    3.88    0.95
   4  -1   6    0.66    0.66
  -4   1  -6    0.86    0.60
  -4   1  -6    0.19    0.51
   4   0   6  292.83    6.19
  -4   0  -6  282.63    5.80
  -4   0  -6  278.36    6.02
   4   1   6  190.91    5.11
  -4  -1  -6  182.40    4.85
  -4  -1  -6  185.79    5.02
   4   2   6  136.84    4.43
   4   2   6  128.82    4.35
  -4  -2  -6  132.61    4.30
  -4  -2  -6  135.23    4.37
   4   3   6  489.84    8.39
   4   3   6  510.07    8.49
   4   3   6  503.21    8.68
  -4  -3  -6  465.35    8.16
  -4  -3  -6  497.54    8.42
   4   4   6 1341.57   14.09
   4   4   6 1432.68   14.59
  -4  -4  -6 1315.05   14.06
  -4  -4  -6 1376.91   14.17
   4   5   6   14.02    1.69
   4   5   6   12.71    1.81
   4   5   6   11.33    1.81
   4   5   6   14.50    2.02
  -4  -5  -6   13.48    1.93
   4   6   6    3.01    1.04
   4   6   6    3.69    1.10
   4   6   6    3.09    1.06
   4   6   6    3.53    1.09
  -4  -6  -6    4.16    1.20
   4   7   6   13.01    1.89
   4   7   6   10.76    1.72
   4   7   6    9.17    1.53
   4   7   6   12.44    1.88
  -4  -7  -6   10.31    1.80
   4   8   6    3.97    1.20
   4   8   6    3.69    1.22
   4   8   6    4.19    1.20
   4   8   6    4.84    1.30
  -4  -8  -6    5.38    1.53
   4   9   6   37.74    2.63
   4   9   6   36.93    2.93
   4   9   6   37.44    2.80
   4   9   6   36.27    2.75
  -4  -9  -6   37.52    3.08
   4  10   6   -0.11    0.68
   4  10   6   -0.16    0.79
   4  10   6   -0.22    0.67
   4  11   6   21.95    2.02
   4  11   6   18.66    2.62
   4  11   6   20.97    2.21
   4  12   6    0.44    0.99
   4  12   6   -0.30    0.72
   4  13   6   66.18    4.27
   4  14   6   64.11    4.32
   4  15   6    3.67    1.62
   4  16   6   24.69    3.07
  -4  10  -7    4.38    0.95
  -4   9  -7   15.47    1.55
  -4   8  -7    1.42    0.76
  -4   7  -7    1.51    0.78
  -4   6  -7    1.12    0.70
  -4   5  -7   10.44    1.51
  -4   4  -7   36.35    2.35
  -4   3  -7    0.93    0.54
  -4   3  -7    0.12    0.57
   4  -2   7   17.08    1.80
  -4   2  -7   13.64    1.40
  -4   2  -7   15.58    1.70
   4  -1   7  137.83    4.56
   4  -1   7  143.68    4.67
  -4   1  -7  121.89    3.91
  -4   1  -7  130.22    4.41
   4   0   7    5.61    1.33
   4   0   7    4.33    1.14
   4   0   7    6.54    1.36
  -4   0  -7    4.56    1.10
  -4   0  -7    3.70    0.99
   4   1   7    4.30    1.21
   4   1   7    4.01    1.23
   4   1   7    3.30    1.03
  -4  -1  -7    2.34    0.92
  -4  -1  -7    2.73    0.96
   4   2   7   44.97    2.82
   4   2   7   53.87    3.07
   4   2   7   52.81    3.07
  -4  -2  -7   49.97    2.90
  -4  -2  -7   48.18    2.89
   4   3   7    8.63    1.55
   4   3   7   12.00    1.74
   4   3   7   12.93    2.01
  -4  -3  -7    6.78    1.38
  -4  -3  -7   11.22    1.81
   4   4   7   49.78    3.03
   4   4   7   53.75    3.14
   4   4   7   56.38    3.30
  -4  -4  -7   45.62    2.94
  -4  -4  -7   50.80    3.04
   4   5   7   24.12    2.25
   4   5   7   24.65    2.30
   4   5   7   24.81    2.31
   4   5   7   24.66    2.36
  -4  -5  -7   22.27    2.18
  -4  -5  -7   22.95    2.28
   4   6   7   47.18    3.03
   4   6   7   48.84    3.15
   4   6   7   46.60    3.11
   4   6   7   54.51    3.33
  -4  -6  -7   54.15    3.35
   4   7   7   78.86    3.88
   4   7   7   81.10    4.10
   4   7   7   80.29    4.42
   4   7   7   84.55    4.15
  -4  -7  -7   81.15    4.14
   4   8   7   11.11    1.84
   4   8   7    9.15    1.77
   4   8   7    7.27    1.53
  -4  -8  -7    8.91    1.86
   4   9   7   80.59    3.97
   4   9   7   73.03    4.16
   4   9   7   87.27    4.34
  -4  -9  -7   82.31    4.43
   4  10   7    0.41    0.80
   4  10   7    0.19    0.85
   4  10   7    1.13    0.90
   4  11   7   13.07    2.01
   4  11   7   12.02    2.24
   4  11   7   14.92    2.37
   4  12   7    3.47    1.19
   4  12   7    3.49    1.48
   4  12   7    3.64    1.31
   4  13   7    0.58    1.06
   4  14   7   33.19    3.41
   4  15   7   29.92    3.35
   4  16   7    2.30    1.46
  -4  11  -8    0.45    0.68
  -4  10  -8    2.27    0.91
  -4   9  -8    2.58    0.94
  -4   8  -8   -0.03    0.65
  -4   7  -8    0.97    0.75
  -4   6  -8   36.83    2.56
  -4   5  -8    6.62    1.38
  -4   4  -8   -0.01    0.66
  -4   3  -8   28.33    1.78
  -4   3  -8   26.36    2.27
  -4   2  -8   86.19    3.28
  -4   2  -8   86.59    3.90
   4  -1   8   61.49    3.36
  -4   1  -8   64.62    3.08
  -4   1  -8   60.26    3.34
   4   0   8   19.43    2.05
   4   0   8   21.45    2.21
  -4   0  -8   18.89    1.87
  -4   0  -8   19.69    2.07
   4   1   8   -0.27    0.66
   4   1   8   -0.16    0.65
  -4  -1  -8    0.50    0.79
  -4  -1  -8    0.15    0.61
   4   2   8  162.32    5.47
   4   2   8  175.91    5.74
   4   2   8  180.40    5.85
  -4  -2  -8  173.35    5.50
  -4  -2  -8  164.21    5.49
   4   3   8    1.41    1.00
   4   3   8    0.75    0.83
   4   3   8    1.38    0.87
  -4  -3  -8    1.29    0.91
  -4  -3  -8    1.09    0.86
   4   4   8   26.64    2.48
   4   4   8   28.43    2.48
  -4  -4  -8   28.65    2.58
  -4  -4  -8   28.79    2.52
   4   5   8    7.17    1.62
   4   5   8    6.77    1.51
   4   5   8    5.16    1.51
  -4  -5  -8    5.18    1.35
   4   6   8   63.89    3.71
   4   6   8   60.79    3.70
   4   6   8   64.35    3.81
  -4  -6  -8   59.07    3.67
   4   7   8  118.14    4.97
   4   7   8  125.67    5.28
   4   7   8  128.53    5.35
  -4  -7  -8  123.29    5.27
   4   8   8   -1.07    0.72
   4   8   8   -0.27    0.81
   4   8   8    0.25    0.77
  -4  -8  -8   -0.08    0.93
   4   9   8    0.50    0.89
   4   9   8   -0.72    0.78
   4   9   8    0.64    0.90
  -4  -9  -8    0.73    1.05
   4  10   8    4.24    1.39
   4  10   8    4.47    1.59
   4  10   8    2.92    1.20
  -4 -10  -8    4.51    1.64
   4  11   8    8.34    1.81
   4  11   8    5.61    1.73
   4  11   8    8.55    1.98
   4  12   8   14.39    2.24
   4  12   8   12.87    2.45
   4  12   8   11.55    2.07
   4  13   8   15.65    2.76
   4  14   8    3.94    1.72
   4  15   8    0.95    1.35
   4  16   8    1.52    1.42
  -4  10  -9    3.64    1.14
  -4   9  -9   16.27    1.95
  -4   8  -9    1.02    0.95
  -4   7  -9    4.47    1.30
  -4   6  -9    2.37    1.06
  -4   5  -9   40.49    2.93
  -4   4  -9   20.79    2.26
  -4   3  -9   -0.28    0.56
  -4   3  -9    0.22    0.76
  -4   2  -9    7.57    1.42
  -4   2  -9    8.07    1.65
   4  -1   9   42.37    3.13
  -4   1  -9   38.73    2.61
  -4   1  -9   38.77    2.96
   4   0   9   26.07    2.53
  -4   0  -9   22.52    2.20
  -4   0  -9   24.13    2.47
   4   1   9   67.01    3.84
  -4  -1  -9   57.22    3.41
  -4  -1  -9   60.88    3.65
   4   2   9  149.74    5.62
  -4  -2  -9  146.10    5.36
  -4  -2  -9  152.49    5.67
   4   3   9   -0.33    0.72
  -4  -3  -9   -0.38    0.73
  -4  -3  -9   -0.37    0.69
   4   4   9   75.49    4.16
  -4  -4  -9   68.86    3.98
  -4  -4  -9   71.66    4.03
   4   5   9   72.26    4.13
  -4  -5  -9   73.24    4.19
   4   6   9  466.45   10.16
   4   6   9  463.25   10.24
  -4  -6  -9  448.39   10.12
   4   7   9   11.89    2.22
   4   7   9    9.68    1.96
  -4  -7  -9   11.25    2.16
   4   8   9    0.45    0.97
   4   8   9    0.28    0.83
  -4  -8  -9    0.93    1.20
   4   9   9    0.10    0.96
   4   9   9   -0.07    0.87
  -4  -9  -9    0.70    1.10
   4  10   9    3.77    1.48
   4  10   9    3.19    1.43
  -4 -10  -9    6.74    2.02
   4  11   9    3.11    1.39
   4  11   9    4.11    1.66
   4  12   9    4.99    1.58
   4  12   9    6.69    1.94
   4  13   9    5.39    1.61
   4  13   9    7.69    2.07
   4  14   9    7.04    2.15
   4  15   9   11.74    2.65
   4  16   9    2.44    1.57
  -4   9 -10   13.32    2.10
  -4   8 -10   14.98    2.25
  -4   7 -10   19.06    2.35
  -4   6 -10   20.73    2.42
  -4   5 -10    5.81    1.59
  -4   4 -10    6.33    1.62
  -4   3 -10   12.64    2.15
  -4   2 -10   36.71    2.52
  -4   2 -10   38.28    3.16
  -4   1 -10    6.34    1.49
  -4   1 -10    7.44    1.78
   4   0  10   20.04    2.75
  -4   0 -10   19.51    2.22
  -4   0 -10   19.64    2.43
   4   1  10  144.42    5.89
  -4  -1 -10  134.37    5.31
  -4  -1 -10  134.50    5.65
   4   2  10   23.21    2.65
  -4  -2 -10   22.28    2.50
  -4  -2 -10   23.40    2.66
   4   3  10    0.67    1.11
  -4  -3 -10   -0.92    0.76
  -4  -3 -10   -0.12    0.91
   4   4  10   80.13    4.54
  -4  -4 -10   77.57    4.43
  -4  -4 -10   78.49    4.49
   4   5  10  215.20    7.30
  -4  -5 -10  224.21    7.43
   4   6  10   76.80    4.55
  -4  -6 -10   74.16    4.52
   4   7  10   17.19    2.67
  -4  -7 -10   19.22    2.85
   4   8  10  113.44    5.51
   4   8  10  108.25    5.59
  -4  -8 -10  116.31    5.79
   4   9  10   74.19    4.58
   4   9  10   87.64    5.19
  -4  -9 -10   81.06    5.06
   4  10  10   11.18    2.34
   4  10  10   14.58    2.85
  -4 -10 -10   14.54    2.79
   4  11  10    0.63    1.10
   4  11  10   -0.56    0.99
  -4 -11 -10   -0.25    1.20
   4  12  10   30.06    3.14
   4  12  10   29.23    3.47
   4  13  10   22.53    2.80
   4  13  10   20.20    3.37
   4  14  10    0.21    1.29
   4  15  10    4.75    2.01
  -4   8 -11   28.20    2.84
  -4   7 -11    0.26    0.94
  -4   6 -11    1.23    1.09
  -4   5 -11    0.98    1.11
  -4   4 -11    5.05    1.58
  -4   3 -11   -0.36    0.82
  -4   2 -11    6.99    1.55
  -4   2 -11    5.96    1.74
  -4   1 -11   12.37    2.00
  -4   1 -11   14.29    2.38
  -4   0 -11   38.54    3.06
  -4   0 -11   41.17    3.53
   4   1  11   29.76    3.15
  -4  -1 -11   32.42    3.00
  -4  -1 -11   31.48    3.21
   4   2  11   41.56    3.58
  -4  -2 -11   44.04    3.46
  -4  -2 -11   36.67    3.39
   4   3  11    5.66    1.70
  -4  -3 -11    6.50    1.81
  -4  -3 -11    4.67    1.64
   4   4  11   11.04    2.26
  -4  -4 -11   10.26    2.15
   4   5  11  181.29    7.12
  -4  -5 -11  176.53    6.96
   4   6  11    1.07    1.16
  -4  -6 -11   -0.08    1.11
   4   7  11   95.39    5.33
  -4  -7 -11   95.44    5.44
   4   8  11   73.80    4.77
  -4  -8 -11   77.96    5.06
   4   9  11    6.33    1.94
  -4  -9 -11    5.56    1.94
   4  10  11   40.62    3.78
   4  10  11   44.21    4.38
  -4 -10 -11   49.20    4.34
   4  11  11   -0.29    1.06
   4  11  11   -0.81    1.07
  -4 -11 -11    0.63    1.40
   4  12  11   -0.42    1.07
   4  12  11   -0.30    1.06
   4  13  11   10.32    2.36
   4  13  11    9.40    2.48
   4  14  11   33.32    3.33
   4  14  11   26.54    3.94
   4  15  11    2.82    1.82
  -4   6 -12    0.06    1.09
  -4   5 -12   14.75    2.58
  -4   4 -12   11.36    2.39
  -4   3 -12    9.17    2.13
  -4   2 -12    0.22    0.85
  -4   2 -12   -0.16    1.06
  -4   1 -12   10.96    2.01
  -4   1 -12   10.99    2.38
  -4   0 -12   18.67    2.68
  -4   0 -12   22.18    3.25
   4   1  12   25.87    3.53
  -4  -1 -12   29.26    3.01
  -4  -1 -12   30.12    3.32
   4   2  12    3.00    1.69
  -4  -2 -12    3.91    1.58
  -4  -2 -12    3.43    1.62
   4   3  12    8.66    2.15
  -4  -3 -12    6.96    1.91
  -4  -3 -12    8.75    2.10
   4   4  12   57.98    4.43
  -4  -4 -12   51.48    4.10
   4   5  12   36.99    3.70
  -4  -5 -12   38.15    3.68
   4   6  12   27.40    3.30
  -4  -6 -12   23.76    3.43
   4   7  12   -0.41    1.09
  -4  -7 -12    1.09    1.26
   4   8  12   29.17    3.45
  -4  -8 -12   30.98    3.63
   4   9  12    8.23    2.21
  -4  -9 -12    7.86    2.23
   4  10  12    2.86    1.65
  -4 -10 -12    2.55    1.74
   4  11  12   -0.58    1.06
  -4 -11 -12    0.14    1.45
   4  12  12   23.11    3.46
  -4 -12 -12   23.18    3.88
   4  13  12   24.65    3.56
   4  13  12   19.57    3.64
   4  14  12   11.95    2.58
   4  14  12   12.83    3.00
  -4   5 -13   -0.55    1.13
  -4   4 -13    0.02    1.11
  -4   3 -13    3.47    1.64
  -4   2 -13    6.71    2.02
  -4   1 -13   21.30    2.59
  -4   1 -13   21.33    3.26
  -4   0 -13    5.93    1.80
  -4   0 -13    6.42    2.09
  -4  -1 -13    8.97    2.13
  -4  -1 -13   10.96    2.53
   4   2  13    2.00    1.53
  -4  -2 -13    2.08    1.41
  -4  -2 -13    2.26    1.58
   4   3  13    0.31    1.25
  -4  -3 -13    0.05    1.25
   4   4  13   -0.37    1.04
  -4  -4 -13    0.39    1.23
   4   5  13   16.39    3.12
  -4  -5 -13    9.45    2.35
   4   6  13    6.05    2.08
  -4  -6 -13    9.62    2.51
   4   7  13    7.08    2.27
  -4  -7 -13    7.95    2.34
   4   8  13    2.39    1.56
  -4  -8 -13    2.12    1.66
   4   9  13    1.43    1.44
  -4  -9 -13    2.95    1.77
   4  10  13    3.62    1.86
  -4 -10 -13    5.93    2.18
   4  11  13    0.66    1.32
  -4 -11 -13    0.34    1.55
   4  12  13    2.26    1.72
  -4 -12 -13    8.31    2.75
   4  13  13    0.10    1.45
   4  14  13    5.56    2.11
  -4   3 -14    2.09    1.60
  -4   2 -14    0.85    1.51
  -4   1 -14    7.44    1.88
  -4   1 -14    6.94    2.28
  -4   0 -14   17.33    2.75
  -4   0 -14   16.82    3.27
  -4  -1 -14   -0.65    1.14
  -4  -1 -14   -0.61    1.26
   4   2  14   11.73    2.84
  -4  -2 -14   11.56    2.47
  -4  -2 -14   12.01    3.15
   4   3  14   -0.01    1.29
  -4  -3 -14    0.18    1.21
   4   4  14    7.94    2.50
  -4  -4 -14    6.81    2.25
   4   5  14    0.82    1.40
  -4  -5 -14   -0.18    1.24
   4   6  14    9.50    2.60
  -4  -6 -14    8.36    2.49
   4   7  14   13.81    2.93
  -4  -7 -14   17.90    3.47
   4   8  14    2.11    1.61
  -4  -8 -14    0.79    1.50
   4   9  14   12.20    3.00
  -4  -9 -14   12.93    2.94
   4  10  14    2.29    1.79
  -4 -10 -14    0.45    1.49
   4  11  14    1.06    1.54
  -4 -11 -14   -0.25    1.54
   4  12  14    1.54    1.65
  -4 -12 -14    2.14    1.86
   4  13  14    2.18    1.84
  -4   1 -15    3.19    1.78
  -4   0 -15    3.94    1.78
  -4   0 -15    2.22    1.75
  -4  -1 -15   28.43    3.45
  -4  -1 -15   22.09    3.75
  -4  -2 -15    3.64    1.83
   4   3  15    0.56    1.66
  -4  -3 -15    2.25    1.68
   4   4  15    6.23    2.38
  -4  -4 -15    3.58    1.93
   4   5  15   -0.80    1.26
  -4  -5 -15   -0.37    1.31
   4   6  15    1.53    1.61
  -4  -6 -15   -0.25    1.29
   4   7  15    0.99    1.67
  -4  -7 -15    0.62    1.50
   4   8  15    0.23    1.39
  -4  -8 -15    1.29    1.64
   4   9  15    0.66    1.56
  -4  -9 -15    1.34    1.67
   4  10  15   11.21    2.92
  -4 -10 -15   12.16    3.10
   4  11  15   -0.83    1.30
  -4 -11 -15   -0.74    1.53
   4  12  15    2.01    1.94
  -4 -12 -15    3.60    2.29
  -4  -2 -16   -0.40    1.50
  -4  -3 -16   -0.77    1.29
   4   4  16    4.75    2.27
  -4  -4 -16    8.06    2.51
   4   5  16    6.83    2.51
  -4  -5 -16    7.43    2.57
   4   6  16    1.36    1.71
  -4  -6 -16   -0.15    1.45
   4   7  16    1.76    1.79
  -4  -7 -16    1.84    1.85
   4   8  16    8.27    2.69
  -4  -8 -16   10.02    2.96
   4   9  16   16.24    3.68
  -4  -9 -16    9.96    3.02
   4  10  16    7.06    2.58
  -4 -10 -16    5.90    2.65
   5  -8 -13    8.61    2.83
  -5   8  13   11.31    3.24
   5  -7 -13    1.04    1.84
   5  -6 -13    1.74    1.90
   5  -5 -13   -1.04    1.38
   5  -4 -13    7.68    2.59
   5  -3 -13   32.85    4.69
   5 -11 -12   14.51    3.47
  -5  11  12   16.64    3.41
   5 -10 -12    6.72    2.59
  -5  10  12    7.88    2.62
   5  -9 -12    0.34    1.67
  -5   9  12    0.29    1.51
   5  -8 -12    1.47    1.74
   5  -7 -12    5.04    2.28
   5  -6 -12    4.83    2.26
   5  -5 -12   -0.01    1.47
   5  -4 -12    2.48    1.76
   5  -3 -12    1.15    1.56
   5  -2 -12    5.01    2.16
   5  -1 -12    1.42    1.63
   5   0 -12    2.97    1.85
  -5  12  11   19.78    3.43
   5 -11 -11    5.27    2.41
  -5  11  11    8.75    2.58
   5 -10 -11   22.59    3.94
  -5  10  11   24.59    3.80
   5  -9 -11    0.00    1.32
  -5   9  11   -0.23    1.42
   5  -8 -11    4.32    2.07
   5  -7 -11    1.28    1.69
   5  -6 -11    4.96    2.15
   5  -5 -11    1.07    1.43
   5  -4 -11    3.61    1.95
   5  -3 -11    2.06    1.61
   5  -2 -11    1.32    1.50
   5  -1 -11    1.94    1.63
   5   0 -11   14.62    2.93
  -5   0  11   16.99    3.80
   5   1 -11    9.57    2.52
   5   2 -11   10.72    2.49
   5   2 -11    9.53    2.89
   5   3 -11   12.86    3.07
  -5  13  10    0.84    1.38
  -5  13  10   -0.34    1.34
  -5  12  10    0.01    1.36
  -5  12  10    1.55    1.54
  -5  11  10    2.14    1.58
   5 -10 -10    4.37    2.10
  -5  10  10    4.45    1.87
   5  -9 -10   19.79    3.43
  -5   9  10   26.04    3.80
   5  -8 -10   15.99    3.17
  -5   8  10   16.17    3.05
   5  -7 -10   20.39    3.51
   5  -6 -10   19.99    3.45
   5  -5 -10    5.29    1.99
   5  -4 -10    2.75    1.73
   5  -3 -10   32.04    3.65
   5  -2 -10   17.02    3.09
   5  -1 -10    5.62    1.94
   5   0 -10    7.16    2.16
   5   1 -10   -0.41    1.18
   5   1 -10    0.33    1.34
   5   2 -10    4.33    1.80
   5   2 -10    8.31    2.50
   5   3 -10    1.22    1.25
   5   3 -10    2.78    1.75
   5   4 -10   36.62    4.20
  -5  14   9    1.84    1.61
  -5  13   9   -0.13    1.12
  -5  13   9    0.52    1.44
  -5  12   9    1.92    1.45
  -5  12   9    3.07    1.84
  -5  11   9   49.59    4.12
  -5  11   9   45.10    4.40
   5 -10  -9    4.79    1.96
  -5  10   9    6.11    2.00
  -5  10   9    4.18    1.82
   5  -9  -9    2.76    1.62
  -5   9   9    2.47    1.55
   5  -8  -9   15.80    2.96
  -5   8   9   21.77    3.36
   5  -7  -9    1.22    1.31
   5  -6  -9    7.50    2.13
   5  -5  -9    1.17    1.34
   5  -4  -9  206.05    8.08
   5  -3  -9    1.65    1.32
   5  -2  -9    3.61    1.65
   5  -1  -9   11.76    2.46
   5   0  -9    5.93    1.92
   5   0  -9    6.03    2.04
   5   1  -9    8.33    2.09
   5   1  -9   10.00    2.35
  -5  -1   9    7.09    2.35
   5   2  -9   36.63    3.47
   5   2  -9   37.08    3.96
   5   3  -9   -0.08    1.03
   5   3  -9    0.02    1.24
   5   4  -9    0.41    1.05
   5   4  -9   -0.17    1.19
   5   5  -9   69.20    5.26
   5   6  -9   11.30    2.65
  -5  14   8    0.82    1.47
  -5  13   8   17.81    3.18
  -5  12   8    0.21    1.06
  -5  12   8    0.19    1.24
  -5  11   8    2.91    1.49
  -5  11   8    2.09    1.60
  -5  10   8   18.37    2.87
  -5  10   8   14.60    2.80
   5  -9  -8    2.53    1.49
  -5   9   8    1.22    1.30
  -5   9   8    2.14    1.44
   5  -8  -8   66.49    4.69
  -5   8   8   58.21    4.21
  -5   8   8   64.10    4.67
   5  -7  -8    3.25    1.58
  -5   7   8    3.41    1.51
   5  -6  -8   16.34    2.80
   5  -5  -8   20.82    3.13
   5  -4  -8   -0.74    0.92
   5  -3  -8  150.86    6.58
   5  -2  -8    6.16    1.85
   5  -1  -8    1.18    1.18
   5   0  -8   18.38    2.82
   5   0  -8   20.80    3.15
   5   1  -8    7.55    1.95
   5   1  -8    6.97    2.01
  -5  -1   8    8.36    2.25
   5   2  -8   -0.52    1.04
   5   2  -8    0.98    1.19
   5   3  -8    0.69    1.14
   5   3  -8   -0.49    1.03
   5   4  -8    0.09    0.98
   5   4  -8    0.67    1.30
   5   5  -8    2.46    1.59
   5   6  -8    7.24    2.14
   5   7  -8    3.52    1.69
  -5  15   7    0.09    1.21
  -5  14   7    6.20    2.02
  -5  13   7    8.62    2.33
  -5  12   7   27.91    2.61
  -5  12   7   28.38    3.36
  -5  11   7   31.74    2.91
  -5  11   7   25.27    3.14
  -5  11   7   31.11    3.20
  -5  10   7    2.95    1.37
  -5  10   7    3.40    1.50
   5  -9  -7    7.47    2.14
  -5   9   7    6.72    1.79
  -5   9   7    7.17    1.92
   5  -8  -7    5.51    1.83
  -5   8   7    5.31    1.72
  -5   8   7    4.63    1.68
   5  -7  -7  199.75    7.43
  -5   7   7  202.25    7.10
  -5   7   7  195.45    7.34
   5  -6  -7    1.76    1.25
  -5   6   7    1.09    1.11
  -5   6   7    1.50    1.26
   5  -5  -7   19.48    2.86
   5  -4  -7  137.51    6.04
   5  -3  -7   53.78    3.92
   5  -2  -7   26.97    2.90
   5  -1  -7   86.14    4.72
   5  -1  -7   81.06    4.76
   5   0  -7   36.95    3.26
   5   0  -7   43.47    3.66
   5   1  -7   33.92    3.12
   5   1  -7   40.69    3.61
  -5  -1   7   38.49    3.61
   5   2  -7    9.93    2.07
   5   2  -7    8.53    2.06
  -5  -2   7   10.41    2.33
   5   3  -7    6.19    1.69
   5   3  -7    5.56    1.72
   5   4  -7    1.88    1.18
   5   4  -7    1.79    1.28
   5   5  -7    3.35    1.26
   5   5  -7    2.30    1.51
   5   6  -7    0.74    1.07
   5   7  -7   -0.33    0.96
   5   8  -7    9.07    2.28
  -5  15   6    3.40    1.68
  -5  14   6   -0.50    1.01
  -5  13   6   21.19    3.13
  -5  12   6    0.85    1.14
  -5  11   6    2.18    1.04
  -5  11   6    1.34    1.20
  -5  11   6    4.46    1.46
  -5  10   6    9.39    1.79
  -5  10   6    9.98    2.13
  -5  10   6   11.36    2.13
  -5   9   6   88.21    4.36
  -5   9   6   82.61    4.75
  -5   9   6   83.23    4.54
   5  -8  -6   58.87    4.07
  -5   8   6   57.79    3.69
  -5   8   6   61.86    4.10
  -5   8   6   66.50    4.13
   5  -7  -6  255.29    7.92
  -5   7   6  249.92    7.41
  -5   7   6  258.24    7.95
  -5   7   6  258.98    7.90
   5  -6  -6  181.11    6.65
  -5   6   6  179.73    6.35
  -5   6   6  177.88    6.58
   5  -5  -6    2.13    1.18
  -5   5   6    2.52    1.34
  -5   5   6    3.92    1.46
   5  -4  -6  253.80    7.70
  -5   4   6  263.77    7.75
  -5   4   6  256.57    7.72
   5  -3  -6   34.04    3.02
  -5   3   6   34.74    3.06
   5  -2  -6   85.36    4.52
   5  -2  -6   89.47    4.68
   5  -1  -6   17.85    2.60
   5  -1  -6   16.90    2.44
  -5   1   6   17.61    2.70
   5   0  -6   31.53    2.91
   5   0  -6   38.35    3.26
  -5   0   6   36.39    3.20
   5   1  -6   79.48    4.25
   5   1  -6   85.67    4.68
  -5  -1   6   87.66    4.75
   5   2  -6   -0.24    0.82
   5   2  -6   -0.03    0.88
  -5  -2   6    0.68    1.12
   5   3  -6   91.51    4.41
   5   3  -6   89.03    4.87
   5   4  -6    1.62    1.08
   5   4  -6    2.37    1.31
   5   5  -6   17.50    2.08
   5   5  -6   13.86    2.44
   5   6  -6    7.84    1.92
   5   7  -6   18.07    2.89
   5   8  -6   12.26    2.47
   5   9  -6   47.47    4.02
  -5  15   5    2.00    1.27
  -5  14   5    8.97    2.11
  -5  13   5    3.24    1.42
  -5  12   5    0.52    0.96
  -5  11   5    7.63    1.84
  -5  11   5    9.85    1.87
  -5  10   5  116.56    4.33
  -5  10   5  108.75    5.17
  -5  10   5  118.21    4.91
  -5   9   5   50.98    3.14
  -5   9   5   56.97    3.77
  -5   9   5   62.31    3.71
   5  -8  -5   68.67    4.06
  -5   8   5   71.93    3.76
  -5   8   5   74.02    4.19
  -5   8   5   73.37    4.03
   5  -7  -5    0.83    0.97
  -5   7   5   -0.28    0.79
  -5   7   5    0.20    0.88
  -5   7   5    1.84    1.06
   5  -6  -5  317.45    8.26
  -5   6   5  315.39    7.82
  -5   6   5  312.00    8.16
  -5   6   5  338.80    8.44
   5  -5  -5  272.11    7.58
  -5   5   5  259.87    7.18
  -5   5   5  275.86    7.63
  -5   5   5  279.44    7.69
   5  -4  -5  154.90    5.72
  -5   4   5  159.44    5.70
  -5   4   5  168.89    5.96
  -5   4   5  157.71    5.84
   5  -3  -5   15.46    2.29
  -5   3   5   11.93    1.99
  -5   3   5   11.93    1.88
  -5   3   5   16.78    2.42
   5  -2  -5   20.44    2.28
   5  -2  -5   20.81    2.31
  -5   2   5   21.40    2.37
   5  -1  -5   -0.15    0.75
   5  -1  -5   -0.52    0.60
  -5   1   5    0.18    0.87
   5   0  -5   16.46    2.06
   5   0  -5   22.45    2.42
  -5   0   5   19.00    2.59
   5   1  -5   51.46    3.34
   5   1  -5   45.67    3.30
  -5  -1   5   48.92    3.44
   5   2  -5    1.34    0.99
   5   2  -5    1.44    1.09
  -5  -2   5    1.07    1.05
   5   3  -5    8.93    1.75
   5   3  -5    9.52    1.97
  -5  -3   5    9.02    1.96
   5   4  -5   65.11    3.54
   5   4  -5   70.49    4.19
   5   5  -5   24.24    2.23
   5   5  -5   28.97    2.92
   5   6  -5    4.78    1.22
   5   6  -5    2.79    1.32
   5   7  -5    0.30    0.90
   5   8  -5   -0.29    0.91
   5   9  -5    3.90    1.59
   5  10  -5   14.36    2.62
  -5  15   4    0.75    1.03
  -5  14   4   14.47    2.36
  -5  13   4   22.32    2.60
  -5  12   4    9.87    1.90
  -5  11   4    2.07    1.06
  -5  10   4    1.62    0.77
  -5  10   4    0.68    0.82
  -5  10   4    1.13    0.84
  -5   9   4   23.04    2.00
  -5   9   4   22.12    2.41
  -5   9   4   22.88    2.19
  -5   8   4  153.50    4.87
  -5   8   4  158.46    5.65
  -5   8   4  166.87    5.50
   5  -7  -4   27.41    2.53
  -5   7   4   28.94    2.39
  -5   7   4   27.60    2.54
  -5   7   4   41.26    2.91
   5  -6  -4    4.20    1.28
  -5   6   4    5.87    1.41
  -5   6   4    5.84    1.50
  -5   6   4    5.94    1.47
   5  -5  -4  145.30    5.27
   5  -5  -4  149.94    5.37
  -5   5   4  141.87    4.99
  -5   5   4  138.54    5.14
  -5   5   4  156.35    5.44
   5  -4  -4   66.11    3.61
   5  -4  -4   60.14    3.48
  -5   4   4   60.47    3.37
  -5   4   4   67.39    3.62
  -5   4   4   67.51    3.66
   5  -3  -4  114.77    4.65
   5  -3  -4  134.19    5.08
  -5   3   4  120.25    4.69
  -5   3   4  116.92    4.67
  -5   3   4  131.46    5.02
   5  -2  -4    3.56    1.16
   5  -2  -4    6.72    1.45
   5  -2  -4    6.27    1.53
  -5   2   4    4.79    1.37
  -5   2   4    6.08    1.46
  -5   2   4    6.19    1.42
   5  -1  -4   51.01    3.16
   5  -1  -4   52.77    3.23
   5  -1  -4   58.15    3.45
  -5   1   4   51.82    3.24
  -5   1   4   51.67    3.16
   5   0  -4    2.72    1.11
   5   0  -4    2.61    1.06
   5   0  -4    3.23    1.06
  -5   0   4    2.52    1.10
  -5   0   4    2.54    1.04
   5   1  -4   18.08    2.01
   5   1  -4   13.86    2.10
   5   1  -4   14.36    2.15
  -5  -1   4   17.55    2.11
   5   2  -4    2.88    1.09
   5   2  -4    4.84    1.33
   5   2  -4    3.55    1.27
  -5  -2   4    3.86    1.32
   5   3  -4    0.22    0.73
   5   3  -4   -0.46    0.72
   5   3  -4   -0.08    0.76
  -5  -3   4    0.07    0.87
   5   4  -4    2.53    1.06
   5   4  -4    3.98    1.28
  -5  -4   4    2.84    1.28
   5   5  -4   56.25    3.08
   5   5  -4   49.61    3.45
   5   6  -4    7.46    1.42
   5   6  -4    7.79    1.76
   5   7  -4    0.10    0.90
   5   7  -4   -0.12    0.74
   5   8  -4   22.69    2.65
   5   9  -4    0.06    0.96
   5  10  -4    6.62    1.77
   5  11  -4   22.05    3.02
  -5  15   3    1.73    1.07
  -5  14   3   -0.31    0.73
  -5  13   3    0.22    0.84
  -5  12   3    6.84    1.55
  -5  11   3    2.37    1.01
  -5  10   3   34.02    2.70
  -5  10   3   37.70    2.38
  -5   9   3  178.84    4.22
  -5   9   3  172.77    5.61
  -5   9   3  193.68    5.30
  -5   8   3    1.56    0.77
  -5   8   3    0.89    0.81
  -5   8   3    0.85    0.73
   5  -7  -3   60.67    3.35
  -5   7   3   64.55    3.04
  -5   7   3   59.76    3.32
  -5   7   3   65.89    3.30
   5  -6  -3   68.94    3.54
  -5   6   3   67.26    3.20
  -5   6   3   64.87    3.41
  -5   6   3   64.79    3.31
   5  -5  -3  115.39    4.43
   5  -5  -3  124.93    4.60
  -5   5   3  118.72    4.26
  -5   5   3  114.38    4.41
  -5   5   3  123.81    4.54
   5  -4  -3   80.13    3.70
   5  -4  -3   82.33    3.78
  -5   4   3   86.62    3.71
  -5   4   3   81.34    3.72
  -5   4   3   85.74    3.83
   5  -3  -3    5.38    1.36
   5  -3  -3    4.19    1.10
  -5   3   3    4.25    1.17
  -5   3   3    4.96    1.23
  -5   3   3    4.51    1.24
   5  -2  -3   57.71    3.16
   5  -2  -3   52.96    2.98
   5  -2  -3   61.25    3.28
  -5   2   3   54.52    3.07
  -5   2   3   56.92    3.13
  -5   2   3   61.83    3.32
   5  -1  -3   19.84    2.00
   5  -1  -3   16.56    1.83
   5  -1  -3   19.16    1.99
  -5   1   3   18.93    1.97
  -5   1   3   18.73    1.92
   5   0  -3   62.91    3.27
   5   0  -3   71.43    3.51
   5   0  -3   71.58    3.57
  -5   0   3   70.30    3.52
  -5   0   3   71.98    3.62
   5   1  -3  107.76    4.21
   5   1  -3  100.96    4.20
   5   1  -3  111.19    4.44
  -5  -1   3  107.44    4.35
  -5  -1   3  123.10    4.72
   5   2  -3    8.30    1.53
   5   2  -3    9.80    1.60
   5   2  -3    9.70    1.77
  -5  -2   3   11.40    1.85
  -5  -2   3   11.86    1.91
   5   3  -3  123.51    4.46
   5   3  -3  128.34    4.85
   5   3  -3  118.39    4.63
  -5  -3   3  125.89    4.86
   5   4  -3   68.42    3.32
   5   4  -3   68.31    3.69
   5   4  -3   69.25    3.63
  -5  -4   3   71.07    3.78
   5   5  -3   99.88    3.86
   5   5  -3   96.76    4.43
   5   5  -3  102.28    4.34
   5   6  -3   13.92    1.61
   5   6  -3   13.27    2.11
   5   6  -3   15.18    2.11
   5   7  -3    3.33    1.24
   5   7  -3    3.60    1.18
   5   8  -3    5.61    1.55
   5   8  -3    7.01    1.43
   5   9  -3   -0.66    0.72
   5  10  -3    2.86    1.32
   5  11  -3    6.60    1.76
   5  12  -3   19.20    2.70
  -5  15   2   16.85    2.18
  -5  14   2   17.29    2.07
  -5  13   2   28.70    2.46
  -5  12   2   23.76    2.23
  -5  11   2   21.95    2.13
  -5  10   2   39.22    2.67
  -5  10   2   42.36    2.09
  -5   9   2    0.18    0.65
  -5   9   2    0.29    0.54
  -5   8   2  399.00    5.78
  -5   8   2  356.49    7.37
  -5   8   2  387.85    6.94
  -5   7   2   18.28    1.58
  -5   7   2   18.94    1.88
  -5   7   2   15.67    1.64
   5  -6  -2    5.47    1.27
  -5   6   2    5.35    1.10
  -5   6   2    4.48    1.10
  -5   6   2    4.96    1.10
   5  -5  -2   29.09    2.24
  -5   5   2   32.83    2.17
  -5   5   2   32.37    2.31
  -5   5   2   36.57    2.39
   5  -4  -2   14.62    1.70
   5  -4  -2   16.90    1.75
  -5   4   2   15.34    1.65
  -5   4   2   16.78    1.73
  -5   4   2   16.45    1.73
   5  -3  -2    0.76    0.66
   5  -3  -2    0.73    0.59
  -5   3   2    0.00    0.54
  -5   3   2    0.51    0.61
  -5   3   2    1.06    0.67
   5  -2  -2    4.46    1.20
   5  -2  -2    3.26    0.90
  -5   2   2    3.11    0.97
  -5   2   2    2.79    0.91
  -5   2   2    2.33    0.94
   5  -1  -2   24.57    2.01
   5  -1  -2   28.38    2.14
   5  -1  -2   28.23    2.20
  -5   1   2   26.12    2.13
  -5   1   2   25.33    2.04
  -5   1   2   25.47    2.14
   5   0  -2   34.82    2.40
   5   0  -2   40.44    2.55
   5   0  -2   36.74    2.50
  -5   0   2   36.08    2.45
  -5   0   2   39.45    2.49
   5   1  -2   23.84    2.02
   5   1  -2   23.40    2.02
   5   1  -2   20.31    1.96
  -5  -1   2   23.70    2.08
  -5  -1   2   24.39    2.14
   5   2  -2   20.67    1.95
   5   2  -2   22.64    2.04
   5   2  -2   24.33    2.14
  -5  -2   2   21.63    2.06
  -5  -2   2   19.99    2.00
   5   3  -2    6.26    1.27
   5   3  -2    6.85    1.37
   5   3  -2    5.94    1.28
  -5  -3   2    8.43    1.60
  -5  -3   2    5.72    1.16
   5   4  -2   17.72    1.81
   5   4  -2   17.51    1.96
   5   4  -2   18.84    1.96
  -5  -4   2   14.55    2.05
   5   5  -2  216.48    5.42
   5   5  -2  203.68    6.02
   5   5  -2  225.99    6.09
  -5  -5   2  216.75    6.21
   5   6  -2   44.72    2.50
   5   6  -2   46.48    3.08
   5   6  -2   47.93    2.94
   5   7  -2    7.10    1.19
   5   7  -2    7.49    1.61
   5   7  -2    6.87    1.41
   5   8  -2    3.16    1.16
   5   8  -2    3.65    1.10
   5   9  -2    3.27    1.26
   5   9  -2    4.47    1.08
   5  10  -2    4.56    1.47
   5  11  -2    0.05    0.96
   5  12  -2   -0.51    0.89
   5  13  -2    0.71    1.07
  -5  15   1   26.68    2.11
  -5  14   1    1.67    0.92
  -5  13   1   13.21    1.79
  -5  12   1   22.01    2.01
  -5  11   1    2.62    0.96
  -5  10   1   -0.21    0.54
  -5   9   1   29.85    2.17
  -5   9   1   25.30    1.51
  -5   8   1   22.48    1.92
  -5   8   1   22.00    1.58
  -5   7   1    9.51    1.01
  -5   7   1    8.68    1.40
  -5   7   1    9.03    1.31
   5  -6  -1   11.70    1.44
  -5   6   1   11.37    1.21
  -5   6   1   11.57    1.43
  -5   6   1   11.94    1.38
   5  -5  -1   -0.06    0.46
  -5   5   1   -0.11    0.47
  -5   5   1    0.41    0.54
  -5   5   1   -0.31    0.43
   5  -4  -1  411.04    7.22
   5  -4  -1  429.46    7.42
  -5   4   1  401.55    6.73
  -5   4   1  398.65    7.11
  -5   4   1  428.27    7.31
   5  -3  -1   40.16    2.38
   5  -3  -1   40.81    2.41
  -5   3   1   36.16    2.18
  -5   3   1   39.92    2.36
  -5   3   1   41.09    2.42
   5  -2  -1   27.78    2.04
   5  -2  -1   31.10    2.15
  -5   2   1   28.94    2.03
  -5   2   1   27.13    2.00
  -5   2   1   30.40    2.15
   5  -1  -1   65.13    2.98
   5  -1  -1   61.93    2.97
  -5   1   1   62.22    2.92
  -5   1   1   58.27    2.83
  -5   1   1   68.09    3.13
   5   0  -1   91.66    3.55
   5   0  -1   88.78    3.48
   5   0  -1   89.89    3.59
  -5   0   1   90.47    3.54
  -5   0   1   94.69    3.57
   5   1  -1   31.76    2.21
   5   1  -1   32.03    2.24
   5   1  -1   29.63    2.18
  -5  -1   1   32.56    2.27
  -5  -1   1   30.18    2.22
   5   2  -1   99.23    3.71
   5   2  -1   95.82    3.76
   5   2  -1   96.65    3.81
  -5  -2   1   96.60    3.79
   5   3  -1   20.61    1.86
   5   3  -1   21.55    1.95
   5   3  -1   23.09    2.03
  -5  -3   1   23.63    2.09
  -5  -3   1   22.32    2.02
   5   4  -1    2.52    0.89
   5   4  -1    2.24    0.91
   5   4  -1    2.91    0.98
  -5  -4   1    1.41    0.82
  -5  -4   1    2.78    1.06
   5   5  -1   -0.30    0.50
   5   5  -1    0.03    0.62
   5   5  -1   -0.36    0.53
  -5  -5   1    0.06    0.72
  -5  -5   1   -0.40    0.51
   5   6  -1   24.17    1.90
   5   6  -1   21.31    2.14
   5   6  -1   26.01    2.20
   5   7  -1    1.31    0.73
   5   7  -1    1.41    0.90
   5   7  -1    1.38    0.83
   5   8  -1   41.47    2.96
   5   8  -1   43.07    2.67
   5   9  -1    1.51    0.95
   5   9  -1    1.36    0.79
   5  10  -1    6.71    1.63
   5  11  -1    5.14    1.51
   5  12  -1    0.26    0.92
   5  13  -1    4.36    1.49
  -5  15   0   54.93    2.30
  -5  14   0    6.94    1.17
  -5  13   0    0.05    0.60
  -5  12   0   15.68    1.60
  -5  11   0    0.97    0.70
  -5  10   0    8.40    1.32
  -5   9   0    0.46    0.56
  -5   8   0   23.47    1.78
  -5   8   0   24.08    1.34
  -5   7   0   15.04    1.48
  -5   7   0   13.74    1.21
  -5   6   0   83.48    2.34
  -5   6   0   80.76    3.08
  -5   6   0   78.62    3.01
  -5   6   0   77.59    2.78
   5  -5   0   31.03    2.00
  -5   5   0   26.67    1.59
  -5   5   0   25.83    1.82
  -5   5   0   30.96    1.90
   5  -4   0   12.75    1.43
   5  -4   0   12.20    1.36
  -5   4   0   11.21    1.20
  -5   4   0   13.09    1.38
  -5   4   0   11.67    1.31
   5  -3   0   88.09    3.26
   5  -3   0   85.06    3.20
  -5   3   0   83.45    3.01
  -5   3   0   80.80    3.10
  -5   3   0   80.99    3.10
   5  -2   0    0.64    0.63
   5  -2   0   -0.30    0.42
  -5   2   0    0.06    0.53
  -5   2   0    0.43    0.55
  -5   2   0   -0.05    0.45
   5  -1   0   75.88    3.08
   5  -1   0   74.00    3.09
  -5   1   0   73.90    3.01
  -5   1   0   69.76    2.95
  -5   1   0   76.57    3.14
   5   0   0 1809.46   14.71
   5   0   0 1770.83   14.44
   5   0   0 1845.58   15.18
  -5   0   0 1699.80   14.23
  -5   0   0 1835.81   14.73
   5   1   0  197.40    4.97
   5   1   0  186.68    4.85
   5   1   0  197.84    5.09
  -5  -1   0  203.15    5.08
   5   2   0   30.78    2.10
   5   2   0   30.41    2.13
   5   2   0   34.38    2.26
  -5  -2   0   32.16    2.20
  -5  -2   0   34.07    2.27
   5   3   0   21.97    1.82
   5   3   0   19.06    1.78
   5   3   0   23.03    1.96
  -5  -3   0   21.41    1.88
  -5  -3   0   22.00    1.93
   5   4   0   45.05    2.50
   5   4   0   50.15    2.80
   5   4   0   52.57    2.83
  -5  -4   0   51.13    2.82
  -5  -4   0   50.90    2.84
   5   5   0   22.66    1.86
   5   5   0   20.26    1.93
   5   5   0   24.46    2.08
  -5  -5   0   23.30    2.11
  -5  -5   0   26.35    2.18
   5   6   0    0.97    0.67
   5   6   0    0.69    0.70
   5   6   0    1.20    0.74
  -5  -6   0    1.37    0.96
   5   7   0   12.73    1.43
   5   7   0   10.54    1.69
   5   7   0   12.06    1.73
   5   8   0    6.97    1.09
   5   8   0    6.94    1.49
   5   8   0    6.57    1.33
   5   9   0   47.65    3.16
   5   9   0   51.57    2.80
   5  10   0    0.33    0.79
   5  10   0   -0.14    0.57
   5  11   0    0.51    0.87
   5  12   0    3.35    1.32
   5  13   0    2.39    1.25
   5  14   0    7.86    1.80
  -5  13  -1   21.90    1.52
  -5  12  -1   11.60    1.27
  -5  11  -1   11.89    1.33
  -5  10  -1    4.31    0.94
  -5   9  -1    0.15    0.51
  -5   8  -1   11.15    1.24
  -5   8  -1   10.96    1.24
  -5   7  -1   39.56    2.08
  -5   7  -1   43.10    2.16
  -5   6  -1   51.78    2.35
  -5   6  -1   52.69    2.37
  -5   6  -1   51.16    2.03
  -5   5  -1  145.30    2.99
  -5   5  -1  133.50    3.71
  -5   5  -1  142.15    3.79
  -5   5  -1  142.00    3.56
   5  -4   1   46.10    2.27
  -5   4  -1   47.02    2.00
  -5   4  -1   42.42    2.17
  -5   4  -1   41.25    2.08
   5  -3   1   60.19    2.60
   5  -3   1   59.30    2.58
  -5   3  -1   57.12    2.35
  -5   3  -1   57.51    2.53
  -5   3  -1   62.56    2.60
   5  -2   1  253.66    5.25
   5  -2   1  261.19    5.38
  -5   2  -1  257.91    5.08
  -5   2  -1  240.61    5.09
  -5   2  -1  265.32    5.38
   5  -1   1 1379.61   12.28
   5  -1   1 1401.99   12.58
  -5   1  -1 1386.24   12.07
  -5   1  -1 1377.72   12.24
  -5   1  -1 1431.56   12.68
   5   0   1  230.05    5.14
   5   0   1  239.27    5.34
  -5   0  -1  244.81    5.27
  -5   0  -1  235.02    5.17
  -5   0  -1  247.38    5.43
   5   1   1   62.60    2.78
   5   1   1   65.79    2.87
  -5  -1  -1   60.05    2.77
  -5  -1  -1   67.09    2.86
   5   2   1    8.47    1.32
   5   2   1   11.26    1.40
   5   2   1    9.62    1.43
  -5  -2  -1   10.09    1.49
  -5  -2  -1   10.35    1.45
   5   3   1  402.16    7.02
   5   3   1  428.25    7.45
   5   3   1  438.09    7.61
  -5  -3  -1  434.49    7.52
  -5  -3  -1  458.49    7.84
   5   4   1   32.20    2.13
   5   4   1   31.73    2.21
   5   4   1   37.92    2.41
  -5  -4  -1   35.29    2.33
  -5  -4  -1   33.04    2.28
   5   5   1   17.06    1.64
   5   5   1   14.72    1.67
   5   5   1   15.92    1.71
  -5  -5  -1   16.22    1.73
  -5  -5  -1   14.92    1.70
   5   6   1    0.11    0.54
   5   6   1    0.20    0.61
   5   6   1    0.66    0.66
  -5  -6  -1   -0.38    0.59
  -5  -6  -1    0.46    0.68
   5   7   1   70.60    2.95
   5   7   1   74.06    3.57
   5   7   1   72.12    3.35
   5   8   1    1.23    0.68
   5   8   1    1.33    0.85
   5   8   1    0.76    0.75
   5   9   1    1.51    0.89
   5   9   1    0.55    0.73
   5  10   1    8.49    1.69
   5  10   1    9.04    1.44
   5  11   1    0.57    0.87
   5  12   1    0.74    0.96
   5  13   1   11.78    2.10
   5  14   1    1.75    1.15
  -5  12  -2   15.37    1.16
  -5  11  -2    9.28    1.06
  -5  10  -2   31.22    1.75
  -5  10  -2   31.38    1.74
  -5   9  -2   89.15    2.83
  -5   9  -2   93.69    2.90
  -5   8  -2   20.36    1.49
  -5   8  -2   20.58    1.49
  -5   7  -2    6.19    0.99
  -5   7  -2    5.72    0.95
  -5   6  -2    1.41    0.60
  -5   6  -2    1.48    0.58
  -5   6  -2    1.43    0.46
  -5   5  -2    0.23    0.27
  -5   5  -2    0.13    0.40
  -5   5  -2    0.33    0.44
  -5   5  -2    0.11    0.38
  -5   4  -2  163.14    3.27
  -5   4  -2  150.12    3.83
  -5   4  -2  167.70    3.84
   5  -3   2   14.24    1.37
   5  -3   2   15.54    1.41
  -5   3  -2   16.21    1.30
  -5   3  -2   15.20    1.38
  -5   3  -2   16.51    1.40
   5  -2   2   51.94    2.40
   5  -2   2   54.26    2.47
  -5   2  -2   53.35    2.31
  -5   2  -2   51.61    2.39
  -5   2  -2   58.66    2.52
   5  -1   2   57.69    2.58
   5  -1   2   56.67    2.59
  -5   1  -2   52.00    2.37
  -5   1  -2   52.46    2.45
  -5   1  -2   51.51    2.46
   5   0   2   18.87    1.64
   5   0   2   19.19    1.65
  -5   0  -2   18.49    1.60
  -5   0  -2   18.59    1.60
  -5   0  -2   20.47    1.69
   5   1   2    4.88    0.99
   5   1   2    5.37    1.01
   5   1   2    6.61    1.14
  -5  -1  -2    5.38    1.04
  -5  -1  -2    5.54    1.10
   5   2   2    5.30    1.15
   5   2   2    3.97    0.94
   5   2   2    3.55    0.95
  -5  -2  -2    5.26    1.20
   5   3   2    2.29    0.75
   5   3   2    1.66    0.75
   5   3   2    3.89    1.05
  -5  -3  -2    1.57    0.79
  -5  -3  -2    2.66    0.85
   5   4   2   21.65    1.81
   5   4   2   19.36    1.79
   5   4   2   23.58    1.97
  -5  -4  -2   20.30    1.86
  -5  -4  -2   22.15    1.90
   5   5   2   31.39    2.14
   5   5   2   33.18    2.32
   5   5   2   35.50    2.38
  -5  -5  -2   33.15    2.34
  -5  -5  -2   33.48    2.34
   5   6   2    4.65    1.08
   5   6   2    3.46    1.00
   5   6   2    4.08    1.10
  -5  -6  -2    4.00    1.12
  -5  -6  -2    4.08    1.02
   5   7   2   65.33    2.92
   5   7   2   64.27    3.32
   5   7   2   63.36    3.20
  -5  -7  -2   63.74    3.38
   5   8   2   11.69    1.53
   5   8   2   12.44    1.86
   5   8   2   14.51    1.76
   5   9   2   26.88    1.80
   5   9   2   25.75    2.41
   5   9   2   26.67    2.21
   5  10   2    9.48    1.78
   5  10   2    8.56    1.50
   5  11   2   -0.48    0.72
   5  11   2    0.43    0.67
   5  12   2    2.06    1.14
   5  13   2    4.52    1.50
   5  14   2   25.07    2.75
  -5  11  -3   12.25    1.03
  -5  10  -3    0.83    0.50
  -5  10  -3    0.74    0.54
  -5   9  -3   48.78    2.05
  -5   9  -3   46.94    2.02
  -5   8  -3   44.09    2.00
  -5   8  -3   45.32    2.04
  -5   7  -3   23.35    1.55
  -5   7  -3   21.41    1.50
  -5   6  -3    7.79    1.09
  -5   6  -3    6.20    0.98
  -5   5  -3   72.16    2.63
  -5   5  -3   77.15    2.71
  -5   4  -3   50.98    1.69
  -5   4  -3   44.63    2.14
  -5   4  -3   49.10    2.22
  -5   4  -3   47.37    2.04
   5  -3   3   36.22    2.00
  -5   3  -3   32.46    1.67
  -5   3  -3   29.69    1.82
  -5   3  -3   33.32    1.85
   5  -2   3    5.96    1.08
   5  -2   3    8.45    1.28
  -5   2  -3    6.36    1.03
  -5   2  -3    7.24    1.13
  -5   2  -3    6.40    1.08
   5  -1   3   91.84    3.22
   5  -1   3   97.75    3.35
  -5   1  -3   87.05    3.00
  -5   1  -3   85.97    3.10
  -5   1  -3   94.00    3.25
   5   0   3    0.49    0.57
   5   0   3    0.12    0.49
  -5   0  -3    0.68    0.64
  -5   0  -3    0.15    0.49
  -5   0  -3    0.47    0.58
   5   1   3    8.66    1.31
   5   1   3   11.14    1.58
  -5  -1  -3    9.84    1.40
  -5  -1  -3   10.37    1.47
   5   2   3   73.65    3.08
   5   2   3   74.86    3.10
   5   2   3   80.72    3.28
  -5  -2  -3   74.67    3.12
  -5  -2  -3   79.17    3.17
   5   3   3    2.57    0.82
   5   3   3    3.69    0.95
   5   3   3    2.97    0.94
  -5  -3  -3    3.40    1.01
   5   4   3   29.36    2.09
   5   4   3   29.41    2.15
   5   4   3   32.62    2.26
  -5  -4  -3   32.11    2.27
  -5  -4  -3   29.79    2.21
   5   5   3   65.67    3.05
   5   5   3   62.59    3.09
   5   5   3   65.68    3.17
  -5  -5  -3   70.46    3.31
  -5  -5  -3   73.74    3.39
   5   6   3   43.28    2.51
   5   6   3   40.80    2.65
   5   6   3   45.85    2.76
  -5  -6  -3   49.86    2.92
  -5  -6  -3   44.25    2.75
   5   7   3  100.00    3.72
   5   7   3  102.53    4.18
   5   7   3  108.17    4.16
  -5  -7  -3  108.38    4.32
  -5  -7  -3  109.30    4.30
   5   8   3   -0.41    0.57
   5   8   3   -0.04    0.66
   5   8   3   -0.11    0.64
   5   9   3    5.42    1.14
   5   9   3    4.62    1.29
   5   9   3    4.92    1.24
   5  10   3   20.08    2.29
   5  10   3   22.25    2.12
   5  11   3   -0.63    0.67
   5  11   3    0.15    0.67
   5  12   3   63.68    3.95
   5  13   3    2.74    1.29
   5  14   3    3.02    1.30
   5  15   3    0.54    1.03
  -5  10  -4    0.06    0.43
  -5  10  -4   -0.01    0.41
  -5   9  -4    5.94    0.94
  -5   9  -4    5.88    0.92
  -5   8  -4    1.75    0.66
  -5   8  -4    2.68    0.70
  -5   7  -4   97.21    3.00
  -5   7  -4   96.60    3.00
  -5   6  -4   31.46    1.83
  -5   6  -4   29.20    1.77
  -5   5  -4   36.21    1.96
  -5   5  -4   39.42    2.04
  -5   4  -4    1.31    0.43
  -5   4  -4    0.63    0.51
  -5   4  -4    0.82    0.50
   5  -3   4   22.16    1.69
  -5   3  -4   24.42    1.44
  -5   3  -4   22.27    1.65
   5  -2   4    4.74    0.99
   5  -2   4    6.00    1.11
  -5   2  -4    3.68    0.83
  -5   2  -4    3.73    0.89
  -5   2  -4    4.89    0.99
   5  -1   4    5.64    1.09
   5  -1   4    5.09    1.01
  -5   1  -4    5.70    1.04
  -5   1  -4    6.57    1.15
  -5   1  -4    6.99    1.21
   5   0   4  208.51    4.99
   5   0   4  220.72    5.21
  -5   0  -4  198.12    4.73
  -5   0  -4  207.44    4.97
  -5   0  -4  219.16    5.15
   5   1   4   57.27    2.76
   5   1   4   60.40    2.88
  -5  -1  -4   55.55    2.68
  -5  -1  -4   57.61    2.76
  -5  -1  -4   53.60    2.71
   5   2   4  106.56    3.74
   5   2   4  104.01    3.67
   5   2   4  109.21    3.89
  -5  -2  -4  108.74    3.80
  -5  -2  -4  106.46    3.74
   5   3   4  433.44    7.58
   5   3   4  443.59    7.68
   5   3   4  455.17    7.98
  -5  -3  -4  430.72    7.63
  -5  -3  -4  474.45    8.48
   5   4   4   56.46    2.87
   5   4   4   62.69    3.08
   5   4   4   60.02    3.06
  -5  -4  -4   61.42    3.08
   5   5   4   60.29    3.01
   5   5   4   61.76    3.16
   5   5   4   60.47    3.14
  -5  -5  -4   62.88    3.19
  -5  -5  -4   61.75    3.19
   5   6   4    0.56    0.65
   5   6   4    0.11    0.58
   5   6   4    0.66    0.74
  -5  -6  -4    0.60    0.82
  -5  -6  -4    0.86    0.76
   5   7   4   49.73    2.82
   5   7   4   46.33    2.95
   5   7   4   52.30    3.04
  -5  -7  -4   45.80    2.95
  -5  -7  -4   50.24    3.06
   5   8   4   46.47    2.71
   5   8   4   46.12    3.05
   5   8   4   44.39    2.88
  -5  -8  -4   45.74    3.12
   5   9   4    1.18    0.79
   5   9   4    0.44    0.79
   5   9   4    1.19    0.94
   5  10   4   49.26    2.63
   5  10   4   46.19    3.27
   5  10   4   49.68    3.09
   5  10   4   50.30    3.06
   5  11   4    6.31    1.63
   5  11   4    7.79    1.58
   5  11   4    6.26    1.39
   5  12   4    0.55    1.04
   5  12   4    0.04    0.75
   5  13   4    0.04    0.92
   5  14   4    7.06    1.86
   5  15   4    2.76    1.41
  -5  10  -5   38.12    1.78
  -5   9  -5    3.16    0.78
  -5   8  -5    5.72    1.00
  -5   7  -5    0.34    0.49
  -5   6  -5   14.14    1.39
  -5   5  -5    6.70    1.10
  -5   5  -5    8.56    1.22
  -5   4  -5   16.49    0.91
  -5   4  -5   16.14    1.48
  -5   4  -5   15.80    1.49
   5  -3   5    1.16    0.67
  -5   3  -5    1.17    0.53
  -5   3  -5    0.67    0.57
   5  -2   5    7.90    1.31
  -5   2  -5    9.34    1.15
  -5   2  -5    6.69    1.14
   5  -1   5  123.91    3.99
   5  -1   5  122.45    3.97
  -5   1  -5  117.46    3.63
  -5   1  -5  113.73    3.80
   5   0   5  328.13    6.50
   5   0   5  324.44    6.53
  -5   0  -5  317.29    6.15
  -5   0  -5  329.06    6.50
   5   1   5   14.97    1.64
   5   1   5   13.03    1.56
  -5  -1  -5   14.20    1.56
  -5  -1  -5   11.90    1.48
   5   2   5  131.64    4.33
   5   2   5  136.47    4.48
  -5  -2  -5  130.27    4.29
  -5  -2  -5  121.18    4.13
   5   3   5   52.81    2.88
   5   3   5   53.81    2.87
   5   3   5   53.12    2.93
  -5  -3  -5   56.87    3.00
  -5  -3  -5   50.26    2.79
   5   4   5   90.93    3.74
   5   4   5   93.99    3.84
   5   4   5  102.87    4.08
  -5  -4  -5   94.81    3.86
  -5  -4  -5   92.77    3.89
   5   5   5  257.46    6.28
   5   5   5  251.68    6.36
   5   5   5  258.01    6.51
  -5  -5  -5  266.06    6.57
  -5  -5  -5  259.48    6.58
   5   6   5    4.48    1.19
   5   6   5    4.33    1.22
   5   6   5    4.96    1.36
  -5  -6  -5    5.71    1.39
  -5  -6  -5    7.13    1.62
   5   7   5   97.03    4.01
   5   7   5   97.34    4.27
   5   7   5  107.46    4.43
  -5  -7  -5  105.56    4.47
   5   8   5   98.45    4.04
   5   8   5   97.26    4.40
   5   8   5  108.18    4.52
  -5  -8  -5   96.36    4.46
   5   9   5    1.10    0.86
   5   9   5    1.37    0.96
   5   9   5    1.00    0.89
   5   9   5    1.09    0.89
   5  10   5   12.81    1.85
   5  10   5   11.64    2.03
   5  10   5   12.87    2.03
   5  11   5   10.93    1.57
   5  11   5   11.74    2.18
   5  11   5   13.91    2.03
   5  12   5   42.67    3.48
   5  13   5    0.31    0.91
   5  14   5    5.39    1.75
   5  15   5    8.61    2.09
  -5  10  -6    3.81    0.86
  -5   9  -6   39.44    2.12
  -5   8  -6    7.76    1.21
  -5   7  -6   31.42    2.03
  -5   6  -6    3.32    0.90
  -5   5  -6   44.29    2.45
  -5   4  -6    5.50    0.64
  -5   4  -6    5.30    1.12
  -5   3  -6    7.79    1.08
  -5   3  -6    7.38    1.28
   5  -2   6   29.16    2.16
  -5   2  -6   26.27    1.79
  -5   2  -6   28.03    2.09
   5  -1   6    0.15    0.63
  -5   1  -6    0.70    0.62
  -5   1  -6    0.90    0.67
   5   0   6    5.87    1.29
   5   0   6    6.65    1.28
  -5   0  -6    5.83    1.15
  -5   0  -6    6.38    1.28
   5   1   6  166.92    5.00
   5   1   6  154.56    4.88
  -5  -1  -6  147.86    4.58
  -5  -1  -6  161.96    4.92
   5   2   6    9.75    1.59
   5   2   6   10.43    1.61
  -5  -2  -6    8.85    1.46
  -5  -2  -6   12.44    1.76
   5   3   6  119.46    4.38
   5   3   6  124.17    4.45
   5   3   6  122.59    4.54
  -5  -3  -6  123.53    4.48
  -5  -3  -6  117.56    4.34
   5   4   6  100.21    4.12
   5   4   6   96.58    4.07
   5   4   6  102.23    4.25
  -5  -4  -6   92.40    3.98
  -5  -4  -6   99.54    4.07
   5   5   6    6.14    1.46
   5   5   6    4.76    1.26
   5   5   6    6.12    1.41
  -5  -5  -6    5.25    1.39
   5   6   6   68.23    3.54
   5   6   6   68.11    3.65
   5   6   6   64.26    3.54
  -5  -6  -6   67.32    3.65
   5   7   6   40.20    2.80
   5   7   6   40.11    2.93
   5   7   6   38.31    2.85
  -5  -7  -6   36.60    2.90
   5   8   6   10.26    1.75
   5   8   6   11.92    1.96
   5   8   6   13.79    2.11
  -5  -8  -6   13.59    2.24
   5   9   6    5.41    1.43
   5   9   6    6.02    1.63
   5   9   6    6.42    1.54
  -5  -9  -6    4.63    1.53
   5  10   6   12.28    1.90
   5  10   6    9.38    1.91
   5  10   6   11.83    1.95
   5  11   6   12.02    1.83
   5  11   6    7.88    1.89
   5  11   6    9.96    1.87
   5  12   6    1.16    1.09
   5  13   6   12.60    2.42
   5  14   6   75.52    4.82
   5  15   6    0.66    1.21
  -5  10  -7   11.90    1.39
  -5   9  -7    0.61    0.67
  -5   8  -7    1.33    0.77
  -5   7  -7   22.93    1.94
  -5   6  -7    3.00    0.97
  -5   5  -7   94.46    3.75
  -5   4  -7   39.65    2.53
  -5   3  -7   60.00    2.40
  -5   3  -7   56.32    3.00
   5  -2   7   -0.10    0.68
  -5   2  -7   -0.20    0.51
  -5   2  -7    0.54    0.65
   5  -1   7    0.25    0.74
  -5   1  -7    0.23    0.59
  -5   1  -7    0.66    0.70
   5   0   7    7.04    1.49
   5   0   7    4.45    1.12
  -5   0  -7    6.23    1.28
  -5   0  -7    5.64    1.24
   5   1   7    2.01    0.99
   5   1   7    2.29    1.00
  -5  -1  -7    2.04    0.88
  -5  -1  -7    2.32    0.90
   5   2   7    0.27    0.75
   5   2   7    2.14    1.03
  -5  -2  -7    2.02    0.87
  -5  -2  -7    1.24    0.75
   5   3   7    0.85    0.81
   5   3   7    0.29    0.63
   5   3   7    0.24    0.59
  -5  -3  -7   -0.38    0.62
  -5  -3  -7    0.11    0.55
   5   4   7  430.67    8.75
   5   4   7  464.55    9.07
   5   4   7  483.08    9.49
  -5  -4  -7  482.99    9.31
   5   5   7   30.92    2.58
   5   5   7   37.23    2.82
   5   5   7   35.56    2.81
  -5  -5  -7   28.30    2.48
   5   6   7   65.15    3.62
   5   6   7   70.27    3.88
   5   6   7   72.40    3.96
  -5  -6  -7   73.44    3.98
   5   7   7   49.83    3.25
   5   7   7   54.34    3.55
   5   7   7   60.53    3.70
  -5  -7  -7   59.09    3.73
   5   8   7   34.48    2.82
   5   8   7   38.39    3.13
   5   8   7   38.03    3.06
  -5  -8  -7   39.03    3.20
   5   9   7    8.97    1.83
   5   9   7    8.88    1.88
   5   9   7    8.45    1.93
  -5  -9  -7    9.66    2.16
   5  10   7    7.34    1.64
   5  10   7    6.77    1.72
   5  10   7    4.49    1.39
   5  11   7   36.78    2.85
   5  11   7   32.33    3.22
   5  11   7   38.04    3.12
   5  12   7   -0.12    0.83
   5  12   7    0.30    1.09
   5  12   7    0.17    0.79
   5  13   7   29.16    3.23
   5  14   7    2.82    1.51
   5  15   7   10.12    2.45
  -5  11  -8    0.17    0.63
  -5  10  -8   -0.58    0.58
  -5   9  -8    0.61    0.73
  -5   8  -8    1.52    0.87
  -5   7  -8   12.92    1.85
  -5   6  -8   18.45    1.97
  -5   5  -8   28.14    2.35
  -5   4  -8   25.21    2.25
  -5   3  -8    0.97    0.62
  -5   3  -8    0.58    0.77
  -5   2  -8   49.14    2.62
  -5   2  -8   50.76    3.11
   5  -1   8    6.79    1.58
  -5   1  -8    5.74    1.26
  -5   1  -8    7.27    1.55
   5   0   8   -0.31    0.70
  -5   0  -8    0.45    0.76
  -5   0  -8   -0.46    0.56
   5   1   8    5.72    1.43
   5   1   8    3.68    1.04
  -5  -1  -8    5.93    1.42
  -5  -1  -8    6.23    1.45
   5   2   8   -0.32    0.69
   5   2   8   -0.01    0.47
   5   2   8    0.58    0.82
  -5  -2  -8    0.19    0.76
  -5  -2  -8   -0.01    0.71
   5   3   8    2.42    1.09
   5   3   8    2.51    1.17
  -5  -3  -8    1.51    0.97
  -5  -3  -8    2.21    1.10
   5   4   8   60.81    3.62
   5   4   8   57.98    4.02
  -5  -4  -8   56.91    3.52
  -5  -4  -8   57.49    3.53
   5   5   8   67.78    3.87
   5   5   8   71.53    3.96
   5   5   8   82.05    4.33
  -5  -5  -8   71.93    4.00
   5   6   8   76.32    4.11
   5   6   8   86.88    4.46
   5   6   8   86.11    4.50
  -5  -6  -8   81.81    4.38
   5   7   8    2.65    1.18
   5   7   8    2.52    1.31
   5   7   8    3.00    1.30
  -5  -7  -8    1.92    1.24
   5   8   8    5.19    1.54
   5   8   8    4.74    1.53
   5   8   8    5.97    1.68
  -5  -8  -8    4.04    1.52
   5   9   8  104.80    4.86
   5   9   8  106.89    5.31
   5   9   8  103.11    5.10
  -5  -9  -8  115.01    5.53
   5  10   8  111.04    5.04
   5  10   8  109.10    5.51
   5  10   8  118.86    5.48
  -5 -10  -8  120.40    5.83
   5  11   8    5.08    1.54
   5  11   8    2.95    1.48
   5  11   8    4.02    1.43
   5  12   8   19.16    2.38
   5  12   8   15.38    2.68
   5  12   8   15.57    2.58
   5  13   8    6.98    2.09
   5  14   8   41.24    3.95
   5  15   8    2.09    1.48
  -5  10  -9    1.06    0.82
  -5   9  -9    1.03    0.90
  -5   8  -9    0.39    0.84
  -5   7  -9    1.61    0.96
  -5   6  -9   11.79    1.92
  -5   5  -9    0.31    0.79
  -5   4  -9   -0.48    0.65
  -5   3  -9   52.57    2.50
  -5   3  -9   46.25    3.18
  -5   2  -9   35.17    2.39
  -5   2  -9   34.94    2.86
   5  -1   9    1.53    1.09
  -5   1  -9    1.80    0.97
  -5   1  -9    2.38    1.05
   5   0   9   56.33    3.60
  -5   0  -9   57.08    3.32
  -5   0  -9   57.93    3.60
   5   1   9   48.37    3.37
  -5  -1  -9   48.59    3.23
  -5  -1  -9   50.17    3.39
   5   2   9   43.95    3.26
  -5  -2  -9   44.77    3.20
  -5  -2  -9   46.84    3.35
   5   3   9   20.85    2.43
  -5  -3  -9   24.02    2.53
  -5  -3  -9   24.53    2.57
   5   4   9   21.12    2.46
  -5  -4  -9   19.70    2.45
  -5  -4  -9   19.69    2.39
   5   5   9   73.35    4.24
  -5  -5  -9   68.87    4.15
   5   6   9  166.93    6.28
   5   6   9  175.23    6.67
  -5  -6  -9  167.07    6.39
   5   7   9   41.74    3.37
   5   7   9   40.36    3.42
  -5  -7  -9   43.69    3.53
   5   8   9   42.34    3.40
   5   8   9   41.22    3.56
  -5  -8  -9   48.36    3.82
   5   9   9    0.26    0.96
   5   9   9    0.00    1.00
  -5  -9  -9    0.40    1.15
   5  10   9    2.73    1.36
   5  10   9    3.49    1.58
  -5 -10  -9    2.56    1.58
   5  11   9    1.06    1.10
   5  11   9   -0.08    1.09
   5  12   9    5.46    1.66
   5  12   9    7.24    2.09
   5  13   9    3.91    1.48
   5  13   9    4.79    1.88
   5  14   9    9.15    2.43
   5  15   9    4.54    1.97
  -5   9 -10   -0.10    0.75
  -5   8 -10    2.24    1.20
  -5   7 -10   23.30    2.52
  -5   6 -10    1.38    1.09
  -5   5 -10    0.43    0.92
  -5   4 -10    6.42    1.67
  -5   3 -10   12.95    2.16
  -5   2 -10   -0.05    0.75
  -5   2 -10    0.69    0.91
  -5   1 -10   15.15    2.12
  -5   1 -10   15.49    2.42
   5   0  10    3.62    1.46
  -5   0 -10    3.86    1.34
  -5   0 -10    3.73    1.36
   5   1  10  143.79    5.93
  -5  -1 -10  132.46    5.33
  -5  -1 -10  135.29    5.73
   5   2  10   25.22    2.78
  -5  -2 -10   26.54    2.78
  -5  -2 -10   28.48    2.91
   5   3  10    7.48    1.92
  -5  -3 -10    7.91    1.89
  -5  -3 -10    8.96    2.01
   5   4  10   26.21    2.87
  -5  -4 -10   27.63    2.92
  -5  -4 -10   26.04    2.92
   5   5  10    1.95    1.30
  -5  -5 -10    0.96    1.22
   5   6  10   25.18    2.90
  -5  -6 -10   24.11    2.92
   5   7  10    0.45    1.08
  -5  -7 -10    0.44    1.14
   5   8  10   19.40    3.02
  -5  -8 -10   19.27    3.08
   5   9  10  112.38    5.58
   5   9  10  117.65    6.03
  -5  -9 -10  119.18    6.10
   5  10  10    2.10    1.35
   5  10  10    1.81    1.31
  -5 -10 -10    0.05    1.20
   5  11  10   -0.13    1.09
   5  11  10   -1.00    0.96
  -5 -11 -10   -0.69    1.10
   5  12  10    4.14    1.65
   5  12  10    4.32    1.89
   5  13  10    1.84    1.34
   5  13  10    2.24    1.55
   5  14  10   21.04    3.49
   5  15  10    0.86    1.45
  -5   8 -11   14.28    2.27
  -5   7 -11    0.21    0.91
  -5   6 -11    0.36    0.91
  -5   5 -11   -0.19    0.83
  -5   4 -11   25.63    2.85
  -5   3 -11   17.02    2.63
  -5   2 -11   -0.23    0.72
  -5   2 -11   -0.32    0.93
  -5   1 -11    3.44    1.29
  -5   1 -11    4.66    1.57
  -5   0 -11    1.08    1.01
  -5   0 -11    2.32    1.28
   5   1  11    3.00    1.55
  -5  -1 -11    4.82    1.63
  -5  -1 -11    3.12    1.40
   5   2  11    0.61    1.11
  -5  -2 -11    0.46    1.05
  -5  -2 -11    1.66    1.21
   5   3  11   -0.17    1.05
  -5  -3 -11    0.84    1.11
  -5  -3 -11    0.17    1.02
   5   4  11  151.52    6.54
  -5  -4 -11  155.74    6.47
   5   5  11    5.98    1.86
  -5  -5 -11    4.89    1.67
   5   6  11    2.87    1.52
  -5  -6 -11    0.58    1.19
   5   7  11   57.07    4.27
  -5  -7 -11   52.58    4.24
   5   8  11   -0.61    0.95
  -5  -8 -11    1.04    1.29
   5   9  11   27.98    3.26
  -5  -9 -11   28.94    4.01
   5  10  11    1.24    1.32
  -5 -10 -11    1.09    1.53
   5  11  11   28.91    3.37
   5  11  11   29.34    3.58
  -5 -11 -11   24.40    3.72
   5  12  11   27.14    3.25
   5  12  11   24.59    3.73
   5  13  11    0.65    1.31
   5  13  11   -0.92    1.30
   5  14  11    1.97    1.53
   5  14  11    0.25    1.42
   5  15  11    6.41    2.34
  -5   6 -12    0.31    1.01
  -5   5 -12   14.90    2.62
  -5   4 -12    6.71    1.92
  -5   3 -12   28.09    3.19
  -5   2 -12   19.37    2.20
  -5   2 -12   20.82    3.14
  -5   1 -12    9.25    1.87
  -5   1 -12   12.28    2.48
  -5   0 -12   24.71    2.71
  -5   0 -12   19.53    2.97
   5   1  12   15.10    2.77
  -5  -1 -12   10.80    2.16
  -5  -1 -12   10.82    2.49
   5   2  12   21.78    3.22
  -5  -2 -12   23.74    3.20
  -5  -2 -12   23.01    3.20
   5   3  12   31.79    3.40
  -5  -3 -12   30.29    3.21
  -5  -3 -12   38.26    3.75
   5   4  12   37.61    3.71
  -5  -4 -12   37.62    3.60
   5   5  12    9.11    2.39
  -5  -5 -12    7.32    2.11
   5   6  12    8.30    2.28
  -5  -6 -12    8.39    2.26
   5   7  12    8.48    2.36
  -5  -7 -12    6.66    2.07
   5   8  12  327.25   10.21
  -5  -8 -12  346.85   10.72
   5   9  12   71.03    5.00
  -5  -9 -12   70.27    5.18
   5  10  12   19.26    3.28
  -5 -10 -12   18.23    3.27
   5  11  12   47.14    4.25
  -5 -11 -12   51.27    4.77
   5  12  12   42.96    4.12
  -5 -12 -12   34.97    4.26
   5  13  12    0.67    1.38
   5  14  12   -0.57    1.19
   5  14  12    0.39    1.44
  -5   5 -13    8.56    2.26
  -5   4 -13    1.52    1.36
  -5   3 -13   21.93    3.29
  -5   2 -13    3.90    1.75
  -5   1 -13   13.46    2.28
  -5   1 -13   14.03    2.79
  -5   0 -13    3.86    1.60
  -5   0 -13    4.48    1.73
  -5  -1 -13   27.04    3.06
  -5  -1 -13   29.51    4.00
   5   2  13    1.56    1.46
  -5  -2 -13    2.05    1.42
  -5  -2 -13    1.13    1.46
   5   3  13    5.27    2.07
  -5  -3 -13    7.98    2.24
   5   4  13   18.09    3.24
  -5  -4 -13   15.50    2.80
   5   5  13    0.88    1.35
  -5  -5 -13    1.91    1.54
   5   6  13   11.12    2.64
  -5  -6 -13    6.97    2.16
   5   7  13   13.98    2.85
  -5  -7 -13   13.15    2.91
   5   8  13   58.23    4.76
  -5  -8 -13   63.08    5.06
   5   9  13    0.76    1.31
  -5  -9 -13    0.10    1.25
   5  10  13   23.38    3.61
  -5 -10 -13   20.63    3.66
   5  11  13   19.30    3.36
  -5 -11 -13   15.56    3.25
   5  12  13   11.89    2.87
  -5 -12 -13   15.84    3.43
   5  13  13    4.12    1.94
   5  14  13    9.33    2.58
  -5   3 -14    5.66    2.03
  -5   2 -14    2.30    1.59
  -5   1 -14    0.36    1.10
  -5   1 -14   -0.60    1.09
  -5   0 -14   36.28    3.44
  -5   0 -14   36.88    4.04
  -5  -1 -14    3.10    1.62
  -5  -1 -14    2.58    1.79
   5   2  14   12.89    2.89
  -5  -2 -14   17.07    2.98
  -5  -2 -14   12.77    2.86
   5   3  14   16.14    3.15
  -5  -3 -14   16.26    3.04
   5   4  14    0.37    1.33
  -5  -4 -14    0.21    1.41
   5   5  14    3.17    1.85
  -5  -5 -14    6.04    2.08
   5   6  14    2.30    1.68
  -5  -6 -14    3.80    1.95
   5   7  14    4.89    1.96
  -5  -7 -14    1.30    1.68
   5   8  14    3.26    1.85
  -5  -8 -14    0.50    1.43
   5   9  14    6.13    2.28
  -5  -9 -14    8.52    2.76
   5  10  14   22.93    3.84
  -5 -10 -14   25.64    4.06
   5  11  14    5.69    2.23
  -5 -11 -14    6.52    2.50
   5  12  14    3.60    1.96
  -5 -12 -14    0.77    1.81
   5  13  14    1.20    1.66
  -5   1 -15   11.11    2.84
  -5   0 -15    1.35    1.44
  -5   0 -15   -0.32    1.40
  -5  -1 -15   16.89    2.94
  -5  -1 -15   14.92    3.21
  -5  -2 -15   24.06    3.54
   5   3  15    0.70    1.66
  -5  -3 -15    2.16    1.70
   5   4  15    3.20    1.96
  -5  -4 -15    1.66    1.71
   5   5  15    4.03    2.14
  -5  -5 -15    2.67    1.89
   5   6  15    5.65    2.34
  -5  -6 -15    4.23    2.03
   5   7  15    7.67    2.60
  -5  -7 -15   10.43    2.84
   5   8  15    7.79    2.54
  -5  -8 -15    7.00    2.46
   5   9  15    9.38    2.67
  -5  -9 -15    7.31    2.56
   5  10  15   12.13    3.07
  -5 -10 -15   10.33    2.90
   5  11  15    2.13    1.82
  -5 -11 -15    5.95    2.47
   5  12  15    5.45    2.34
  -5 -12 -15    4.71    2.37
  -5  -1 -16   25.65    3.69
  -5  -2 -16    1.84    1.76
  -5  -3 -16   -0.31    1.33
   5   4  16   -0.03    1.62
  -5  -4 -16   -0.96    1.37
   5   5  16    6.24    2.53
  -5  -5 -16    9.07    2.75
   5   6  16    2.93    1.99
  -5  -6 -16    2.52    2.02
   5   7  16    8.64    2.76
  -5  -7 -16   10.66    2.99
   5   8  16   10.54    2.88
  -5  -8 -16   10.61    3.04
   5   9  16    0.10    1.60
  -5  -9 -16   -1.93    1.32
   5  10  16   -0.41    1.45
  -5 -10 -16   -0.18    1.56
   6  -9 -12    5.16    2.43
  -6   9  12    3.45    2.17
   6  -8 -12    2.41    1.93
  -6   8  12   -0.35    1.49
   6  -7 -12    3.79    2.18
  -6   7  12    2.91    2.15
   6  -6 -12    0.49    1.68
  -6   6  12    2.44    2.08
   6  -5 -12    0.65    1.60
  -6   5  12   -0.20    1.60
   6  -4 -12    0.26    1.48
  -6   4  12    3.46    2.37
   6  -3 -12    0.47    1.49
  -6   3  12    0.32    1.78
   6  -2 -12    0.38    1.51
  -6   2  12   -0.26    1.59
  -6  11  11    4.52    2.20
   6 -10 -11   -0.32    1.50
  -6  10  11   -0.08    1.42
   6  -9 -11   11.28    2.98
  -6   9  11   12.16    3.02
   6  -8 -11   46.34    4.86
  -6   8  11   39.10    4.40
   6  -7 -11    1.02    1.71
  -6   7  11    2.68    1.89
   6  -6 -11   -0.12    1.43
  -6   6  11   -0.22    1.51
   6  -5 -11   -0.06    1.38
  -6   5  11    0.09    1.38
   6  -4 -11   61.15    5.30
  -6   4  11   64.70    5.56
   6  -3 -11   13.59    3.08
  -6   3  11   15.87    3.39
   6  -2 -11    7.67    2.45
  -6   2  11    7.17    2.75
   6  -1 -11    2.16    1.80
  -6   1  11   -0.19    1.66
   6   0 -11    1.70    1.57
   6   1 -11    0.85    1.56
  -6  12  10   22.14    3.45
  -6  11  10   -0.29    1.26
   6 -10 -10    7.11    2.51
  -6  10  10    8.01    2.45
   6  -9 -10    0.15    1.47
  -6   9  10    0.04    1.43
   6  -8 -10    8.83    2.61
  -6   8  10   11.66    2.87
   6  -7 -10    4.45    2.04
  -6   7  10    2.49    1.85
   6  -6 -10    0.07    1.36
  -6   6  10    0.73    1.59
   6  -5 -10   13.02    2.83
  -6   5  10   13.70    3.01
   6  -4 -10    1.56    1.48
  -6   4  10    1.66    1.59
   6  -3 -10    7.98    2.44
  -6   3  10   10.38    2.92
   6  -2 -10   13.10    2.95
  -6   2  10   14.13    3.15
   6  -1 -10   11.38    2.64
  -6   1  10   17.62    3.51
   6   0 -10    7.18    2.30
  -6   0  10    4.48    2.18
   6   1 -10    3.11    1.80
   6   2 -10   -0.51    1.20
   6   2 -10    1.23    1.70
   6   3 -10    0.93    1.37
   6   3 -10   -0.56    1.29
  -6  13   9   -0.77    1.25
  -6  12   9    4.24    1.86
  -6  12   9    3.40    2.00
  -6  11   9    2.64    1.67
  -6  11   9    3.62    2.01
   6 -10  -9    1.53    1.57
  -6  10   9   -0.28    1.20
   6  -9  -9    9.46    2.62
  -6   9   9   11.80    2.65
   6  -8  -9    8.89    2.57
  -6   8   9    8.32    2.48
   6  -7  -9    5.56    2.20
  -6   7   9    5.87    2.16
   6  -6  -9   -0.55    1.14
  -6   6   9    0.45    1.30
   6  -5  -9   11.68    2.70
  -6   5   9    9.84    2.54
   6  -4  -9   22.89    3.53
  -6   4   9   21.22    3.47
   6  -3  -9    0.31    1.21
  -6   3   9   -0.89    1.24
   6  -2  -9    1.13    1.30
  -6   2   9    1.60    1.53
   6  -1  -9    1.81    1.47
  -6   1   9    1.08    1.55
   6   0  -9    4.31    1.83
  -6   0   9    3.07    1.89
   6   1  -9    0.21    1.20
  -6  -1   9    1.15    1.54
   6   2  -9   14.72    2.75
   6   2  -9   15.32    3.19
   6   3  -9   -0.11    1.23
   6   3  -9   -0.27    1.23
   6   4  -9    0.82    1.34
   6   4  -9   -0.37    1.21
   6   5  -9   34.51    4.65
  -6  14   8    1.63    1.62
  -6  13   8    8.74    2.48
  -6  12   8    4.62    1.72
  -6  12   8    7.04    2.28
  -6  11   8    1.22    1.30
  -6  11   8    3.00    1.75
  -6  10   8   -0.18    1.23
  -6  10   8    0.26    1.26
   6  -9  -8    7.78    2.24
  -6   9   8    6.46    2.03
  -6   9   8    7.36    2.16
   6  -8  -8   45.11    4.20
  -6   8   8   40.45    3.89
   6  -7  -8   -0.59    1.11
  -6   7   8   -0.91    0.97
   6  -6  -8    0.33    1.17
  -6   6   8    0.58    1.11
   6  -5  -8    0.01    1.03
  -6   5   8    0.91    1.28
   6  -4  -8   22.16    3.25
  -6   4   8   26.59    3.30
   6  -3  -8    1.28    1.26
  -6   3   8    3.02    1.69
   6  -2  -8   62.10    4.55
  -6   2   8   71.66    5.02
   6  -1  -8    2.00    1.39
  -6   1   8    3.80    1.77
   6   0  -8    3.26    1.58
  -6   0   8    2.97    1.72
   6   1  -8    2.09    1.49
   6   1  -8    3.33    1.73
  -6  -1   8    4.17    1.97
   6   2  -8   31.56    3.32
   6   2  -8   33.22    3.76
   6   3  -8  143.35    6.26
   6   3  -8  148.13    7.27
   6   4  -8    1.05    1.16
   6   4  -8    0.31    1.26
   6   5  -8   11.62    2.65
   6   6  -8   12.83    2.88
  -6  14   7    1.35    1.48
  -6  13   7    1.87    1.56
  -6  12   7    8.87    1.96
  -6  12   7    8.89    2.34
  -6  11   7    1.71    1.25
  -6  11   7    2.72    1.60
  -6  10   7    5.70    1.74
  -6  10   7    9.21    2.35
   6  -9  -7   15.92    2.99
  -6   9   7   17.41    2.72
  -6   9   7   16.18    2.88
   6  -8  -7    2.30    1.62
  -6   8   7    2.15    1.36
  -6   8   7    2.05    1.43
   6  -7  -7    0.08    1.01
  -6   7   7   -0.68    0.92
  -6   7   7    0.15    1.05
   6  -6  -7   66.53    4.61
  -6   6   7   64.96    4.43
   6  -5  -7   26.56    3.10
  -6   5   7   26.88    3.09
   6  -4  -7    0.38    1.02
  -6   4   7   -0.02    1.06
   6  -3  -7    2.07    1.37
  -6   3   7    1.04    1.20
   6  -2  -7   53.14    4.05
  -6   2   7   59.88    4.29
   6  -1  -7  125.69    5.94
  -6   1   7  121.48    6.08
   6   0  -7   16.57    2.73
   6   0  -7   13.79    2.56
  -6   0   7   19.53    3.22
   6   1  -7    2.06    1.35
   6   1  -7    1.97    1.31
  -6  -1   7    2.44    1.55
   6   2  -7    2.36    1.43
   6   2  -7    1.40    1.29
  -6  -2   7    2.76    1.66
   6   3  -7   36.19    3.29
   6   3  -7   33.78    3.63
   6   4  -7   25.80    2.82
   6   4  -7   30.86    3.53
   6   5  -7   12.51    2.15
   6   5  -7   15.84    2.92
   6   6  -7    2.22    1.55
   6   7  -7    3.24    1.73
   6   8  -7   -0.35    1.17
  -6  15   6   16.69    3.03
  -6  14   6    2.03    1.48
  -6  13   6    7.00    2.06
  -6  12   6    0.32    1.12
  -6  11   6    4.95    1.47
  -6  11   6    3.43    1.59
  -6  10   6    0.65    0.96
  -6  10   6    0.85    1.17
  -6  10   6    0.84    1.00
  -6   9   6   17.88    2.62
  -6   9   6   19.46    2.94
   6  -8  -6   25.34    3.00
  -6   8   6   22.70    2.69
  -6   8   6   25.78    3.07
   6  -7  -6   13.92    2.53
  -6   7   6   18.53    2.74
  -6   7   6   14.27    2.42
   6  -6  -6   47.76    3.80
  -6   6   6   46.01    3.58
  -6   6   6   54.36    4.00
   6  -5  -6   13.46    2.48
  -6   5   6   14.81    2.55
  -6   5   6   14.83    2.49
   6  -4  -6   43.54    3.58
  -6   4   6   41.82    3.51
   6  -3  -6    3.15    1.37
  -6   3   6    3.55    1.51
   6  -2  -6  161.06    6.45
  -6   2   6  143.23    6.17
   6  -1  -6   34.43    3.16
  -6   1   6   37.85    3.45
   6   0  -6   26.76    2.92
   6   0  -6   30.45    3.17
  -6   0   6   29.05    3.12
   6   1  -6    0.38    1.00
   6   1  -6    1.56    1.19
  -6  -1   6   -0.36    1.06
   6   2  -6    1.02    1.13
   6   2  -6    0.63    1.08
  -6  -2   6    0.77    1.31
   6   3  -6    4.58    1.53
   6   3  -6    5.12    1.74
   6   4  -6   16.43    2.48
   6   4  -6   14.16    2.57
   6   5  -6    2.87    1.32
   6   5  -6    2.77    1.56
   6   6  -6   -0.82    1.03
   6   7  -6   44.74    4.07
   6   8  -6   11.60    2.49
   6   9  -6    1.78    1.48
  -6  15   5    5.10    1.72
  -6  14   5   10.45    2.31
  -6  13   5   11.06    2.28
  -6  12   5   -0.01    1.04
  -6  11   5    0.77    1.11
  -6  10   5   18.66    2.15
  -6  10   5   18.31    2.68
  -6  10   5   16.00    2.39
  -6   9   5    0.80    0.92
  -6   9   5    0.69    1.01
  -6   9   5   -0.12    0.86
   6  -8  -5   44.79    3.58
  -6   8   5   37.95    3.00
  -6   8   5   38.21    3.34
  -6   8   5   41.59    3.30
   6  -7  -5   71.29    4.39
  -6   7   5   65.43    3.91
  -6   7   5   66.98    4.21
  -6   7   5   71.98    4.25
   6  -6  -5  272.99    8.12
  -6   6   5  272.21    7.70
  -6   6   5  282.41    8.26
  -6   6   5  292.87    8.40
   6  -5  -5   37.39    3.24
  -6   5   5   33.14    2.97
  -6   5   5   34.36    3.10
   6  -4  -5  409.93    9.78
  -6   4   5  417.50    9.67
  -6   4   5  438.87   10.11
   6  -3  -5    1.26    1.07
  -6   3   5    0.53    0.94
   6  -2  -5   27.51    2.80
  -6   2   5   26.09    2.77
   6  -1  -5  482.30   10.45
   6  -1  -5  483.97   10.63
  -6   1   5  459.13   10.38
   6   0  -5  386.80    9.33
   6   0  -5  410.61    9.90
  -6   0   5  408.11    9.89
   6   1  -5   22.54    2.57
   6   1  -5   19.38    2.67
  -6  -1   5   23.90    2.77
   6   2  -5    4.13    1.46
   6   2  -5    6.80    1.85
  -6  -2   5    5.90    1.82
   6   3  -5   61.90    3.80
   6   3  -5   64.30    4.25
  -6  -3   5   60.86    4.19
   6   4  -5    4.59    1.44
   6   4  -5    2.98    1.35
   6   5  -5    0.16    0.91
   6   5  -5   -0.10    0.91
   6   6  -5   13.10    1.97
   6   6  -5   13.37    2.51
   6   7  -5    5.25    1.85
   6   8  -5   -0.29    0.99
   6   9  -5    2.89    1.56
   6  10  -5    0.95    1.30
  -6  15   4    1.73    1.30
  -6  14   4    3.97    1.54
  -6  13   4   12.47    2.31
  -6  12   4    1.14    1.09
  -6  11   4    0.54    0.95
  -6  10   4   41.06    2.56
  -6  10   4   35.45    3.15
  -6  10   4   35.26    2.76
  -6   9   4    7.88    1.54
  -6   9   4    7.84    1.78
  -6   9   4    7.64    1.61
  -6   8   4   34.17    2.69
  -6   8   4   32.87    2.95
  -6   8   4   40.38    3.04
   6  -7  -4   24.20    2.63
  -6   7   4   19.88    2.21
  -6   7   4   20.57    2.43
  -6   7   4   19.31    2.24
   6  -6  -4    1.83    1.10
  -6   6   4    0.75    0.93
  -6   6   4    1.74    1.03
  -6   6   4    1.20    0.93
   6  -5  -4  230.96    7.06
  -6   5   4  234.35    6.82
  -6   5   4  230.01    7.04
  -6   5   4  251.26    7.33
   6  -4  -4   18.74    2.29
  -6   4   4   17.11    2.39
  -6   4   4   17.05    2.34
  -6   4   4   18.68    2.30
   6  -3  -4  116.92    5.03
  -6   3   4  108.19    4.76
  -6   3   4  114.97    4.99
  -6   3   4  118.79    5.14
   6  -2  -4  182.40    6.21
  -6   2   4  195.60    6.42
  -6   2   4  192.04    6.42
   6  -1  -4  376.24    8.82
   6  -1  -4  363.66    8.73
  -6   1   4  370.17    8.85
   6   0  -4    0.73    0.91
   6   0  -4    0.50    0.82
  -6   0   4    0.22    0.90
   6   1  -4   12.59    2.14
   6   1  -4   12.26    2.06
  -6  -1   4   10.33    2.01
   6   2  -4   60.26    3.65
   6   2  -4   59.59    3.81
  -6  -2   4   65.41    4.03
   6   3  -4    1.79    1.10
   6   3  -4    1.60    1.09
  -6  -3   4    1.67    1.22
   6   4  -4   21.94    2.32
   6   4  -4   21.66    2.61
  -6  -4   4   23.10    2.77
   6   5  -4   10.02    1.79
   6   5  -4   10.03    2.07
   6   6  -4   37.22    2.71
   6   6  -4   31.96    3.16
   6   7  -4    1.15    1.07
   6   8  -4    0.67    1.03
   6   9  -4   12.26    2.37
   6  10  -4   36.01    3.56
  -6  15   3    1.27    1.11
  -6  14   3   10.59    2.03
  -6  13   3    1.19    1.05
  -6  12   3    0.94    0.96
  -6  11   3    6.79    1.67
  -6  10   3   11.68    2.02
  -6  10   3   11.29    1.72
  -6   9   3   92.41    3.47
  -6   9   3   90.73    4.43
  -6   9   3   87.63    3.93
  -6   8   3   50.07    2.83
  -6   8   3   53.11    3.43
  -6   8   3   53.15    3.20
   6  -7  -3   42.57    3.09
  -6   7   3   43.55    2.80
  -6   7   3   39.15    2.97
  -6   7   3   43.89    2.97
   6  -6  -3    7.11    1.63
  -6   6   3    7.16    1.51
  -6   6   3    5.65    1.46
  -6   6   3    6.38    1.39
   6  -5  -3  122.42    4.94
  -6   5   3  123.17    4.68
  -6   5   3  130.08    5.06
  -6   5   3  137.52    5.15
   6  -4  -3  121.53    4.87
   6  -4  -3  133.94    5.14
  -6   4   3  126.04    4.79
  -6   4   3  126.56    4.97
  -6   4   3  132.24    5.08
   6  -3  -3   45.07    3.09
   6  -3  -3   41.58    2.98
  -6   3   3   42.81    2.94
  -6   3   3   42.28    2.97
  -6   3   3   45.40    3.09
   6  -2  -3  120.40    4.84
   6  -2  -3  121.81    4.79
   6  -2  -3  116.46    4.84
  -6   2   3  111.34    4.64
  -6   2   3  121.93    4.85
  -6   2   3  128.22    5.08
   6  -1  -3   61.32    3.53
   6  -1  -3   65.82    3.62
   6  -1  -3   59.15    3.65
  -6   1   3   61.20    3.56
  -6   1   3   59.34    3.43
   6   0  -3   35.34    2.75
   6   0  -3   38.09    2.88
  -6   0   3   36.82    2.88
   6   1  -3   56.81    3.39
  -6  -1   3   62.57    3.63
   6   2  -3   70.45    3.75
   6   2  -3   73.03    3.97
  -6  -2   3   72.09    4.00
   6   3  -3  110.12    4.59
   6   3  -3  113.81    4.99
  -6  -3   3  112.13    4.98
   6   4  -3   15.99    2.19
   6   4  -3   18.69    2.33
  -6  -4   3   14.91    2.45
   6   5  -3   61.81    3.41
   6   5  -3   57.19    3.76
   6   6  -3    3.44    1.17
   6   6  -3    3.83    1.42
   6   7  -3   64.21    3.10
   6   7  -3   57.16    3.95
   6   8  -3    0.43    1.01
   6   9  -3    4.97    1.65
   6  10  -3   10.30    2.21
   6  11  -3    3.39    1.48
  -6  15   2    7.01    1.63
  -6  14   2    3.88    1.35
  -6  13   2    4.26    1.32
  -6  12   2    0.65    0.78
  -6  11   2    0.05    0.70
  -6  10   2   18.51    2.15
  -6  10   2   19.23    1.71
  -6   9   2   84.37    4.03
  -6   9   2   93.33    3.68
  -6   8   2   29.75    1.99
  -6   8   2   29.60    2.51
  -6   8   2   27.82    2.22
  -6   7   2   20.84    1.87
  -6   7   2   23.13    2.25
  -6   7   2   23.86    2.14
   6  -6  -2   84.45    3.93
  -6   6   2   79.34    3.46
  -6   6   2   79.51    3.82
  -6   6   2   85.98    3.84
   6  -5  -2   46.79    2.96
  -6   5   2   48.61    2.84
  -6   5   2   38.43    2.73
  -6   5   2   47.67    2.96
   6  -4  -2    6.37    1.45
   6  -4  -2    6.63    1.51
  -6   4   2    5.06    1.25
  -6   4   2    6.01    1.36
  -6   4   2    6.04    1.39
   6  -3  -2    2.19    0.97
   6  -3  -2    1.69    0.87
  -6   3   2    2.08    0.93
  -6   3   2    2.31    0.94
  -6   3   2    2.43    1.00
   6  -2  -2   28.82    2.35
   6  -2  -2   31.15    2.41
   6  -2  -2   34.02    2.60
  -6   2   2   29.92    2.40
  -6   2   2   33.13    2.51
  -6   2   2   30.01    2.49
   6  -1  -2   19.94    2.07
   6  -1  -2   22.52    2.15
   6  -1  -2   18.75    2.04
  -6   1   2   21.24    2.14
  -6   1   2   16.10    1.86
  -6   1   2   20.05    2.13
   6   0  -2   62.52    3.41
   6   0  -2   63.27    3.44
   6   0  -2   69.55    3.66
  -6   0   2   64.16    3.49
  -6   0   2   69.45    3.54
   6   1  -2   64.73    3.46
   6   1  -2   65.56    3.54
   6   1  -2   65.48    3.59
  -6  -1   2   60.33    3.43
  -6  -1   2   63.33    3.55
   6   2  -2   -0.25    0.67
   6   2  -2    0.26    0.73
   6   2  -2    0.32    0.72
  -6  -2   2   -0.14    0.66
  -6  -2   2    0.42    0.76
   6   3  -2   25.41    2.27
   6   3  -2   23.98    2.36
   6   3  -2   24.69    2.40
  -6  -3   2   24.32    2.41
   6   4  -2   30.81    2.49
   6   4  -2   31.61    2.74
   6   4  -2   30.60    2.70
  -6  -4   2   32.27    2.79
   6   5  -2   74.75    3.64
   6   5  -2   68.67    3.92
  -6  -5   2   69.68    3.97
   6   6  -2    7.28    1.48
   6   6  -2    6.08    1.58
   6   7  -2   95.07    3.73
   6   7  -2   88.72    4.60
   6   8  -2    3.15    1.32
   6   9  -2    0.91    1.02
   6  10  -2    0.35    0.98
   6  11  -2    0.28    1.08
   6  12  -2   -0.29    1.01
  -6  15   1    0.96    0.89
  -6  14   1    1.18    0.95
  -6  13   1   26.23    2.36
  -6  12   1    0.41    0.79
  -6  11   1    1.77    0.89
  -6  10   1   12.97    1.91
  -6  10   1   11.57    1.14
  -6   9   1    9.29    1.63
  -6   9   1    8.67    1.26
  -6   8   1   26.12    1.51
  -6   8   1   22.38    2.13
  -6   8   1   25.22    1.95
  -6   7   1   26.14    1.81
  -6   7   1   25.90    2.21
  -6   7   1   23.39    1.95
   6  -6  -1  136.73    4.67
  -6   6   1  137.61    4.09
  -6   6   1  137.57    4.69
  -6   6   1  134.11    4.42
   6  -5  -1  111.26    4.22
  -6   5   1  104.06    3.74
  -6   5   1   98.98    3.99
  -6   5   1  104.80    4.00
   6  -4  -1   59.37    3.14
   6  -4  -1   58.71    3.13
  -6   4   1   59.38    2.97
  -6   4   1   62.93    3.21
  -6   4   1   63.07    3.19
   6  -3  -1   35.76    2.51
   6  -3  -1   34.99    2.48
  -6   3   1   30.06    2.24
  -6   3   1   34.68    2.44
  -6   3   1   37.16    2.55
   6  -2  -1    0.32    0.72
   6  -2  -1    0.28    0.63
  -6   2   1    0.98    0.78
  -6   2   1    0.43    0.63
  -6   2   1    0.72    0.66
   6  -1  -1   80.35    3.61
   6  -1  -1   85.22    3.68
   6  -1  -1   86.29    3.81
  -6   1   1   77.82    3.54
  -6   1   1   76.92    3.54
  -6   1   1   91.60    3.94
   6   0  -1  133.61    4.64
   6   0  -1  125.89    4.52
   6   0  -1  128.71    4.68
  -6   0   1  126.39    4.55
  -6   0   1  137.57    4.69
   6   1  -1   19.60    1.98
   6   1  -1   16.49    1.87
   6   1  -1   16.06    1.89
  -6  -1   1   19.32    1.95
  -6  -1   1   20.68    2.06
   6   2  -1    7.22    1.43
   6   2  -1    7.48    1.53
   6   2  -1    6.98    1.43
  -6  -2   1    7.37    1.55
  -6  -2   1    8.06    1.63
   6   3  -1    2.28    0.98
   6   3  -1    3.53    1.18
   6   3  -1    2.21    0.97
  -6  -3   1    2.55    1.06
  -6  -3   1    2.65    1.12
   6   4  -1    6.67    1.38
   6   4  -1    5.45    1.40
   6   4  -1    5.78    1.41
  -6  -4   1    6.14    1.50
   6   5  -1    1.50    0.88
   6   5  -1    2.66    1.14
   6   5  -1    1.88    0.97
  -6  -5   1    1.26    1.02
   6   6  -1  110.05    4.18
   6   6  -1  115.81    4.94
   6   6  -1  121.79    4.81
   6   7  -1   41.59    2.58
   6   7  -1   42.59    3.20
   6   7  -1   43.28    2.99
   6   8  -1    9.88    1.45
   6   8  -1   11.89    2.07
   6   8  -1   11.38    1.90
   6   9  -1   20.44    2.50
   6   9  -1   22.56    2.24
   6  10  -1    0.44    0.92
   6  11  -1    8.08    1.94
   6  12  -1    4.08    1.55
   6  13  -1    0.95    1.22
  -6  15   0    0.70    0.78
  -6  14   0    4.23    1.14
  -6  13   0   89.91    3.68
  -6  12   0   17.75    1.88
  -6  11   0    1.66    0.89
  -6  10   0   28.25    2.20
  -6   9   0  107.73    4.01
  -6   9   0  113.59    2.87
  -6   8   0   38.78    2.50
  -6   8   0   40.51    2.08
  -6   7   0   44.85    1.82
  -6   7   0   41.74    2.57
  -6   7   0   39.09    2.21
  -6   6   0    0.54    0.53
  -6   6   0    0.55    0.61
  -6   6   0    0.72    0.60
   6  -5   0    2.61    0.95
  -6   5   0    2.58    0.81
  -6   5   0    1.66    0.80
  -6   5   0    1.44    0.74
   6  -4   0  138.30    4.46
  -6   4   0  129.63    4.01
  -6   4   0  126.44    4.27
  -6   4   0  130.10    4.26
   6  -3   0   -0.17    0.59
   6  -3   0   -0.32    0.42
  -6   3   0    0.29    0.56
  -6   3   0    0.29    0.59
  -6   3   0   -0.24    0.50
   6  -2   0    0.27    0.65
   6  -2   0    0.29    0.60
  -6   2   0    0.39    0.65
  -6   2   0    1.00    0.67
  -6   2   0   -0.03    0.51
   6  -1   0    6.92    1.37
   6  -1   0    9.94    1.65
  -6   1   0    7.48    1.40
  -6   1   0    7.25    1.39
  -6   1   0    7.87    1.46
   6   0   0   77.89    3.46
   6   0   0   81.88    3.53
   6   0   0   81.65    3.62
  -6   0   0   80.59    3.54
  -6   0   0   77.36    3.45
  -6   0   0   90.78    3.82
   6   1   0  114.10    4.21
   6   1   0  121.71    4.36
   6   1   0  116.29    4.34
  -6  -1   0  119.53    4.35
  -6  -1   0  117.85    4.24
   6   2   0   40.39    2.63
   6   2   0   42.10    2.70
   6   2   0   40.00    2.70
  -6  -2   0   40.13    2.63
  -6  -2   0   43.86    2.82
   6   3   0  152.83    4.91
   6   3   0  150.96    5.03
   6   3   0  161.58    5.25
  -6  -3   0  154.35    5.11
  -6  -3   0  169.19    5.41
   6   4   0   22.71    2.04
   6   4   0   22.47    2.19
   6   4   0   23.10    2.19
  -6  -4   0   23.92    2.26
  -6  -4   0   24.71    2.28
   6   5   0    0.19    0.66
   6   5   0   -0.65    0.62
   6   5   0   -0.43    0.57
  -6  -5   0   -0.10    0.79
   6   6   0   13.73    1.70
   6   6   0   14.45    2.13
   6   6   0   14.90    2.09
  -6  -6   0   12.83    2.06
   6   7   0  164.49    4.87
   6   7   0  170.23    5.89
   6   7   0  175.00    5.64
   6   8   0   98.86    3.61
   6   8   0  100.62    4.70
   6   8   0  110.50    4.50
   6   9   0    5.57    1.56
   6   9   0    3.72    1.19
   6  10   0    2.22    1.28
   6  10   0    3.53    1.22
   6  11   0    0.26    0.96
   6  12   0   49.64    3.76
   6  13   0    2.06    1.30
  -6  14  -1    1.06    0.67
  -6  13  -1   14.22    1.56
  -6  12  -1  107.74    3.71
  -6  11  -1   27.59    2.08
  -6  10  -1    3.34    0.97
  -6   9  -1   87.44    3.44
  -6   8  -1   30.68    2.14
  -6   7  -1   32.50    2.19
  -6   7  -1   33.27    1.84
  -6   6  -1  211.35    3.78
  -6   6  -1  193.74    5.02
  -6   6  -1  190.93    4.51
   6  -5   1    3.84    1.01
  -6   5  -1    3.00    0.76
  -6   5  -1    2.84    0.91
  -6   5  -1    3.87    0.92
   6  -4   1    1.25    0.75
  -6   4  -1    0.90    0.62
  -6   4  -1    0.06    0.51
  -6   4  -1    0.39    0.57
   6  -3   1    0.45    0.65
   6  -3   1   -0.33    0.44
  -6   3  -1    0.19    0.56
  -6   3  -1   -0.14    0.46
  -6   3  -1    0.19    0.54
   6  -2   1   85.05    3.46
   6  -2   1   87.58    3.52
  -6   2  -1   84.35    3.32
  -6   2  -1   84.85    3.44
  -6   2  -1   86.22    3.49
   6  -1   1   52.20    2.78
   6  -1   1   51.62    2.78
  -6   1  -1   55.35    2.81
  -6   1  -1   55.47    2.85
  -6   1  -1   55.87    2.90
   6   0   1    4.07    1.14
   6   0   1    2.11    0.81
   6   0   1    3.11    1.01
  -6   0  -1    2.64    0.97
  -6   0  -1    5.30    1.14
  -6   0  -1    3.32    0.95
   6   1   1   25.50    2.11
   6   1   1   23.03    1.98
   6   1   1   19.67    1.89
  -6  -1  -1   20.39    1.93
  -6  -1  -1   22.64    1.96
   6   2   1   24.16    2.05
   6   2   1   27.77    2.20
   6   2   1   26.04    2.17
  -6  -2  -1   21.81    2.03
  -6  -2  -1   29.46    2.30
   6   3   1  305.33    6.75
   6   3   1  323.05    7.13
   6   3   1  317.42    7.13
  -6  -3  -1  322.61    7.14
  -6  -3  -1  328.40    7.31
   6   4   1   28.19    2.20
   6   4   1   29.04    2.34
   6   4   1   27.59    2.31
  -6  -4  -1   28.84    2.38
  -6  -4  -1   30.20    2.40
   6   5   1   11.73    1.74
   6   5   1    8.56    1.60
   6   5   1    9.26    1.62
  -6  -5  -1    9.76    1.72
  -6  -5  -1    8.59    1.63
   6   6   1   52.35    2.93
   6   6   1   46.48    3.09
   6   6   1   54.92    3.22
  -6  -6  -1   52.25    3.26
   6   7   1    4.17    1.16
   6   7   1    6.37    1.53
   6   7   1    5.79    1.43
   6   8   1    0.86    0.69
   6   8   1    0.57    0.87
   6   8   1    0.26    0.71
   6   9   1    0.54    0.70
   6   9   1    0.18    0.83
   6   9   1    1.06    0.86
   6  10   1    1.90    1.16
   6  10   1    1.71    0.95
   6  11   1   38.92    3.27
   6  12   1    0.27    0.95
   6  13   1   24.53    2.89
   6  14   1    5.21    1.71
  -6  13  -2   92.22    2.87
  -6  12  -2   -0.29    0.52
  -6  11  -2   41.69    2.27
  -6  10  -2   13.14    1.48
  -6   9  -2   46.09    2.44
  -6   8  -2   49.73    2.51
  -6   7  -2    8.14    1.27
  -6   7  -2    9.54    0.96
  -6   6  -2    1.53    0.70
  -6   6  -2    0.99    0.55
  -6   5  -2   11.06    1.07
  -6   5  -2   10.90    1.47
  -6   5  -2   10.42    1.22
   6  -4   2    7.32    1.30
  -6   4  -2    5.80    1.02
  -6   4  -2    5.87    1.15
  -6   4  -2    4.98    1.02
   6  -3   2   65.57    2.97
  -6   3  -2   64.67    2.71
  -6   3  -2   66.20    2.97
  -6   3  -2   65.53    2.90
   6  -2   2    0.26    0.54
   6  -2   2    0.80    0.54
  -6   2  -2    0.27    0.58
  -6   2  -2    0.24    0.57
  -6   2  -2   -0.26    0.49
   6  -1   2    9.42    1.51
   6  -1   2   11.07    1.67
  -6   1  -2    7.24    1.28
  -6   1  -2    7.93    1.27
  -6   1  -2    6.92    1.15
   6   0   2   26.55    2.08
   6   0   2   28.01    2.15
  -6   0  -2   22.69    1.93
  -6   0  -2   27.00    2.07
  -6   0  -2   26.85    2.09
   6   1   2    0.78    0.72
   6   1   2   -0.01    0.55
   6   1   2    1.02    0.73
  -6  -1  -2    0.28    0.70
  -6  -1  -2    1.37    0.74
  -6  -1  -2    0.33    0.55
   6   2   2    2.06    0.90
   6   2   2    0.69    0.71
   6   2   2    2.11    0.91
  -6  -2  -2    1.57    0.92
  -6  -2  -2    2.24    0.89
   6   3   2  109.68    4.08
   6   3   2  120.82    4.36
   6   3   2  113.58    4.30
  -6  -3  -2  117.40    4.32
  -6  -3  -2  125.63    4.52
   6   4   2   37.33    2.51
   6   4   2   36.41    2.58
   6   4   2   42.20    2.77
  -6  -4  -2   39.23    2.67
  -6  -4  -2   43.59    2.80
   6   5   2    0.17    0.67
   6   5   2   -0.17    0.59
   6   5   2    0.42    0.68
  -6  -5  -2    0.79    0.87
  -6  -5  -2    0.49    0.73
   6   6   2   62.21    3.20
   6   6   2   64.08    3.52
   6   6   2   68.49    3.57
  -6  -6  -2   66.65    3.64
   6   7   2   44.86    2.73
   6   7   2   45.19    3.10
   6   7   2   45.57    3.01
  -6  -7  -2   43.44    3.13
   6   8   2    2.74    1.04
   6   8   2    1.79    1.08
   6   8   2    3.13    1.14
   6   9   2   23.81    2.00
   6   9   2   21.27    2.42
   6   9   2   26.31    2.41
   6  10   2    0.65    0.92
   6  10   2   -0.01    0.70
   6  11   2    4.45    1.52
   6  11   2    4.53    1.28
   6  12   2    0.76    1.09
   6  13   2   -0.03    0.96
   6  14   2    3.81    1.48
  -6  12  -3    1.17    0.61
  -6  11  -3    0.10    0.51
  -6  10  -3   61.24    2.60
  -6   9  -3    1.20    0.65
  -6   8  -3   15.28    1.50
  -6   7  -3    6.76    1.17
  -6   6  -3   28.06    1.94
  -6   5  -3    1.94    0.51
  -6   5  -3    2.10    0.72
  -6   5  -3    1.49    0.66
   6  -4   3   68.43    2.97
  -6   4  -3   69.73    2.46
  -6   4  -3   66.55    2.92
  -6   4  -3   68.48    2.79
   6  -3   3  103.85    3.67
  -6   3  -3  100.57    3.23
  -6   3  -3   94.29    3.48
  -6   3  -3  101.64    3.51
   6  -2   3  283.82    6.03
   6  -2   3  277.64    6.01
  -6   2  -3  271.30    5.54
  -6   2  -3  257.17    5.75
  -6   2  -3  279.61    5.94
   6  -1   3   18.97    1.78
   6  -1   3   20.69    1.82
  -6   1  -3   15.41    1.60
  -6   1  -3   18.38    1.74
  -6   1  -3   20.07    1.78
   6   0   3  278.76    6.17
   6   0   3  263.39    6.09
  -6   0  -3  263.39    5.88
  -6   0  -3  260.66    6.04
   6   1   3   19.69    1.86
   6   1   3   23.25    1.94
   6   1   3   22.03    1.95
  -6  -1  -3   19.67    1.86
  -6  -1  -3   20.31    1.90
   6   2   3  104.11    3.95
   6   2   3  101.27    3.89
   6   2   3  104.30    4.04
  -6  -2  -3  106.38    4.02
  -6  -2  -3  106.07    3.96
   6   3   3  146.47    4.72
   6   3   3  161.12    4.98
   6   3   3  152.17    4.95
  -6  -3  -3  155.57    4.94
  -6  -3  -3  157.98    5.05
   6   4   3   14.21    1.71
   6   4   3   15.83    1.82
   6   4   3   16.88    1.91
  -6  -4  -3   15.26    2.06
  -6  -4  -3   19.12    1.98
   6   5   3    1.37    0.80
   6   5   3    3.36    1.11
   6   5   3    2.72    1.05
  -6  -5  -3    2.82    1.09
  -6  -5  -3    3.08    1.16
   6   6   3   12.22    1.78
   6   6   3   11.40    1.78
   6   6   3   15.48    2.12
  -6  -6  -3   12.48    1.98
   6   7   3   21.62    2.06
   6   7   3   20.56    2.23
   6   7   3   20.13    2.19
  -6  -7  -3   19.87    2.29
   6   8   3   19.50    2.01
   6   8   3   19.19    2.27
   6   8   3   20.21    2.21
   6   9   3    0.02    0.70
   6   9   3    0.27    0.84
   6   9   3   -0.51    0.64
   6  10   3   41.51    2.48
   6  10   3   40.69    3.27
   6  11   3    0.49    0.98
   6  12   3   -0.20    0.96
   6  13   3   14.13    2.44
   6  14   3   -0.88    0.92
  -6  11  -4    0.12    0.48
  -6  10  -4    0.10    0.52
  -6   9  -4    1.53    0.72
  -6   8  -4    6.33    1.12
  -6   7  -4    7.66    1.25
  -6   6  -4   95.52    3.41
  -6   5  -4   11.50    1.39
  -6   4  -4    8.84    0.99
  -6   4  -4    6.66    1.21
   6  -3   4   12.67    1.51
  -6   3  -4   13.18    1.31
  -6   3  -4   13.42    1.48
  -6   3  -4   13.94    1.45
   6  -2   4   12.95    1.49
  -6   2  -4   12.79    1.42
  -6   2  -4   12.73    1.49
  -6   2  -4   13.71    1.49
   6  -1   4   71.96    3.20
   6  -1   4   71.76    3.22
  -6   1  -4   67.74    2.99
  -6   1  -4   73.17    3.21
  -6   1  -4   73.72    3.23
   6   0   4    0.20    0.64
   6   0   4   -0.06    0.52
  -6   0  -4   -0.42    0.53
  -6   0  -4    0.11    0.54
  -6   0  -4   -0.22    0.51
   6   1   4   38.38    2.50
   6   1   4   41.79    2.61
  -6  -1  -4   35.37    2.37
  -6  -1  -4   39.46    2.51
  -6  -1  -4   42.07    2.63
   6   2   4    2.89    0.99
   6   2   4    3.60    1.05
   6   2   4    4.18    1.24
  -6  -2  -4    2.97    1.05
  -6  -2  -4    1.25    0.76
  -6  -2  -4    1.67    0.82
   6   3   4   15.24    1.76
   6   3   4   14.20    1.98
   6   3   4   13.60    1.99
  -6  -3  -4   12.66    1.83
  -6  -3  -4   12.06    1.69
   6   4   4    1.87    0.91
   6   4   4    1.49    0.88
   6   4   4    1.69    0.92
  -6  -4  -4    2.35    1.02
  -6  -4  -4    1.36    0.67
   6   5   4   12.61    1.90
   6   5   4    9.70    1.69
   6   5   4   12.24    2.04
  -6  -5  -4   11.69    1.86
  -6  -5  -4   12.59    2.12
   6   6   4    7.80    1.53
   6   6   4    7.52    1.48
   6   6   4    9.06    1.69
  -6  -6  -4    9.20    1.77
   6   7   4   38.90    2.73
   6   7   4   36.59    2.86
   6   7   4   40.67    2.96
  -6  -7  -4   40.33    3.06
   6   8   4    9.85    1.74
   6   8   4    9.69    1.87
  -6  -8  -4   12.86    2.14
   6   9   4    2.86    1.10
   6   9   4    2.15    1.15
   6  10   4    1.28    0.91
   6  10   4    0.22    0.88
   6  11   4    2.62    1.31
   6  12   4   40.72    3.48
   6  13   4    0.21    0.97
   6  14   4    3.38    1.57
   6  15   4    0.51    1.18
  -6  11  -5   -0.47    0.42
  -6  10  -5    2.06    0.76
  -6   9  -5   11.72    1.35
  -6   8  -5   14.00    1.48
  -6   7  -5    5.72    1.10
  -6   6  -5  237.17    5.45
  -6   5  -5   73.12    3.14
  -6   4  -5    0.50    0.46
  -6   4  -5    0.59    0.58
   6  -3   5   20.42    1.86
  -6   3  -5   22.76    1.62
  -6   3  -5   18.60    1.76
   6  -2   5   19.34    1.81
  -6   2  -5   17.23    1.58
  -6   2  -5   18.09    1.77
   6  -1   5  167.68    4.94
   6  -1   5  168.42    4.98
  -6   1  -5  156.04    4.48
  -6   1  -5  158.96    4.81
  -6   1  -5  169.38    4.90
   6   0   5   18.74    1.86
   6   0   5   17.09    1.83
  -6   0  -5   18.03    1.77
  -6   0  -5   18.68    1.83
  -6   0  -5   20.71    1.92
   6   1   5   47.26    2.81
   6   1   5   45.23    2.80
  -6  -1  -5   45.94    2.74
  -6  -1  -5   43.07    2.68
  -6  -1  -5   50.52    2.92
   6   2   5   97.70    4.00
   6   2   5  102.56    4.01
   6   2   5  105.07    4.22
  -6  -2  -5  101.91    4.06
  -6  -2  -5  100.00    4.02
  -6  -2  -5  113.72    4.36
   6   3   5   46.16    2.87
   6   3   5   42.85    2.75
   6   3   5   46.86    2.98
  -6  -3  -5   45.73    2.90
  -6  -3  -5   50.53    2.97
   6   4   5   26.92    2.31
   6   4   5   27.00    2.31
   6   4   5   24.85    2.29
  -6  -4  -5   26.97    2.30
  -6  -4  -5   29.88    2.39
   6   5   5   11.63    1.82
   6   5   5   10.20    1.68
   6   5   5   11.44    1.80
  -6  -5  -5   10.71    1.80
  -6  -5  -5   12.95    2.13
   6   6   5   54.59    3.25
   6   6   5   60.01    3.49
   6   6   5   59.37    3.48
  -6  -6  -5   59.78    3.52
   6   7   5   77.81    3.83
   6   7   5   74.24    3.98
  -6  -7  -5   80.48    4.16
   6   8   5   12.42    1.90
   6   8   5    9.51    1.93
  -6  -8  -5   11.23    2.05
   6   9   5    7.93    1.64
   6   9   5    7.64    1.75
   6  10   5   17.19    2.04
   6  10   5   23.29    2.68
   6  11   5   20.81    2.12
   6  11   5   20.87    2.92
   6  11   5   22.85    2.44
   6  12   5    0.11    1.04
   6  13   5    1.65    1.22
   6  14   5    6.87    1.95
   6  15   5    3.70    1.63
  -6  11  -6   17.36    1.43
  -6  10  -6    0.72    0.62
  -6   9  -6    3.40    0.94
  -6   8  -6    3.26    0.97
  -6   7  -6  102.42    3.75
  -6   6  -6  135.33    4.34
  -6   5  -6   42.48    2.57
  -6   4  -6    0.39    0.45
  -6   4  -6    0.59    0.66
  -6   3  -6   13.38    1.36
  -6   3  -6   13.52    1.64
   6  -2   6    5.27    1.29
  -6   2  -6    3.73    0.98
  -6   2  -6    3.50    1.01
   6  -1   6  238.51    6.10
  -6   1  -6  216.10    5.40
  -6   1  -6  221.78    5.88
   6   0   6   -0.15    0.61
   6   0   6    0.65    0.67
  -6   0  -6   -0.01    0.58
  -6   0  -6   -0.05    0.60
   6   1   6  124.59    4.59
   6   1   6  124.54    4.64
  -6  -1  -6  117.26    4.32
  -6  -1  -6  119.23    4.46
   6   2   6   28.13    2.33
   6   2   6   29.91    2.46
  -6  -2  -6   31.58    2.47
  -6  -2  -6   28.47    2.34
   6   3   6  296.77    7.20
   6   3   6  325.22    7.45
   6   3   6  333.43    7.76
  -6  -3  -6  331.18    7.58
  -6  -3  -6  336.70    7.62
   6   4   6   18.82    2.02
   6   4   6   22.28    2.24
   6   4   6   23.90    2.33
  -6  -4  -6   18.28    2.04
  -6  -4  -6   20.15    2.14
   6   5   6   49.16    3.18
   6   5   6   47.14    3.14
   6   5   6   52.68    3.35
  -6  -5  -6   47.17    3.13
   6   6   6   12.95    2.03
   6   6   6   17.68    2.46
  -6  -6  -6   11.66    1.96
   6   7   6   16.85    2.10
   6   7   6   18.96    2.30
  -6  -7  -6   21.10    2.47
   6   8   6    8.52    1.73
   6   8   6   11.84    2.10
  -6  -8  -6   12.62    2.26
   6   9   6  131.86    5.12
   6   9   6  122.21    5.49
  -6  -9  -6  123.82    5.60
   6  10   6   35.94    2.86
   6  10   6   36.92    3.33
   6  10   6   41.25    3.25
   6  11   6    3.25    1.23
   6  11   6    3.14    1.36
   6  11   6    3.05    1.26
   6  12   6   18.74    2.88
   6  13   6    1.42    1.31
   6  14   6   14.96    2.70
   6  15   6    0.05    1.20
  -6  11  -7    9.80    1.29
  -6  10  -7   10.47    1.46
  -6   9  -7   11.06    1.59
  -6   8  -7    0.30    0.69
  -6   7  -7    0.55    0.71
  -6   6  -7   35.89    2.49
  -6   5  -7   49.12    2.90
  -6   4  -7    3.72    1.12
  -6   3  -7    3.28    0.90
  -6   3  -7    2.66    1.00
   6  -2   7    9.64    1.74
  -6   2  -7    8.12    1.38
  -6   2  -7    8.47    1.53
   6  -1   7    2.52    1.08
  -6   1  -7    2.47    0.96
  -6   1  -7    2.76    1.03
   6   0   7    0.82    0.81
  -6   0  -7    0.91    0.75
  -6   0  -7    0.06    0.71
   6   1   7   23.89    2.29
   6   1   7   23.05    2.26
  -6  -1  -7   23.99    2.23
  -6  -1  -7   21.59    2.20
   6   2   7   37.16    2.80
   6   2   7   39.63    2.89
  -6  -2  -7   35.63    2.70
  -6  -2  -7   38.36    2.82
   6   3   7    2.50    1.13
   6   3   7    2.93    1.15
  -6  -3  -7    2.80    1.13
  -6  -3  -7    2.62    1.00
   6   4   7   23.95    2.43
   6   4   7   25.56    2.48
  -6  -4  -7   25.61    2.48
   6   5   7    0.29    0.89
   6   5   7    2.19    1.04
  -6  -5  -7    0.57    0.97
   6   6   7    1.88    1.02
   6   6   7    2.03    1.12
  -6  -6  -7    1.74    1.19
   6   7   7  112.95    4.92
   6   7   7  119.77    5.30
  -6  -7  -7  122.52    5.38
   6   8   7  113.93    5.01
   6   8   7  108.45    5.19
  -6  -8  -7  106.72    5.18
   6   9   7    1.52    1.13
   6   9   7    4.54    1.54
   6   9   7    4.38    1.49
  -6  -9  -7    2.56    1.47
   6  10   7   19.67    2.39
   6  10   7   14.93    2.48
   6  10   7   16.24    2.50
   6  11   7   61.60    3.75
   6  11   7   57.66    4.23
   6  11   7   59.24    3.96
   6  12   7    0.15    0.95
   6  12   7    0.12    1.06
   6  13   7    5.02    1.79
   6  14   7    5.47    1.95
   6  15   7   31.60    3.62
  -6  10  -8   32.29    2.28
  -6   9  -8   -0.23    0.63
  -6   8  -8   30.80    2.42
  -6   7  -8   -0.14    0.67
  -6   6  -8   15.28    2.08
  -6   5  -8    6.79    1.44
  -6   4  -8    2.37    1.03
  -6   3  -8    9.53    1.36
  -6   3  -8    9.16    1.72
  -6   2  -8   20.21    1.87
  -6   2  -8   20.33    2.20
   6  -1   8   18.04    2.21
  -6   1  -8   16.16    1.88
  -6   1  -8   11.87    1.88
   6   0   8   34.32    2.86
  -6   0  -8   32.35    2.54
  -6   0  -8   34.17    2.75
   6   1   8   17.86    2.40
  -6  -1  -8   16.70    2.01
  -6  -1  -8   15.48    2.21
   6   2   8   89.51    4.37
  -6  -2  -8   85.32    4.13
   6   3   8    2.46    1.07
  -6  -3  -8    1.23    1.02
  -6  -3  -8    1.84    1.00
   6   4   8    1.50    1.10
  -6  -4  -8    0.14    0.76
  -6  -4  -8    0.95    0.91
   6   5   8    4.39    1.51
   6   5   8    4.20    1.51
  -6  -5  -8    4.59    1.60
   6   6   8   47.92    3.43
   6   6   8   50.53    3.64
  -6  -6  -8   46.87    3.54
   6   7   8   17.62    2.58
   6   7   8   17.26    2.67
  -6  -7  -8   18.51    2.65
   6   8   8   26.67    2.75
   6   8   8   21.96    2.94
  -6  -8  -8   24.12    2.90
   6   9   8    0.56    1.04
   6   9   8    1.28    1.24
  -6  -9  -8    0.03    1.20
   6  10   8   45.16    3.51
   6  10   8   44.39    3.81
  -6 -10  -8   44.38    3.87
   6  11   8    4.71    1.57
   6  11   8    3.64    1.49
   6  12   8    4.35    1.53
   6  12   8    7.00    2.08
   6  13   8    6.53    1.80
   6  13   8    7.71    2.10
   6  14   8    7.14    2.18
   6  15   8    3.73    1.80
  -6  10  -9    1.72    0.95
  -6   9  -9    0.40    0.83
  -6   8  -9   10.62    1.83
  -6   7  -9   26.59    2.48
  -6   6  -9   13.12    2.02
  -6   5  -9    4.86    1.42
  -6   4  -9   15.59    2.22
  -6   3  -9   51.82    2.57
  -6   3  -9   44.76    3.21
  -6   2  -9    8.03    1.50
  -6   2  -9    9.43    1.83
   6  -1   9    1.73    1.21
  -6   1  -9    1.52    0.88
  -6   1  -9    1.04    0.88
   6   0   9   67.58    3.98
  -6   0  -9   66.68    3.64
  -6   0  -9   60.55    3.76
   6   1   9   19.70    2.72
  -6  -1  -9   18.12    2.19
  -6  -1  -9   19.83    2.38
   6   2   9    3.11    1.34
  -6  -2  -9    3.32    1.33
  -6  -2  -9    2.57    1.10
   6   3   9    2.39    1.21
  -6  -3  -9    2.07    1.24
  -6  -3  -9    4.15    1.38
   6   4   9   -1.34    0.68
  -6  -4  -9   -0.52    0.85
  -6  -4  -9    0.78    0.98
   6   5   9   15.33    2.58
  -6  -5  -9   11.22    2.14
   6   6   9   21.29    2.61
  -6  -6  -9   23.53    2.82
   6   7   9    4.18    1.49
   6   7   9    2.54    1.29
  -6  -7  -9    3.47    1.48
   6   8   9    8.96    2.03
   6   8   9    9.71    2.15
  -6  -8  -9    8.99    2.20
   6   9   9    9.28    2.11
   6   9   9   10.17    2.35
  -6  -9  -9    6.27    1.96
   6  10   9    1.33    1.27
   6  10   9    0.41    1.14
  -6 -10  -9    2.73    1.66
   6  11   9    0.03    1.04
   6  11   9   -0.71    1.11
   6  12   9   -0.15    0.99
   6  12   9   -0.24    1.04
   6  13   9    0.93    1.13
   6  13   9    0.12    1.18
   6  14   9    3.76    1.80
   6  15   9    4.38    1.95
  -6   9 -10    0.22    0.86
  -6   8 -10    8.77    1.82
  -6   7 -10   14.58    2.26
  -6   6 -10    1.05    0.97
  -6   5 -10    0.69    0.98
  -6   4 -10    0.49    0.86
  -6   3 -10   73.77    4.27
  -6   2 -10    2.87    1.09
  -6   2 -10    2.56    1.20
  -6   1 -10    0.35    0.83
  -6   1 -10    0.95    0.97
   6   0  10    1.94    1.32
  -6   0 -10    2.49    1.23
  -6   0 -10    2.85    1.27
   6   1  10   10.72    2.19
  -6  -1 -10   10.16    1.99
  -6  -1 -10   10.49    2.06
   6   2  10   78.38    4.58
  -6  -2 -10   77.18    4.36
  -6  -2 -10   84.63    4.72
   6   3  10    3.34    1.46
  -6  -3 -10    3.76    1.46
  -6  -3 -10    4.71    1.60
   6   4  10   19.68    2.89
  -6  -4 -10   21.76    3.02
   6   5  10    7.43    1.98
  -6  -5 -10    7.65    2.04
   6   6  10    1.43    1.17
  -6  -6 -10    1.32    1.23
   6   7  10   28.84    3.14
  -6  -7 -10   32.35    3.39
   6   8  10    9.78    2.29
  -6  -8 -10    9.15    2.35
   6   9  10    4.65    1.76
   6   9  10    3.23    1.53
  -6  -9 -10    5.09    1.99
   6  10  10    5.97    1.91
   6  10  10    5.96    1.98
  -6 -10 -10    6.89    2.13
   6  11  10   36.13    3.54
   6  11  10   37.78    3.93
  -6 -11 -10   34.54    3.90
   6  12  10    6.04    1.88
   6  12  10    2.14    1.68
   6  13  10   10.13    2.22
   6  13  10    7.82    2.29
   6  14  10    0.19    1.24
   6  14  10    0.22    1.33
   6  15  10    6.46    2.39
  -6   8 -11   -0.21    0.83
  -6   7 -11    1.12    1.08
  -6   6 -11    2.52    1.29
  -6   5 -11    3.93    1.53
  -6   4 -11    5.90    1.73
  -6   3 -11   15.69    2.52
  -6   2 -11    0.61    0.82
  -6   2 -11    0.28    1.04
  -6   1 -11   15.43    2.29
  -6   1 -11   13.12    2.38
  -6   0 -11   96.64    4.67
  -6   0 -11   98.98    5.25
   6   1  11   13.58    2.50
  -6  -1 -11   15.48    2.46
  -6  -1 -11   14.34    2.56
   6   2  11    0.66    1.14
  -6  -2 -11    0.57    1.04
  -6  -2 -11    0.05    0.96
   6   3  11    2.76    1.53
  -6  -3 -11    2.42    1.36
  -6  -3 -11    2.18    1.29
   6   4  11    1.15    1.25
  -6  -4 -11    2.66    1.45
   6   5  11   45.61    3.91
  -6  -5 -11   50.24    4.05
   6   6  11    1.88    1.44
  -6  -6 -11    1.32    1.42
   6   7  11   14.41    2.76
  -6  -7 -11   15.94    2.98
   6   8  11   25.39    3.16
  -6  -8 -11   27.89    3.47
   6   9  11   22.71    3.29
  -6  -9 -11   21.13    3.40
   6  10  11    0.29    1.23
  -6 -10 -11    0.91    1.51
   6  11  11    1.17    1.37
  -6 -11 -11    2.34    1.74
   6  12  11    5.00    1.91
   6  12  11    2.84    1.73
   6  13  11   -0.36    1.15
   6  13  11   -0.78    1.32
   6  14  11   -0.15    1.22
   6  14  11   -1.03    1.28
  -6   6 -12    0.52    1.14
  -6   5 -12   11.79    2.39
  -6   4 -12    4.28    1.68
  -6   3 -12    2.10    1.37
  -6   2 -12   -0.49    0.79
  -6   2 -12    0.33    1.06
  -6   1 -12    8.38    1.86
  -6   1 -12    7.37    2.03
  -6   0 -12    0.95    1.09
  -6   0 -12    1.91    1.41
   6   1  12    4.25    1.82
  -6  -1 -12    4.47    1.64
  -6  -1 -12    4.75    1.69
   6   2  12   17.88    3.08
  -6  -2 -12   16.96    2.76
  -6  -2 -12   15.95    2.93
   6   3  12   12.00    2.52
  -6  -3 -12    8.61    2.16
  -6  -3 -12    7.73    2.10
   6   4  12   16.72    2.88
  -6  -4 -12   15.58    2.77
   6   5  12   12.92    2.76
  -6  -5 -12   10.35    2.39
   6   6  12   32.11    3.58
  -6  -6 -12   36.30    3.79
   6   7  12   83.87    5.40
  -6  -7 -12   78.56    5.32
   6   8  12   30.72    3.70
  -6  -8 -12   35.73    3.96
   6   9  12    4.62    1.95
  -6  -9 -12    5.71    2.19
   6  10  12    8.19    2.31
  -6 -10 -12   10.22    2.76
   6  11  12   30.72    3.57
  -6 -11 -12   36.75    4.27
   6  12  12   26.56    3.81
  -6 -12 -12   19.91    3.70
   6  13  12    0.11    1.30
   6  14  12   11.83    2.65
  -6   5 -13    3.10    1.62
  -6   4 -13   32.43    3.60
  -6   3 -13    0.04    1.12
  -6   2 -13    7.01    2.15
  -6   1 -13   37.26    3.15
  -6   1 -13   34.26    3.70
  -6   0 -13   10.64    2.23
  -6   0 -13    8.04    2.24
  -6  -1 -13   -0.22    1.05
  -6  -1 -13    1.95    1.56
   6   2  13    6.34    2.07
  -6  -2 -13    4.37    1.72
  -6  -2 -13    8.52    2.38
   6   3  13   33.00    3.73
  -6  -3 -13   32.19    3.59
   6   4  13    0.09    1.28
  -6  -4 -13   -0.73    1.07
   6   5  13    0.18    1.16
  -6  -5 -13    0.31    1.19
   6   6  13    5.82    2.16
  -6  -6 -13    4.21    1.85
   6   7  13    2.77    1.69
  -6  -7 -13    1.67    1.63
   6   8  13    2.61    1.66
  -6  -8 -13    0.65    1.40
   6   9  13   -0.60    1.13
  -6  -9 -13    0.17    1.47
   6  10  13    4.57    2.00
  -6 -10 -13    4.09    2.15
   6  11  13    9.45    2.51
  -6 -11 -13    9.34    2.76
   6  12  13   21.02    3.55
  -6 -12 -13   25.24    4.31
   6  13  13    1.17    1.54
  -6   3 -14    3.75    1.76
  -6   2 -14    3.75    1.87
  -6   1 -14    3.65    1.55
  -6   1 -14    1.49    1.58
  -6   0 -14   17.01    2.80
  -6   0 -14   14.13    2.89
  -6  -1 -14    0.50    1.29
  -6  -1 -14    0.75    1.53
   6   2  14   -0.37    1.27
  -6  -2 -14   -0.63    1.12
  -6  -2 -14    0.64    1.56
   6   3  14   22.69    3.69
  -6  -3 -14   17.94    3.15
   6   4  14    0.34    1.31
  -6  -4 -14   -0.45    1.31
   6   5  14    0.58    1.34
  -6  -5 -14    0.90    1.36
   6   6  14   24.77    3.99
  -6  -6 -14   24.57    3.79
   6   7  14    2.89    1.86
  -6  -7 -14    2.58    1.86
   6   8  14    0.42    1.42
  -6  -8 -14    0.95    1.54
   6   9  14    0.22    1.43
  -6  -9 -14    0.31    1.50
   6  10  14    1.16    1.51
  -6 -10 -14   -0.29    1.50
   6  11  14   13.59    3.08
  -6 -11 -14   14.25    3.42
   6  12  14   18.95    3.53
  -6 -12 -14   20.11    3.98
  -6   1 -15    4.91    2.14
  -6   0 -15    0.94    1.40
  -6   0 -15    0.43    1.41
  -6  -1 -15    5.41    1.95
  -6  -1 -15    4.09    2.08
  -6  -2 -15   17.00    3.14
   6   3  15    2.28    1.91
  -6  -3 -15    4.51    2.03
   6   4  15    0.67    1.57
  -6  -4 -15    1.69    1.69
   6   5  15    0.91    1.62
  -6  -5 -15    0.92    1.61
   6   6  15    2.54    1.98
  -6  -6 -15    3.18    2.02
   6   7  15   21.63    3.75
  -6  -7 -15   27.95    4.22
   6   8  15    2.63    1.80
  -6  -8 -15    3.09    2.00
   6   9  15    4.18    2.13
  -6  -9 -15    4.58    2.16
   6  10  15    2.65    1.90
  -6 -10 -15    3.97    2.21
   6  11  15   22.84    4.00
  -6 -11 -15   14.71    3.46
  -6  -1 -16   -0.47    1.37
  -6  -2 -16    0.98    1.56
  -6  -3 -16    9.02    2.57
   6   4  16   -0.04    1.64
  -6  -4 -16   -0.56    1.49
   6   5  16    1.33    1.87
  -6  -5 -16   -0.68    1.44
   6   6  16    3.96    2.17
  -6  -6 -16    5.77    2.37
   6   7  16    8.73    2.87
  -6  -7 -16    7.28    2.72
   6   8  16    1.94    1.81
  -6  -8 -16    1.35    1.80
   6   9  16    3.66    2.10
  -6  -9 -16    4.28    2.39
   7  -9 -11   16.66    3.68
  -7   9  11   15.79    3.47
   7  -8 -11   -0.29    1.52
  -7   8  11    0.36    1.56
   7  -7 -11    8.73    2.78
  -7   7  11    7.08    2.64
   7  -6 -11    0.32    1.71
  -7   6  11   -0.13    1.62
   7  -5 -11    6.97    2.50
  -7   5  11   10.49    2.99
   7  -4 -11    0.56    1.46
  -7   4  11   -0.04    1.69
   7  -3 -11   -0.27    1.33
  -7   3  11   -0.12    1.56
   7  -2 -11   10.78    2.80
  -7   2  11    8.72    2.83
   7  -1 -11    6.27    2.45
  -7   1  11    6.76    2.74
  -7  11  10    1.18    1.61
   7 -10 -10    2.38    2.01
  -7  10  10    0.84    1.62
   7  -9 -10    2.30    1.90
  -7   9  10    0.60    1.52
   7  -8 -10   17.35    3.61
  -7   8  10   13.89    3.17
   7  -7 -10    0.06    1.49
  -7   7  10    1.51    1.62
   7  -6 -10    1.34    1.62
  -7   6  10    0.18    1.63
   7  -5 -10    0.26    1.45
  -7   5  10    0.02    1.55
   7  -4 -10   10.95    2.79
  -7   4  10   10.18    2.81
   7  -3 -10   11.23    2.83
  -7   3  10    8.99    2.88
   7  -2 -10    0.96    1.48
  -7   2  10   -0.19    1.55
   7  -1 -10   81.25    5.75
  -7   1  10   80.10    6.15
   7   0 -10    1.05    1.50
  -7   0  10   -0.47    1.68
   7   1 -10   -0.08    1.28
   7   2 -10    4.96    2.13
  -7  12   9    6.63    2.16
  -7  12   9    5.54    2.51
  -7  11   9    0.39    1.38
   7 -10  -9    3.41    2.00
  -7  10   9    4.79    2.06
   7  -9  -9    2.61    1.86
  -7   9   9    3.88    2.00
   7  -8  -9    1.42    1.49
  -7   8   9    0.08    1.34
   7  -7  -9    1.48    1.63
  -7   7   9    1.21    1.69
   7  -6  -9    1.18    1.58
  -7   6   9    0.53    1.41
   7  -5  -9    0.27    1.31
  -7   5   9    0.23    1.51
   7  -4  -9    2.37    1.77
  -7   4   9    2.83    1.87
   7  -3  -9    2.85    1.78
  -7   3   9    1.02    1.65
   7  -2  -9    1.86    1.50
  -7   2   9    2.52    1.78
   7  -1  -9   25.13    3.73
  -7   1   9   30.99    4.41
   7   0  -9    0.13    1.19
  -7   0   9    0.62    1.53
   7   1  -9    7.72    2.33
  -7  -1   9    8.29    2.62
   7   2  -9    8.18    2.33
   7   3  -9   -0.64    1.26
   7   3  -9    0.83    1.67
   7   4  -9    2.05    1.84
  -7  13   8   14.10    3.27
  -7  12   8    1.55    1.39
  -7  12   8    1.81    1.64
  -7  11   8    5.27    1.85
  -7  11   8    7.59    2.48
  -7  10   8   17.21    3.04
  -7  10   8   14.18    3.09
   7  -9  -8   11.39    2.76
  -7   9   8    8.15    2.26
   7  -8  -8    0.70    1.36
  -7   8   8    0.16    1.24
   7  -7  -8    3.11    1.74
  -7   7   8    1.79    1.55
   7  -6  -8    1.85    1.50
  -7   6   8    3.18    1.63
   7  -5  -8    5.25    1.99
  -7   5   8    6.40    2.14
   7  -4  -8    0.99    1.33
  -7   4   8    2.07    1.60
   7  -3  -8   -0.31    1.23
  -7   3   8    1.53    1.62
   7  -2  -8   27.69    3.38
  -7   2   8   33.48    3.85
   7  -1  -8   12.32    2.59
  -7   1   8   17.89    3.29
   7   0  -8    4.45    1.87
  -7   0   8    4.65    2.07
   7   1  -8   19.56    3.26
  -7  -1   8   18.32    3.38
   7   2  -8   12.98    2.67
   7   2  -8   15.46    3.14
   7   3  -8    0.77    1.38
   7   3  -8    0.25    1.45
   7   4  -8   14.06    2.60
   7   4  -8   14.27    3.11
   7   5  -8    0.21    1.31
  -7  13   7   12.56    2.86
  -7  12   7   -0.38    1.23
  -7  11   7    1.17    1.27
  -7  11   7    1.51    1.53
  -7  10   7    1.07    1.24
  -7  10   7    0.62    1.32
   7  -9  -7    0.16    1.35
  -7   9   7    0.58    1.24
  -7   9   7    1.02    1.41
   7  -8  -7    4.58    1.95
  -7   8   7    2.74    1.51
  -7   8   7    3.68    1.77
   7  -7  -7    1.81    1.45
  -7   7   7    0.49    1.26
   7  -6  -7   19.65    3.25
  -7   6   7   14.84    2.87
   7  -5  -7   10.18    2.51
  -7   5   7    7.96    2.19
   7  -4  -7   21.85    3.31
  -7   4   7   23.22    3.46
   7  -3  -7    0.60    1.22
  -7   3   7    0.67    1.23
   7  -2  -7    2.67    1.51
  -7   2   7    4.91    1.77
   7  -1  -7    1.05    1.27
  -7   1   7    1.31    1.45
   7   0  -7   -0.87    1.06
  -7   0   7   -0.28    1.24
   7   1  -7    4.42    1.74
  -7  -1   7    6.48    2.19
   7   2  -7    0.32    1.24
   7   2  -7   -1.24    0.93
  -7  -2   7    0.36    1.42
   7   3  -7    5.44    1.90
   7   3  -7    7.91    2.32
   7   4  -7    1.47    1.33
   7   4  -7   -0.42    1.10
   7   5  -7    5.61    1.72
   7   5  -7    5.96    2.21
   7   6  -7   49.98    4.66
   7   7  -7    0.21    1.48
  -7  14   6   -0.31    1.06
  -7  13   6    1.45    1.46
  -7  12   6    0.60    1.29
  -7  11   6   13.12    2.21
  -7  11   6   17.32    3.04
  -7  10   6    4.24    1.48
  -7  10   6    3.84    1.82
  -7   9   6    9.65    2.16
  -7   9   6    7.58    2.25
   7  -8  -6   16.49    2.96
  -7   8   6   14.76    2.56
  -7   8   6   17.74    3.09
   7  -7  -6   65.11    4.62
  -7   7   6   62.28    4.32
  -7   7   6   70.33    4.83
   7  -6  -6    2.43    1.52
  -7   6   6    3.14    1.56
  -7   6   6    2.53    1.49
   7  -5  -6   31.85    3.35
  -7   5   6   31.69    3.27
   7  -4  -6    7.73    2.06
  -7   4   6    9.80    2.32
   7  -3  -6    6.93    1.96
  -7   3   6    8.55    2.20
   7  -2  -6   16.94    2.77
  -7   2   6   17.96    2.89
   7  -1  -6   12.38    2.50
  -7   1   6   13.70    2.68
   7   0  -6   29.02    3.15
  -7   0   6   28.84    3.40
   7   1  -6    3.69    1.58
   7   1  -6    6.29    1.92
  -7  -1   6    5.51    1.92
   7   2  -6    1.66    1.31
   7   2  -6    0.72    1.15
  -7  -2   6    1.44    1.45
   7   3  -6    0.80    1.11
   7   3  -6   -0.01    1.08
   7   4  -6   27.33    3.03
   7   4  -6   28.19    3.47
   7   5  -6    2.36    1.34
   7   5  -6    1.40    1.43
   7   6  -6   28.37    3.89
   7   7  -6   25.18    3.66
   7   8  -6    6.59    2.30
  -7  14   5    6.61    2.06
  -7  13   5    6.69    2.01
  -7  12   5    9.87    2.36
  -7  11   5   26.10    3.16
  -7  10   5   -0.69    0.77
  -7  10   5    0.42    0.99
  -7  10   5   -0.34    0.73
  -7   9   5    4.72    1.50
  -7   9   5    4.82    1.64
  -7   9   5    4.66    1.62
   7  -8  -5   21.93    3.13
  -7   8   5   22.91    2.64
  -7   8   5   25.04    2.98
   7  -7  -5    5.25    1.77
  -7   7   5    1.73    1.26
  -7   7   5    1.58    1.30
   7  -6  -5    5.66    1.74
  -7   6   5    6.58    1.78
  -7   6   5    6.78    1.89
   7  -5  -5    6.51    1.88
  -7   5   5    6.92    1.91
  -7   5   5    4.81    1.65
   7  -4  -5    1.38    1.22
  -7   4   5    0.49    1.00
   7  -3  -5    2.13    1.32
  -7   3   5    3.36    1.49
   7  -2  -5   19.60    2.88
  -7   2   5   21.41    3.07
   7  -1  -5    4.84    1.65
  -7   1   5    3.50    1.54
   7   0  -5    5.72    1.73
   7   0  -5    4.81    1.65
  -7   0   5    4.18    1.67
   7   1  -5   24.50    2.82
   7   1  -5   23.86    2.97
  -7  -1   5   25.65    3.43
   7   2  -5   71.98    4.45
   7   2  -5   80.42    4.96
  -7  -2   5   79.62    4.97
   7   3  -5   12.39    2.25
   7   3  -5    8.96    2.07
  -7  -3   5   12.16    2.59
   7   4  -5   23.58    2.76
   7   4  -5   21.25    3.12
   7   5  -5    0.04    1.04
   7   5  -5   -0.07    1.11
   7   6  -5   17.22    2.45
   7   6  -5   11.09    2.42
   7   7  -5    1.74    1.53
   7   8  -5   41.36    4.10
   7   9  -5   14.86    2.90
  -7  14   4    7.30    2.03
  -7  13   4   16.13    2.73
  -7  12   4    2.29    1.40
  -7  11   4    2.84    1.44
  -7  10   4   23.18    2.22
  -7  10   4   24.82    2.90
  -7  10   4   25.32    2.59
  -7   9   4   44.00    3.04
  -7   9   4   41.92    3.56
  -7   9   4   47.92    3.46
  -7   8   4   14.12    2.20
  -7   8   4    9.52    2.01
  -7   8   4   10.98    2.12
   7  -7  -4   22.76    2.84
  -7   7   4   26.82    2.67
  -7   7   4   23.94    2.78
  -7   7   4   23.11    2.62
   7  -6  -4   29.51    3.02
  -7   6   4   27.04    2.69
  -7   6   4   28.81    2.92
  -7   6   4   30.42    2.94
   7  -5  -4    9.01    1.94
  -7   5   4    8.07    1.79
  -7   5   4    7.36    1.76
   7  -4  -4   13.17    2.44
  -7   4   4   10.29    2.05
  -7   4   4   11.98    2.17
   7  -3  -4   50.46    3.67
  -7   3   4   49.31    3.60
  -7   3   4   58.91    4.06
   7  -2  -4   37.36    3.21
  -7   2   4   39.53    3.33
   7  -1  -4    0.49    0.95
  -7   1   4    0.90    1.11
   7   0  -4   19.14    2.75
   7   0  -4   20.11    2.91
  -7   0   4   20.76    2.55
   7   1  -4   39.78    3.28
   7   1  -4   38.70    3.38
  -7  -1   4   43.73    3.59
   7   2  -4   53.04    3.70
   7   2  -4   63.64    4.25
  -7  -2   4   57.07    4.07
   7   3  -4  199.53    6.80
   7   3  -4  195.04    7.25
  -7  -3   4  199.91    7.39
   7   4  -4   35.02    3.07
   7   4  -4   45.16    3.75
  -7  -4   4   42.68    3.90
   7   5  -4    1.99    1.21
   7   5  -4    3.19    1.55
   7   6  -4   53.58    3.45
   7   6  -4   49.87    4.08
   7   7  -4    7.07    2.06
   7   8  -4    2.62    1.50
   7   9  -4    0.81    1.34
   7  10  -4    0.48    1.27
  -7  14   3   56.99    3.99
  -7  13   3   10.67    2.16
  -7  12   3    4.48    1.56
  -7  11   3    1.65    1.16
  -7  10   3   16.91    2.58
  -7  10   3   17.91    2.51
  -7   9   3    1.23    0.90
  -7   9   3    1.45    1.08
  -7   9   3    2.06    1.06
  -7   8   3   -0.07    0.74
  -7   8   3    0.11    0.77
  -7   8   3   -0.26    0.64
   7  -7  -3   39.02    3.22
  -7   7   3   39.42    2.87
  -7   7   3   36.05    3.10
  -7   7   3   39.13    3.06
   7  -6  -3    3.93    1.46
  -7   6   3    4.01    1.31
  -7   6   3    6.57    1.63
  -7   6   3    7.33    1.70
   7  -5  -3  166.89    6.15
  -7   5   3  163.87    5.80
  -7   5   3  162.22    6.06
  -7   5   3  172.47    6.19
   7  -4  -3  152.58    5.86
  -7   4   3  147.78    5.60
  -7   4   3  144.09    5.70
  -7   4   3  155.71    5.94
   7  -3  -3   -0.27    0.84
  -7   3   3    0.12    0.82
  -7   3   3   -0.42    0.64
  -7   3   3    0.40    0.78
   7  -2  -3    7.11    1.63
  -7   2   3   11.57    2.10
  -7   2   3   10.35    1.98
   7  -1  -3    2.11    1.19
  -7   1   3    2.05    1.19
   7   0  -3  337.66    8.58
   7   0  -3  337.40    8.69
  -7   0   3  353.78    8.93
   7   1  -3   33.36    2.96
   7   1  -3   33.84    3.05
  -7  -1   3   33.54    3.06
   7   2  -3  212.75    6.86
   7   2  -3  199.72    6.93
  -7  -2   3  212.86    7.16
   7   3  -3    2.50    1.20
   7   3  -3    1.18    1.04
  -7  -3   3    1.67    1.25
   7   4  -3    0.80    0.95
   7   4  -3    0.55    0.99
  -7  -4   3   -0.75    0.93
   7   5  -3   56.91    3.61
   7   5  -3   61.29    4.23
   7   6  -3   47.80    3.24
   7   6  -3   44.39    3.76
   7   7  -3    8.47    1.66
   7   7  -3    8.15    2.06
   7   8  -3    9.94    2.29
   7   9  -3    1.99    1.37
   7  10  -3    3.16    1.61
  -7  14   2   36.42    3.10
  -7  13   2    3.76    1.31
  -7  12   2   19.71    2.44
  -7  11   2   -0.07    0.86
  -7  10   2   14.04    2.26
  -7   9   2   13.93    1.52
  -7   9   2   13.42    2.21
  -7   9   2   13.84    1.98
  -7   8   2    1.23    0.86
  -7   8   2    0.76    0.96
  -7   8   2    0.99    0.83
  -7   7   2   59.29    3.19
  -7   7   2   50.82    3.41
  -7   7   2   67.86    3.68
   7  -6  -2    1.25    1.07
  -7   6   2    2.23    1.01
  -7   6   2    1.70    1.09
  -7   6   2    2.86    1.13
   7  -5  -2   61.36    3.67
  -7   5   2   57.40    3.31
  -7   5   2   57.73    3.57
  -7   5   2   66.21    3.72
   7  -4  -2  133.21    5.25
  -7   4   2  134.12    5.04
  -7   4   2  129.39    5.17
  -7   4   2  148.78    5.51
   7  -3  -2    9.05    1.82
  -7   3   2    9.53    1.79
  -7   3   2    9.62    1.81
  -7   3   2   11.37    2.08
   7  -2  -2    0.92    0.88
  -7   2   2    0.90    0.89
  -7   2   2    1.69    1.01
  -7   2   2    1.87    1.00
   7  -1  -2   67.59    3.81
   7  -1  -2   72.55    4.15
  -7   1   2   71.09    3.91
  -7   1   2   74.12    3.97
  -7   1   2   71.52    4.00
   7   0  -2   11.95    2.02
   7   0  -2   14.18    2.14
  -7   0   2   13.76    2.24
   7   1  -2  171.89    5.95
   7   1  -2  171.14    6.05
  -7  -1   2  171.36    6.09
   7   2  -2  475.74    9.81
   7   2  -2  479.49   10.19
  -7  -2   2  490.47   10.32
   7   3  -2   63.29    3.71
   7   3  -2   59.13    3.81
  -7  -3   2   62.48    3.93
   7   4  -2    1.13    0.98
   7   4  -2    0.97    1.08
  -7  -4   2    0.81    1.06
   7   5  -2   17.90    2.41
   7   5  -2   16.50    2.56
  -7  -5   2   15.26    2.47
   7   6  -2   78.34    3.98
   7   6  -2   71.94    4.43
   7   7  -2   25.29    2.35
   7   7  -2   23.87    3.18
   7   8  -2    2.74    1.41
   7   9  -2   19.09    2.95
   7  10  -2    2.21    1.40
   7  11  -2    0.63    1.23
  -7  14   1   -0.34    0.80
  -7  13   1    3.52    1.25
  -7  12   1    0.51    0.81
  -7  11   1    3.16    1.18
  -7  10   1    9.02    1.77
  -7   9   1   14.35    2.12
  -7   9   1   17.21    1.74
  -7   8   1    5.30    1.07
  -7   8   1    2.98    1.12
  -7   8   1    5.33    1.24
  -7   7   1   13.03    1.58
  -7   7   1   10.52    1.78
  -7   7   1   14.05    1.92
   7  -6  -1  176.26    5.80
  -7   6   1  172.42    5.07
  -7   6   1  169.81    5.66
  -7   6   1  186.82    5.68
   7  -5  -1    1.55    1.01
  -7   5   1    1.25    0.82
  -7   5   1    0.54    0.81
  -7   5   1    2.08    0.95
   7  -4  -1    0.39    0.81
  -7   4   1   -0.06    0.64
  -7   4   1   -0.19    0.61
  -7   4   1    0.29    0.68
   7  -3  -1    0.59    0.76
   7  -3  -1    0.51    0.71
  -7   3   1    0.26    0.74
  -7   3   1    0.58    0.83
  -7   3   1    0.86    0.81
   7  -2  -1   97.11    4.33
   7  -2  -1   98.35    4.39
  -7   2   1  105.88    4.42
  -7   2   1   93.67    4.25
  -7   2   1  111.14    4.66
   7  -1  -1   50.92    3.19
   7  -1  -1   55.53    3.30
   7  -1  -1   57.22    3.45
  -7   1   1   50.86    3.20
  -7   1   1   51.13    3.20
  -7   1   1   63.65    3.63
   7   0  -1  212.55    6.37
   7   0  -1  210.64    6.32
   7   0  -1  216.84    6.77
  -7   0   1  203.56    6.26
  -7   0   1  210.39    6.29
   7   1  -1    2.19    1.10
   7   1  -1    1.39    0.97
  -7  -1   1    2.51    1.18
   7   2  -1    1.04    0.92
   7   2  -1    0.36    0.83
  -7  -2   1    0.18    0.87
   7   3  -1   57.15    3.45
   7   3  -1   61.80    3.75
  -7  -3   1   60.34    3.72
   7   4  -1   15.24    2.16
   7   4  -1   13.44    2.18
  -7  -4   1   15.75    2.44
   7   5  -1   65.74    3.68
   7   5  -1   68.09    4.08
  -7  -5   1   69.24    4.13
   7   6  -1   12.05    1.98
   7   6  -1   13.84    2.32
   7   7  -1   57.38    3.32
   7   7  -1   53.54    3.86
   7   8  -1    1.62    0.93
   7   8  -1   -0.11    0.97
   7   9  -1    1.62    1.27
   7  10  -1    5.12    1.67
   7  11  -1    0.40    1.16
   7  12  -1    1.30    1.33
  -7  14   0   33.98    2.61
  -7  13   0    2.68    1.12
  -7  12   0   19.16    2.13
  -7  11   0    7.96    1.57
  -7  10   0   -0.75    0.53
  -7   9   0   66.59    3.53
  -7   9   0   68.77    2.78
  -7   8   0   83.60    3.90
  -7   8   0   92.46    3.50
  -7   7   0   22.40    1.70
  -7   7   0   19.71    2.07
  -7   7   0   21.06    1.91
  -7   6   0  130.71    4.07
  -7   6   0  126.58    4.72
  -7   6   0  140.79    4.68
   7  -5   0    1.79    1.02
  -7   5   0    2.14    0.90
  -7   5   0    1.09    0.85
  -7   5   0    1.08    0.75
   7  -4   0  107.17    4.35
  -7   4   0  101.05    3.96
  -7   4   0   97.66    4.16
  -7   4   0  109.23    4.32
   7  -3   0   23.28    2.21
   7  -3   0   27.79    2.38
  -7   3   0   20.70    1.99
  -7   3   0   25.26    2.27
  -7   3   0   23.76    2.21
   7  -2   0   82.52    3.87
   7  -2   0   85.67    3.97
  -7   2   0   76.32    3.62
  -7   2   0   75.18    3.69
  -7   2   0   79.08    3.81
   7  -1   0   34.32    2.63
   7  -1   0   32.76    2.57
   7  -1   0   31.39    2.54
  -7   1   0   34.09    2.57
  -7   1   0   33.63    2.59
  -7   1   0   35.46    2.69
   7   0   0  123.16    4.74
   7   0   0  133.30    4.87
   7   0   0  132.00    4.99
  -7   0   0  126.42    4.80
  -7   0   0  128.82    4.83
  -7   0   0  138.89    5.13
   7   1   0   18.42    2.08
   7   1   0   19.87    2.14
   7   1   0   20.06    2.16
  -7  -1   0   20.43    2.11
  -7  -1   0   21.38    2.18
   7   2   0    2.91    1.11
   7   2   0    4.83    1.32
   7   2   0    3.12    1.15
  -7  -2   0    2.93    1.19
  -7  -2   0    5.28    1.51
   7   3   0   28.01    2.45
   7   3   0   27.29    2.57
  -7  -3   0   27.24    2.56
   7   4   0    1.77    1.00
   7   4   0    3.23    1.26
  -7  -4   0    1.81    1.15
   7   5   0   18.95    2.14
   7   5   0   19.76    2.39
  -7  -5   0   19.44    2.39
   7   6   0  209.43    6.19
   7   6   0  200.57    6.75
  -7  -6   0  221.93    7.12
   7   7   0   16.50    2.00
   7   7   0   15.93    2.47
   7   8   0    4.40    1.27
   7   8   0    3.07    1.40
   7   9   0   24.27    2.88
   7  10   0    2.15    1.32
   7  11   0   12.07    2.42
   7  12   0    8.60    2.16
  -7  14  -1    6.11    1.29
  -7  13  -1   63.90    3.21
  -7  12  -1    0.53    0.75
  -7  11  -1   15.82    1.89
  -7  10  -1   10.11    1.66
  -7   9  -1   49.69    2.95
  -7   8  -1   28.16    2.31
  -7   8  -1   29.64    1.87
  -7   7  -1  199.01    3.63
  -7   7  -1  178.33    5.37
  -7   7  -1  187.45    4.81
  -7   6  -1  338.71    5.84
  -7   6  -1  318.59    7.12
  -7   6  -1  338.13    6.76
   7  -5   1   90.81    3.91
  -7   5  -1   90.82    3.38
  -7   5  -1   83.27    3.72
  -7   5  -1   87.95    3.63
   7  -4   1    0.12    0.70
  -7   4  -1    0.66    0.66
  -7   4  -1    0.14    0.62
  -7   4  -1    0.44    0.61
   7  -3   1  206.51    5.81
   7  -3   1  204.14    5.79
  -7   3  -1  196.59    5.34
  -7   3  -1  186.27    5.51
  -7   3  -1  214.78    5.86
   7  -2   1   42.09    2.77
   7  -2   1   46.65    2.90
  -7   2  -1   41.60    2.64
  -7   2  -1   40.23    2.69
  -7   2  -1   43.11    2.79
   7  -1   1  143.07    4.93
   7  -1   1  158.66    5.23
  -7   1  -1  142.50    4.83
  -7   1  -1  149.43    5.02
  -7   1  -1  152.71    5.13
   7   0   1    8.09    1.63
   7   0   1    7.10    1.42
   7   0   1    6.76    1.27
  -7   0  -1    6.95    1.40
  -7   0  -1    5.84    1.33
  -7   0  -1    8.04    1.60
   7   1   1    5.66    1.40
   7   1   1    6.23    1.40
   7   1   1    6.29    1.47
  -7  -1  -1    6.94    1.53
  -7  -1  -1    6.01    1.42
   7   2   1   -0.50    0.62
   7   2   1   -0.79    0.50
   7   2   1   -0.18    0.52
  -7  -2  -1   -0.32    0.69
   7   3   1   67.61    3.57
   7   3   1   70.68    3.75
   7   3   1   75.79    3.89
  -7  -3  -1   73.87    3.84
  -7  -3  -1   71.44    3.82
   7   4   1   80.03    3.88
   7   4   1   84.31    4.15
   7   4   1   88.56    4.45
  -7  -4  -1   82.70    4.14
   7   5   1    0.09    0.78
   7   5   1    1.37    0.94
  -7  -5  -1    0.62    0.92
   7   6   1  120.81    4.73
   7   6   1  117.28    5.12
  -7  -6  -1  122.46    5.23
   7   7   1  175.50    5.58
   7   7   1  189.93    6.59
   7   8   1    2.70    1.14
   7   8   1    2.52    1.24
   7   9   1   43.92    2.75
   7   9   1   44.21    3.56
   7  10   1    4.62    1.53
   7  11   1    4.51    1.60
   7  12   1    5.73    1.77
   7  13   1    1.31    1.30
  -7  14  -2    6.92    1.16
  -7  13  -2    5.43    1.17
  -7  12  -2   19.29    1.87
  -7  11  -2   26.72    2.17
  -7  10  -2   39.27    2.54
  -7   9  -2   69.70    3.32
  -7   8  -2    1.56    0.83
  -7   8  -2    0.86    0.49
  -7   7  -2   31.27    2.34
  -7   7  -2   30.82    1.90
  -7   6  -2  394.62    5.42
  -7   6  -2  363.72    7.38
  -7   6  -2  398.49    6.91
  -7   5  -2   50.01    2.38
  -7   5  -2   45.40    2.74
  -7   5  -2   49.83    2.67
   7  -4   2  231.50    5.97
  -7   4  -2  219.96    5.19
  -7   4  -2  220.38    5.82
  -7   4  -2  239.72    5.84
   7  -3   2    6.40    1.39
  -7   3  -2    6.10    1.22
  -7   3  -2    6.40    1.33
  -7   3  -2    5.90    1.35
   7  -2   2    1.83    0.90
   7  -2   2    2.27    0.91
  -7   2  -2    2.06    0.89
  -7   2  -2    1.62    0.86
  -7   2  -2    2.19    0.88
   7  -1   2   49.04    2.92
   7  -1   2   45.66    2.85
  -7   1  -2   48.01    2.81
  -7   1  -2   49.33    2.91
  -7   1  -2   51.35    3.01
   7   0   2   36.71    2.62
   7   0   2   35.10    2.58
  -7   0  -2   37.29    2.59
  -7   0  -2   35.29    2.53
  -7   0  -2   37.81    2.67
   7   1   2   66.84    3.42
   7   1   2   73.08    3.57
   7   1   2   71.77    3.63
  -7  -1  -2   62.59    3.32
  -7  -1  -2   70.37    3.51
  -7  -1  -2   71.56    3.63
   7   2   2  201.40    5.91
   7   2   2  202.45    5.94
   7   2   2  204.38    6.09
  -7  -2  -2  194.48    5.87
  -7  -2  -2  207.34    5.95
   7   3   2    0.68    0.76
   7   3   2    0.43    0.74
   7   3   2    0.52    0.68
  -7  -3  -2    2.13    1.01
  -7  -3  -2    0.75    0.73
   7   4   2    1.64    0.95
   7   4   2    1.61    0.97
   7   4   2    1.97    1.06
  -7  -4  -2    1.84    1.06
   7   5   2   64.68    3.53
   7   5   2   75.58    4.00
  -7  -5  -2   77.90    4.10
   7   6   2   26.16    2.42
   7   6   2   26.65    2.64
  -7  -6  -2   26.18    2.73
   7   7   2   -0.08    0.75
   7   7   2    0.12    0.84
  -7  -7  -2    0.24    1.03
   7   8   2    5.12    1.40
   7   8   2    3.80    1.44
   7   9   2   37.16    2.67
   7   9   2   30.91    3.05
   7  10   2   38.57    3.39
   7  11   2   15.12    2.67
   7  12   2   25.37    3.06
   7  13   2    2.29    1.40
  -7  13  -3    0.13    0.57
  -7  12  -3   13.14    1.51
  -7  11  -3    7.80    1.35
  -7  10  -3   80.85    3.40
  -7   9  -3   57.39    2.94
  -7   8  -3   30.73    2.25
  -7   7  -3   93.86    3.73
  -7   6  -3   44.59    2.68
  -7   6  -3   46.66    2.34
  -7   5  -3   22.86    1.56
  -7   5  -3   22.67    2.01
  -7   5  -3   22.72    1.83
   7  -4   3    4.49    1.21
  -7   4  -3    6.67    1.18
  -7   4  -3    4.73    1.17
  -7   4  -3    5.06    1.18
   7  -3   3   24.96    2.11
  -7   3  -3   22.16    1.83
  -7   3  -3   22.52    2.02
  -7   3  -3   21.03    1.90
   7  -2   3    3.97    1.16
   7  -2   3    3.60    1.02
  -7   2  -3    4.25    1.11
  -7   2  -3    3.52    1.04
  -7   2  -3    5.22    1.31
   7  -1   3    6.26    1.42
   7  -1   3    6.73    1.44
  -7   1  -3    7.62    1.43
  -7   1  -3    5.12    1.19
  -7   1  -3    6.07    1.35
   7   0   3   38.50    2.65
   7   0   3   37.69    2.68
  -7   0  -3   37.79    2.58
  -7   0  -3   38.39    2.63
  -7   0  -3   39.36    2.69
   7   1   3    2.67    1.05
   7   1   3    1.64    0.81
   7   1   3    0.95    0.80
  -7  -1  -3    1.95    0.95
  -7  -1  -3    1.69    0.85
  -7  -1  -3    0.33    0.60
   7   2   3  333.92    7.55
   7   2   3  350.71    7.71
   7   2   3  337.19    7.76
  -7  -2  -3  324.80    7.47
  -7  -2  -3  349.72    7.69
   7   3   3  245.78    6.57
   7   3   3  235.88    6.51
   7   3   3  251.96    6.84
  -7  -3  -3  248.89    6.72
  -7  -3  -3  256.41    7.65
   7   4   3   12.40    1.87
   7   4   3   14.79    2.14
   7   4   3   13.77    2.05
  -7  -4  -3   13.70    2.10
  -7  -4  -3   12.94    2.14
   7   5   3   -0.24    0.68
   7   5   3   -0.12    0.70
  -7  -5  -3   -0.55    0.80
   7   6   3  242.44    6.68
   7   6   3  246.10    7.17
  -7  -6  -3  249.49    7.24
   7   7   3   32.12    2.66
   7   7   3   33.16    2.95
  -7  -7  -3   38.42    3.17
   7   8   3    0.60    0.82
   7   8   3    0.33    0.81
   7   9   3  105.76    4.37
   7   9   3   98.41    5.01
   7  10   3    4.03    1.21
   7  10   3    2.37    1.31
   7  11   3    1.15    1.20
   7  12   3    5.52    1.72
   7  13   3    3.39    1.56
   7  14   3    1.07    1.24
  -7  12  -4    9.53    1.30
  -7  11  -4    2.01    0.84
  -7  10  -4    7.73    1.35
  -7   9  -4    7.63    1.34
  -7   8  -4    0.50    0.66
  -7   7  -4   74.27    3.33
  -7   6  -4   18.86    1.86
  -7   5  -4   32.41    1.62
  -7   5  -4   28.99    2.23
  -7   5  -4   31.06    2.05
  -7   4  -4   49.95    2.35
  -7   4  -4   52.03    2.89
  -7   4  -4   50.65    2.68
   7  -3   4    2.33    1.01
  -7   3  -4    1.27    0.69
  -7   3  -4    1.76    0.81
  -7   3  -4    2.65    0.94
   7  -2   4  153.65    4.96
  -7   2  -4  156.13    4.64
  -7   2  -4  149.28    4.88
  -7   2  -4  159.81    4.95
   7  -1   4  404.34    8.04
   7  -1   4  444.67    8.48
  -7   1  -4  398.30    7.61
  -7   1  -4  412.31    8.10
  -7   1  -4  395.00    7.92
   7   0   4  179.35    5.47
   7   0   4  176.28    5.48
  -7   0  -4  177.74    5.29
  -7   0  -4  186.41    5.55
  -7   0  -4  196.53    5.75
   7   1   4    2.06    1.01
   7   1   4    3.36    1.20
  -7  -1  -4    3.21    1.15
  -7  -1  -4    4.69    1.29
  -7  -1  -4    2.26    0.84
   7   2   4  192.81    5.82
   7   2   4  187.14    5.68
   7   2   4  182.04    5.76
  -7  -2  -4  180.78    5.63
  -7  -2  -4  205.76    5.98
  -7  -2  -4  202.23    6.07
   7   3   4   95.95    4.19
   7   3   4   91.49    4.14
   7   3   4   98.85    4.38
  -7  -3  -4  102.46    4.40
  -7  -3  -4   99.85    4.27
   7   4   4  359.45    8.09
   7   4   4  396.29    8.62
   7   4   4  376.93    8.54
  -7  -4  -4  367.75    8.33
  -7  -4  -4  396.90    8.81
   7   5   4   37.85    2.83
   7   5   4   37.45    2.91
  -7  -5  -4   33.81    2.83
   7   6   4    8.28    1.68
   7   6   4    5.99    1.55
  -7  -6  -4    9.54    1.89
   7   7   4   22.47    2.37
   7   7   4   21.91    2.54
  -7  -7  -4   23.57    2.63
   7   8   4   81.62    4.06
   7   8   4   76.99    4.38
  -7  -8  -4   84.63    4.68
   7   9   4   75.60    3.91
   7   9   4   70.83    4.33
   7  10   4    9.28    1.73
   7  10   4    7.81    1.96
   7  11   4    1.29    1.21
   7  12   4   -0.20    0.98
   7  13   4    4.03    1.61
   7  14   4    0.78    1.17
  -7  12  -5   -0.15    0.53
  -7  11  -5   20.68    1.74
  -7  10  -5    2.26    0.88
  -7   9  -5    0.56    0.65
  -7   8  -5   24.61    2.05
  -7   7  -5    7.63    1.43
  -7   6  -5   89.71    3.72
  -7   5  -5   16.95    1.83
  -7   4  -5   31.74    1.87
  -7   4  -5   30.54    2.35
   7  -3   5    0.92    0.80
  -7   3  -5    0.72    0.63
  -7   3  -5    0.78    0.68
  -7   3  -5    0.80    0.68
   7  -2   5    1.64    0.91
  -7   2  -5    1.39    0.78
  -7   2  -5    1.86    0.90
  -7   2  -5    1.42    0.76
   7  -1   5  128.74    4.68
  -7   1  -5  121.56    4.31
  -7   1  -5  124.53    4.61
  -7   1  -5  131.70    4.67
   7   0   5   82.03    3.82
   7   0   5   86.31    3.94
  -7   0  -5   90.20    3.86
  -7   0  -5   77.45    3.71
  -7   0  -5   98.34    4.16
   7   1   5   42.75    2.88
   7   1   5   50.65    3.15
  -7  -1  -5   47.13    2.95
  -7  -1  -5   48.62    3.04
  -7  -1  -5   55.06    3.24
   7   2   5    2.50    1.06
   7   2   5    1.63    0.80
   7   2   5    0.80    0.81
  -7  -2  -5    1.68    0.97
  -7  -2  -5    1.78    0.92
  -7  -2  -5    1.97    0.98
   7   3   5   34.46    2.65
   7   3   5   39.50    2.84
   7   3   5   36.57    2.83
  -7  -3  -5   34.44    2.73
  -7  -3  -5   34.66    2.68
   7   4   5   84.02    4.10
   7   4   5   80.23    4.03
  -7  -4  -5   85.38    4.18
   7   5   5   33.67    2.77
   7   5   5   32.65    2.76
  -7  -5  -5   36.46    2.97
   7   6   5   18.39    2.19
   7   6   5   15.23    2.34
  -7  -6  -5   17.41    2.56
   7   7   5    9.79    1.88
   7   7   5   12.71    2.25
  -7  -7  -5   11.29    2.17
   7   8   5    0.36    0.92
   7   8   5   -0.59    0.81
  -7  -8  -5    0.61    1.06
   7   9   5   29.83    2.74
   7   9   5   30.66    3.10
   7  10   5   21.86    2.41
   7  10   5   16.40    2.63
   7  11   5    2.35    1.13
   7  11   5    1.66    1.26
   7  12   5    1.77    1.25
   7  13   5    1.83    1.50
   7  14   5    0.31    1.14
  -7  11  -6   10.73    1.41
  -7  10  -6    4.85    1.13
  -7   9  -6    2.55    0.98
  -7   8  -6    6.75    1.33
  -7   7  -6    1.56    0.85
  -7   6  -6   31.29    2.39
  -7   5  -6   79.18    3.67
  -7   4  -6   43.49    2.09
  -7   4  -6   44.87    2.86
  -7   3  -6   60.02    2.77
  -7   3  -6   53.87    3.14
   7  -2   6   26.44    2.38
  -7   2  -6   26.03    2.10
  -7   2  -6   26.43    2.34
   7  -1   6    9.75    1.76
  -7   1  -6    6.81    1.38
  -7   1  -6    6.36    1.42
   7   0   6    3.43    1.18
   7   0   6    5.30    1.34
  -7   0  -6    2.78    1.08
  -7   0  -6    3.95    1.20
  -7   0  -6    4.34    1.23
   7   1   6  160.50    5.50
   7   1   6  162.36    5.58
  -7  -1  -6  164.11    5.39
  -7  -1  -6  154.29    5.37
  -7  -1  -6  171.15    5.68
   7   2   6   41.66    2.98
   7   2   6   44.92    3.13
  -7  -2  -6   39.28    2.87
  -7  -2  -6   45.43    3.12
   7   3   6    5.29    1.36
   7   3   6    5.04    1.42
  -7  -3  -6    6.18    1.56
  -7  -3  -6    5.78    1.50
  -7  -3  -6    7.58    1.78
   7   4   6    2.02    1.07
   7   4   6    2.23    1.09
  -7  -4  -6    3.45    1.34
   7   5   6   31.42    2.77
   7   5   6   32.62    2.82
  -7  -5  -6   34.89    2.98
   7   6   6    0.32    0.91
   7   6   6    0.25    0.81
  -7  -6  -6    1.38    1.20
   7   7   6    0.63    0.92
   7   7   6    0.60    0.96
  -7  -7  -6    0.40    1.05
   7   8   6   12.63    2.13
   7   8   6   11.11    2.17
  -7  -8  -6   15.41    2.60
   7   9   6   19.99    2.44
   7   9   6   20.77    2.90
  -7  -9  -6   20.50    3.05
   7  10   6   -0.09    0.89
   7  10   6    0.89    1.15
   7  11   6    7.30    1.73
   7  11   6    7.53    2.03
   7  11   6    6.56    1.72
   7  12   6    1.82    1.30
   7  13   6    1.84    1.42
   7  14   6    9.23    2.41
   7  15   6    2.24    1.59
  -7  11  -7   17.82    1.71
  -7  10  -7   23.57    2.05
  -7   9  -7    0.43    0.74
  -7   8  -7   23.25    2.17
  -7   7  -7    8.04    1.52
  -7   6  -7    1.19    0.87
  -7   5  -7   12.66    1.90
  -7   4  -7   55.56    2.28
  -7   4  -7   55.48    3.28
  -7   3  -7    2.51    0.91
  -7   3  -7    1.92    0.97
   7  -2   7   13.20    2.06
  -7   2  -7   13.71    1.83
  -7   2  -7   11.76    1.87
   7  -1   7   80.54    4.01
  -7   1  -7   74.86    3.56
  -7   1  -7   73.09    3.83
   7   0   7    6.75    1.57
  -7   0  -7    6.21    1.39
  -7   0  -7    7.07    1.61
   7   1   7    0.15    0.86
  -7  -1  -7    0.33    0.71
  -7  -1  -7    0.28    0.77
   7   2   7    2.31    1.17
  -7  -2  -7    1.76    1.00
  -7  -2  -7    1.40    1.01
   7   3   7   54.07    3.52
  -7  -3  -7   59.62    3.67
  -7  -3  -7   59.12    3.65
   7   4   7    8.90    1.90
  -7  -4  -7    9.51    1.90
   7   5   7   55.12    3.64
   7   5   7   51.02    3.54
  -7  -5  -7   54.82    3.72
   7   6   7   23.96    2.61
   7   6   7   21.07    2.56
  -7  -6  -7   22.83    2.71
   7   7   7   15.72    2.52
   7   7   7   15.24    2.48
  -7  -7  -7   12.12    2.27
   7   8   7    1.19    1.04
   7   8   7    0.72    1.07
  -7  -8  -7    1.02    1.32
   7   9   7    5.56    1.66
   7   9   7    5.81    1.81
  -7  -9  -7    3.62    1.66
   7  10   7  102.60    4.98
   7  10   7  105.61    5.62
   7  11   7   -0.47    0.88
   7  11   7    0.38    0.97
   7  12   7    5.63    1.68
   7  12   7    5.76    1.93
   7  13   7    7.67    2.25
   7  14   7    0.25    1.20
   7  15   7    7.65    2.37
  -7  10  -8    4.16    1.20
  -7   9  -8    7.26    1.49
  -7   8  -8    1.40    0.90
  -7   7  -8    7.66    1.57
  -7   6  -8   25.26    2.40
  -7   5  -8    4.80    1.34
  -7   4  -8  186.03    6.06
  -7   3  -8  177.61    4.73
  -7   3  -8  176.54    5.98
  -7   2  -8    0.35    0.73
  -7   2  -8    0.01    0.75
   7  -1   8    0.68    1.00
  -7   1  -8    0.54    0.83
  -7   1  -8    0.90    0.88
   7   0   8    9.40    1.89
  -7   0  -8    9.09    1.75
  -7   0  -8   13.51    2.21
   7   1   8   99.61    4.72
  -7  -1  -8   89.49    4.29
  -7  -1  -8   91.53    4.53
   7   2   8   17.34    2.47
  -7  -2  -8   17.89    2.22
   7   3   8    0.59    0.90
  -7  -3  -8    0.90    1.02
  -7  -3  -8    0.55    0.95
   7   4   8   25.96    2.66
  -7  -4  -8   28.97    2.89
   7   5   8   19.14    2.72
  -7  -5  -8   20.43    2.86
   7   6   8    9.45    2.02
   7   6   8    7.88    1.88
  -7  -6  -8    8.43    2.11
   7   7   8   11.13    2.15
   7   7   8   14.14    2.47
  -7  -7  -8   14.36    2.65
   7   8   8   28.43    3.03
   7   8   8   29.98    3.25
  -7  -8  -8   36.44    3.53
   7   9   8    5.12    1.65
   7   9   8    5.65    1.86
  -7  -9  -8    4.33    1.76
   7  10   8    3.71    1.54
   7  10   8    2.97    1.44
  -7 -10  -8    3.42    1.69
   7  11   8   -0.91    0.92
   7  11   8   -0.79    1.03
   7  12   8    2.26    1.34
   7  12   8    4.85    1.88
   7  13   8    1.00    1.09
   7  13   8    0.25    1.19
   7  14   8    2.68    1.61
   7  15   8    6.16    2.24
  -7   9  -9    6.65    1.55
  -7   8  -9    1.72    1.00
  -7   7  -9    2.58    1.12
  -7   6  -9    3.95    1.28
  -7   5  -9   30.05    2.77
  -7   4  -9   27.07    2.69
  -7   3  -9    0.08    0.69
  -7   3  -9    0.88    0.96
  -7   2  -9   27.28    2.34
  -7   2  -9   24.32    2.59
  -7   1  -9   52.31    3.25
  -7   1  -9   46.43    3.43
   7   0   9   16.89    2.59
  -7   0  -9   14.44    2.17
  -7   0  -9   14.92    2.29
   7   1   9    8.96    1.98
  -7  -1  -9    7.05    1.73
  -7  -1  -9    7.07    1.74
   7   2   9   29.03    2.95
  -7  -2  -9   29.32    2.81
  -7  -2  -9   28.11    2.82
   7   3   9    3.27    1.46
  -7  -3  -9    3.98    1.53
  -7  -3  -9    3.70    1.34
   7   4   9   -0.20    0.89
  -7  -4  -9    0.93    1.05
   7   5   9   15.76    2.52
  -7  -5  -9   19.29    2.94
   7   6   9   51.86    3.88
  -7  -6  -9   59.09    4.20
   7   7   9   25.24    2.93
  -7  -7  -9   26.76    3.12
   7   8   9   21.82    3.13
   7   8   9   21.60    3.22
  -7  -8  -9   16.25    2.77
   7   9   9    0.53    1.11
   7   9   9   -0.62    1.05
  -7  -9  -9    0.85    1.42
   7  10   9   11.91    2.41
   7  10   9   13.45    2.72
  -7 -10  -9   13.64    2.81
   7  11   9   55.11    4.11
   7  11   9   54.97    4.56
   7  12   9    0.46    1.12
   7  12   9    0.21    1.26
   7  13   9    8.45    2.06
   7  13   9    8.74    2.58
   7  14   9   22.89    3.68
   7  15   9    6.39    2.27
  -7   8 -10    0.75    0.98
  -7   7 -10    2.76    1.30
  -7   6 -10    0.49    0.93
  -7   5 -10    8.59    1.89
  -7   4 -10   16.07    2.48
  -7   3 -10   17.80    2.57
  -7   2 -10   69.48    3.53
  -7   2 -10   70.97    4.33
  -7   1 -10    2.62    1.20
  -7   1 -10    2.91    1.27
   7   0  10   -0.41    0.97
  -7   0 -10    0.45    0.89
  -7   0 -10   -0.02    0.87
   7   1  10    4.53    1.68
  -7  -1 -10    5.24    1.53
  -7  -1 -10    2.85    1.42
   7   2  10   24.50    2.92
  -7  -2 -10   22.06    2.65
  -7  -2 -10   25.64    2.89
   7   3  10    9.95    2.20
  -7  -3 -10    6.38    1.76
  -7  -3 -10    6.94    1.96
   7   4  10    4.93    1.67
  -7  -4 -10    4.97    1.64
   7   5  10    2.99    1.43
  -7  -5 -10    1.07    1.26
   7   6  10   37.95    3.55
  -7  -6 -10   34.66    3.48
   7   7  10   38.77    3.62
  -7  -7 -10   43.50    3.92
   7   8  10    3.60    1.61
  -7  -8 -10    3.63    1.72
   7   9  10    1.32    1.42
  -7  -9 -10   -0.02    1.34
   7  10  10   10.75    2.39
   7  10  10   14.37    2.95
  -7 -10 -10   11.64    2.66
   7  11  10    0.32    1.22
   7  11  10    1.20    1.44
  -7 -11 -10    0.03    1.39
   7  12  10    1.29    1.42
   7  12  10   -0.13    1.29
   7  13  10   30.07    3.37
   7  13  10   30.20    4.31
   7  14  10    1.00    1.52
  -7   7 -11    0.35    0.96
  -7   6 -11    4.21    1.58
  -7   5 -11    2.93    1.42
  -7   4 -11    9.33    2.07
  -7   3 -11    0.25    1.01
  -7   2 -11   25.20    2.42
  -7   2 -11   25.20    2.97
  -7   1 -11   -0.62    0.85
  -7   1 -11    0.73    1.07
  -7   0 -11    4.14    1.50
  -7   0 -11    2.73    1.43
   7   1  11    1.44    1.36
  -7  -1 -11    1.61    1.21
  -7  -1 -11    2.51    1.44
   7   2  11    4.17    1.74
  -7  -2 -11    6.90    1.92
  -7  -2 -11    5.13    1.70
   7   3  11    3.36    1.60
  -7  -3 -11    4.59    1.79
  -7  -3 -11    4.81    1.72
   7   4  11   11.70    2.39
  -7  -4 -11   14.72    2.68
   7   5  11    0.09    1.09
  -7  -5 -11    0.35    1.28
   7   6  11   -0.29    1.09
  -7  -6 -11   -0.47    1.09
   7   7  11    3.64    1.72
  -7  -7 -11    6.37    2.13
   7   8  11   62.64    4.73
  -7  -8 -11   73.35    5.20
   7   9  11   -0.07    1.17
  -7  -9 -11   -0.30    1.32
   7  10  11    1.26    1.27
  -7 -10 -11    0.61    1.52
   7  11  11    0.01    1.29
  -7 -11 -11   -0.20    1.47
   7  12  11   18.32    3.14
   7  13  11    4.09    1.92
   7  13  11    6.34    2.48
   7  14  11   -0.58    1.19
   7  14  11    0.11    1.41
  -7   6 -12    7.54    1.98
  -7   5 -12   12.56    2.44
  -7   4 -12   -0.18    1.07
  -7   3 -12    0.05    1.06
  -7   2 -12    2.84    1.24
  -7   2 -12    4.15    1.69
  -7   1 -12   12.67    2.21
  -7   1 -12   13.96    2.72
  -7   0 -12   14.04    2.39
  -7   0 -12    9.17    2.28
   7   1  12    0.76    1.31
  -7  -1 -12    2.69    1.37
  -7  -1 -12    0.78    1.28
   7   2  12   39.73    3.95
  -7  -2 -12   43.21    3.70
  -7  -2 -12   40.18    3.90
   7   3  12    0.70    1.40
  -7  -3 -12    1.15    1.25
   7   4  12    1.94    1.52
  -7  -4 -12    1.42    1.28
   7   5  12   12.54    2.67
  -7  -5 -12   10.87    2.49
   7   6  12    4.17    1.86
  -7  -6 -12    3.39    1.83
   7   7  12    7.85    2.35
  -7  -7 -12    7.99    2.44
   7   8  12   13.68    2.83
  -7  -8 -12   11.24    2.74
   7   9  12   14.72    2.96
  -7  -9 -12   17.65    3.37
   7  10  12   18.67    3.43
  -7 -10 -12   18.66    3.43
   7  11  12    0.66    1.40
  -7 -11 -12    0.37    1.62
   7  12  12    5.99    2.15
  -7 -12 -12    7.42    2.55
   7  13  12   13.10    2.83
   7  14  12   11.88    2.75
  -7   5 -13   -0.79    0.92
  -7   4 -13    2.16    1.53
  -7   3 -13    1.31    1.40
  -7   2 -13    3.85    1.69
  -7   1 -13    3.27    1.43
  -7   1 -13    2.96    1.61
  -7   0 -13    6.40    1.83
  -7   0 -13    4.48    1.82
  -7  -1 -13   14.67    2.66
  -7  -1 -13   16.22    2.93
   7   2  13    6.25    2.27
  -7  -2 -13    5.59    1.91
  -7  -2 -13    6.13    2.10
   7   3  13   31.77    3.76
  -7  -3 -13   26.07    3.57
   7   4  13   -0.24    1.33
  -7  -4 -13    1.13    1.44
   7   5  13   19.79    3.42
  -7  -5 -13   20.19    3.32
   7   6  13    0.89    1.31
  -7  -6 -13    2.52    1.73
   7   7  13    3.94    1.91
  -7  -7 -13    3.98    2.03
   7   8  13    8.19    2.39
  -7  -8 -13    7.38    2.45
   7   9  13    2.86    1.84
  -7  -9 -13    4.10    2.02
   7  10  13    4.20    1.87
  -7 -10 -13    2.40    1.78
   7  11  13    2.84    1.87
  -7 -11 -13    3.14    1.97
   7  12  13    0.21    1.51
  -7 -12 -13   -1.79    1.36
   7  13  13    0.85    1.72
  -7   3 -14    0.09    1.23
  -7   2 -14    0.09    1.32
  -7   1 -14   43.22    4.40
  -7   0 -14    6.90    1.96
  -7   0 -14    6.19    2.13
  -7  -1 -14    0.05    1.13
  -7  -1 -14   -0.46    1.40
   7   2  14   30.38    4.46
  -7  -2 -14   32.14    3.63
   7   3  14   22.10    3.77
  -7  -3 -14   26.16    3.81
   7   4  14    0.52    1.48
  -7  -4 -14    1.74    1.66
   7   5  14   29.44    4.30
  -7  -5 -14   22.66    3.62
   7   6  14   -0.33    1.34
  -7  -6 -14    1.27    1.66
   7   7  14    0.32    1.41
  -7  -7 -14    0.68    1.52
   7   8  14   13.60    3.16
  -7  -8 -14    8.87    2.61
   7   9  14    0.00    1.45
  -7  -9 -14   -0.01    1.51
   7  10  14   18.62    3.49
  -7 -10 -14   21.10    3.77
   7  11  14    7.26    2.37
  -7 -11 -14    7.31    2.62
   7  12  14    1.35    1.59
  -7 -12 -14    2.88    2.14
  -7   1 -15    0.54    1.56
  -7   0 -15    0.67    1.34
  -7   0 -15    1.49    1.54
  -7  -1 -15    4.21    1.86
  -7  -1 -15    5.85    2.44
  -7  -2 -15    0.46    1.45
   7   3  15   -0.90    1.31
  -7  -3 -15    1.10    1.45
   7   4  15    8.30    2.64
  -7  -4 -15    6.95    2.32
   7   5  15   14.01    3.25
  -7  -5 -15    8.88    2.55
   7   6  15    3.37    2.01
  -7  -6 -15    0.70    1.68
   7   7  15    6.89    2.55
  -7  -7 -15    5.90    2.26
   7   8  15    0.54    1.49
  -7  -8 -15    5.25    2.35
   7   9  15    6.48    2.45
  -7  -9 -15    7.83    2.53
   7  10  15    6.35    2.48
  -7 -10 -15    8.14    2.93
   7  11  15   23.42    4.00
  -7 -11 -15   32.04    4.86
  -7  -2 -16    0.90    1.65
  -7  -3 -16   20.49    3.59
   7   4  16   -0.32    1.55
  -7  -4 -16    0.35    1.58
   7   5  16    2.34    1.91
  -7  -5 -16    0.02    1.62
   7   6  16    1.13    1.60
  -7  -6 -16   -0.43    1.40
   7   7  16    5.34    2.30
  -7  -7 -16    6.89    2.63
   7   8  16    0.13    1.55
  -7  -8 -16    0.74    1.72
   7   9  16    0.91    1.53
  -7  -9 -16    0.50    1.86
   8  -9 -10    1.88    1.93
  -8   9  10    1.25    1.78
   8  -8 -10    3.00    2.09
  -8   8  10    1.59    1.92
   8  -7 -10    3.61    2.17
  -8   7  10    2.84    2.01
   8  -6 -10   11.86    3.10
  -8   6  10   13.41    3.26
   8  -5 -10    1.70    1.76
  -8   5  10    0.59    1.75
   8  -4 -10    0.80    1.67
  -8   4  10    3.15    2.08
   8  -3 -10    2.37    1.90
  -8   3  10    3.76    2.23
   8  -2 -10   24.04    4.06
  -8   2  10   25.86    4.35
   8  -1 -10    3.47    1.95
  -8   1  10    2.10    2.03
   8   0 -10   -0.46    1.31
  -8   0  10    0.76    1.90
  -8  11   9    3.58    1.98
  -8  10   9   -0.19    1.41
   8  -9  -9   -0.31    1.53
  -8   9   9   -0.61    1.32
   8  -8  -9   -0.03    1.59
  -8   8   9   -0.62    1.34
   8  -7  -9   22.43    3.93
  -8   7   9   20.33    3.62
   8  -6  -9    0.64    1.57
  -8   6   9    2.28    1.85
   8  -5  -9    0.98    1.59
  -8   5   9   -0.23    1.48
   8  -4  -9    6.88    2.39
  -8   4   9    7.13    2.45
   8  -3  -9   -0.03    1.42
  -8   3   9    0.27    1.54
   8  -2  -9    6.50    2.30
  -8   2   9    7.78    2.65
   8  -1  -9   20.04    3.60
  -8   1   9   18.89    3.85
   8   0  -9   -0.44    1.34
  -8   0   9   -0.13    1.67
   8   1  -9    3.50    2.00
  -8  -1   9    4.32    2.32
   8   2  -9    3.08    1.86
  -8  12   8   28.06    3.67
  -8  12   8   26.98    4.19
  -8  11   8   15.95    2.95
  -8  10   8    1.83    1.65
   8  -9  -8   -1.49    1.14
  -8   9   8    0.14    1.33
   8  -8  -8    6.37    2.30
  -8   8   8    1.42    1.55
   8  -7  -8    4.14    2.05
  -8   7   8    1.72    1.71
   8  -6  -8    5.09    2.17
  -8   6   8    7.51    2.46
   8  -5  -8   -0.18    1.34
  -8   5   8   -0.13    1.33
   8  -4  -8    1.96    1.57
  -8   4   8    2.27    1.69
   8  -3  -8   15.31    3.11
  -8   3   8   17.88    3.37
   8  -2  -8    1.61    1.60
  -8   2   8    5.14    2.24
   8  -1  -8    8.89    2.47
  -8   1   8   17.06    3.51
   8   0  -8    8.45    2.46
  -8   0   8    8.58    2.59
   8   1  -8   14.62    2.97
  -8  -1   8   16.38    3.51
   8   2  -8    9.68    2.53
   8   3  -8    0.79    1.44
   8   4  -8    4.78    1.90
   8   4  -8    5.69    2.31
  -8  13   7   -0.47    1.38
  -8  12   7   21.55    3.82
  -8  11   7   15.12    2.76
  -8  11   7   19.63    3.64
  -8  10   7   54.20    4.28
  -8  10   7   49.16    4.68
   8  -9  -7    1.62    1.54
  -8   9   7    2.23    1.55
  -8   9   7    2.37    1.96
   8  -8  -7   -0.47    1.32
  -8   8   7    0.91    1.39
   8  -7  -7    7.11    2.32
  -8   7   7    8.39    2.37
   8  -6  -7    3.51    1.82
  -8   6   7    4.07    1.88
   8  -5  -7    9.62    2.51
  -8   5   7   10.29    2.62
   8  -4  -7    3.01    1.74
  -8   4   7   -0.16    1.25
   8  -3  -7    4.67    1.89
  -8   3   7    2.54    1.77
   8  -2  -7    6.82    2.10
  -8   2   7    5.25    2.14
   8  -1  -7    5.00    2.01
  -8   1   7    3.63    1.97
   8   0  -7   -0.05    1.23
  -8   0   7   -0.21    1.34
   8   1  -7   43.42    4.14
  -8  -1   7   53.21    4.80
   8   2  -7    1.73    1.47
  -8  -2   7    1.66    1.75
   8   3  -7   16.81    2.98
   8   3  -7   12.96    2.98
   8   4  -7    0.43    1.26
   8   4  -7    0.60    1.47
   8   5  -7   -0.09    1.15
   8   5  -7   -0.83    1.24
  -8  13   6   11.00    2.77
  -8  12   6    0.22    1.33
  -8  11   6   -0.07    0.98
  -8  11   6   -0.66    1.08
  -8  10   6   -1.35    0.90
  -8  10   6    1.22    1.41
  -8   9   6   24.62    3.00
  -8   9   6   27.81    3.87
   8  -8  -6    0.22    1.25
  -8   8   6    0.54    1.26
  -8   8   6    0.11    1.19
   8  -7  -6    6.42    2.13
  -8   7   6    4.43    1.78
   8  -6  -6   86.81    5.51
  -8   6   6   81.89    5.14
   8  -5  -6    5.08    2.00
  -8   5   6    5.33    1.88
   8  -4  -6    6.99    2.04
  -8   4   6    7.28    2.11
   8  -3  -6   11.60    2.44
  -8   3   6   12.50    2.61
   8  -2  -6   46.77    4.10
  -8   2   6   37.34    3.87
   8  -1  -6    4.40    1.83
  -8   1   6    1.98    1.54
   8   0  -6    7.84    2.20
  -8   0   6    9.90    2.46
   8   1  -6    5.10    1.90
  -8  -1   6    5.98    2.08
   8   2  -6    2.43    1.56
  -8  -2   6    1.80    1.68
   8   3  -6   21.16    3.21
   8   3  -6   18.58    3.31
   8   4  -6   35.92    3.53
   8   4  -6   36.76    4.06
   8   5  -6    0.11    1.14
   8   5  -6   -0.55    1.13
   8   6  -6    6.93    2.32
   8   7  -6   57.30    5.07
  -8  13   5    3.14    1.73
  -8  12   5   16.04    3.01
  -8  11   5    1.32    1.37
  -8  10   5    0.99    1.16
  -8  10   5    1.22    1.37
  -8   9   5    2.13    1.37
  -8   9   5    2.73    1.49
   8  -8  -5    1.50    1.42
  -8   8   5    1.69    1.27
  -8   8   5    1.27    1.36
   8  -7  -5    0.45    1.18
  -8   7   5    0.60    1.15
  -8   7   5    0.99    1.20
   8  -6  -5    0.29    1.06
  -8   6   5    0.23    1.11
  -8   6   5    0.73    1.17
   8  -5  -5   13.53    2.65
  -8   5   5   11.11    2.37
   8  -4  -5   25.36    3.09
  -8   4   5   22.68    3.19
   8  -3  -5    1.42    1.23
  -8   3   5    0.34    1.10
   8  -2  -5    9.57    2.22
  -8   2   5    7.02    2.08
   8  -1  -5    4.06    1.69
  -8   1   5    1.61    1.35
   8   0  -5   22.56    3.21
  -8   0   5   26.68    3.26
   8   1  -5   18.79    2.95
  -8  -1   5   23.66    3.54
   8   2  -5    0.19    1.10
   8   2  -5    0.93    1.15
  -8  -2   5    1.16    1.50
   8   3  -5    1.28    1.23
   8   3  -5    0.91    1.29
  -8  -3   5   -0.26    1.23
   8   4  -5   27.97    3.14
   8   4  -5   32.11    3.72
   8   5  -5   33.70    3.34
   8   5  -5   30.71    4.16
   8   6  -5    0.10    1.07
   8   6  -5    1.57    1.60
   8   7  -5   -1.03    1.19
   8   8  -5   19.66    3.53
  -8  14   4    4.64    1.83
  -8  13   4    2.08    1.37
  -8  12   4   14.78    2.72
  -8  11   4    5.22    1.80
  -8  10   4    1.69    1.12
  -8  10   4    1.38    1.21
  -8   9   4   -0.06    0.84
  -8   9   4   -0.13    1.08
  -8   9   4    0.02    0.81
  -8   8   4    1.28    1.10
  -8   8   4    1.02    1.18
   8  -7  -4   13.18    2.56
  -8   7   4   12.48    2.29
  -8   7   4   10.11    2.22
   8  -6  -4    4.40    1.76
  -8   6   4    5.78    1.73
  -8   6   4    5.44    1.75
   8  -5  -4   40.83    3.66
  -8   5   4   39.20    3.41
  -8   5   4   40.41    3.64
   8  -4  -4   35.27    3.40
  -8   4   4   32.57    3.19
   8  -3  -4    5.89    1.84
  -8   3   4    5.73    1.85
   8  -2  -4   43.28    3.66
  -8   2   4   39.69    3.54
   8  -1  -4   30.52    3.17
  -8   1   4   31.01    3.26
   8   0  -4   62.66    4.28
  -8   0   4   60.98    4.39
   8   1  -4   58.13    4.15
   8   1  -4   61.97    4.92
  -8  -1   4   59.47    4.37
   8   2  -4   24.68    2.92
   8   2  -4   22.08    3.26
  -8  -2   4   23.63    3.31
   8   3  -4    6.51    1.88
   8   3  -4    7.52    2.00
  -8  -3   4    6.72    2.10
   8   4  -4   22.71    2.83
   8   4  -4   19.40    3.14
   8   5  -4   22.60    2.79
   8   5  -4   24.18    3.54
   8   6  -4    4.80    1.61
   8   6  -4    3.80    1.73
   8   7  -4   21.36    3.46
   8   8  -4   11.32    2.75
   8   9  -4    6.61    2.26
  -8  14   3    1.57    1.32
  -8  13   3    0.78    1.15
  -8  12   3    4.45    1.64
  -8  11   3   12.97    2.36
  -8  10   3   16.81    2.76
  -8   9   3    3.16    1.19
  -8   9   3    2.50    1.34
  -8   9   3    3.67    1.39
  -8   8   3    2.79    1.19
  -8   8   3    2.90    1.36
  -8   8   3    0.78    0.91
   8  -7  -3    1.67    1.31
  -8   7   3    2.14    1.20
  -8   7   3    2.12    1.16
  -8   7   3    1.28    1.02
   8  -6  -3  167.09    6.61
  -8   6   3  178.79    6.31
  -8   6   3  172.46    6.71
  -8   6   3  185.28    7.27
   8  -5  -3   22.96    2.77
  -8   5   3   22.21    2.56
  -8   5   3   20.86    2.94
   8  -4  -3   34.01    3.20
  -8   4   3   32.27    3.01
  -8   4   3   34.82    3.21
   8  -3  -3   -0.22    1.01
  -8   3   3   -0.08    0.95
  -8   3   3    0.77    0.95
   8  -2  -3   13.61    2.46
  -8   2   3   13.27    2.46
   8  -1  -3    4.08    1.53
  -8   1   3    4.46    1.60
   8   0  -3    3.93    1.48
  -8   0   3    2.89    1.40
   8   1  -3  150.07    6.18
   8   1  -3  156.17    6.49
  -8  -1   3  151.62    6.42
   8   2  -3   46.44    3.64
   8   2  -3   47.46    3.87
  -8  -2   3   46.66    3.81
   8   3  -3   33.33    3.18
   8   3  -3   32.83    3.33
  -8  -3   3   31.86    3.33
   8   4  -3    8.04    1.95
   8   4  -3   12.20    2.49
  -8  -4   3   10.75    2.51
   8   5  -3  135.76    5.75
   8   5  -3  152.25    6.86
   8   6  -3   37.46    3.23
   8   6  -3   35.07    3.64
   8   7  -3   16.18    2.37
   8   7  -3   18.33    3.10
   8   8  -3   10.00    2.46
   8   9  -3  100.28    6.04
   8  10  -3   30.03    3.71
  -8  14   2    0.98    1.00
  -8  13   2   13.97    2.47
  -8  12   2   13.56    2.40
  -8  11   2    4.51    1.57
  -8  10   2   17.84    2.66
  -8   9   2   13.76    1.85
  -8   9   2   12.61    2.36
  -8   9   2   12.11    2.00
  -8   8   2   39.75    2.79
  -8   8   2   36.72    3.22
  -8   8   2   37.92    3.01
  -8   7   2    0.46    0.86
  -8   7   2    0.32    0.89
  -8   7   2   -0.38    0.63
   8  -6  -2    0.53    1.01
  -8   6   2   -0.53    0.67
  -8   6   2    0.36    0.92
  -8   6   2    0.75    0.87
   8  -5  -2   35.59    3.13
  -8   5   2   36.25    2.98
  -8   5   2   32.52    3.02
  -8   5   2   41.71    3.30
   8  -4  -2  265.09    7.88
  -8   4   2  242.99    7.24
  -8   4   2  252.88    7.70
  -8   4   2  262.31    7.82
   8  -3  -2   62.49    3.99
  -8   3   2   64.40    3.92
  -8   3   2   69.26    4.15
   8  -2  -2   22.84    2.52
  -8   2   2   23.94    2.62
  -8   2   2   23.17    2.59
   8  -1  -2    0.02    0.90
  -8   1   2    0.81    0.98
   8   0  -2   -0.40    0.88
  -8   0   2   -0.11    0.87
   8   1  -2    8.49    1.98
   8   1  -2    7.64    1.84
  -8  -1   2    8.99    2.10
   8   2  -2   93.88    4.82
   8   2  -2   95.22    5.05
  -8  -2   2   93.73    5.01
   8   3  -2    3.50    1.44
   8   3  -2    5.13    1.67
  -8  -3   2    2.52    1.32
   8   4  -2    0.31    1.04
   8   4  -2    1.81    1.23
  -8  -4   2    2.89    1.43
   8   5  -2   70.68    4.19
   8   5  -2   68.04    4.54
  -8  -5   2   71.79    4.70
   8   6  -2    7.06    1.79
   8   6  -2   11.23    2.39
   8   7  -2   13.38    2.20
   8   7  -2   12.65    2.55
   8   8  -2   20.78    3.21
   8   9  -2   44.05    4.09
   8  10  -2   -0.16    1.13
  -8  14   1    0.11    0.88
  -8  13   1    2.59    1.32
  -8  12   1    2.28    1.22
  -8  11   1    0.22    0.90
  -8  10   1    2.51    1.18
  -8   9   1    2.33    1.20
  -8   9   1    2.05    0.94
  -8   8   1   27.03    2.14
  -8   8   1   23.41    2.59
  -8   8   1   26.43    2.42
  -8   7   1   99.46    4.07
  -8   7   1   87.27    4.50
  -8   7   1   92.25    4.32
   8  -6  -1    0.31    0.92
  -8   6   1    0.35    0.77
  -8   6   1    0.78    0.97
  -8   6   1    0.14    0.76
   8  -5  -1    4.90    1.55
  -8   5   1    3.75    1.31
  -8   5   1    3.20    1.29
  -8   5   1    4.65    1.42
   8  -4  -1   60.30    3.77
  -8   4   1   55.44    3.46
  -8   4   1   60.42    3.76
  -8   4   1   68.04    3.92
   8  -3  -1   21.91    2.48
  -8   3   1   19.72    2.28
  -8   3   1   21.34    2.43
  -8   3   1   22.10    2.47
   8  -2  -1    4.15    1.42
  -8   2   1    3.33    1.30
  -8   2   1    4.08    1.34
  -8   2   1    4.04    1.54
   8  -1  -1    1.16    1.08
  -8   1   1    1.06    1.00
  -8   1   1    1.06    0.91
   8   0  -1   72.88    4.14
  -8   0   1   72.99    4.17
   8   1  -1  133.64    5.51
   8   1  -1  140.94    5.74
  -8  -1   1  131.99    5.58
   8   2  -1    0.08    0.92
   8   2  -1   -0.44    0.80
  -8  -2   1   -0.16    0.96
   8   3  -1   37.14    3.10
   8   3  -1   34.74    3.18
  -8  -3   1   40.44    3.39
   8   4  -1    8.59    1.89
   8   4  -1   11.34    2.17
  -8  -4   1    8.78    2.00
   8   5  -1   18.00    2.52
   8   5  -1   17.82    2.69
  -8  -5   1   18.67    2.90
   8   6  -1  179.29    6.25
   8   6  -1  176.76    7.00
   8   7  -1    7.32    1.69
   8   7  -1   10.41    2.27
   8   8  -1    1.02    0.99
   8   8  -1    1.27    1.23
   8   9  -1   24.98    3.44
   8  10  -1    2.41    1.46
   8  11  -1   22.71    3.41
  -8  14   0   17.38    2.38
  -8  13   0    3.68    1.25
  -8  12   0   15.56    2.29
  -8  11   0    6.80    1.65
  -8  10   0    3.84    1.32
  -8   9   0   24.99    2.56
  -8   8   0   45.68    3.25
  -8   8   0   41.79    2.73
  -8   7   0   32.64    2.27
  -8   7   0   32.17    2.78
  -8   7   0   28.61    2.41
  -8   6   0    2.30    1.00
  -8   6   0    2.67    1.15
  -8   6   0    2.07    0.99
   8  -5   0   10.68    1.97
  -8   5   0   11.82    1.89
  -8   5   0   10.54    1.88
  -8   5   0   11.45    1.92
   8  -4   0   40.18    3.04
  -8   4   0   43.36    2.98
  -8   4   0   40.62    3.04
  -8   4   0   45.38    3.13
   8  -3   0  115.10    4.93
  -8   3   0  106.27    4.53
  -8   3   0  108.42    4.78
  -8   3   0  105.71    4.70
   8  -2   0    4.58    1.41
  -8   2   0    2.92    1.17
  -8   2   0    3.86    1.31
  -8   2   0    2.86    1.12
   8  -1   0    3.09    1.20
  -8   1   0    5.32    1.52
  -8   1   0    2.68    1.14
  -8   1   0    2.52    1.12
   8   0   0  111.69    4.92
  -8   0   0  100.94    4.67
  -8   0   0  107.72    4.82
   8   1   0   44.57    3.24
   8   1   0   51.45    3.50
  -8  -1   0   46.56    3.37
   8   2   0  134.94    5.44
   8   2   0  142.27    5.68
  -8  -2   0  135.90    5.57
   8   3   0    3.03    1.31
   8   3   0    3.96    1.37
  -8  -3   0    1.48    1.11
   8   4   0   35.88    2.98
   8   4   0   38.57    3.29
  -8  -4   0   38.65    3.30
   8   5   0    0.46    0.90
   8   5   0    0.96    1.07
  -8  -5   0    0.57    1.07
   8   6   0    2.27    1.25
   8   6   0    0.75    1.11
  -8  -6   0    1.36    1.32
   8   7   0    2.80    1.25
   8   7   0    4.10    1.58
   8   8   0    1.62    1.09
   8   8   0    0.62    1.16
   8   9   0   35.47    3.56
   8  10   0   -0.11    1.12
   8  11   0    1.96    1.47
   8  12   0    1.55    1.36
  -8  13  -1   21.97    2.30
  -8  12  -1   10.18    1.81
  -8  11  -1    4.37    1.33
  -8  10  -1    8.49    1.67
  -8   9  -1    0.00    0.71
  -8   8  -1   18.62    2.18
  -8   8  -1   20.89    1.86
  -8   7  -1   14.30    1.47
  -8   7  -1   16.50    2.05
  -8   7  -1   16.33    1.81
  -8   6  -1    7.66    1.36
  -8   6  -1    8.28    1.61
  -8   6  -1    8.25    1.56
   8  -5   1   35.53    2.81
  -8   5  -1   35.25    2.48
  -8   5  -1   34.43    2.75
  -8   5  -1   37.04    2.72
   8  -4   1   22.77    2.34
  -8   4  -1   20.83    2.09
  -8   4  -1   21.86    2.29
  -8   4  -1   20.28    2.16
   8  -3   1    6.79    1.62
  -8   3  -1    3.61    1.22
  -8   3  -1    5.47    1.38
  -8   3  -1    2.20    1.00
   8  -2   1    4.28    1.34
  -8   2  -1    3.01    1.16
  -8   2  -1    3.94    1.25
  -8   2  -1    3.27    1.11
   8  -1   1  132.05    5.16
  -8   1  -1  138.40    5.17
  -8   1  -1  141.89    5.35
  -8   1  -1  138.79    5.34
   8   0   1   34.14    2.80
  -8   0  -1   35.66    2.84
  -8   0  -1   32.33    2.73
  -8   0  -1   36.96    2.94
   8   1   1   19.59    2.29
   8   1   1   18.42    2.24
  -8  -1  -1   20.45    2.30
  -8  -1  -1   21.09    2.56
  -8  -1  -1   23.75    2.76
   8   2   1    7.18    1.72
   8   2   1    7.12    1.67
  -8  -2  -1    6.53    1.69
   8   3   1  243.25    7.12
   8   3   1  260.22    7.55
  -8  -3  -1  251.74    7.46
   8   4   1    4.74    1.47
   8   4   1    2.09    1.20
  -8  -4  -1    3.55    1.38
   8   5   1    2.25    1.16
   8   5   1    2.47    1.20
  -8  -5  -1    3.65    1.45
   8   6   1   -0.51    0.82
   8   6   1    0.40    0.96
  -8  -6  -1    0.53    1.15
   8   7   1   16.36    2.40
   8   7   1   19.19    2.76
   8   8   1   25.84    2.60
   8   8   1   24.94    2.97
   8   9   1   25.57    2.47
   8   9   1   24.50    3.31
   8  10   1    6.40    1.94
   8  11   1    0.06    1.10
   8  12   1    3.65    1.69
  -8  13  -2   -0.13    0.75
  -8  12  -2   -0.04    0.74
  -8  11  -2   19.64    2.11
  -8  10  -2    0.97    0.79
  -8   9  -2   59.19    3.39
  -8   8  -2    6.46    1.44
  -8   8  -2    6.51    1.16
  -8   7  -2    2.33    1.07
  -8   7  -2    2.51    0.92
  -8   6  -2   25.86    1.87
  -8   6  -2   24.20    2.35
  -8   6  -2   24.54    2.11
  -8   5  -2   17.06    1.76
  -8   5  -2   16.16    2.00
  -8   5  -2   17.42    1.90
   8  -4   2   46.53    3.15
  -8   4  -2   43.79    2.72
  -8   4  -2   43.40    2.99
  -8   4  -2   48.01    2.99
   8  -3   2   -0.87    0.60
  -8   3  -2    0.04    0.65
  -8   3  -2    0.19    0.71
  -8   3  -2    0.11    0.63
   8  -2   2  175.41    5.78
   8  -2   2  194.11    6.09
  -8   2  -2  175.81    5.52
  -8   2  -2  173.33    5.74
  -8   2  -2  193.96    6.03
   8  -1   2    7.02    1.65
   8  -1   2    7.79    1.68
  -8   1  -2    7.88    1.66
  -8   1  -2    8.44    1.73
  -8   1  -2    6.93    1.58
   8   0   2    3.14    1.23
  -8   0  -2    2.04    1.05
  -8   0  -2    2.29    1.09
  -8   0  -2    1.34    0.90
   8   1   2   14.73    2.15
   8   1   2   14.96    2.09
  -8  -1  -2   13.50    2.01
  -8  -1  -2   15.01    2.21
  -8  -1  -2   13.25    2.15
   8   2   2   84.18    4.22
   8   2   2   88.80    4.32
  -8  -2  -2   82.95    4.24
   8   3   2  114.69    4.91
   8   3   2  118.21    5.08
  -8  -3  -2  121.03    5.17
   8   4   2   26.58    2.58
   8   4   2   29.67    2.83
  -8  -4  -2   32.28    2.94
   8   5   2   -0.29    0.78
   8   5   2   -0.19    0.83
  -8  -5  -2    0.07    0.91
   8   6   2   35.35    2.99
   8   6   2   32.89    3.12
  -8  -6  -2   31.36    3.11
   8   7   2   57.16    3.63
   8   7   2   58.35    4.06
  -8  -7  -2   65.74    4.33
   8   8   2   28.75    2.71
   8   8   2   37.88    3.46
   8   9   2    0.03    0.89
   8   9   2    1.68    1.27
   8  10   2    8.71    2.12
   8  11   2    1.17    1.17
   8  12   2    0.05    1.24
   8  13   2    3.98    1.83
  -8  13  -3    3.58    1.08
  -8  12  -3    2.82    1.08
  -8  11  -3    7.87    1.52
  -8  10  -3    9.63    1.67
  -8   9  -3   26.28    2.33
  -8   8  -3   11.65    1.85
  -8   7  -3   53.75    3.19
  -8   7  -3   52.74    2.58
  -8   6  -3   20.66    1.51
  -8   6  -3   22.51    2.23
  -8   6  -3   18.93    1.81
  -8   5  -3  163.16    4.43
  -8   5  -3  157.09    5.33
  -8   5  -3  166.14    5.08
   8  -4   3    0.46    0.87
  -8   4  -3    0.01    0.68
  -8   4  -3    1.71    0.97
  -8   4  -3   -0.49    0.58
   8  -3   3   39.66    2.86
  -8   3  -3   35.50    2.52
  -8   3  -3   41.14    2.91
  -8   3  -3   38.52    2.75
   8  -2   3   16.13    2.29
  -8   2  -3   16.28    1.89
  -8   2  -3   15.90    1.98
  -8   2  -3   16.37    1.95
   8  -1   3   53.90    3.32
   8  -1   3   54.02    3.34
  -8   1  -3   52.17    3.15
  -8   1  -3   51.69    3.24
  -8   1  -3   58.29    3.42
   8   0   3    2.10    0.99
   8   0   3    3.18    1.25
  -8   0  -3    1.19    0.92
  -8   0  -3    2.43    1.06
  -8   0  -3    2.65    0.98
   8   1   3    0.05    0.69
  -8  -1  -3   -0.16    0.72
  -8  -1  -3   -0.33    0.66
  -8  -1  -3    0.01    0.68
   8   2   3   43.16    3.11
   8   2   3   43.86    3.11
  -8  -2  -3   49.57    3.33
  -8  -2  -3   41.91    3.03
  -8  -2  -3   47.85    3.30
   8   3   3    7.92    1.69
   8   3   3    7.09    1.66
  -8  -3  -3    7.73    1.79
   8   4   3    8.28    1.78
   8   4   3    7.20    1.72
  -8  -4  -3    7.10    1.73
   8   5   3    5.01    1.45
   8   5   3    5.06    1.52
  -8  -5  -3    5.29    1.58
   8   6   3   10.11    1.93
   8   6   3    8.98    1.84
  -8  -6  -3    9.53    2.08
   8   7   3    4.45    1.47
   8   7   3    3.34    1.47
  -8  -7  -3    4.90    1.71
   8   8   3   84.65    4.32
   8   8   3   83.20    4.80
   8   9   3    9.71    1.92
   8   9   3    7.47    1.98
   8  10   3   27.67    2.61
   8  10   3   30.31    3.32
   8  11   3   15.98    2.81
   8  12   3   10.21    2.41
   8  13   3    0.77    1.33
  -8  12  -4    3.00    1.02
  -8  11  -4   29.41    2.32
  -8  10  -4    0.82    0.84
  -8   9  -4   15.68    2.09
  -8   8  -4    1.22    0.79
  -8   7  -4    7.13    1.47
  -8   6  -4  177.89    5.60
  -8   5  -4  173.87    4.25
  -8   5  -4  172.12    5.55
  -8   5  -4  176.88    5.09
  -8   4  -4  119.09    3.99
  -8   4  -4  122.67    4.74
  -8   4  -4  124.77    4.50
   8  -3   4  697.87   11.21
  -8   3  -4  711.00   10.16
  -8   3  -4  660.53   10.88
  -8   3  -4  747.52   11.18
   8  -2   4  102.29    4.43
  -8   2  -4   98.28    4.04
  -8   2  -4   94.85    4.26
  -8   2  -4  103.99    4.37
   8  -1   4    1.00    0.90
   8  -1   4    0.41    0.74
  -8   1  -4    0.11    0.66
  -8   1  -4    0.09    0.65
  -8   1  -4    0.00    0.57
   8   0   4   70.69    3.79
   8   0   4   75.53    3.97
  -8   0  -4   70.43    3.71
  -8   0  -4   73.21    3.85
  -8   0  -4   72.35    3.85
   8   1   4   50.37    3.29
  -8  -1  -4   48.36    3.19
  -8  -1  -4   49.25    3.29
   8   2   4    0.01    0.79
  -8  -2  -4    1.20    0.95
  -8  -2  -4    1.32    0.95
  -8  -2  -4    0.34    0.80
   8   3   4    4.46    1.44
   8   3   4    4.28    1.31
  -8  -3  -4    4.27    1.45
   8   4   4   88.54    4.43
   8   4   4   89.98    4.52
  -8  -4  -4   91.44    4.59
   8   5   4   26.04    2.68
   8   5   4   21.08    2.50
  -8  -5  -4   22.10    2.52
   8   6   4   -0.25    0.78
   8   6   4    0.11    0.89
  -8  -6  -4   -0.38    0.92
   8   7   4   54.74    3.60
   8   7   4   51.14    3.79
  -8  -7  -4   51.23    3.86
   8   8   4   47.96    3.46
   8   8   4   44.32    3.71
  -8  -8  -4   58.11    4.30
   8   9   4   42.58    3.25
   8   9   4   38.79    3.56
   8  10   4   16.52    2.41
   8  10   4   16.98    2.90
   8  11   4   13.72    2.67
   8  12   4    8.28    2.19
   8  13   4   10.30    2.54
   8  14   4    1.03    1.37
  -8  12  -5    1.42    0.82
  -8  11  -5   52.51    2.89
  -8  10  -5   28.27    2.31
  -8   9  -5    0.44    0.72
  -8   8  -5   51.65    3.09
  -8   7  -5    4.39    1.27
  -8   6  -5   89.38    4.07
  -8   5  -5    5.24    0.97
  -8   5  -5    4.27    1.25
  -8   4  -5  218.10    5.16
  -8   4  -5  201.05    6.08
  -8   4  -5  212.67    5.77
   8  -3   5   29.06    2.57
  -8   3  -5   25.09    2.11
  -8   3  -5   24.04    2.34
  -8   3  -5   26.69    2.32
   8  -2   5   50.92    3.24
  -8   2  -5   45.37    2.84
  -8   2  -5   48.45    3.18
  -8   2  -5   54.99    3.26
   8  -1   5    0.51    0.82
  -8   1  -5    0.67    0.75
  -8   1  -5    0.26    0.73
  -8   1  -5    0.49    0.76
   8   0   5    0.74    0.90
  -8   0  -5    1.43    0.96
  -8   0  -5    1.16    0.91
  -8   0  -5    1.61    0.93
   8   1   5    0.30    0.81
  -8  -1  -5   -0.26    0.75
  -8  -1  -5    0.13    0.80
  -8  -1  -5   -0.53    0.69
   8   2   5    2.30    1.16
  -8  -2  -5    2.07    1.09
  -8  -2  -5    1.73    1.10
  -8  -2  -5    3.28    1.21
   8   3   5    2.50    1.15
  -8  -3  -5    4.62    1.49
   8   4   5   68.44    3.98
   8   4   5   71.29    4.09
  -8  -4  -5   67.64    4.01
   8   5   5   68.37    4.05
   8   5   5   67.43    4.10
  -8  -5  -5   66.80    4.12
   8   6   5  138.12    5.65
   8   6   5  140.88    5.90
  -8  -6  -5  146.78    6.04
   8   7   5   11.62    2.17
   8   7   5    8.98    2.05
  -8  -7  -5    9.19    2.10
   8   8   5    8.19    1.92
   8   8   5   11.96    2.38
  -8  -8  -5    9.11    2.23
   8   9   5    3.89    1.50
   8   9   5    3.62    1.56
   8  10   5   50.63    3.57
   8  10   5   48.00    4.06
   8  11   5   15.03    2.31
   8  11   5   16.04    2.85
   8  12   5    4.90    1.79
   8  13   5   14.69    2.80
   8  14   5    0.22    1.28
  -8  11  -6   27.47    2.21
  -8  10  -6    7.25    1.44
  -8   9  -6    0.47    0.75
  -8   8  -6    1.94    0.96
  -8   7  -6    5.62    1.40
  -8   6  -6    1.12    0.89
  -8   5  -6    0.72    0.85
  -8   4  -6   11.49    1.52
  -8   4  -6    8.65    1.61
  -8   3  -6   24.66    2.08
  -8   3  -6   25.00    2.45
   8  -2   6   53.01    3.44
  -8   2  -6   41.68    2.75
  -8   2  -6   44.22    3.11
   8  -1   6   56.19    3.48
  -8   1  -6   57.94    3.30
  -8   1  -6   55.17    3.48
  -8   1  -6   61.99    3.56
   8   0   6    8.86    1.88
  -8   0  -6    6.37    1.50
  -8   0  -6    7.13    1.59
  -8   0  -6    6.30    1.45
   8   1   6   -0.28    0.74
  -8  -1  -6   -0.23    0.74
  -8  -1  -6   -0.64    0.62
  -8  -1  -6    0.43    0.76
   8   2   6   97.52    4.66
  -8  -2  -6   86.29    4.33
  -8  -2  -6   92.17    4.52
  -8  -2  -6   94.41    4.62
   8   3   6    5.59    1.56
  -8  -3  -6    5.24    1.59
  -8  -3  -6    6.29    1.62
   8   4   6   83.72    4.46
  -8  -4  -6   87.62    4.61
   8   5   6   18.22    2.61
   8   5   6   17.45    2.58
  -8  -5  -6   17.01    2.54
   8   6   6   14.71    2.42
   8   6   6   15.89    2.56
  -8  -6  -6   13.50    2.36
   8   7   6   35.55    3.18
   8   7   6   35.96    3.33
  -8  -7  -6   42.17    3.62
   8   8   6   40.99    3.45
   8   8   6   37.54    3.51
  -8  -8  -6   36.39    3.62
   8   9   6    0.44    0.99
   8   9   6    1.69    1.28
  -8  -9  -6    1.13    1.39
   8  10   6    8.36    2.00
   8  10   6   10.02    2.28
   8  11   6   19.09    2.67
   8  11   6   20.56    3.28
   8  12   6    0.48    1.04
   8  12   6    0.85    1.26
   8  13   6   -0.64    1.11
   8  14   6    2.61    1.63
  -8  11  -7    9.12    1.49
  -8  10  -7    3.95    1.20
  -8   9  -7    8.38    1.65
  -8   8  -7    7.15    1.50
  -8   7  -7    0.92    0.92
  -8   6  -7   13.17    2.02
  -8   5  -7   19.72    2.25
  -8   4  -7   19.85    1.70
  -8   4  -7   18.21    2.22
  -8   3  -7   24.62    2.12
  -8   3  -7   24.31    2.49
   8  -2   7   48.32    3.49
  -8   2  -7   48.35    2.95
  -8   2  -7   41.97    3.15
   8  -1   7   65.43    3.87
  -8   1  -7   64.37    3.55
  -8   1  -7   59.57    3.72
   8   0   7   18.54    2.30
  -8   0  -7   15.39    2.20
  -8   0  -7   17.69    2.48
   8   1   7  100.21    4.80
  -8  -1  -7   95.69    4.56
  -8  -1  -7  105.16    4.89
   8   2   7    7.21    1.64
  -8  -2  -7    9.73    1.95
  -8  -2  -7    9.33    1.89
  -8  -2  -7    7.77    1.80
   8   3   7   21.19    2.54
  -8  -3  -7   23.28    2.59
  -8  -3  -7   22.99    2.57
   8   4   7   36.78    3.12
  -8  -4  -7   42.61    3.41
   8   5   7   17.08    2.68
  -8  -5  -7   16.60    2.61
   8   6   7   40.86    3.40
   8   6   7   42.76    3.54
  -8  -6  -7   43.53    3.64
   8   7   7    1.59    1.29
   8   7   7    1.19    1.20
  -8  -7  -7    1.61    1.34
   8   8   7    6.35    1.80
   8   8   7    4.93    1.71
  -8  -8  -7    5.72    1.88
   8   9   7    0.53    1.01
   8   9   7   -0.40    1.05
  -8  -9  -7    0.41    1.28
   8  10   7    7.79    2.01
   8  10   7    5.67    1.97
   8  11   7   38.59    3.44
   8  11   7   37.16    3.85
   8  12   7    6.49    1.76
   8  12   7    4.17    1.84
   8  13   7   -0.94    1.01
   8  14   7    2.52    1.63
  -8  10  -8   -0.16    0.69
  -8   9  -8    6.50    1.55
  -8   8  -8    4.61    1.38
  -8   7  -8    4.40    1.40
  -8   6  -8    8.76    1.79
  -8   5  -8   19.07    2.31
  -8   4  -8   73.56    4.13
  -8   3  -8    0.80    0.79
  -8   3  -8    0.80    1.01
  -8   2  -8    0.15    0.77
  -8   2  -8   -0.21    0.83
   8  -1   8   50.49    3.59
  -8   1  -8   49.41    3.22
  -8   1  -8   44.21    3.37
   8   0   8   36.24    3.14
  -8   0  -8   31.39    2.74
  -8   0  -8   37.20    3.18
   8   1   8  186.93    6.66
  -8  -1  -8  206.84    6.67
  -8  -1  -8  195.24    6.82
   8   2   8    7.76    1.91
  -8  -2  -8    6.57    1.75
  -8  -2  -8    7.35    1.82
   8   3   8   41.59    3.35
  -8  -3  -8   40.00    3.38
  -8  -3  -8   43.20    3.48
   8   4   8    1.67    1.25
  -8  -4  -8    1.75    1.31
   8   5   8    0.21    1.14
  -8  -5  -8   -0.84    0.81
   8   6   8   33.15    3.22
  -8  -6  -8   35.17    3.46
   8   7   8    4.53    1.68
  -8  -7  -8    3.93    1.69
   8   8   8    7.13    1.99
   8   8   8    7.07    2.03
  -8  -8  -8    9.59    2.33
   8   9   8   -0.82    0.89
   8   9   8   -0.06    1.01
  -8  -9  -8   -0.67    1.12
   8  10   8    2.63    1.44
   8  10   8    4.24    1.87
  -8 -10  -8    4.84    1.97
   8  11   8    0.00    1.05
   8  11   8   -0.18    1.16
   8  12   8    6.20    1.92
   8  12   8    5.00    1.96
   8  13   8    1.37    1.28
   8  13   8    0.66    1.37
   8  14   8    9.76    2.67
  -8   9  -9    9.36    1.81
  -8   8  -9    7.76    1.73
  -8   7  -9    0.81    0.92
  -8   6  -9    0.74    0.94
  -8   5  -9   26.62    2.75
  -8   4  -9    2.94    1.27
  -8   3  -9   28.66    2.26
  -8   3  -9   26.76    2.84
  -8   2  -9    0.37    0.85
  -8   2  -9   -0.11    0.87
  -8   1  -9   19.89    2.35
  -8   1  -9   20.72    2.58
   8   0   9   56.70    3.96
  -8   0  -9   54.10    3.59
  -8   0  -9   52.11    3.82
   8   1   9   43.70    3.56
  -8  -1  -9   42.06    3.33
  -8  -1  -9   39.49    3.41
   8   2   9   35.71    3.32
  -8  -2  -9   33.77    3.09
   8   3   9    2.32    1.46
  -8  -3  -9    0.35    1.02
  -8  -3  -9   -0.56    0.71
   8   4   9   46.08    3.77
  -8  -4  -9   45.97    3.70
   8   5   9    0.10    0.92
  -8  -5  -9    1.02    1.18
   8   6   9    1.78    1.36
  -8  -6  -9    1.11    1.31
   8   7   9    2.02    1.37
  -8  -7  -9    2.52    1.63
   8   8   9    0.50    1.03
  -8  -8  -9   -0.50    1.08
   8   9   9    4.37    1.74
   8   9   9    5.37    1.92
  -8  -9  -9    5.74    2.09
   8  10   9    0.94    1.36
   8  10   9    1.26    1.41
  -8 -10  -9    1.26    1.64
   8  11   9    8.92    2.19
   8  11   9    9.07    2.54
   8  12   9    0.75    1.32
   8  12   9    0.97    1.42
   8  13   9    4.40    1.75
   8  13   9    4.75    2.14
   8  14   9    1.04    1.63
  -8   8 -10    6.67    1.71
  -8   7 -10    2.28    1.23
  -8   6 -10    1.89    1.25
  -8   5 -10    0.25    0.91
  -8   4 -10    4.91    1.64
  -8   3 -10   14.49    2.51
  -8   2 -10    2.70    1.18
  -8   2 -10    3.88    1.59
  -8   1 -10    6.58    1.66
  -8   1 -10    7.63    1.95
   8   0  10    7.60    2.09
  -8   0 -10    7.19    1.81
  -8   0 -10    5.60    1.66
   8   1  10  123.62    5.93
  -8  -1 -10  120.90    5.50
  -8  -1 -10  111.84    5.64
   8   2  10    8.03    2.14
  -8  -2 -10    7.69    1.95
  -8  -2 -10    6.45    1.72
   8   3  10   21.84    3.18
  -8  -3 -10   19.26    2.87
   8   4  10    8.95    2.26
  -8  -4 -10    8.15    2.12
   8   5  10    4.91    1.82
  -8  -5 -10    2.84    1.48
   8   6  10   45.76    3.96
  -8  -6 -10   48.80    4.13
   8   7  10    2.32    1.54
  -8  -7 -10    0.87    1.30
   8   8  10   14.69    2.78
  -8  -8 -10   16.49    2.95
   8   9  10    1.87    1.43
  -8  -9 -10    2.76    1.65
   8  10  10   -0.54    1.11
  -8 -10 -10    2.45    1.78
   8  11  10   -0.85    1.18
  -8 -11 -10    2.41    1.74
   8  12  10   -0.06    1.23
   8  12  10   -0.40    1.20
   8  13  10    6.22    2.02
   8  13  10    6.44    2.33
   8  14  10    1.25    1.64
  -8   7 -11    5.03    1.64
  -8   6 -11   -0.99    0.81
  -8   5 -11    9.05    2.06
  -8   4 -11    0.65    1.10
  -8   3 -11   10.66    2.23
  -8   2 -11  133.48    5.07
  -8   2 -11  124.63    6.08
  -8   1 -11  114.52    5.07
  -8   1 -11  111.41    5.81
  -8   0 -11    0.39    1.02
  -8   0 -11   -0.58    0.88
   8   1  11   31.82    3.53
  -8  -1 -11   31.84    3.13
  -8  -1 -11   28.85    3.31
   8   2  11    3.74    1.84
  -8  -2 -11    4.39    1.70
  -8  -2 -11    5.86    2.05
   8   3  11   23.05    3.42
  -8  -3 -11   22.94    3.22
   8   4  11    1.96    1.48
  -8  -4 -11    1.67    1.37
   8   5  11   17.39    3.15
  -8  -5 -11    9.80    2.36
   8   6  11    4.17    1.83
  -8  -6 -11    1.30    1.42
   8   7  11   18.89    3.27
  -8  -7 -11   21.79    3.36
   8   8  11   -0.51    1.17
  -8  -8 -11    1.33    1.64
   8   9  11   12.35    2.69
  -8  -9 -11   10.91    2.63
   8  10  11    4.81    1.94
  -8 -10 -11    2.93    1.80
   8  11  11    9.46    2.50
  -8 -11 -11    6.96    2.43
   8  12  11   16.18    3.03
   8  13  11   -0.11    1.26
  -8   6 -12   13.28    2.56
  -8   5 -12   11.49    2.48
  -8   4 -12    8.03    2.14
  -8   3 -12   13.47    2.63
  -8   2 -12   15.96    2.33
  -8   2 -12   16.61    2.94
  -8   1 -12   35.69    3.13
  -8   1 -12   35.71    3.72
  -8   0 -12    2.13    1.26
  -8   0 -12    2.38    1.51
   8   1  12    0.57    1.42
  -8  -1 -12    0.37    1.06
  -8  -1 -12    1.23    1.29
   8   2  12    1.09    1.41
  -8  -2 -12    1.32    1.38
  -8  -2 -12    2.14    1.51
   8   3  12    4.77    1.96
  -8  -3 -12    0.93    1.39
   8   4  12    0.19    1.23
  -8  -4 -12    0.41    1.30
   8   5  12    1.36    1.40
  -8  -5 -12    1.77    1.49
   8   6  12    6.47    2.31
  -8  -6 -12    7.40    2.20
   8   7  12   23.48    3.63
  -8  -7 -12   27.02    4.02
   8   8  12    6.24    2.19
  -8  -8 -12    8.04    2.47
   8   9  12    0.31    1.21
  -8  -9 -12   -0.20    1.40
   8  10  12    6.74    2.23
  -8 -10 -12    8.40    2.67
   8  11  12    6.23    2.16
  -8 -11 -12    3.85    2.19
   8  12  12    0.62    1.47
  -8 -12 -12   -0.28    1.61
   8  13  12    8.15    2.46
  -8   4 -13    7.24    2.16
  -8   3 -13    0.18    1.26
  -8   2 -13   12.17    2.77
  -8   1 -13    3.51    1.52
  -8   1 -13    4.55    1.88
  -8   0 -13    6.67    1.92
  -8   0 -13    4.48    1.91
  -8  -1 -13    0.62    1.21
  -8  -1 -13   -0.57    1.15
   8   2  13   -1.39    1.10
  -8  -2 -13   -1.42    1.05
  -8  -2 -13    0.98    1.40
   8   3  13    3.76    1.97
  -8  -3 -13    4.63    1.87
   8   4  13    0.16    1.34
  -8  -4 -13    0.18    1.26
   8   5  13   -0.05    1.25
  -8  -5 -13    0.92    1.46
   8   6  13   -1.20    1.07
  -8  -6 -13   -0.42    1.33
   8   7  13    1.83    1.56
  -8  -7 -13    0.37    1.49
   8   8  13    2.35    1.69
  -8  -8 -13    1.65    1.69
   8   9  13   13.39    2.95
  -8  -9 -13   10.10    2.76
   8  10  13    6.99    2.37
  -8 -10 -13    8.43    2.75
   8  11  13   -0.03    1.35
  -8 -11 -13   -0.14    1.64
   8  12  13   11.72    2.87
  -8 -12 -13   13.56    3.35
  -8   3 -14    0.46    1.25
  -8   2 -14   -0.18    1.37
  -8   1 -14    2.04    1.77
  -8   0 -14    2.94    1.54
  -8   0 -14    1.75    1.77
  -8  -1 -14    0.91    1.39
  -8  -1 -14   -0.21    1.47
  -8  -2 -14    0.92    1.48
   8   3  14    6.21    2.46
  -8  -3 -14    4.74    2.02
   8   4  14    2.79    1.79
  -8  -4 -14    3.49    1.95
   8   5  14    1.81    1.68
  -8  -5 -14    3.02    1.88
   8   6  14   13.33    3.06
  -8  -6 -14   12.51    3.02
   8   7  14    0.62    1.47
  -8  -7 -14   -0.98    1.29
   8   8  14    1.18    1.59
  -8  -8 -14    0.67    1.59
   8   9  14   22.96    3.82
  -8  -9 -14   34.56    4.93
   8  10  14    7.96    2.48
  -8 -10 -14   10.50    3.06
   8  11  14    2.00    1.87
  -8 -11 -14    2.11    1.84
   8  12  14    0.89    1.53
  -8 -12 -14   -0.03    1.78
  -8   1 -15   12.81    3.17
  -8   0 -15    7.32    2.10
  -8   0 -15   12.94    3.05
  -8  -1 -15    4.02    1.82
  -8  -1 -15    3.24    2.12
  -8  -2 -15    4.28    1.96
   8   3  15    5.68    2.36
  -8  -3 -15    6.31    2.20
   8   4  15    3.61    2.04
  -8  -4 -15    4.92    2.18
   8   5  15    6.21    2.32
  -8  -5 -15    3.40    2.04
   8   6  15   10.75    2.92
  -8  -6 -15   10.63    2.87
   8   7  15   18.77    3.71
  -8  -7 -15   10.90    2.90
   8   8  15   18.95    3.62
  -8  -8 -15   23.29    4.11
   8   9  15    9.01    2.72
  -8  -9 -15   12.02    3.18
   8  10  15   26.71    4.28
  -8 -10 -15   30.25    4.66
  -8  -2 -16   -0.52    1.40
  -8  -3 -16    0.64    1.53
   8   4  16    0.58    1.66
  -8  -4 -16    0.15    1.47
   8   5  16   63.27    5.75
  -8  -5 -16   58.22    5.34
   8   6  16    6.18    2.65
  -8  -6 -16    6.65    2.55
   8   7  16    0.95    1.79
  -8  -7 -16   -0.89    1.47
   8   8  16   20.55    4.03
  -8  -8 -16   23.77    4.27
   9  -9  -9    0.20    1.66
  -9   9   9    0.10    1.68
   9  -8  -9    0.97    1.70
  -9   8   9    0.53    1.61
   9  -7  -9    3.16    1.97
  -9   7   9    3.20    2.13
   9  -6  -9   10.38    3.05
  -9   6   9   12.44    3.09
   9  -5  -9   19.40    3.88
  -9   5   9   20.33    3.97
   9  -4  -9    9.46    2.84
  -9   4   9    8.57    2.79
   9  -3  -9    4.89    2.17
  -9   3   9    3.38    2.28
   9  -2  -9    7.58    2.59
  -9   2   9    4.48    2.33
   9  -1  -9    2.78    1.96
  -9   1   9    2.37    2.11
   9   0  -9    2.11    1.87
  -9   0   9    1.85    2.11
  -9  10   8    3.75    1.95
   9  -9  -8   -1.39    1.36
  -9   9   8    0.53    1.54
   9  -8  -8    2.97    2.01
  -9   8   8    0.28    1.52
   9  -7  -8   39.41    4.52
  -9   7   8   34.07    4.12
   9  -6  -8   16.42    3.39
  -9   6   8   20.36    3.56
   9  -5  -8    0.14    1.45
  -9   5   8   -0.32    1.48
   9  -4  -8    0.72    1.42
  -9   4   8    1.58    1.69
   9  -3  -8   16.52    3.29
  -9   3   8   19.00    3.51
   9  -2  -8    0.75    1.48
  -9   2   8    2.01    1.87
   9  -1  -8    3.49    1.91
  -9   1   8    7.58    2.69
   9   0  -8   25.28    3.94
  -9   0   8   32.83    4.87
   9   1  -8    0.94    1.53
  -9  -1   8    2.16    2.16
   9   2  -8    1.83    1.69
  -9  11   7   46.08    4.09
  -9  11   7   47.78    4.90
  -9  10   7    0.34    1.38
  -9   9   7    1.00    1.52
   9  -8  -7   18.65    3.53
  -9   8   7   16.76    3.12
   9  -7  -7   11.37    2.97
  -9   7   7    9.80    2.65
   9  -6  -7    2.71    1.80
  -9   6   7   -0.34    1.41
   9  -5  -7   -0.84    1.12
  -9   5   7    2.39    1.67
   9  -4  -7    2.00    1.71
  -9   4   7    2.03    1.68
   9  -3  -7    0.66    1.42
  -9   3   7   -0.08    1.36
   9  -2  -7    5.01    2.08
  -9   2   7    2.67    1.96
   9  -1  -7   10.00    2.66
  -9   1   7    6.46    2.30
   9   0  -7   29.10    4.06
  -9   0   7   26.65    4.32
   9   1  -7   14.92    3.06
  -9  -1   7   16.95    3.56
   9   2  -7    1.14    1.60
  -9  -2   7    0.83    1.67
   9   3  -7   27.13    3.86
   9   4  -7   10.22    2.53
  -9  12   6   12.18    2.86
  -9  11   6   29.99    3.24
  -9  11   6   29.85    4.32
  -9  10   6   47.11    4.02
  -9  10   6   40.57    4.37
  -9   9   6    2.45    1.60
  -9   9   6    3.30    1.83
   9  -8  -6    0.28    1.29
  -9   8   6   -0.23    1.19
   9  -7  -6    6.74    2.30
  -9   7   6   10.09    2.51
   9  -6  -6    7.37    2.24
  -9   6   6    8.31    2.22
   9  -5  -6   32.84    3.81
  -9   5   6   33.33    3.76
   9  -4  -6    3.27    1.76
  -9   4   6    3.92    1.86
   9  -3  -6   18.52    3.39
  -9   3   6   24.17    3.78
   9  -2  -6   12.61    2.69
  -9   2   6   11.65    2.83
   9  -1  -6   -0.08    1.20
  -9   1   6    0.38    1.58
   9   0  -6   31.45    3.71
  -9   0   6   31.91    4.38
   9   1  -6    4.58    1.96
  -9  -1   6    4.29    2.17
   9   2  -6    0.78    1.40
  -9  -2   6    0.32    1.53
   9   3  -6   -0.24    1.23
   9   4  -6    2.11    1.62
   9   4  -6    0.77    1.69
   9   5  -6   -0.96    1.14
   9   5  -6   -0.30    1.33
  -9  13   5    9.19    2.47
  -9  12   5   99.51    6.24
  -9  11   5    0.79    1.46
  -9  10   5    3.37    1.49
  -9  10   5    3.34    1.74
  -9   9   5   19.58    2.96
  -9   9   5   19.28    3.21
   9  -8  -5   15.56    3.51
  -9   8   5   16.22    2.79
  -9   8   5   15.74    3.11
   9  -7  -5   10.88    2.61
  -9   7   5   10.33    2.35
  -9   7   5   14.01    2.90
   9  -6  -5   27.64    4.01
  -9   6   5   30.57    3.41
   9  -5  -5    6.54    1.97
  -9   5   5    6.19    2.04
   9  -4  -5   -0.64    1.07
  -9   4   5   -0.07    1.10
   9  -3  -5   14.14    2.84
  -9   3   5   11.65    2.57
   9  -2  -5   16.82    2.93
  -9   2   5   19.77    3.32
   9  -1  -5    0.33    1.31
  -9   1   5    1.76    1.50
   9   0  -5    0.33    1.30
  -9   0   5    0.27    1.35
   9   1  -5    1.52    1.43
  -9  -1   5    2.78    1.78
   9   2  -5   13.71    2.78
  -9  -2   5   10.96    2.75
   9   3  -5    0.84    1.37
  -9  -3   5    0.18    1.38
   9   4  -5   23.04    3.41
   9   4  -5   18.28    3.33
   9   5  -5    4.35    1.73
   9   5  -5    3.77    1.83
   9   6  -5    2.44    1.51
   9   6  -5    0.95    1.53
   9   7  -5    5.22    2.33
  -9  13   4    1.83    1.53
  -9  12   4    0.32    1.16
  -9  11   4   12.31    2.67
  -9  10   4    7.29    1.81
  -9  10   4    7.02    2.10
  -9   9   4   26.49    2.92
  -9   9   4   28.99    3.48
  -9   8   4    5.29    1.68
  -9   8   4    7.49    2.09
   9  -7  -4    3.96    1.71
  -9   7   4    2.28    1.37
  -9   7   4    3.02    1.55
   9  -6  -4    3.40    1.60
  -9   6   4    2.88    1.52
  -9   6   4    4.07    1.73
   9  -5  -4   10.21    2.35
  -9   5   4   11.07    2.39
   9  -4  -4   15.22    2.77
  -9   4   4   17.01    2.94
   9  -3  -4   -0.74    0.98
  -9   3   4    0.20    1.12
   9  -2  -4   18.56    3.05
  -9   2   4   19.01    3.19
   9  -1  -4   11.20    2.45
  -9   1   4   11.16    2.56
   9   0  -4    8.81    2.21
  -9   0   4    8.05    2.35
   9   1  -4   36.34    3.65
  -9  -1   4   31.29    3.71
   9   2  -4    4.07    1.71
  -9  -2   4    4.56    1.91
   9   3  -4   22.44    3.28
   9   3  -4   24.02    3.65
  -9  -3   4   25.65    3.92
   9   4  -4    2.98    1.56
   9   4  -4    1.05    1.50
   9   5  -4    1.24    1.29
   9   5  -4   -1.33    1.14
   9   6  -4    0.07    1.19
   9   6  -4    0.43    1.34
   9   7  -4    4.95    2.19
   9   8  -4    7.73    2.50
  -9  13   3   75.82    5.11
  -9  12   3   10.36    2.43
  -9  11   3    0.58    1.14
  -9  10   3    4.34    1.76
  -9   9   3   13.76    2.25
  -9   9   3    7.89    2.08
  -9   8   3   20.51    2.78
  -9   8   3   22.29    3.18
   9  -7  -3    1.53    1.33
  -9   7   3    1.06    1.16
  -9   7   3    1.35    1.32
   9  -6  -3    5.82    1.95
  -9   6   3    7.08    1.85
  -9   6   3    7.28    2.02
   9  -5  -3    9.29    2.32
  -9   5   3    7.43    1.99
  -9   5   3    7.26    2.06
   9  -4  -3   42.46    3.80
  -9   4   3   40.54    3.60
  -9   4   3   46.93    4.39
   9  -3  -3    9.45    2.18
  -9   3   3   10.14    2.27
   9  -2  -3    0.33    1.12
  -9   2   3    1.33    1.25
   9  -1  -3    1.03    1.17
  -9   1   3    0.82    1.22
   9   0  -3   11.13    2.42
  -9   0   3   12.49    2.62
   9   1  -3   12.83    2.51
  -9  -1   3   16.08    2.97
   9   2  -3   71.26    4.67
  -9  -2   3   71.26    4.92
   9   3  -3    1.38    1.29
   9   3  -3    1.00    1.38
  -9  -3   3    2.41    1.68
   9   4  -3    8.07    2.11
   9   4  -3    7.37    2.24
  -9  -4   3    7.57    2.31
   9   5  -3    6.37    1.94
   9   5  -3    2.89    1.73
   9   6  -3   66.04    4.39
   9   6  -3   62.48    4.97
   9   7  -3    5.70    1.68
   9   7  -3    5.96    2.18
   9   8  -3   60.39    5.05
   9   9  -3   41.47    4.43
  -9  13   2   25.67    3.11
  -9  12   2    6.54    1.92
  -9  11   2    0.98    1.18
  -9  10   2    0.58    1.13
  -9   9   2    6.20    1.51
  -9   9   2    6.09    1.82
  -9   8   2    5.71    1.56
  -9   8   2    4.27    1.63
  -9   8   2    3.80    1.42
  -9   7   2   11.95    2.09
  -9   7   2   14.88    2.67
  -9   7   2   12.84    2.25
   9  -6  -2   56.72    4.15
  -9   6   2   58.41    3.83
  -9   6   2   56.68    4.14
   9  -5  -2    5.11    1.77
  -9   5   2    5.05    1.64
  -9   5   2    4.50    1.59
   9  -4  -2   33.75    3.29
  -9   4   2   29.25    2.99
  -9   4   2   34.14    3.35
   9  -3  -2   12.79    2.42
  -9   3   2   12.63    2.36
  -9   3   2   11.08    2.33
   9  -2  -2    6.44    1.88
  -9   2   2    7.66    1.87
   9  -1  -2   10.77    2.22
  -9   1   2    8.88    2.03
   9   0  -2    1.19    1.22
  -9   0   2    1.41    1.24
   9   1  -2   25.23    2.93
  -9  -1   2   23.17    3.21
   9   2  -2    4.05    1.55
  -9  -2   2    7.07    2.08
   9   3  -2   22.95    3.16
   9   3  -2   24.44    3.44
  -9  -3   2   24.26    3.46
   9   4  -2   23.29    2.87
   9   4  -2   25.18    3.46
  -9  -4   2   16.14    2.85
   9   5  -2    1.47    1.23
   9   5  -2   -0.96    0.89
  -9  -5   2   -0.27    1.12
   9   6  -2   47.52    3.73
   9   6  -2   45.81    4.19
   9   7  -2   11.90    2.27
   9   7  -2   15.71    3.00
   9   8  -2   20.01    3.29
   9   9  -2    8.44    2.43
   9  10  -2   56.93    4.93
  -9  13   1    6.13    1.85
  -9  12   1   -0.19    0.91
  -9  11   1   24.38    2.87
  -9  10   1    7.77    1.93
  -9   9   1    3.75    1.53
  -9   8   1    6.16    1.47
  -9   8   1    7.34    1.86
  -9   8   1    8.27    1.82
  -9   7   1   18.27    2.20
  -9   7   1   17.23    2.62
  -9   7   1   18.49    2.68
   9  -6  -1    3.31    1.47
  -9   6   1    3.83    1.39
  -9   6   1    3.98    1.47
  -9   6   1    3.23    1.29
   9  -5  -1    4.60    1.66
  -9   5   1    2.76    1.25
  -9   5   1    5.06    1.65
  -9   5   1    3.52    1.36
   9  -4  -1   10.90    2.27
  -9   4   1   11.19    2.15
  -9   4   1   10.52    2.19
   9  -3  -1   77.39    4.58
  -9   3   1   68.07    4.16
  -9   3   1   68.36    4.34
   9  -2  -1   23.43    2.80
  -9   2   1   23.63    2.72
  -9   2   1   25.39    2.85
   9  -1  -1    4.36    1.64
  -9   1   1    5.27    1.62
   9   0  -1    0.55    1.02
  -9   0   1    0.27    0.95
   9   1  -1    0.97    1.11
  -9  -1   1    0.09    1.05
   9   2  -1    1.62    1.22
   9   2  -1    1.78    1.37
  -9  -2   1    2.00    1.34
   9   3  -1   54.81    3.97
   9   3  -1   60.49    4.38
  -9  -3   1   61.87    4.40
   9   4  -1    7.11    1.91
   9   4  -1    8.38    2.10
  -9  -4   1    5.62    1.87
   9   5  -1   -0.42    0.98
   9   5  -1   -0.78    0.95
  -9  -5   1    0.42    1.18
   9   6  -1    1.20    1.22
   9   6  -1    1.27    1.33
   9   7  -1   12.39    2.26
   9   7  -1   10.76    2.43
   9   8  -1    1.77    1.24
   9   8  -1    1.46    1.45
   9   9  -1   39.30    4.12
   9  10  -1   21.73    3.51
  -9  13   0   13.09    2.25
  -9  12   0    4.18    1.52
  -9  11   0   14.24    2.39
  -9  10   0    8.05    1.85
  -9   9   0   38.95    3.32
  -9   8   0    1.17    0.84
  -9   8   0    0.23    0.94
  -9   8   0    0.97    0.87
  -9   7   0    0.21    0.77
  -9   7   0    0.54    0.87
  -9   7   0   -0.20    0.74
  -9   6   0    7.95    1.64
  -9   6   0    7.39    1.83
  -9   6   0   10.39    1.94
   9  -5   0   29.85    3.00
  -9   5   0   27.82    2.61
  -9   5   0   27.86    2.86
  -9   5   0   27.04    2.72
   9  -4   0   -0.36    0.90
  -9   4   0    0.44    0.95
  -9   4   0    0.04    0.91
  -9   4   0    0.09    0.80
   9  -3   0  158.13    6.19
  -9   3   0  147.60    5.76
  -9   3   0  150.37    6.04
  -9   3   0  162.61    6.40
   9  -2   0   27.32    2.86
  -9   2   0   28.37    2.84
  -9   2   0   28.89    2.89
   9  -1   0   12.36    2.29
  -9   1   0   10.06    2.09
  -9   1   0   11.03    2.13
   9   0   0    1.48    1.15
  -9   0   0    2.90    1.37
   9   1   0   23.00    2.68
  -9  -1   0   24.54    2.81
   9   2   0   21.62    2.66
  -9  -2   0   20.83    2.87
   9   3   0    5.30    1.68
   9   3   0    4.79    1.75
  -9  -3   0    7.33    1.98
   9   4   0    0.17    1.01
   9   4   0   -0.62    0.95
  -9  -4   0   -1.09    0.99
   9   5   0   31.45    3.07
   9   5   0   26.97    3.19
  -9  -5   0   34.92    3.58
   9   6   0   16.67    2.65
   9   6   0   15.15    2.68
  -9  -6   0   16.62    2.90
   9   7   0   43.53    3.53
   9   7   0   49.89    4.21
   9   8   0    1.20    1.15
   9   8   0    0.17    1.21
   9   9   0   58.62    4.69
   9  10   0    0.38    1.26
   9  11   0   35.28    3.94
  -9  13  -1    0.21    0.92
  -9  12  -1    6.43    1.65
  -9  11  -1    3.06    1.31
  -9  10  -1    0.30    0.90
  -9   9  -1    0.87    0.97
  -9   8  -1    7.03    1.72
  -9   8  -1    5.86    1.35
  -9   7  -1    5.79    1.26
  -9   7  -1    5.14    1.52
  -9   7  -1    5.87    1.42
  -9   6  -1    1.74    0.95
  -9   6  -1    1.63    1.16
  -9   6  -1    1.71    0.99
   9  -5   1    3.51    1.42
  -9   5  -1    2.42    1.08
  -9   5  -1    2.09    1.20
  -9   5  -1    2.26    1.08
   9  -4   1    4.23    1.46
  -9   4  -1    4.11    1.36
  -9   4  -1    4.77    1.47
  -9   4  -1    4.55    1.39
   9  -3   1   81.87    4.44
  -9   3  -1   77.13    4.12
  -9   3  -1   75.79    4.29
  -9   3  -1   81.58    4.38
   9  -2   1   52.72    3.65
  -9   2  -1   49.98    3.44
  -9   2  -1   50.85    3.59
  -9   2  -1   55.24    3.73
   9  -1   1   11.96    2.17
  -9   1  -1   10.23    1.98
  -9   1  -1   11.19    2.06
   9   0   1    6.76    1.81
  -9   0  -1    5.29    1.60
  -9   0  -1    4.98    1.68
   9   1   1    8.65    1.85
  -9  -1  -1    8.97    2.00
   9   2   1  181.40    6.61
  -9  -2  -1  188.84    6.86
   9   3   1   17.38    2.55
   9   3   1   21.15    2.94
  -9  -3  -1   18.36    2.72
   9   4   1  218.48    7.28
   9   4   1  211.11    7.50
  -9  -4  -1  217.07    7.62
   9   5   1  126.58    5.66
   9   5   1  148.10    6.46
  -9  -5  -1  142.67    6.36
   9   6   1    5.58    1.72
   9   6   1    3.01    1.53
  -9  -6  -1    3.70    1.62
   9   7   1    0.00    0.94
   9   7   1    0.59    1.26
   9   8   1    7.01    1.83
   9   8   1    7.84    2.15
   9   9   1   -0.21    0.94
   9   9   1   -0.55    1.01
   9  10   1    1.42    1.47
   9  11   1    5.93    2.09
   9  12   1   -0.03    1.15
  -9  13  -2    9.97    1.87
  -9  12  -2    2.94    1.26
  -9  11  -2    0.25    0.87
  -9  10  -2    0.58    0.93
  -9   9  -2    5.42    1.55
  -9   8  -2   12.67    2.12
  -9   7  -2   20.24    2.40
  -9   7  -2   24.89    2.24
  -9   6  -2   13.07    1.79
  -9   6  -2   10.91    2.04
  -9   6  -2   10.75    1.88
  -9   5  -2   10.00    1.70
  -9   5  -2   11.38    2.03
  -9   5  -2   11.31    1.93
   9  -4   2   40.59    3.19
  -9   4  -2   39.46    2.84
  -9   4  -2   41.39    3.19
  -9   4  -2   45.31    3.20
   9  -3   2   24.16    2.58
  -9   3  -2   21.70    2.36
  -9   3  -2   24.31    2.59
  -9   3  -2   24.40    2.50
   9  -2   2    5.64    1.60
  -9   2  -2    4.99    1.47
  -9   2  -2    5.09    1.46
  -9   2  -2    6.42    1.74
   9  -1   2    3.53    1.36
  -9   1  -2    2.43    1.16
  -9   1  -2    3.07    1.25
  -9   1  -2    4.13    1.40
   9   0   2    5.60    1.59
  -9   0  -2    5.54    1.54
  -9   0  -2    5.06    1.58
   9   1   2   33.77    3.03
  -9  -1  -2   31.95    2.98
   9   2   2    2.16    1.20
  -9  -2  -2    1.39    1.22
   9   3   2   62.32    4.00
   9   3   2   66.02    4.21
  -9  -3  -2   64.71    4.18
   9   4   2   20.97    2.55
   9   4   2   22.80    3.11
  -9  -4  -2   20.47    2.86
   9   5   2   55.50    3.84
   9   5   2   51.42    3.96
  -9  -5  -2   47.76    3.86
   9   6   2    0.36    0.98
   9   6   2    1.50    1.29
  -9  -6  -2    0.44    1.25
   9   7   2    2.48    1.35
   9   7   2    2.15    1.40
  -9  -7  -2    1.94    1.47
   9   8   2    8.00    1.96
   9   8   2    6.97    2.04
   9   9   2    0.71    1.04
   9   9   2   -0.10    1.04
   9  10   2    5.90    1.93
   9  11   2    1.35    1.38
   9  12   2    0.75    1.42
  -9  12  -3    2.40    1.12
  -9  11  -3   29.48    2.64
  -9  10  -3   26.80    2.57
  -9   9  -3    4.52    1.35
  -9   8  -3    0.78    0.86
  -9   7  -3   49.90    3.39
  -9   7  -3   50.73    2.86
  -9   6  -3    2.95    0.94
  -9   6  -3    1.99    1.05
  -9   6  -3    2.58    1.07
  -9   5  -3    2.72    1.02
  -9   5  -3    2.31    1.09
  -9   5  -3    2.40    1.08
   9  -4   3   14.80    2.34
  -9   4  -3   14.14    1.99
  -9   4  -3   13.81    2.21
  -9   4  -3   12.83    1.92
   9  -3   3    4.32    1.51
  -9   3  -3    4.10    1.34
  -9   3  -3    4.70    1.43
  -9   3  -3    3.54    1.30
   9  -2   3   82.37    4.34
  -9   2  -3   75.57    3.94
  -9   2  -3   73.03    4.12
  -9   2  -3   87.20    4.39
   9  -1   3   25.22    2.62
  -9   1  -3   25.25    2.53
  -9   1  -3   23.13    2.58
  -9   1  -3   26.73    2.65
   9   0   3   14.89    2.34
  -9   0  -3   12.28    2.12
  -9   0  -3   13.79    2.25
  -9   0  -3   12.67    2.09
   9   1   3   32.25    2.97
  -9  -1  -3   33.26    2.99
   9   2   3  104.87    5.02
  -9  -2  -3   96.58    4.80
   9   3   3    1.20    1.12
   9   3   3    1.44    1.22
  -9  -3  -3    3.07    1.39
   9   4   3   -0.42    0.79
   9   4   3    0.71    1.04
  -9  -4  -3    1.46    1.26
   9   5   3   43.18    3.43
   9   5   3   48.86    3.81
  -9  -5  -3   46.50    3.79
   9   6   3   55.26    3.84
   9   6   3   59.54    4.24
  -9  -6  -3   56.19    4.20
   9   7   3    1.09    1.13
   9   7   3    0.85    1.18
  -9  -7  -3    1.50    1.37
   9   8   3   52.27    3.78
   9   8   3   54.80    4.27
   9   9   3    3.36    1.46
   9   9   3    1.40    1.34
   9  10   3    1.69    1.24
   9  10   3    1.19    1.33
   9  11   3    1.06    1.35
   9  12   3    1.94    1.55
  -9  12  -4    0.28    0.77
  -9  11  -4   47.10    3.14
  -9  10  -4    1.90    1.10
  -9   9  -4    8.49    1.68
  -9   8  -4   -0.33    0.78
  -9   7  -4    0.12    0.75
  -9   6  -4   40.47    3.08
  -9   6  -4   42.33    2.71
  -9   5  -4   80.23    3.38
  -9   5  -4   71.09    3.96
  -9   5  -4   80.79    3.84
  -9   4  -4    4.80    1.29
  -9   4  -4    4.05    1.29
  -9   4  -4    5.00    1.34
   9  -3   4    0.20    0.95
  -9   3  -4    0.31    0.81
  -9   3  -4    0.61    0.87
  -9   3  -4    1.39    0.95
   9  -2   4  145.55    5.66
  -9   2  -4  138.45    5.17
  -9   2  -4  145.98    5.66
  -9   2  -4  145.14    5.55
   9  -1   4  185.43    6.40
  -9   1  -4  181.84    6.05
  -9   1  -4  180.04    6.29
  -9   1  -4  187.82    6.41
   9   0   4  131.11    5.42
  -9   0  -4  123.91    5.17
  -9   0  -4  138.07    5.60
  -9   0  -4  130.89    5.48
   9   1   4   53.59    3.64
  -9  -1  -4   54.71    3.66
  -9  -1  -4   57.43    3.76
   9   2   4   87.72    4.62
  -9  -2  -4   88.13    4.63
   9   3   4  285.81    8.17
  -9  -3  -4  303.44    8.50
   9   4   4    6.65    1.80
   9   4   4    8.14    1.95
  -9  -4  -4    3.16    1.41
   9   5   4    0.87    1.07
   9   5   4    2.30    1.28
  -9  -5  -4    2.50    1.49
   9   6   4   45.06    3.57
   9   6   4   40.69    3.61
  -9  -6  -4   45.74    3.83
   9   7   4   31.42    3.14
   9   7   4   31.86    3.33
  -9  -7  -4   32.21    3.45
   9   8   4    0.47    1.04
   9   8   4   -0.24    1.03
  -9  -8  -4    0.33    1.25
   9   9   4    8.96    2.03
   9   9   4   11.58    2.59
   9  10   4    0.83    1.17
   9  10   4    1.21    1.44
   9  11   4   13.02    2.27
   9  11   4   10.48    2.51
   9  12   4    0.03    1.26
   9  13   4   12.62    2.79
  -9  11  -5    2.83    1.13
  -9  10  -5    3.86    1.29
  -9   9  -5   46.20    3.17
  -9   8  -5    0.27    0.82
  -9   7  -5    1.32    1.01
  -9   6  -5   22.49    2.45
  -9   5  -5    0.68    0.71
  -9   5  -5    0.53    0.91
  -9   5  -5    0.33    0.71
  -9   4  -5    0.79    0.82
  -9   4  -5    0.35    0.82
  -9   4  -5    0.20    0.79
  -9   3  -5   12.17    1.89
  -9   3  -5    8.37    1.72
  -9   3  -5   10.35    1.81
   9  -2   5  164.55    6.04
  -9   2  -5  165.22    5.57
  -9   2  -5  164.11    6.02
  -9   2  -5  173.17    6.02
   9  -1   5    6.99    1.74
  -9   1  -5    6.76    1.65
  -9   1  -5    6.37    1.58
  -9   1  -5    4.00    1.37
   9   0   5  155.43    5.97
  -9   0  -5  154.04    5.73
  -9   0  -5  158.34    6.00
  -9   0  -5  170.32    6.23
   9   1   5   99.58    4.88
  -9  -1  -5  106.22    4.91
  -9  -1  -5  111.18    5.15
   9   2   5   18.35    2.69
  -9  -2  -5   17.34    2.51
  -9  -2  -5   25.28    2.78
   9   3   5    1.33    1.15
  -9  -3  -5    0.62    1.13
   9   4   5    5.07    1.69
  -9  -4  -5    4.58    1.72
   9   5   5   16.43    2.65
   9   5   5   12.17    2.24
  -9  -5  -5   15.76    2.72
   9   6   5    0.40    1.02
   9   6   5    0.19    1.05
  -9  -6  -5    0.52    1.21
   9   7   5    0.67    1.13
   9   7   5    0.53    1.12
  -9  -7  -5    1.47    1.32
   9   8   5    0.13    1.02
   9   8   5    0.12    1.13
  -9  -8  -5    0.36    1.21
   9   9   5   15.45    2.58
   9   9   5   15.65    2.98
   9  10   5    8.94    2.04
   9  10   5   11.90    2.68
   9  11   5   11.02    2.14
   9  11   5   10.92    2.60
   9  12   5    6.95    2.30
   9  13   5    2.08    1.67
  -9  11  -6    7.22    1.52
  -9  10  -6    0.21    0.84
  -9   9  -6    5.27    1.45
  -9   8  -6   -0.39    0.76
  -9   7  -6   -0.42    0.73
  -9   6  -6    7.91    1.69
  -9   5  -6   55.65    3.60
  -9   4  -6   27.07    2.16
  -9   4  -6   25.24    2.63
  -9   3  -6  256.14    6.51
  -9   3  -6  261.18    7.58
  -9   3  -6  282.69    7.44
   9  -2   6   16.93    2.60
  -9   2  -6   15.70    2.26
  -9   2  -6   14.92    2.35
  -9   2  -6   17.71    2.18
   9  -1   6  106.77    5.01
  -9   1  -6   95.57    4.44
  -9   1  -6   99.94    4.87
  -9   1  -6   98.54    4.75
   9   0   6    1.74    1.17
  -9   0  -6    3.43    1.34
  -9   0  -6    3.97    1.42
  -9   0  -6    2.83    1.23
   9   1   6  247.76    7.64
  -9  -1  -6  258.00    7.56
  -9  -1  -6  256.82    7.77
   9   2   6   30.48    2.98
  -9  -2  -6   23.84    2.69
  -9  -2  -6   25.31    2.80
   9   3   6    3.83    1.54
  -9  -3  -6    4.46    1.59
   9   4   6  205.76    7.21
  -9  -4  -6  192.56    7.03
   9   5   6    2.87    1.37
  -9  -5  -6    2.72    1.37
   9   6   6    6.22    1.87
   9   6   6    5.87    1.91
  -9  -6  -6    5.92    1.84
   9   7   6   -0.03    1.02
   9   7   6    0.02    1.08
  -9  -7  -6    0.43    1.17
   9   8   6    0.58    1.19
   9   8   6    0.93    1.32
  -9  -8  -6    0.81    1.23
   9   9   6    6.49    1.86
   9   9   6    6.63    2.07
  -9  -9  -6    6.99    2.25
   9  10   6   23.23    2.88
   9  10   6   21.06    3.40
   9  11   6   17.25    2.75
   9  11   6   17.61    3.19
   9  12   6    5.72    1.70
   9  12   6    5.88    2.07
   9  13   6   10.77    2.64
  -9  10  -7    1.07    0.97
  -9   9  -7    2.59    1.21
  -9   8  -7    8.38    1.74
  -9   7  -7    4.46    1.39
  -9   6  -7   -0.40    0.63
  -9   5  -7   35.58    3.04
  -9   4  -7   20.37    1.91
  -9   4  -7   17.46    2.55
  -9   3  -7   17.15    1.99
  -9   3  -7   12.99    2.14
  -9   2  -7   11.11    1.95
  -9   2  -7   10.87    2.14
   9  -1   7   91.46    4.79
  -9   1  -7   94.62    4.50
  -9   1  -7   92.49    4.83
   9   0   7  150.56    6.10
  -9   0  -7  147.76    5.73
  -9   0  -7  157.48    6.23
  -9   0  -7  156.58    6.11
   9   1   7    5.12    1.58
  -9  -1  -7    5.35    1.61
  -9  -1  -7    5.41    1.62
   9   2   7   27.92    2.95
  -9  -2  -7   29.00    2.97
  -9  -2  -7   30.92    3.05
   9   3   7   22.91    2.77
  -9  -3  -7   23.47    2.80
   9   4   7   38.87    3.47
  -9  -4  -7   37.22    3.39
   9   5   7    6.62    1.90
  -9  -5  -7    6.07    1.95
   9   6   7    6.02    1.82
  -9  -6  -7    7.28    1.94
   9   7   7    2.02    1.45
  -9  -7  -7    2.24    1.47
   9   8   7    2.88    1.56
   9   8   7    1.79    1.36
  -9  -8  -7    3.38    1.64
   9   9   7   60.13    4.33
   9   9   7   65.63    4.88
  -9  -9  -7   58.21    4.67
   9  10   7   41.83    3.68
   9  10   7   40.50    4.09
   9  11   7   14.09    2.60
   9  11   7   15.88    3.00
   9  12   7    1.29    1.25
   9  12   7    1.70    1.53
   9  13   7    7.49    2.45
  -9   9  -8   32.11    2.84
  -9   8  -8    0.31    0.85
  -9   7  -8   -0.73    0.78
  -9   6  -8   43.83    3.42
  -9   5  -8   17.03    2.54
  -9   4  -8   -0.05    0.86
  -9   3  -8   56.14    3.19
  -9   3  -8   57.35    3.91
  -9   2  -8   92.84    4.31
  -9   2  -8   84.24    4.69
   9  -1   8    6.56    1.84
  -9   1  -8    5.63    1.55
  -9   1  -8    6.22    1.69
   9   0   8    0.54    1.07
  -9   0  -8    0.68    0.93
  -9   0  -8   -0.70    0.80
   9   1   8   16.43    2.75
  -9  -1  -8   17.15    2.56
  -9  -1  -8   17.18    2.73
   9   2   8   76.24    4.66
  -9  -2  -8   69.42    4.30
  -9  -2  -8   80.53    4.76
   9   3   8    0.75    1.17
  -9  -3  -8    2.72    1.32
   9   4   8    2.62    1.50
  -9  -4  -8    0.67    1.13
   9   5   8   22.74    3.30
  -9  -5  -8   16.69    2.75
   9   6   8    4.75    1.75
  -9  -6  -8    6.33    1.98
   9   7   8   35.77    3.52
  -9  -7  -8   37.01    3.76
   9   8   8    2.45    1.49
  -9  -8  -8    1.56    1.46
   9   9   8    2.12    1.48
   9   9   8    4.75    1.83
  -9  -9  -8    1.74    1.57
   9  10   8    2.49    1.46
   9  10   8    2.52    1.58
  -9 -10  -8    4.05    1.88
   9  11   8   -0.55    1.08
   9  11   8    0.00    1.23
   9  12   8   -0.47    1.10
   9  12   8   -0.17    1.40
   9  13   8   -0.34    1.23
   9  13   8   -0.25    1.35
  -9   9  -9   29.13    2.81
  -9   8  -9    3.64    1.39
  -9   7  -9    0.18    0.92
  -9   6  -9   -0.16    0.87
  -9   5  -9   13.10    2.38
  -9   4  -9   10.11    2.13
  -9   3  -9   29.25    2.42
  -9   3  -9   29.05    3.06
  -9   2  -9    0.43    0.97
  -9   2  -9    0.35    1.00
  -9   1  -9   39.49    3.16
  -9   1  -9   39.63    3.50
   9   0   9    0.52    1.11
  -9   0  -9    0.87    1.07
  -9   0  -9    0.06    1.07
   9   1   9    2.16    1.38
  -9  -1  -9    0.06    0.99
  -9  -1  -9    0.09    0.93
   9   2   9   20.36    3.05
  -9  -2  -9   18.10    2.82
  -9  -2  -9   15.63    2.61
   9   3   9    1.00    1.18
  -9  -3  -9   -0.21    0.98
   9   4   9   -0.11    1.10
  -9  -4  -9    0.64    1.21
   9   5   9    2.10    1.50
  -9  -5  -9    2.27    1.58
   9   6   9   66.96    4.68
  -9  -6  -9   66.19    4.76
   9   7   9    0.53    1.28
  -9  -7  -9    1.77    1.57
   9   8   9    2.58    1.48
  -9  -8  -9    3.39    1.81
   9   9   9    2.72    1.58
  -9  -9  -9    1.63    1.62
   9  10   9   -0.88    1.08
  -9 -10  -9    0.03    1.47
   9  11   9    0.29    1.36
   9  11   9   -0.20    1.40
   9  12   9    1.24    1.46
   9  12   9    0.29    1.43
   9  13   9    2.58    1.61
   9  13   9    0.79    1.57
  -9   8 -10   39.93    3.38
  -9   7 -10    0.59    0.97
  -9   6 -10    0.78    1.03
  -9   5 -10    8.00    1.99
  -9   4 -10   27.20    3.09
  -9   3 -10   16.77    2.34
  -9   3 -10   16.00    2.74
  -9   2 -10    8.72    1.80
  -9   2 -10    8.75    2.03
  -9   1 -10    1.62    1.23
  -9   1 -10    2.11    1.34
   9   0  10    0.79    1.24
  -9   0 -10    1.82    1.25
  -9   0 -10    1.49    1.24
   9   1  10   41.23    3.84
  -9  -1 -10   40.92    3.51
  -9  -1 -10   42.72    3.83
   9   2  10   14.03    2.76
  -9  -2 -10   12.41    2.38
  -9  -2 -10    8.63    2.16
   9   3  10   13.62    2.68
  -9  -3 -10   12.76    2.54
   9   4  10    3.75    1.75
  -9  -4 -10    3.53    1.69
   9   5  10   90.15    5.47
  -9  -5 -10   90.49    5.46
   9   6  10    6.51    1.95
  -9  -6 -10    7.39    2.18
   9   7  10    0.33    1.22
  -9  -7 -10   -1.18    1.19
   9   8  10    1.05    1.39
  -9  -8 -10    0.85    1.42
   9   9  10   -0.41    1.12
  -9  -9 -10   -0.17    1.29
   9  10  10    4.28    1.88
  -9 -10 -10    4.77    2.13
   9  11  10    5.21    1.99
  -9 -11 -10    5.68    2.38
   9  12  10    0.46    1.42
   9  13  10   -0.49    1.19
   9  13  10    0.42    1.60
  -9   7 -11    2.20    1.36
  -9   6 -11    0.55    1.14
  -9   5 -11    0.57    1.11
  -9   4 -11    5.26    1.84
  -9   3 -11    0.26    1.20
  -9   2 -11  107.02    4.75
  -9   2 -11  107.93    5.86
  -9   1 -11    0.41    1.06
  -9   1 -11    0.15    1.09
  -9   0 -11    2.26    1.37
  -9   0 -11    1.57    1.35
   9   1  11    0.97    1.23
  -9  -1 -11    1.70    1.35
  -9  -1 -11   -0.02    1.04
   9   2  11   13.80    2.79
  -9  -2 -11   19.00    3.03
  -9  -2 -11   14.39    2.62
   9   3  11   10.71    2.63
  -9  -3 -11    7.43    2.12
   9   4  11    3.02    1.78
  -9  -4 -11    3.84    1.79
   9   5  11   11.80    2.76
  -9  -5 -11    8.82    2.32
   9   6  11    2.77    1.57
  -9  -6 -11    1.77    1.59
   9   7  11    3.16    1.73
  -9  -7 -11    4.73    1.97
   9   8  11   23.80    3.63
  -9  -8 -11   23.73    3.80
   9   9  11    1.04    1.47
  -9  -9 -11    1.37    1.65
   9  10  11    1.33    1.54
  -9 -10 -11    0.77    1.67
   9  11  11    0.58    1.45
  -9 -11 -11    1.69    1.82
   9  12  11    0.46    1.46
   9  13  11   10.28    2.72
  -9   5 -12    1.67    1.38
  -9   4 -12   10.19    2.41
  -9   3 -12   19.81    3.32
  -9   2 -12    2.31    1.53
  -9   1 -12   -0.39    0.95
  -9   1 -12    0.06    1.17
  -9   0 -12    0.01    1.04
  -9   0 -12    0.07    1.16
   9   1  12   22.76    3.56
  -9  -1 -12   19.32    2.98
  -9  -1 -12   26.19    3.81
   9   2  12    1.28    1.50
  -9  -2 -12    1.84    1.39
   9   3  12    0.77    1.39
  -9  -3 -12   -0.55    1.15
   9   4  12   87.24    5.74
  -9  -4 -12   80.96    5.37
   9   5  12    1.85    1.61
  -9  -5 -12    1.54    1.50
   9   6  12    9.76    2.57
  -9  -6 -12   15.30    3.03
   9   7  12   -0.32    1.23
  -9  -7 -12    0.84    1.52
   9   8  12   17.51    3.33
  -9  -8 -12   19.46    3.68
   9   9  12    0.98    1.41
  -9  -9 -12    0.91    1.63
   9  10  12   -0.99    1.28
  -9 -10 -12   -1.46    1.36
   9  11  12    1.30    1.68
  -9 -11 -12    1.45    1.73
   9  12  12    0.27    1.44
  -9 -12 -12    1.22    1.87
  -9   4 -13   -0.42    1.12
  -9   3 -13    3.32    1.80
  -9   2 -13    0.49    1.30
  -9   1 -13   47.00    3.68
  -9   1 -13   39.93    4.20
  -9   0 -13    7.80    2.10
  -9   0 -13    7.61    2.37
  -9  -1 -13   -0.66    1.16
  -9  -1 -13   -0.76    1.16
   9   2  13    0.22    1.40
  -9  -2 -13    0.53    1.27
   9   3  13    0.25    1.31
  -9  -3 -13    1.46    1.54
   9   4  13    1.73    1.53
  -9  -4 -13   -0.75    1.15
   9   5  13    0.47    1.37
  -9  -5 -13   -0.23    1.33
   9   6  13    2.28    1.77
  -9  -6 -13    0.61    1.53
   9   7  13    0.79    1.54
  -9  -7 -13    2.11    1.77
   9   8  13    1.51    1.50
  -9  -8 -13    0.83    1.60
   9   9  13    6.79    2.32
  -9  -9 -13    7.36    2.53
   9  10  13    1.11    1.63
  -9 -10 -13    3.52    2.06
   9  11  13    0.83    1.58
  -9 -11 -13    0.21    1.67
   9  12  13    3.23    2.08
  -9 -12 -13    1.40    1.94
  -9   2 -14   -0.69    1.28
  -9   1 -14   -0.65    1.26
  -9   0 -14   35.64    3.59
  -9   0 -14   36.02    4.28
  -9  -1 -14   -0.03    1.36
  -9  -1 -14    0.41    1.60
  -9  -2 -14    4.36    1.91
   9   3  14   -0.36    1.48
  -9  -3 -14   -1.56    1.18
   9   4  14    0.42    1.52
  -9  -4 -14    1.65    1.66
   9   5  14   -0.20    1.37
  -9  -5 -14    0.00    1.49
   9   6  14    0.04    1.29
  -9  -6 -14    0.41    1.51
   9   7  14    0.46    1.41
  -9  -7 -14   -0.08    1.50
   9   8  14    3.37    1.96
  -9  -8 -14    4.91    2.22
   9   9  14   12.21    3.24
  -9  -9 -14   12.76    3.32
   9  10  14    0.50    1.50
  -9 -10 -14    0.45    1.73
   9  11  14   -1.13    1.32
  -9 -11 -14   -2.06    1.44
  -9   0 -15   14.09    2.67
  -9   0 -15   21.03    3.88
  -9  -1 -15    1.03    1.43
  -9  -2 -15    7.87    2.45
   9   3  15    4.26    2.24
  -9  -3 -15    2.86    1.92
   9   4  15    3.75    2.26
  -9  -4 -15    4.72    2.18
   9   5  15   -0.93    1.41
  -9  -5 -15    0.37    1.60
   9   6  15   -0.67    1.38
  -9  -6 -15    1.32    1.66
   9   7  15    1.27    1.67
  -9  -7 -15    2.63    1.95
   9   8  15    3.40    2.07
  -9  -8 -15    3.01    2.13
   9   9  15   26.30    4.37
  -9  -9 -15   33.65    5.12
   9   4  16    0.99    1.80
  -9  -4 -16    0.48    1.62
   9   5  16    0.62    1.67
  -9  -5 -16    3.58    2.08
   9   6  16    4.43    2.29
  -9  -6 -16    5.60    2.35
  10  -8  -8   -0.71    1.59
 -10   8   8    0.56    1.63
  10  -7  -8    3.60    2.30
 -10   7   8    4.94    2.27
  10  -6  -8    3.97    2.22
 -10   6   8    6.70    2.56
  10  -5  -8    0.81    1.74
 -10   5   8    2.05    1.89
  10  -4  -8    8.53    2.72
 -10   4   8    9.58    2.92
  10  -3  -8    1.25    1.80
 -10   3   8    0.29    1.77
  10  -2  -8    1.44    1.70
 -10   2   8    0.94    1.66
  10  -1  -8   23.37    4.09
 -10   1   8   24.11    4.36
  10   0  -8    2.52    1.93
 -10   0   8    3.59    2.36
 -10  10   7    0.69    1.56
 -10   9   7    0.03    1.39
  10  -8  -7    6.61    2.55
 -10   8   7    7.76    2.48
  10  -7  -7   57.26    5.34
 -10   7   7   50.12    4.71
  10  -6  -7    3.23    1.96
 -10   6   7    3.22    1.99
  10  -5  -7    4.58    2.31
 -10   5   7    4.41    2.03
  10  -4  -7   86.17    6.26
 -10   4   7   90.53    6.34
  10  -3  -7   18.59    3.65
 -10   3   7   24.90    4.13
  10  -2  -7    0.71    1.61
 -10   2   7    1.31    1.66
  10  -1  -7   29.54    4.36
 -10   1   7   35.85    5.01
  10   0  -7   19.82    3.74
 -10   0   7   17.46    3.74
  10   1  -7   -1.38    1.21
 -10  -1   7    0.15    1.56
  10   2  -7    3.61    2.04
 -10  -2   7    6.89    2.71
 -10  11   6    1.54    1.50
 -10  11   6   -0.30    1.50
 -10  10   6    3.85    1.77
 -10  10   6    8.24    3.00
 -10   9   6   32.38    3.74
  10  -8  -6   37.17    4.35
 -10   8   6   41.51    4.19
  10  -7  -6   14.34    3.13
 -10   7   6   14.16    2.96
  10  -6  -6    7.70    2.38
 -10   6   6    8.20    2.41
  10  -5  -6    0.61    1.59
 -10   5   6    0.60    1.44
  10  -4  -6   37.97    4.28
 -10   4   6   39.16    4.29
  10  -3  -6   10.79    2.75
 -10   3   6   11.53    2.87
  10  -2  -6    9.10    2.57
 -10   2   6   15.46    3.41
  10  -1  -6    1.49    1.55
 -10   1   6    0.04    1.49
  10   0  -6    0.95    1.58
 -10   0   6    0.24    1.69
  10   1  -6   -0.78    1.20
 -10  -1   6    0.29    1.55
  10   2  -6    1.57    1.60
 -10  -2   6    0.36    1.72
  10   3  -6    4.38    2.03
  10   4  -6    1.13    1.57
 -10  11   5    4.45    2.07
 -10  10   5    0.93    1.39
 -10  10   5    0.36    1.45
 -10   9   5    0.78    1.34
 -10   9   5    0.03    1.36
 -10   8   5   54.95    4.46
  10  -7  -5    1.16    1.44
 -10   7   5    1.18    1.46
  10  -6  -5   -0.53    1.30
 -10   6   5   -0.87    1.11
  10  -5  -5  104.81    6.42
 -10   5   5  113.37    6.39
  10  -4  -5    2.69    1.79
 -10   4   5    3.92    1.91
  10  -3  -5    0.59    1.35
 -10   3   5    0.23    1.43
  10  -2  -5    9.17    2.45
 -10   2   5   12.51    2.95
  10  -1  -5    5.50    2.17
 -10   1   5    5.47    2.19
  10   0  -5    1.76    1.54
 -10   0   5    0.17    1.46
  10   1  -5    0.81    1.48
 -10  -1   5   -0.12    1.37
  10   2  -5   -0.70    1.21
 -10  -2   5    0.18    1.46
  10   3  -5    0.83    1.53
 -10  -3   5    0.06    1.57
  10   4  -5    4.98    2.06
  10   5  -5    3.18    1.73
 -10  12   4    3.75    1.84
 -10  11   4    4.08    1.96
 -10  10   4   22.13    2.99
 -10  10   4   22.39    3.72
 -10   9   4   36.98    3.55
 -10   9   4   41.79    4.29
 -10   8   4   13.14    2.57
 -10   8   4   12.54    2.76
  10  -7  -4   10.41    2.73
 -10   7   4    7.87    2.14
 -10   7   4    8.63    2.33
  10  -6  -4    8.98    2.49
 -10   6   4    8.64    2.24
  10  -5  -4   30.63    3.67
 -10   5   4   27.57    3.35
  10  -4  -4    1.50    1.42
 -10   4   4    0.21    1.26
  10  -3  -4   89.61    5.73
 -10   3   4   89.96    5.64
  10  -2  -4    4.30    1.94
 -10   2   4    3.53    1.69
  10  -1  -4    2.22    1.60
 -10   1   4    2.97    1.71
  10   0  -4    0.24    1.29
 -10   0   4    0.42    1.35
  10   1  -4   45.49    4.19
 -10  -1   4   38.17    4.14
  10   2  -4    1.81    1.59
 -10  -2   4    3.13    1.87
  10   3  -4   23.75    3.57
 -10  -3   4   28.55    4.24
  10   4  -4    3.64    1.81
  10   5  -4    8.29    2.35
  10   5  -4    7.46    2.52
  10   6  -4    1.18    1.35
  10   6  -4    1.65    1.72
 -10  12   3    0.04    1.22
 -10  11   3    2.13    1.45
 -10  10   3   -0.03    1.18
 -10   9   3    5.94    1.79
 -10   9   3    8.19    2.39
 -10   8   3   23.17    2.86
 -10   8   3   23.10    3.53
 -10   7   3    1.84    1.34
 -10   7   3    4.38    1.82
  10  -6  -3   -0.18    1.24
 -10   6   3   -0.77    0.97
 -10   6   3    1.12    1.28
  10  -5  -3    7.21    2.14
 -10   5   3    5.18    1.80
  10  -4  -3    2.43    1.64
 -10   4   3    5.46    1.91
  10  -3  -3    9.09    2.41
 -10   3   3    5.01    1.87
  10  -2  -3    4.48    1.95
 -10   2   3    4.19    1.77
  10  -1  -3    8.14    2.25
 -10   1   3   11.87    2.70
  10   0  -3   33.32    3.62
 -10   0   3   41.60    4.03
  10   1  -3    1.46    1.36
 -10  -1   3    2.58    1.66
  10   2  -3    3.76    1.78
 -10  -2   3    4.58    1.95
  10   3  -3   -0.42    1.11
 -10  -3   3   -0.06    1.35
  10   4  -3    4.51    1.89
 -10  -4   3    1.99    1.72
  10   5  -3    7.87    2.31
  10   5  -3   10.33    2.69
  10   6  -3    5.60    1.86
  10   6  -3    3.33    1.89
  10   7  -3    0.64    1.29
  10   7  -3    0.82    1.57
  10   8  -3    4.94    2.20
 -10  12   2    7.73    2.18
 -10  11   2    6.81    2.09
 -10  10   2   22.24    3.29
 -10   9   2   11.02    2.02
 -10   9   2   12.04    2.55
 -10   8   2   11.83    2.21
 -10   8   2   11.61    2.63
 -10   7   2    3.45    1.51
 -10   7   2    3.44    1.65
  10  -6  -2    0.75    1.30
 -10   6   2    0.33    1.00
 -10   6   2    0.07    1.06
  10  -5  -2    0.87    1.17
 -10   5   2    1.14    1.17
 -10   5   2    0.55    1.21
  10  -4  -2    1.09    1.33
 -10   4   2    0.56    1.21
  10  -3  -2   23.07    3.52
 -10   3   2   23.99    3.40
  10  -2  -2   -0.45    1.13
 -10   2   2    0.49    1.17
  10  -1  -2    0.52    1.23
 -10   1   2    1.38    1.40
  10   0  -2   25.73    3.18
 -10   0   2   17.34    2.92
  10   1  -2   50.61    4.16
 -10  -1   2   52.94    4.39
  10   2  -2   -0.35    1.04
 -10  -2   2   -0.57    1.19
  10   3  -2    1.01    1.23
 -10  -3   2    0.00    1.31
  10   4  -2    1.23    1.42
 -10  -4   2    2.26    1.72
  10   5  -2    0.01    1.24
  10   5  -2    1.04    1.50
 -10  -5   2   -0.25    1.35
  10   6  -2   42.85    3.90
  10   6  -2   45.30    4.47
  10   7  -2   13.09    2.53
  10   7  -2   13.19    2.93
  10   8  -2    3.06    1.76
 -10  12   1    4.07    1.69
 -10  11   1   11.78    2.42
 -10  10   1   -0.55    0.97
 -10   9   1   26.15    3.55
 -10   8   1   45.83    3.23
 -10   8   1   44.86    3.90
 -10   8   1   46.11    3.86
 -10   7   1    4.66    1.54
 -10   7   1    2.94    1.47
 -10   6   1    0.23    1.04
 -10   6   1    1.44    1.26
  10  -5  -1    0.46    1.14
 -10   5   1    1.71    1.24
 -10   5   1    0.89    1.14
  10  -4  -1    7.97    2.18
 -10   4   1    7.65    2.01
 -10   4   1    7.66    2.10
  10  -3  -1   24.77    3.06
 -10   3   1   24.24    2.90
 -10   3   1   23.04    3.25
  10  -2  -1    3.49    1.57
 -10   2   1    1.88    1.33
  10  -1  -1   61.53    4.41
 -10   1   1   57.24    4.27
  10   0  -1   15.23    2.67
 -10   0   1   16.43    2.83
  10   1  -1   33.79    3.46
 -10  -1   1   32.64    3.49
  10   2  -1   15.26    2.84
 -10  -2   1   16.29    2.99
  10   3  -1    2.00    1.43
 -10  -3   1    4.41    1.80
  10   4  -1    0.71    1.26
  10   4  -1    0.13    1.19
 -10  -4   1    1.06    1.39
  10   5  -1   -0.22    1.15
  10   5  -1    2.06    1.51
 -10  -5   1    3.61    1.82
  10   6  -1   25.59    3.45
  10   6  -1   24.71    3.77
  10   7  -1   11.24    2.39
  10   7  -1   13.00    2.87
  10   8  -1   16.09    2.67
  10   8  -1   16.04    3.10
  10   9  -1    3.26    1.88
 -10  12   0    0.77    1.09
 -10  11   0   15.70    2.61
 -10  10   0    0.71    1.12
 -10   9   0   23.66    2.96
 -10   8   0    2.82    1.16
 -10   8   0    4.11    1.64
 -10   7   0    0.70    0.94
 -10   7   0    1.03    1.22
 -10   7   0    1.38    0.98
 -10   6   0    4.51    1.62
 -10   6   0    6.82    1.80
  10  -5   0    7.61    2.09
 -10   5   0    5.87    1.64
 -10   5   0    6.72    1.89
  10  -4   0   21.37    3.14
 -10   4   0   22.06    2.73
 -10   4   0   19.30    2.94
  10  -3   0   -0.62    0.96
 -10   3   0   -0.24    1.03
 -10   3   0   -0.33    1.08
  10  -2   0  129.83    6.06
 -10   2   0  116.53    5.59
 -10   2   0  129.22    6.31
  10  -1   0    6.45    1.83
 -10   1   0    3.51    1.47
  10   0   0   16.71    2.79
 -10   0   0   16.48    2.82
  10   1   0   18.58    3.02
 -10  -1   0   18.03    2.92
  10   2   0   31.44    3.30
 -10  -2   0   31.72    3.43
  10   3   0    6.43    1.93
 -10  -3   0    7.89    2.17
  10   4   0    3.09    1.59
  10   4   0    0.68    1.29
 -10  -4   0    0.55    1.29
  10   5   0   11.96    2.51
  10   5   0   15.04    2.80
 -10  -5   0   13.70    2.80
  10   6   0   10.17    2.34
  10   6   0    7.72    2.22
 -10  -6   0    6.81    2.20
  10   7   0    1.06    1.20
  10   7   0   -1.35    1.06
  10   8   0   11.02    2.31
  10   8   0   10.12    2.59
  10   9   0   -0.47    1.18
  10  10   0   28.78    4.07
 -10  12  -1    0.09    0.96
 -10  11  -1   14.28    2.49
 -10  10  -1    5.43    1.69
 -10   9  -1   -0.90    0.89
 -10   8  -1    9.27    2.11
 -10   7  -1   14.93    2.04
 -10   7  -1   13.71    2.40
 -10   7  -1   12.75    2.22
 -10   6  -1   21.86    2.39
 -10   6  -1   21.11    2.97
 -10   6  -1   23.04    2.57
 -10   5  -1   15.33    2.38
 -10   5  -1   13.69    2.44
 -10   5  -1   12.16    2.22
  10  -4   1   23.45    2.91
 -10   4  -1   27.17    2.73
 -10   4  -1   28.45    3.03
  10  -3   1  254.09    8.18
 -10   3  -1  271.87    8.00
 -10   3  -1  261.06    8.29
  10  -2   1  355.93    9.65
 -10   2  -1  331.44    9.00
 -10   2  -1  376.41    9.94
  10  -1   1    5.80    1.82
 -10   1  -1    3.73    1.52
  10   0   1   93.11    5.13
 -10   0  -1  101.63    5.28
  10   1   1    1.37    1.23
 -10  -1  -1    0.32    1.05
  10   2   1   52.98    4.04
 -10  -2  -1   51.69    4.06
  10   3   1    5.44    1.79
 -10  -3  -1    2.77    1.47
  10   4   1   87.73    5.05
 -10  -4  -1   96.01    5.54
  10   5   1    2.06    1.37
  10   5   1    3.43    1.70
 -10  -5  -1    0.76    1.33
  10   6   1    6.25    1.96
  10   6   1    6.35    2.11
 -10  -6  -1    8.23    2.40
  10   7   1   21.55    3.17
  10   7   1   15.88    3.00
  10   8   1   16.96    2.72
  10   8   1   13.97    2.93
  10   9   1    1.22    1.25
  10   9   1    0.38    1.36
  10  10   1    2.85    1.77
  10  11   1   -0.74    1.31
 -10  12  -2    2.77    1.33
 -10  11  -2    2.27    1.29
 -10  10  -2    3.56    1.44
 -10   9  -2    8.27    1.89
 -10   8  -2    2.25    1.29
 -10   7  -2    0.41    0.76
 -10   7  -2    0.77    1.01
 -10   7  -2    0.42    0.83
 -10   6  -2    4.04    1.26
 -10   6  -2    4.03    1.45
 -10   6  -2    4.80    1.53
 -10   5  -2   14.82    2.19
 -10   5  -2   13.30    2.33
 -10   5  -2   17.07    2.61
  10  -4   2   26.99    2.94
 -10   4  -2   24.92    2.58
 -10   4  -2   28.78    2.97
 -10   4  -2   28.18    2.80
  10  -3   2    2.63    1.34
 -10   3  -2    1.63    1.16
 -10   3  -2    2.79    1.39
  10  -2   2    1.16    1.20
 -10   2  -2    1.17    1.18
 -10   2  -2    2.25    1.27
  10  -1   2    5.35    1.78
 -10   1  -2    4.47    1.55
 -10   1  -2    3.11    1.44
  10   0   2    1.47    1.25
 -10   0  -2    1.15    1.27
  10   1   2    4.92    1.63
 -10  -1  -2    4.87    1.67
  10   2   2    0.20    1.03
 -10  -2  -2   -1.15    0.87
  10   3   2   19.93    2.91
 -10  -3  -2   18.14    2.93
  10   4   2   37.82    3.50
 -10  -4  -2   38.99    3.71
  10   5   2   71.69    4.66
  10   5   2   68.78    4.81
 -10  -5  -2   75.18    5.00
  10   6   2    3.31    1.57
  10   6   2    1.36    1.41
 -10  -6  -2    1.32    1.48
  10   7   2    3.69    1.62
  10   7   2    2.97    1.65
 -10  -7  -2    2.58    1.70
  10   8   2   22.25    3.13
  10   8   2   26.08    3.78
  10   9   2   28.84    3.15
  10   9   2   31.27    4.17
  10  10   2    0.44    1.35
  10  11   2    0.26    1.42
 -10  12  -3    8.81    1.89
 -10  11  -3   25.84    2.74
 -10  10  -3    2.94    1.32
 -10   9  -3   -0.48    0.78
 -10   8  -3   21.42    2.61
 -10   7  -3    6.33    1.76
 -10   6  -3   56.86    3.09
 -10   6  -3   55.29    3.88
 -10   6  -3   59.58    3.62
 -10   5  -3    7.80    1.63
 -10   5  -3   11.45    2.23
 -10   5  -3    9.89    1.89
 -10   4  -3    9.09    1.83
 -10   4  -3    7.15    1.79
 -10   4  -3   11.33    2.20
  10  -3   3   91.81    4.94
 -10   3  -3   93.42    4.54
 -10   3  -3   95.80    4.98
 -10   3  -3   87.90    4.68
  10  -2   3    0.98    1.17
 -10   2  -3    0.84    1.03
 -10   2  -3   -0.29    0.85
  10  -1   3   81.60    4.68
 -10   1  -3   73.49    4.30
 -10   1  -3   79.80    4.64
  10   0   3   55.75    3.96
 -10   0  -3   59.51    4.00
 -10   0  -3   58.63    4.05
  10   1   3   32.98    3.20
 -10  -1  -3   27.70    3.01
  10   2   3    1.40    1.21
 -10  -2  -3    0.60    1.17
  10   3   3   48.14    3.81
 -10  -3  -3   45.27    3.79
  10   4   3   58.18    4.19
 -10  -4  -3   64.86    4.57
  10   5   3    2.54    1.41
  10   5   3    3.07    1.63
 -10  -5  -3    4.01    1.89
  10   6   3    6.97    2.03
  10   6   3    6.72    2.04
 -10  -6  -3    6.49    2.05
  10   7   3   -1.23    0.98
  10   7   3    0.05    1.15
 -10  -7  -3    0.11    1.46
  10   8   3    1.78    1.44
  10   8   3   -0.09    1.06
  10   9   3    4.45    1.75
  10   9   3    3.36    1.84
  10  10   3    0.72    1.23
  10  10   3    0.05    1.28
  10  11   3   -0.12    1.19
  10  12   3    2.00    1.69
 -10  11  -4   18.14    2.54
 -10  10  -4   -0.27    0.81
 -10   9  -4   10.33    2.02
 -10   8  -4    3.66    1.35
 -10   7  -4   -0.72    0.70
 -10   6  -4    6.79    1.76
 -10   6  -4    5.73    1.47
 -10   5  -4   14.68    2.06
 -10   5  -4   13.66    2.35
 -10   5  -4   15.88    2.30
 -10   4  -4   48.64    3.22
 -10   4  -4   51.30    3.72
 -10   4  -4   55.39    3.67
  10  -3   4   -0.27    0.97
 -10   3  -4    0.52    0.93
 -10   3  -4   -0.41    0.86
 -10   3  -4   -0.41    0.75
  10  -2   4   24.41    2.75
 -10   2  -4   21.36    2.50
 -10   2  -4   22.46    2.72
 -10   2  -4   25.24    2.75
  10  -1   4   27.24    2.91
 -10   1  -4   24.35    2.71
 -10   1  -4   26.46    2.87
  10   0   4   67.38    4.30
 -10   0  -4   65.05    4.11
 -10   0  -4   67.71    4.33
  10   1   4    0.29    1.00
 -10  -1  -4   -0.23    0.94
  10   2   4   34.42    3.28
 -10  -2  -4   34.32    3.32
  10   3   4   68.67    4.47
 -10  -3  -4   68.12    4.51
  10   4   4   87.13    5.00
 -10  -4  -4   89.42    5.20
  10   5   4   35.20    3.50
 -10  -5  -4   40.70    3.79
  10   6   4   40.08    3.69
  10   6   4   46.06    4.03
 -10  -6  -4   45.07    4.04
  10   7   4   40.93    3.65
  10   7   4   40.47    3.95
 -10  -7  -4   40.83    4.15
  10   8   4   37.57    3.57
  10   8   4   35.48    3.84
 -10  -8  -4   35.67    3.93
  10   9   4   26.05    3.45
  10   9   4   27.12    3.83
  10  10   4    1.26    1.34
  10  10   4    1.79    1.63
  10  11   4   29.14    3.34
  10  11   4   29.38    4.12
  10  12   4    0.39    1.38
 -10  11  -5    2.88    1.26
 -10  10  -5    0.57    0.93
 -10   9  -5   29.57    2.86
 -10   8  -5    0.41    0.94
 -10   7  -5    1.19    1.03
 -10   6  -5    7.35    1.79
 -10   5  -5   16.73    1.88
 -10   5  -5   16.11    2.52
 -10   5  -5   14.17    2.17
 -10   4  -5   48.91    3.13
 -10   4  -5   46.98    3.59
 -10   4  -5   50.78    3.43
 -10   3  -5   28.50    2.63
 -10   3  -5   26.93    2.86
 -10   3  -5   25.39    2.68
  10  -2   5   99.65    5.09
 -10   2  -5   83.82    4.36
 -10   2  -5   85.57    4.75
 -10   2  -5   91.30    4.76
  10  -1   5   10.04    2.14
 -10   1  -5    5.59    1.62
 -10   1  -5    9.13    2.12
  10   0   5    0.37    1.05
 -10   0  -5    0.87    1.06
 -10   0  -5    0.21    0.87
  10   1   5   76.97    4.61
 -10  -1  -5   81.02    4.62
 -10  -1  -5   71.16    4.49
  10   2   5    1.23    1.25
 -10  -2  -5    0.91    1.24
  10   3   5   23.14    2.86
 -10  -3  -5   22.64    3.20
  10   4   5   85.89    5.01
 -10  -4  -5   83.05    5.00
  10   5   5  302.92    9.12
 -10  -5  -5  297.23    9.30
  10   6   5    6.29    1.99
 -10  -6  -5    5.94    2.09
  10   7   5   67.58    4.57
  10   7   5   73.51    5.04
 -10  -7  -5   72.90    5.13
  10   8   5   57.70    4.32
  10   8   5   50.23    4.43
 -10  -8  -5   54.69    4.69
  10   9   5   10.46    2.38
  10   9   5    9.03    2.36
  10  10   5   34.00    3.48
  10  10   5   34.61    3.97
  10  11   5    0.19    1.07
  10  11   5    1.14    1.50
  10  12   5   10.93    2.76
 -10  10  -6    1.75    1.07
 -10   9  -6   92.26    4.69
 -10   8  -6    3.95    1.39
 -10   7  -6   15.17    2.41
 -10   6  -6    9.33    1.98
 -10   5  -6   10.66    2.11
 -10   4  -6    8.99    1.69
 -10   4  -6    8.18    1.89
 -10   3  -6    0.96    0.94
 -10   3  -6    0.50    1.00
 -10   3  -6    0.46    0.89
  10  -2   6    1.52    1.22
 -10   2  -6    1.99    1.17
 -10   2  -6    2.53    1.32
 -10   2  -6    2.40    1.24
  10  -1   6   61.23    4.13
 -10   1  -6   55.28    3.70
 -10   1  -6   54.86    3.98
  10   0   6   15.82    2.54
 -10   0  -6   14.68    2.45
 -10   0  -6   20.58    2.92
  10   1   6  134.62    6.06
 -10  -1  -6  126.84    5.69
 -10  -1  -6  124.67    5.85
  10   2   6   36.12    3.41
 -10  -2  -6   32.87    3.19
  10   3   6   42.39    3.66
 -10  -3  -6   35.11    3.42
  10   4   6   73.88    4.72
 -10  -4  -6   72.55    4.74
  10   5   6   52.86    4.12
 -10  -5  -6   55.53    4.32
  10   6   6   44.46    3.85
 -10  -6  -6   42.57    3.97
  10   7   6  121.60    6.07
 -10  -7  -6  126.58    6.53
  10   8   6    3.79    1.74
  10   8   6    4.90    1.85
 -10  -8  -6    8.93    2.41
  10   9   6   21.41    3.22
  10   9   6   16.52    3.09
 -10  -9  -6   15.37    3.10
  10  10   6   10.01    2.32
  10  10   6   11.40    2.64
  10  11   6   36.49    3.61
  10  11   6   27.02    3.97
  10  12   6   -0.03    1.30
 -10  10  -7    0.53    0.94
 -10   9  -7   40.49    3.27
 -10   8  -7    5.90    1.69
 -10   7  -7   12.85    2.24
 -10   6  -7   10.09    2.11
 -10   5  -7    1.85    1.29
 -10   4  -7    5.89    1.39
 -10   4  -7    2.96    1.39
 -10   3  -7   57.83    3.48
 -10   3  -7   53.16    3.95
 -10   2  -7    6.52    1.67
 -10   2  -7    8.22    2.02
  10  -1   7   21.81    3.12
 -10   1  -7   17.68    2.56
 -10   1  -7   21.14    2.98
  10   0   7    7.72    1.95
 -10   0  -7    4.74    1.64
 -10   0  -7    6.72    1.80
  10   1   7    7.20    1.96
 -10  -1  -7    6.51    1.82
 -10  -1  -7   10.21    2.20
  10   2   7   16.51    2.82
 -10  -2  -7   13.24    2.39
  10   3   7   48.84    3.97
 -10  -3  -7   45.56    3.82
  10   4   7  153.51    6.70
 -10  -4  -7  143.86    6.52
  10   5   7   26.33    3.17
 -10  -5  -7   26.29    3.25
  10   6   7   31.03    3.38
 -10  -6  -7   28.56    3.46
  10   7   7   14.83    2.81
 -10  -7  -7   14.22    2.84
  10   8   7    0.72    1.42
 -10  -8  -7    0.83    1.42
  10   9   7    6.97    2.15
  10   9   7    6.68    2.39
 -10  -9  -7    6.83    2.32
  10  10   7   13.70    2.75
  10  10   7   13.13    2.86
  10  11   7    0.81    1.37
  10  11   7    0.30    1.41
  10  12   7    1.50    1.48
  10  12   7    1.02    1.56
  10  13   7   37.91    4.43
 -10   9  -8   21.32    2.65
 -10   8  -8    5.38    1.60
 -10   7  -8    3.55    1.45
 -10   6  -8    2.06    1.27
 -10   5  -8    1.06    1.04
 -10   4  -8    1.70    1.19
 -10   3  -8   20.66    2.30
 -10   3  -8   18.69    2.83
 -10   2  -8   25.68    2.63
 -10   2  -8   23.96    2.94
  10  -1   8    9.07    2.28
 -10   1  -8    7.57    1.86
 -10   1  -8    6.73    1.89
  10   0   8    1.00    1.22
 -10   0  -8    1.57    1.19
 -10   0  -8    0.99    1.12
  10   1   8   -0.47    1.05
 -10  -1  -8   -0.09    0.96
 -10  -1  -8    0.81    1.22
  10   2   8    0.34    1.26
 -10  -2  -8    0.26    1.14
  10   3   8   21.14    3.19
 -10  -3  -8   19.22    2.91
  10   4   8    6.87    2.10
 -10  -4  -8    5.50    1.93
  10   5   8   23.92    3.52
 -10  -5  -8   24.02    3.57
  10   6   8   31.77    3.51
 -10  -6  -8   28.84    3.92
  10   7   8   29.81    3.46
 -10  -7  -8   30.47    3.67
  10   8   8    0.55    1.40
 -10  -8  -8    0.96    1.54
  10   9   8    4.34    1.82
 -10  -9  -8    6.02    2.18
  10  10   8   -0.79    1.11
 -10 -10  -8    0.23    1.55
  10  11   8   23.32    3.40
  10  11   8   22.09    3.80
  10  12   8    7.17    2.18
  10  12   8    9.44    2.90
  10  13   8    0.22    1.52
 -10   8  -9    0.89    1.15
 -10   7  -9    9.67    2.12
 -10   6  -9   -0.25    0.93
 -10   5  -9   -0.43    0.93
 -10   4  -9   21.54    3.06
 -10   3  -9    1.71    1.11
 -10   3  -9    0.28    1.11
 -10   2  -9   26.66    2.73
 -10   2  -9   22.99    3.17
 -10   1  -9    7.50    1.81
 -10   1  -9    6.61    1.98
  10   0   9   25.35    3.60
 -10   0  -9   27.96    3.02
 -10   0  -9   28.10    3.29
  10   1   9    9.32    2.37
 -10  -1  -9   11.41    2.38
 -10  -1  -9   11.81    2.61
  10   2   9    5.37    1.86
 -10  -2  -9    3.56    1.58
  10   3   9   16.84    3.05
 -10  -3  -9   18.64    2.98
  10   4   9    0.89    1.35
 -10  -4  -9    1.03    1.40
  10   5   9   36.11    3.75
 -10  -5  -9   31.60    3.59
  10   6   9   13.18    2.79
 -10  -6  -9    9.42    2.45
  10   7   9    9.67    2.46
 -10  -7  -9   10.36    2.56
  10   8   9   -0.18    1.22
 -10  -8  -9    0.11    1.38
  10   9   9    3.39    1.72
 -10  -9  -9    4.45    1.98
  10  10   9    3.65    1.83
 -10 -10  -9    4.83    2.30
  10  11   9    4.44    1.91
  10  12   9   27.64    3.84
  10  13   9   36.58    3.85
  10  13   9   28.90    4.32
 -10   7 -10   -0.20    0.94
 -10   6 -10   16.45    2.74
 -10   5 -10   -1.11    0.78
 -10   4 -10   -0.56    0.93
 -10   3 -10   -0.15    1.04
 -10   2 -10    0.17    0.99
 -10   2 -10    0.09    1.10
 -10   1 -10   -0.62    0.87
 -10   1 -10   -0.04    1.09
  10   0  10   12.78    2.72
 -10   0 -10   13.68    2.47
 -10   0 -10   10.89    2.35
  10   1  10   53.86    4.41
 -10  -1 -10   47.76    3.93
 -10  -1 -10   52.58    4.40
  10   2  10    4.28    1.84
 -10  -2 -10    5.57    1.87
  10   3  10   11.99    2.58
 -10  -3 -10   14.08    2.74
  10   4  10    0.77    1.37
 -10  -4 -10    1.31    1.39
  10   5  10    1.14    1.46
 -10  -5 -10    1.22    1.43
  10   6  10    3.31    1.83
 -10  -6 -10    3.47    1.82
  10   7  10    1.47    1.58
 -10  -7 -10    0.68    1.48
  10   8  10    2.89    1.76
 -10  -8 -10    5.05    2.14
  10   9  10    6.59    2.19
 -10  -9 -10    7.06    2.41
  10  10  10    2.51    1.73
 -10 -10 -10    4.64    2.21
  10  11  10    0.02    1.25
 -10 -11 -10   -0.45    1.52
  10  12  10    2.51    1.78
 -10   6 -11    2.13    1.53
 -10   5 -11   16.81    2.96
 -10   4 -11   30.15    3.49
 -10   3 -11    2.47    1.60
 -10   2 -11   -0.15    0.97
 -10   2 -11   -0.19    1.06
 -10   1 -11    1.43    1.26
 -10   1 -11    1.01    1.30
 -10   0 -11   10.49    2.27
 -10   0 -11   12.65    2.58
  10   1  11   41.48    4.14
 -10  -1 -11   33.13    3.51
 -10  -1 -11   36.77    3.91
  10   2  11   17.04    3.18
 -10  -2 -11   13.66    2.71
  10   3  11    0.12    1.30
 -10  -3 -11    0.60    1.26
  10   4  11   29.76    3.72
 -10  -4 -11   29.00    3.50
  10   5  11    1.84    1.58
 -10  -5 -11    1.92    1.55
  10   6  11    8.01    2.35
 -10  -6 -11    8.49    2.46
  10   7  11    4.86    2.08
 -10  -7 -11    5.82    2.10
  10   8  11    9.30    2.55
 -10  -8 -11    8.47    2.59
  10   9  11   17.23    3.29
 -10  -9 -11   20.06    3.60
  10  10  11    3.74    2.06
 -10 -10 -11    3.33    2.18
  10  11  11   11.28    2.81
 -10 -11 -11   11.85    3.21
  10  12  11   13.59    3.11
 -10   5 -12   11.84    2.64
 -10   4 -12    2.83    1.65
 -10   3 -12    3.55    1.73
 -10   2 -12    8.78    2.39
 -10   1 -12    3.56    1.58
 -10   1 -12    3.39    1.66
 -10   0 -12    0.33    1.16
 -10   0 -12    1.12    1.37
  10   1  12    0.03    1.32
 -10  -1 -12    0.90    1.31
 -10  -1 -12   -0.30    1.12
  10   2  12    2.64    1.73
 -10  -2 -12    1.54    1.57
  10   3  12    2.02    1.62
 -10  -3 -12    1.67    1.61
  10   4  12    0.91    1.47
 -10  -4 -12    1.85    1.63
  10   5  12    1.40    1.46
 -10  -5 -12   -0.43    1.23
  10   6  12    1.05    1.43
 -10  -6 -12    2.64    1.78
  10   7  12    0.87    1.50
 -10  -7 -12   -0.15    1.40
  10   8  12   32.61    4.57
 -10  -8 -12   23.93    3.82
  10   9  12    3.52    1.93
 -10  -9 -12    2.18    1.96
  10  10  12   11.79    2.87
 -10 -10 -12    8.14    2.76
  10  11  12    3.07    1.92
 -10 -11 -12    4.48    2.26
  10  12  12   -0.71    1.42
 -10 -12 -12    1.48    1.95
 -10   3 -13    8.35    2.48
 -10   2 -13    0.22    1.14
 -10   1 -13   32.71    3.28
 -10   1 -13   27.80    4.04
 -10   0 -13    4.17    1.72
 -10   0 -13    5.54    2.18
 -10  -1 -13    8.26    2.27
 -10  -1 -13    4.84    2.01
  10   2  13    0.38    1.47
 -10  -2 -13    2.38    1.73
  10   3  13    3.63    1.92
 -10  -3 -13    1.36    1.56
  10   4  13    1.82    1.68
 -10  -4 -13    2.67    1.80
  10   5  13    2.46    1.72
 -10  -5 -13    2.65    1.89
  10   6  13   -0.39    1.35
 -10  -6 -13    0.57    1.47
  10   7  13   19.17    3.61
 -10  -7 -13   22.68    3.97
  10   8  13   16.67    3.46
 -10  -8 -13   16.09    3.48
  10   9  13   11.57    2.91
 -10  -9 -13    8.52    2.70
  10  10  13    2.98    2.07
 -10 -10 -13    2.66    2.07
  10  11  13    0.99    1.80
 -10 -11 -13   -0.02    1.76
 -10   2 -14   -0.22    1.39
 -10   1 -14    2.56    1.76
 -10   0 -14   79.82    5.08
 -10   0 -14   80.69    6.07
 -10  -1 -14   -0.01    1.33
 -10  -2 -14   -0.48    1.33
  10   3  14    7.41    2.64
 -10  -3 -14    4.72    2.16
  10   4  14    2.30    1.91
 -10  -4 -14   -0.28    1.52
  10   5  14    0.73    1.55
 -10  -5 -14    0.31    1.45
  10   6  14    4.51    2.17
 -10  -6 -14    3.73    1.97
  10   7  14    2.56    1.85
 -10  -7 -14    1.46    1.86
  10   8  14    1.06    1.63
 -10  -8 -14    0.30    1.70
  10   9  14    7.52    2.60
 -10  -9 -14    4.35    2.25
  10  10  14   -0.85    1.39
 -10 -10 -14   -0.80    1.50
 -10  -1 -15   -0.47    1.38
 -10  -2 -15    1.26    1.63
  10   3  15    2.64    2.11
 -10  -3 -15    5.40    2.26
  10   4  15   15.25    3.50
 -10  -4 -15   12.22    2.97
  10   5  15   -0.04    1.55
 -10  -5 -15   -0.23    1.48
  10   6  15    2.92    2.04
 -10  -6 -15    3.07    2.03
  10   7  15   -0.67    1.40
 -10  -7 -15    0.87    1.74
  10   8  15    1.34    1.81
 -10  -8 -15    0.28    1.79
  11  -7  -7    0.49    1.66
 -11   7   7    0.74    1.69
  11  -6  -7    7.03    2.84
 -11   6   7    3.83    2.28
  11  -5  -7    1.57    1.92
 -11   5   7    2.73    2.10
  11  -4  -7    5.44    2.36
 -11   4   7    9.13    3.00
  11  -3  -7    4.45    2.38
 -11   3   7    6.11    2.69
  11  -2  -7   11.94    3.21
 -11   2   7   10.81    3.22
  11  -1  -7   15.96    3.44
 -11   1   7   13.49    3.52
 -11   9   6   50.29    4.77
  11  -8  -6   -0.66    1.56
 -11   8   6   -0.93    1.36
  11  -7  -6    2.63    1.88
 -11   7   6    0.86    1.66
  11  -6  -6    3.11    2.10
 -11   6   6    2.64    1.87
  11  -5  -6   11.08    3.07
 -11   5   6    8.77    2.71
  11  -4  -6   -0.51    1.33
 -11   4   6   -0.15    1.60
  11  -3  -6   -0.09    1.49
 -11   3   6   -0.62    1.49
  11  -2  -6   25.53    4.31
 -11   2   6   22.26    4.10
  11  -1  -6    1.31    1.76
 -11   1   6    1.31    1.83
  11   0  -6    1.12    1.69
 -11   0   6    2.43    1.99
  11   1  -6    0.30    1.58
 -11  -1   6    0.82    1.86
  11   2  -6    2.46    1.89
 -11  -2   6    2.47    2.09
 -11  10   5    2.49    1.65
 -11  10   5    2.23    1.85
 -11   9   5   12.96    2.84
 -11   8   5   -0.50    1.27
  11  -7  -5   12.35    3.16
 -11   7   5    7.66    2.41
  11  -6  -5   36.34    4.31
 -11   6   5   38.18    4.21
  11  -5  -5    1.12    1.70
 -11   5   5    2.09    1.70
  11  -4  -5   33.12    4.65
 -11   4   5   30.29    4.34
  11  -3  -5    5.83    2.36
 -11   3   5    4.86    2.16
  11  -2  -5    6.34    2.40
 -11   2   5    7.62    2.61
  11  -1  -5   54.69    5.00
 -11   1   5   53.16    5.16
  11   0  -5   13.72    3.08
 -11   0   5   12.91    3.19
  11   1  -5    1.79    1.78
 -11  -1   5    2.93    2.03
  11   2  -5   41.71    4.53
 -11  -2   5   42.00    4.77
  11   3  -5    1.92    1.78
 -11  -3   5    1.16    2.00
  11   4  -5    0.12    1.52
 -11  11   4    0.94    1.65
 -11  10   4    0.58    1.27
 -11  10   4   -0.82    1.30
 -11   9   4    1.74    1.53
 -11   9   4    2.73    1.91
 -11   8   4    9.78    2.43
  11  -7  -4   -0.28    1.44
 -11   7   4   -1.29    1.07
  11  -6  -4    0.16    1.38
 -11   6   4    0.59    1.44
  11  -5  -4   11.29    2.95
 -11   5   4   13.90    2.91
  11  -4  -4   14.97    3.07
 -11   4   4   16.70    3.14
  11  -3  -4    5.18    2.25
 -11   3   4    4.96    2.19
  11  -2  -4   36.62    4.14
 -11   2   4   33.50    4.02
  11  -1  -4   97.75    6.26
 -11   1   4   96.35    6.30
  11   0  -4    1.64    1.69
 -11   0   4    3.08    1.93
  11   1  -4   11.26    2.71
 -11  -1   4   11.30    3.04
  11   2  -4   -1.15    1.25
 -11  -2   4    1.37    1.73
  11   3  -4    3.58    1.93
 -11  -3   4    2.64    2.10
  11   4  -4    1.78    1.65
  11   5  -4    0.56    1.50
 -11  11   3    0.23    1.31
 -11  10   3    5.77    2.13
 -11   9   3    6.14    1.92
 -11   9   3    2.47    1.68
 -11   8   3    1.93    1.59
 -11   8   3    1.66    1.55
 -11   7   3    1.72    1.53
 -11   7   3    2.94    1.77
  11  -6  -3   52.03    4.72
 -11   6   3   49.23    4.26
  11  -5  -3   30.43    4.24
 -11   5   3   28.19    3.45
  11  -4  -3   -0.07    1.23
 -11   4   3    0.54    1.32
  11  -3  -3    0.03    1.34
 -11   3   3   -0.07    1.27
  11  -2  -3   69.04    5.25
 -11   2   3   64.99    5.09
  11  -1  -3    0.10    1.32
 -11   1   3   -1.13    1.08
  11   0  -3    1.64    1.67
 -11   0   3    2.46    1.69
  11   1  -3    4.50    2.01
 -11  -1   3    5.53    2.13
  11   2  -3   35.26    3.92
 -11  -2   3   28.67    4.36
  11   3  -3    0.96    1.47
 -11  -3   3   -0.37    1.41
  11   4  -3    1.51    1.53
 -11  -4   3    1.62    1.75
  11   5  -3   15.05    2.95
  11   6  -3    0.92    1.59
 -11  11   2    2.17    1.53
 -11  10   2   34.83    3.92
 -11   9   2   18.71    2.67
 -11   9   2   17.22    3.12
 -11   8   2   -0.20    1.12
 -11   8   2    0.03    1.01
 -11   7   2   11.00    2.40
 -11   7   2    8.59    2.41
  11  -6  -2    7.49    2.40
 -11   6   2   10.00    2.34
 -11   6   2    7.90    2.38
  11  -5  -2    0.09    1.24
 -11   5   2    0.14    1.21
  11  -4  -2   -0.11    1.22
 -11   4   2    0.43    1.14
  11  -3  -2    1.90    1.63
 -11   3   2    0.30    1.37
  11  -2  -2    1.58    1.48
 -11   2   2    0.41    1.26
  11  -1  -2    0.03    1.22
 -11   1   2    0.76    1.26
  11   0  -2   -0.39    1.12
 -11   0   2    0.81    1.31
  11   1  -2    1.52    1.46
 -11  -1   2    3.72    1.88
  11   2  -2   -0.57    1.11
 -11  -2   2    1.00    1.47
  11   3  -2    7.07    2.28
 -11  -3   2    6.74    2.37
  11   4  -2    8.86    2.52
 -11  -4   2    8.40    2.59
  11   5  -2    7.26    2.30
  11   6  -2   39.56    3.98
  11   7  -2    3.97    1.82
  11   7  -2    2.78    1.95
 -11  11   1   -1.44    0.96
 -11  10   1    5.83    2.03
 -11   9   1   11.73    2.55
 -11   8   1    3.56    1.45
 -11   8   1    4.00    1.73
 -11   7   1    6.71    1.85
 -11   7   1    7.92    2.16
 -11   6   1    2.89    1.49
 -11   6   1    0.82    1.35
  11  -5  -1   13.38    2.85
 -11   5   1    9.17    2.25
 -11   5   1   10.47    2.46
  11  -4  -1    8.45    2.33
 -11   4   1    5.40    1.81
  11  -3  -1   11.71    2.67
 -11   3   1   11.56    2.45
  11  -2  -1   31.29    3.55
 -11   2   1   27.31    3.31
  11  -1  -1    0.66    1.40
 -11   1   1   -0.68    0.99
  11   0  -1   14.05    2.79
 -11   0   1   17.68    3.09
  11   1  -1    0.67    1.33
 -11  -1   1    0.57    1.24
  11   2  -1    1.12    1.38
 -11  -2   1    1.29    1.47
  11   3  -1   11.79    2.64
 -11  -3   1   19.61    3.36
  11   4  -1    7.52    2.24
 -11  -4   1    9.54    2.51
  11   5  -1   17.32    3.11
 -11  -5   1   14.23    3.07
  11   6  -1   -0.75    1.12
  11   7  -1    2.32    1.57
  11   7  -1    3.80    2.01
  11   8  -1    0.97    1.45
  11   8  -1    2.08    1.68
 -11  11   0   68.29    4.88
 -11   9   0   29.74    3.49
 -11   8   0    6.76    1.64
 -11   8   0    4.90    1.83
 -11   7   0    5.82    1.69
 -11   7   0    4.83    1.84
 -11   6   0    5.27    1.66
 -11   6   0    8.71    2.23
  11  -5   0   18.43    3.13
 -11   5   0   15.09    2.62
 -11   5   0   16.36    2.87
  11  -4   0   53.52    4.32
 -11   4   0   52.62    4.01
 -11   4   0   53.51    4.40
  11  -3   0    0.40    1.22
 -11   3   0    1.44    1.30
  11  -2   0    4.15    1.83
 -11   2   0    3.29    1.65
  11  -1   0    1.81    1.52
 -11   1   0    4.06    1.79
  11   0   0   31.78    3.53
 -11   0   0   33.00    3.57
  11   1   0   -0.69    1.14
 -11  -1   0    0.21    1.27
  11   2   0   14.40    2.76
 -11  -2   0   12.29    2.65
  11   3   0   15.77    2.88
 -11  -3   0   16.63    3.03
  11   4   0   14.72    2.84
 -11  -4   0   18.97    3.38
  11   5   0    5.15    1.92
 -11  -5   0    3.70    1.95
  11   6   0   30.55    3.55
 -11  -6   0   28.83    4.18
  11   7   0    2.30    1.63
  11   7   0    3.08    1.83
  11   8   0   21.27    3.20
  11   8   0   28.56    4.29
  11   9   0   28.26    4.31
 -11  11  -1   41.36    3.84
 -11  10  -1   11.58    2.45
 -11   9  -1    1.09    1.20
 -11   8  -1   27.37    3.30
 -11   7  -1   18.18    2.45
 -11   7  -1   18.39    3.00
 -11   6  -1   -0.08    0.92
 -11   6  -1    0.26    1.08
 -11   5  -1   10.27    2.11
 -11   5  -1    8.36    2.18
  11  -4   1    4.97    1.91
 -11   4  -1    3.68    1.54
 -11   4  -1    4.01    1.67
  11  -3   1    2.25    1.42
 -11   3  -1    2.53    1.46
 -11   3  -1    3.02    1.57
  11  -2   1    0.42    1.19
 -11   2  -1    1.32    1.32
  11  -1   1   -0.66    1.03
 -11   1  -1    1.13    1.28
  11   0   1    3.32    1.65
 -11   0  -1    4.36    1.88
  11   1   1    0.87    1.26
 -11  -1  -1    0.85    1.32
  11   2   1    0.51    1.09
 -11  -2  -1   -0.45    1.25
  11   3   1   12.92    2.57
 -11  -3  -1   16.66    3.02
  11   4   1    7.10    2.09
 -11  -4  -1    7.23    2.32
  11   5   1    2.47    1.68
 -11  -5  -1    5.96    2.22
  11   6   1   12.19    2.63
 -11  -6  -1    9.42    2.64
  11   7   1   14.40    2.76
  11   7   1   13.21    2.98
  11   8   1    6.63    2.04
  11   8   1   12.08    2.99
  11   9   1    1.83    1.56
  11   9   1    4.28    2.13
 -11  11  -2   17.11    2.80
 -11  10  -2   12.50    2.45
 -11   9  -2    5.88    1.85
 -11   8  -2    0.97    1.12
 -11   7  -2   11.67    1.89
 -11   7  -2    9.68    2.18
 -11   6  -2    2.96    1.32
 -11   6  -2    3.31    1.59
 -11   6  -2    2.97    1.36
 -11   5  -2    5.27    1.62
 -11   5  -2    3.79    1.64
  11  -4   2    1.02    1.22
 -11   4  -2    1.97    1.21
 -11   4  -2    2.61    1.41
  11  -3   2   13.98    2.71
 -11   3  -2   15.62    2.58
 -11   3  -2   20.37    3.19
  11  -2   2    2.74    1.49
 -11   2  -2    2.81    1.46
 -11   2  -2    4.00    1.65
  11  -1   2   14.91    2.78
 -11   1  -2    9.99    2.12
  11   0   2   24.57    3.46
 -11   0  -2   24.50    3.02
  11   1   2    0.13    1.08
 -11  -1  -2   -0.35    1.02
  11   2   2    7.59    2.08
 -11  -2  -2   10.27    2.52
  11   3   2   26.70    3.75
 -11  -3  -2   25.08    3.63
  11   4   2   26.98    3.76
 -11  -4  -2   22.46    3.58
  11   5   2    0.67    1.27
 -11  -5  -2    1.57    1.57
  11   6   2    3.40    1.69
 -11  -6  -2    1.39    1.62
  11   7   2   13.75    2.76
  11   7   2   16.38    3.14
 -11  -7  -2   16.47    3.30
  11   8   2    2.34    1.58
  11   8   2    1.86    1.70
  11   9   2    1.16    1.40
  11   9   2    1.28    1.55
  11  10   2    1.02    1.50
 -11  11  -3    1.30    1.21
 -11  10  -3    0.90    1.14
 -11   9  -3    4.18    1.61
 -11   8  -3   12.16    2.35
 -11   7  -3    0.00    0.99
 -11   6  -3    7.54    1.64
 -11   6  -3    4.45    1.62
 -11   6  -3    6.21    1.69
 -11   5  -3    5.33    1.52
 -11   5  -3    4.64    1.75
 -11   5  -3    8.66    1.90
 -11   4  -3    2.87    1.31
 -11   4  -3    3.17    1.42
  11  -3   3    0.88    1.24
 -11   3  -3    1.55    1.19
 -11   3  -3    0.63    1.12
  11  -2   3    5.04    1.84
 -11   2  -3    4.61    1.62
 -11   2  -3    4.81    1.65
  11  -1   3   74.75    4.81
 -11   1  -3   71.63    4.60
 -11   1  -3   66.86    4.61
  11   0   3   42.83    3.78
 -11   0  -3   43.67    3.80
  11   1   3    0.21    1.11
 -11  -1  -3    0.61    1.08
  11   2   3    4.79    1.73
 -11  -2  -3    4.40    1.80
  11   3   3    1.12    1.25
 -11  -3  -3    1.78    1.54
  11   4   3   70.56    4.85
 -11  -4  -3   70.88    5.03
  11   5   3    6.42    2.08
 -11  -5  -3    4.72    1.98
  11   6   3    0.06    1.26
 -11  -6  -3    0.48    1.38
  11   7   3    2.16    1.53
 -11  -7  -3    0.91    1.59
  11   8   3   10.76    2.51
  11   8   3    5.92    2.13
  11   9   3    0.18    1.24
  11   9   3    0.75    1.49
  11  10   3    4.15    1.82
  11  10   3    7.02    2.38
  11  11   3    0.26    1.58
 -11  11  -4    1.33    1.29
 -11  10  -4    7.42    1.92
 -11   9  -4   16.83    2.71
 -11   8  -4    2.88    1.43
 -11   7  -4   14.31    2.48
 -11   6  -4   22.71    2.23
 -11   6  -4   18.84    2.85
 -11   5  -4   21.74    2.38
 -11   5  -4   25.68    3.02
 -11   5  -4   25.40    2.72
 -11   4  -4   -0.15    0.87
 -11   4  -4    0.29    0.97
 -11   4  -4    0.58    1.06
  11  -3   4   12.82    2.56
 -11   3  -4   10.27    2.10
 -11   3  -4    8.91    2.06
  11  -2   4   10.69    2.36
 -11   2  -4   10.81    2.15
 -11   2  -4   13.54    2.61
  11  -1   4   91.83    5.28
 -11   1  -4   86.67    4.92
 -11   1  -4   90.64    5.26
  11   0   4   65.21    4.54
 -11   0  -4   67.63    4.48
  11   1   4    2.86    1.60
 -11  -1  -4    4.91    1.81
  11   2   4   47.10    4.01
 -11  -2  -4   44.76    3.92
  11   3   4    9.22    2.27
 -11  -3  -4    8.57    2.34
  11   4   4    0.00    1.06
 -11  -4  -4    0.51    1.38
  11   5   4    3.66    1.77
 -11  -5  -4    4.46    1.91
  11   6   4   40.47    3.86
 -11  -6  -4   41.09    4.17
  11   7   4    0.23    1.22
 -11  -7  -4   -0.05    1.40
  11   8   4    6.76    2.14
  11   8   4    6.60    2.28
 -11  -8  -4    9.49    2.59
  11   9   4    8.78    2.34
  11   9   4   10.06    2.66
  11  10   4    0.25    1.36
  11  10   4    0.84    1.57
  11  11   4    9.13    2.65
 -11  10  -5    0.85    1.15
 -11   9  -5    6.86    1.89
 -11   8  -5    4.92    1.62
 -11   7  -5    0.90    1.13
 -11   6  -5   17.20    2.76
 -11   5  -5    8.00    1.70
 -11   5  -5    7.23    1.88
 -11   5  -5    9.13    2.01
 -11   4  -5   10.07    1.95
 -11   4  -5   11.58    2.40
 -11   4  -5    8.40    1.96
 -11   3  -5    0.46    1.05
 -11   3  -5   -0.06    0.93
  11  -2   5   27.42    3.20
 -11   2  -5   19.22    2.77
 -11   2  -5   22.59    3.21
  11  -1   5   40.75    3.68
 -11   1  -5   34.32    3.23
 -11   1  -5   37.37    3.57
  11   0   5    7.98    2.14
 -11   0  -5    6.50    1.89
 -11   0  -5    5.04    1.81
  11   1   5    1.06    1.22
 -11  -1  -5    0.56    1.12
  11   2   5    4.40    1.76
 -11  -2  -5    3.16    1.59
  11   3   5    0.58    1.24
 -11  -3  -5    0.61    1.30
  11   4   5    1.24    1.28
 -11  -4  -5    1.97    1.42
  11   5   5   16.36    3.05
 -11  -5  -5   12.31    2.69
  11   6   5   53.21    4.36
 -11  -6  -5   57.67    4.76
  11   7   5    6.06    2.04
 -11  -7  -5    7.72    2.52
  11   8   5   -0.61    1.13
 -11  -8  -5    1.14    1.52
  11   9   5    8.69    2.32
  11   9   5    6.91    2.36
  11  10   5    2.54    1.64
  11  10   5    5.08    2.18
  11  11   5    9.94    2.38
  11  11   5    9.53    2.69
 -11  10  -6    2.52    1.33
 -11   9  -6    8.57    2.08
 -11   8  -6   17.53    2.77
 -11   7  -6    0.54    1.11
 -11   6  -6    0.47    1.05
 -11   5  -6   17.20    2.31
 -11   5  -6   15.89    2.67
 -11   4  -6    1.47    1.11
 -11   4  -6    1.11    1.15
 -11   4  -6    0.45    0.87
 -11   3  -6    2.11    1.28
 -11   3  -6    2.50    1.38
 -11   3  -6    1.98    1.25
  11  -2   6    2.07    1.45
 -11   2  -6    2.98    1.36
 -11   2  -6    2.51    1.52
  11  -1   6   22.66    3.21
 -11   1  -6   24.99    2.93
 -11   1  -6   24.63    3.47
  11   0   6    1.30    1.21
 -11   0  -6    0.10    1.20
 -11   0  -6    1.80    1.39
  11   1   6   82.40    5.10
 -11  -1  -6   64.69    4.43
  11   2   6   40.58    3.81
 -11  -2  -6   44.89    3.93
  11   3   6   60.33    4.53
 -11  -3  -6   54.94    4.36
  11   4   6   37.96    3.76
 -11  -4  -6   32.90    3.58
  11   5   6   15.30    2.93
 -11  -5  -6   14.06    2.89
  11   6   6    1.15    1.41
 -11  -6  -6    2.15    1.62
  11   7   6   -1.05    1.11
 -11  -7  -6    1.49    1.63
  11   8   6   34.59    3.72
 -11  -8  -6   47.19    4.57
  11   9   6    6.42    2.19
 -11  -9  -6    8.19    2.65
  11  10   6   24.64    3.55
  11  10   6   23.68    4.17
  11  11   6    4.11    1.88
  11  11   6    1.90    1.70
  11  12   6    2.86    2.11
 -11   9  -7   39.36    3.50
 -11   8  -7    3.79    1.52
 -11   7  -7   24.09    2.97
 -11   6  -7    5.61    1.79
 -11   5  -7   16.95    2.78
 -11   4  -7    0.38    0.91
 -11   4  -7    0.67    1.14
 -11   3  -7   48.98    3.47
 -11   3  -7   45.88    3.94
 -11   2  -7   40.87    3.36
 -11   2  -7   38.63    3.69
  11  -1   7   21.62    3.33
 -11   1  -7   19.91    2.90
 -11   1  -7   19.92    3.07
  11   0   7    2.50    1.50
 -11   0  -7    1.59    1.26
 -11   0  -7    0.66    1.28
  11   1   7   37.48    3.65
 -11  -1  -7   37.82    3.54
  11   2   7   45.78    4.07
 -11  -2  -7   48.67    4.03
  11   3   7    0.89    1.34
 -11  -3  -7   -0.12    1.09
  11   4   7    5.95    2.02
 -11  -4  -7    4.45    1.88
  11   5   7    1.32    1.38
 -11  -5  -7    0.45    1.39
  11   6   7    1.60    1.48
 -11  -6  -7    1.95    1.62
  11   7   7   38.13    3.91
 -11  -7  -7   34.77    4.03
  11   8   7   92.45    5.70
 -11  -8  -7   92.89    6.11
  11   9   7   -0.19    1.36
 -11  -9  -7    0.32    1.73
  11  10   7    2.53    1.78
  11  11   7   58.15    4.69
  11  12   7    2.23    1.71
  11  12   7    3.06    1.95
 -11   8  -8   22.94    3.17
 -11   7  -8   23.90    3.26
 -11   6  -8   26.77    3.11
 -11   5  -8   28.62    3.26
 -11   4  -8   14.19    2.23
 -11   4  -8   13.36    2.54
 -11   3  -8   26.50    2.70
 -11   3  -8   30.61    3.38
 -11   2  -8    0.31    1.06
 -11   2  -8    0.80    1.27
  11  -1   8   25.14    3.52
 -11   1  -8   27.22    2.99
 -11   1  -8   24.25    3.42
  11   0   8  115.02    6.11
 -11   0  -8  109.91    5.59
 -11   0  -8  115.89    6.15
  11   1   8    0.02    1.02
 -11  -1  -8    0.12    1.11
  11   2   8    0.49    1.23
 -11  -2  -8    0.01    1.26
  11   3   8    4.47    1.95
 -11  -3  -8    5.27    1.90
  11   4   8    0.56    1.31
 -11  -4  -8   -0.31    1.10
  11   5   8    8.14    2.31
 -11  -5  -8    6.30    2.13
  11   6   8   77.22    5.38
 -11  -6  -8   86.38    5.72
  11   7   8  151.69    7.24
 -11  -7  -8  156.90    7.68
  11   8   8   62.04    4.91
 -11  -8  -8   65.63    5.31
  11   9   8   18.30    3.34
 -11  -9  -8   21.64    3.83
  11  10   8  138.99    7.03
 -11 -10  -8  145.69    7.90
  11  11   8    1.71    1.57
  11  12   8    1.59    1.60
 -11   7  -9    5.47    1.77
 -11   6  -9    0.20    1.17
 -11   5  -9    0.24    1.10
 -11   4  -9    0.42    1.08
 -11   3  -9   17.68    2.47
 -11   3  -9   15.00    2.81
 -11   2  -9   -0.40    0.97
 -11   2  -9    0.28    1.05
 -11   1  -9    7.57    2.00
 -11   1  -9    9.15    2.30
  11   0   9   65.94    4.85
 -11   0  -9   57.66    4.25
 -11   0  -9   59.74    4.69
  11   1   9    6.08    2.12
 -11  -1  -9    4.55    1.78
 -11  -1  -9    5.49    1.99
  11   2   9   -1.02    1.05
 -11  -2  -9    0.74    1.29
  11   3   9   -0.14    1.27
 -11  -3  -9   -0.58    1.13
  11   4   9    9.61    2.51
 -11  -4  -9    9.98    2.46
  11   5   9    3.23    1.77
 -11  -5  -9    2.13    1.65
  11   6   9    5.42    2.15
 -11  -6  -9    5.59    2.10
  11   7   9   10.25    2.79
 -11  -7  -9   10.42    2.75
  11   8   9   14.27    3.01
 -11  -8  -9   10.95    2.84
  11   9   9   11.77    2.81
 -11  -9  -9    4.83    2.37
  11  10   9   21.73    3.54
 -11 -10  -9   24.15    4.10
  11  11   9    8.53    2.53
  11  12   9   14.95    3.08
 -11   6 -10    0.56    1.14
 -11   5 -10    5.53    1.95
 -11   4 -10   11.35    2.50
 -11   3 -10    0.07    1.09
 -11   2 -10    0.44    1.07
 -11   2 -10   -0.52    1.06
 -11   1 -10   41.28    3.61
 -11   1 -10   39.75    3.99
  11   0  10    4.55    2.02
 -11   0 -10    2.50    1.52
 -11   0 -10    0.73    1.32
  11   1  10   11.30    2.74
 -11  -1 -10    8.69    2.26
 -11  -1 -10    9.39    2.52
  11   2  10   49.19    4.46
 -11  -2 -10   50.40    4.27
  11   3  10   -0.38    1.21
 -11  -3 -10    0.90    1.35
  11   4  10    0.13    1.39
 -11  -4 -10   -1.27    1.12
  11   5  10    3.15    1.91
 -11  -5 -10    1.84    1.60
  11   6  10    1.83    1.75
 -11  -6 -10    3.08    1.79
  11   7  10    2.05    1.73
 -11  -7 -10    2.57    1.88
  11   8  10    6.66    2.22
 -11  -8 -10    6.80    2.47
  11   9  10    0.86    1.54
 -11  -9 -10    0.20    1.69
  11  10  10    4.63    2.10
 -11 -10 -10    6.95    2.57
  11  11  10   16.50    3.26
 -11 -11 -10   21.63    4.09
 -11   5 -11    8.54    2.30
 -11   4 -11   17.32    3.12
 -11   3 -11    3.59    1.83
 -11   2 -11   10.18    2.13
 -11   2 -11    9.46    2.43
 -11   1 -11    2.36    1.50
 -11   1 -11    1.71    1.47
 -11   0 -11   26.92    3.30
 -11   0 -11   29.35    3.66
  11   1  11   12.29    2.87
 -11  -1 -11   12.81    2.68
  11   2  11    1.82    1.73
 -11  -2 -11    1.80    1.58
  11   3  11    7.50    2.41
 -11  -3 -11    9.03    2.40
  11   4  11    7.00    2.38
 -11  -4 -11    6.06    2.12
  11   5  11    1.05    1.49
 -11  -5 -11    0.80    1.44
  11   6  11   15.03    3.29
 -11  -6 -11    6.75    2.31
  11   7  11   -0.45    1.32
 -11  -7 -11    1.10    1.57
  11   8  11   49.77    4.74
 -11  -8 -11   49.31    4.91
  11   9  11   -0.50    1.40
 -11  -9 -11    0.41    1.63
  11  10  11    4.11    1.96
 -11 -10 -11    2.35    1.99
  11  11  11   14.12    3.19
 -11 -11 -11   18.93    3.79
 -11   4 -12    9.65    2.53
 -11   3 -12    4.39    1.91
 -11   2 -12   11.31    2.67
 -11   1 -12   52.77    4.07
 -11   1 -12   59.19    5.03
 -11   0 -12    9.80    2.34
 -11   0 -12    9.30    2.53
 -11  -1 -12    6.74    2.18
  11   2  12   23.10    3.86
 -11  -2 -12   20.74    3.40
  11   3  12   14.46    3.26
 -11  -3 -12   10.03    2.66
  11   4  12   16.74    3.48
 -11  -4 -12   11.55    2.78
  11   5  12    0.41    1.53
 -11  -5 -12    0.43    1.33
  11   6  12    0.07    1.46
 -11  -6 -12    1.30    1.65
  11   7  12   16.76    3.43
 -11  -7 -12   10.77    2.90
  11   8  12   13.10    3.08
 -11  -8 -12   14.13    3.29
  11   9  12    0.34    1.39
 -11  -9 -12   -1.70    1.22
  11  10  12    2.09    1.86
 -11 -10 -12    1.62    2.00
  11  11  12    4.23    2.06
 -11 -11 -12    2.88    2.10
 -11   2 -13   15.56    3.14
 -11   1 -13   39.42    3.68
 -11   1 -13   38.84    4.38
 -11   0 -13    2.80    1.63
 -11   0 -13    2.94    1.94
 -11  -1 -13   19.77    3.30
  11   2  13   -0.36    1.44
 -11  -2 -13   -0.59    1.30
  11   3  13    1.17    1.69
 -11  -3 -13    1.06    1.47
  11   4  13   53.21    5.06
 -11  -4 -13   61.04    5.15
  11   5  13    6.85    2.42
 -11  -5 -13    8.01    2.60
  11   6  13    0.12    1.49
 -11  -6 -13    1.12    1.74
  11   7  13    1.56    1.81
 -11  -7 -13    2.72    2.05
  11   8  13   15.83    3.48
 -11  -8 -13   16.03    3.50
  11   9  13   -0.19    1.29
 -11  -9 -13   -0.34    1.53
  11  10  13    3.42    1.88
 -11 -10 -13    6.76    2.63
 -11   0 -14   30.39    3.59
 -11   0 -14   33.40    4.80
 -11  -1 -14   17.84    3.22
 -11  -2 -14    0.00    1.43
  11   3  14    5.23    2.46
 -11  -3 -14    4.62    2.15
  11   4  14    1.89    2.04
 -11  -4 -14    1.79    1.76
  11   5  14    9.42    2.84
 -11  -5 -14   10.48    2.91
  11   6  14    0.75    1.64
 -11  -6 -14   -0.55    1.53
  11   7  14    3.18    1.99
 -11  -7 -14    3.88    2.17
  11   8  14    1.06    1.67
 -11  -8 -14   -0.62    1.54
  11   9  14    1.40    1.83
  11   3  15    0.91    1.84
 -11  -3 -15    7.59    2.51
  11   4  15    4.04    2.36
 -11  -4 -15    4.30    2.18
  11   5  15    4.43    2.31
 -11  -5 -15    2.23    2.07
  11   6  15    0.93    1.73
 -11  -6 -15    1.81    1.91
  12  -6  -6   -0.24    1.66
 -12   6   6    1.08    1.77
  12  -5  -6   13.01    3.37
 -12   5   6   14.59    3.43
  12  -4  -6    3.26    2.14
 -12   4   6    5.50    2.46
  12  -3  -6   13.74    3.25
 -12   3   6   16.01    3.58
  12  -2  -6    4.07    2.33
 -12   2   6    5.16    2.34
 -12   8   5   31.29    4.31
  12  -7  -5   -0.20    1.71
 -12   7   5   -0.34    1.40
  12  -6  -5    0.30    1.67
 -12   6   5    2.90    2.09
  12  -5  -5   -0.53    1.49
 -12   5   5   -0.05    1.58
  12  -4  -5    2.60    2.04
 -12   4   5    1.75    1.88
  12  -3  -5    5.21    2.39
 -12   3   5    3.74    2.22
  12  -2  -5   17.45    3.66
 -12   2   5   12.28    3.12
  12  -1  -5    1.13    1.73
 -12   1   5    1.43    1.87
  12   0  -5   13.97    3.22
 -12   0   5   15.62    3.52
  12   1  -5   31.65    4.65
 -12  -1   5   31.56    4.84
 -12   9   4   11.81    2.74
 -12   8   4   25.34    3.82
  12  -7  -4    0.71    1.69
 -12   7   4    0.34    1.45
  12  -6  -4    0.59    1.54
 -12   6   4    1.37    1.62
  12  -5  -4   20.21    3.90
 -12   5   4   18.17    3.53
  12  -4  -4    0.03    1.57
 -12   4   4    1.03    1.72
  12  -3  -4   34.75    4.29
 -12   3   4   37.65    4.41
  12  -2  -4    3.50    1.99
 -12   2   4    2.26    1.85
  12  -1  -4    3.97    2.18
 -12   1   4    4.24    2.14
  12   0  -4    0.57    1.52
 -12   0   4   -0.39    1.51
  12   1  -4   -1.85    1.11
 -12  -1   4    0.98    1.83
  12   2  -4   87.91    6.23
 -12  -2   4   83.82    6.60
  12   3  -4    4.94    2.24
 -12  -3   4    3.55    2.15
 -12   9   3    0.33    1.28
 -12   9   3    0.46    1.46
 -12   8   3    9.63    2.43
 -12   7   3    1.61    1.64
  12  -6  -3    1.01    1.72
 -12   6   3    3.20    1.88
  12  -5  -3   -0.15    1.38
 -12   5   3    1.93    1.75
  12  -4  -3    3.56    1.99
 -12   4   3    5.16    2.10
  12  -3  -3   66.14    5.48
 -12   3   3   66.51    5.40
  12  -2  -3    3.21    1.94
 -12   2   3    5.37    2.28
  12  -1  -3   17.22    3.46
 -12   1   3   18.98    3.53
  12   0  -3    5.00    2.11
 -12   0   3    4.40    2.12
  12   1  -3    1.99    1.78
 -12  -1   3    4.48    2.24
  12   2  -3    3.97    2.14
 -12  -2   3    2.33    1.99
  12   3  -3    0.75    1.70
 -12  -3   3    0.43    1.52
  12   4  -3    0.43    1.62
 -12  -4   3    1.74    1.99
 -12  10   2    4.12    2.09
 -12   9   2   -0.06    1.13
 -12   9   2   -0.27    1.35
 -12   8   2    6.03    1.94
 -12   8   2    7.31    2.41
 -12   7   2   28.17    3.45
 -12   7   2   28.63    4.10
  12  -6  -2    8.76    2.68
 -12   6   2    7.07    2.25
  12  -5  -2    0.66    1.61
 -12   5   2   -0.34    1.28
  12  -4  -2    2.12    1.73
 -12   4   2    0.86    1.50
  12  -3  -2   11.39    2.81
 -12   3   2   11.16    2.73
  12  -2  -2    1.46    1.64
 -12   2   2    1.69    1.63
  12  -1  -2   43.35    4.44
 -12   1   2   49.56    4.72
  12   0  -2    9.53    2.69
 -12   0   2    7.99    2.46
  12   1  -2   27.23    4.11
 -12  -1   2   19.18    3.59
  12   2  -2   32.11    4.39
 -12  -2   2   33.62    4.77
  12   3  -2   13.03    2.95
 -12  -3   2   11.64    3.07
  12   4  -2   15.11    3.22
 -12  -4   2   14.37    3.34
  12   5  -2    5.95    2.28
  12   6  -2    7.42    2.45
 -12  10   1   -0.85    1.17
 -12   9   1    0.90    1.48
 -12   8   1   25.09    2.98
 -12   8   1   23.26    3.69
 -12   7   1   46.28    3.97
 -12   7   1   46.89    4.58
 -12   6   1    6.00    1.98
 -12   6   1    7.19    2.26
  12  -5  -1    3.19    1.82
 -12   5   1    2.68    1.58
  12  -4  -1    4.63    2.09
 -12   4   1    6.72    2.15
  12  -3  -1   13.37    2.95
 -12   3   1   12.55    2.73
  12  -2  -1   19.01    3.45
 -12   2   1   17.15    3.20
  12  -1  -1    3.37    1.77
 -12   1   1    2.99    1.80
  12   0  -1    2.38    1.71
 -12   0   1    8.27    2.52
  12   1  -1   15.05    3.15
 -12  -1   1   15.63    3.26
  12   2  -1   15.34    3.00
 -12  -2   1   13.06    3.00
  12   3  -1    0.78    1.57
 -12  -3   1    2.13    1.91
  12   4  -1    1.15    1.65
 -12  -4   1    0.16    1.56
  12   5  -1    6.06    2.18
 -12  -5   1    7.92    2.75
  12   6  -1    1.49    1.62
  12   7  -1   -0.22    1.34
 -12  10   0   -1.14    1.04
 -12   9   0   10.61    2.65
 -12   8   0    0.82    1.23
 -12   8   0    2.26    1.68
 -12   7   0   10.11    2.24
 -12   7   0   11.80    2.65
 -12   6   0   19.98    3.03
 -12   6   0   22.42    3.56
  12  -5   0    3.52    1.82
 -12   5   0    1.93    1.48
 -12   5   0    3.86    1.81
  12  -4   0    1.81    1.64
 -12   4   0    0.66    1.31
  12  -3   0    2.98    1.70
 -12   3   0    1.80    1.45
  12  -2   0    9.90    2.59
 -12   2   0    8.09    2.29
  12  -1   0    4.90    2.00
 -12   1   0    2.91    1.70
  12   0   0    0.79    1.50
 -12   0   0    0.65    1.42
  12   1   0    4.15    1.89
 -12  -1   0    2.07    1.76
  12   2   0    2.35    1.65
 -12  -2   0    2.83    1.91
  12   3   0    0.12    1.36
 -12  -3   0    1.36    1.72
  12   4   0    4.92    2.00
 -12  -4   0    4.72    2.08
  12   5   0   -0.38    1.31
 -12  -5   0   -0.29    1.62
  12   6   0    6.66    2.21
  12   7   0    2.87    1.88
 -12  10  -1   37.46    3.94
 -12   9  -1    7.34    2.19
 -12   8  -1   11.42    2.58
 -12   7  -1   35.20    3.22
 -12   7  -1   33.46    3.78
 -12   6  -1   13.80    2.53
 -12   6  -1   13.70    2.83
 -12   5  -1    9.16    2.20
 -12   5  -1    9.39    2.41
  12  -4   1    0.75    1.37
 -12   4  -1   -0.11    1.06
 -12   4  -1    1.41    1.49
  12  -3   1   20.41    3.41
 -12   3  -1   18.37    3.09
  12  -2   1    2.86    1.73
 -12   2  -1    1.69    1.44
  12  -1   1   42.71    4.16
 -12   1  -1   46.58    4.19
  12   0   1    7.20    2.28
 -12   0  -1    7.25    2.09
  12   1   1    3.77    1.87
 -12  -1  -1    5.97    2.10
  12   2   1    1.16    1.47
 -12  -2  -1    2.06    1.59
  12   3   1   39.44    4.09
 -12  -3  -1   46.77    4.53
  12   4   1   10.30    2.64
 -12  -4  -1    9.31    2.60
  12   5   1   18.32    3.38
 -12  -5  -1   16.36    3.40
  12   6   1    0.87    1.55
 -12  -6  -1    1.54    1.86
  12   7   1    2.42    1.75
  12   8   1   40.73    4.15
 -12  10  -2    7.05    2.16
 -12   9  -2   11.08    2.54
 -12   8  -2    8.12    2.20
 -12   7  -2   19.10    2.58
 -12   7  -2   21.84    3.39
 -12   6  -2   90.36    4.76
 -12   6  -2   92.47    5.69
 -12   5  -2    1.41    1.22
 -12   5  -2    0.23    1.16
  12  -4   2   -0.54    1.11
 -12   4  -2    0.42    1.22
 -12   4  -2   -0.04    0.99
  12  -3   2    1.74    1.52
 -12   3  -2    0.55    1.21
 -12   3  -2    0.84    1.34
  12  -2   2    1.36    1.56
 -12   2  -2    1.04    1.36
  12  -1   2    9.23    2.42
 -12   1  -2   13.42    2.78
  12   0   2   18.16    3.25
 -12   0  -2   12.64    2.69
  12   1   2    0.22    1.26
 -12  -1  -2    0.95    1.37
  12   2   2   10.79    2.68
 -12  -2  -2    9.49    2.60
  12   3   2    1.17    1.40
 -12  -3  -2    0.04    1.40
  12   4   2   13.25    2.91
 -12  -4  -2   11.28    2.90
  12   5   2   34.50    3.86
 -12  -5  -2   36.38    4.21
  12   6   2    2.40    1.71
 -12  -6  -2    4.50    2.06
  12   7   2   25.63    3.78
 -12  -7  -2   24.92    4.21
  12   8   2   -0.61    1.25
  12   9   2   23.74    3.52
 -12  10  -3    0.06    1.19
 -12   9  -3   82.64    5.28
 -12   8  -3    0.64    1.17
 -12   7  -3    3.14    1.59
 -12   6  -3   -0.04    0.98
 -12   6  -3    0.14    1.20
 -12   5  -3   -0.08    1.04
 -12   5  -3   -0.61    1.01
 -12   4  -3   -0.51    1.01
 -12   4  -3   -0.25    0.94
  12  -3   3   20.92    3.42
 -12   3  -3   17.40    2.80
 -12   3  -3   17.02    2.93
  12  -2   3   21.06    3.33
 -12   2  -3   19.13    3.00
 -12   2  -3   19.61    3.15
  12  -1   3    8.39    2.33
 -12   1  -3    7.27    2.11
  12   0   3    0.61    1.23
 -12   0  -3   -0.82    1.02
  12   1   3   -0.13    1.18
 -12  -1  -3   -1.48    0.95
  12   2   3   29.72    3.59
 -12  -2  -3   28.77    3.58
  12   3   3    0.33    1.25
 -12  -3  -3    0.35    1.39
  12   4   3   -0.89    1.06
 -12  -4  -3   -0.44    1.40
  12   5   3    8.55    2.41
 -12  -5  -3    6.89    2.37
  12   6   3    9.30    2.58
 -12  -6  -3    7.60    2.53
  12   7   3   43.51    4.26
 -12  -7  -3   47.93    4.82
  12   8   3    0.44    1.45
  12   9   3    3.45    1.87
 -12  10  -4   33.72    3.56
 -12   9  -4    1.58    1.35
 -12   8  -4    6.29    2.00
 -12   7  -4   22.16    3.21
 -12   6  -4   -0.04    0.90
 -12   6  -4   -0.01    1.18
 -12   5  -4    2.83    1.39
 -12   5  -4    1.62    1.45
 -12   4  -4    0.68    1.07
 -12   4  -4    1.44    1.36
  12  -3   4    2.43    1.49
 -12   3  -4    2.81    1.50
 -12   3  -4    1.92    1.45
  12  -2   4    6.85    2.17
 -12   2  -4    6.60    1.94
 -12   2  -4    5.39    1.95
  12  -1   4   77.11    5.19
 -12   1  -4   71.36    4.81
  12   0   4    6.45    2.12
 -12   0  -4    6.36    2.10
  12   1   4    1.11    1.40
 -12  -1  -4    0.89    1.36
  12   2   4    2.35    1.55
 -12  -2  -4    3.07    1.80
  12   3   4   27.96    4.08
 -12  -3  -4   29.63    3.64
  12   4   4    0.07    1.27
 -12  -4  -4    0.90    1.49
  12   5   4    1.62    1.48
 -12  -5  -4    0.06    1.33
  12   6   4    8.08    2.38
 -12  -6  -4    6.15    2.40
  12   7   4   11.41    2.76
 -12  -7  -4   10.70    2.90
  12   8   4   -0.37    1.34
 -12  -8  -4    2.26    1.98
  12   9   4   28.60    4.00
  12  10   4    8.03    2.41
 -12   9  -5    9.72    2.33
 -12   8  -5    1.35    1.26
 -12   7  -5    6.78    2.04
 -12   6  -5    4.01    1.70
 -12   5  -5   24.39    2.59
 -12   5  -5   22.97    3.30
 -12   4  -5   -0.05    1.09
 -12   4  -5   -0.44    1.02
 -12   3  -5   43.52    3.66
 -12   3  -5   46.46    4.14
  12  -2   5   10.11    2.51
 -12   2  -5    9.63    2.23
 -12   2  -5   10.37    2.46
  12  -1   5   -0.27    1.07
 -12   1  -5    0.79    1.25
 -12   1  -5    0.70    1.20
  12   0   5    3.86    1.72
 -12   0  -5    4.28    1.74
  12   1   5   -0.61    1.07
 -12  -1  -5   -0.26    1.07
  12   2   5   12.73    2.79
 -12  -2  -5   12.92    2.65
  12   3   5    4.39    1.92
 -12  -3  -5    3.28    1.79
  12   4   5    1.81    1.55
 -12  -4  -5    0.78    1.44
  12   5   5   14.23    3.00
 -12  -5  -5   14.04    3.08
  12   6   5   -0.43    1.21
 -12  -6  -5    1.02    1.63
  12   7   5   22.84    3.72
 -12  -7  -5   28.65    4.34
  12   8   5    1.74    1.71
 -12  -8  -5    1.36    1.77
  12   9   5    3.38    1.93
  12  10   5    2.14    1.85
 -12   9  -6    3.17    1.57
 -12   8  -6    1.05    1.24
 -12   7  -6    6.05    1.96
 -12   6  -6   13.23    2.64
 -12   5  -6   26.23    2.81
 -12   5  -6   26.44    3.63
 -12   4  -6   35.02    3.10
 -12   4  -6   38.08    3.81
 -12   3  -6    1.37    1.23
 -12   3  -6   -0.52    1.03
  12  -2   6    0.08    1.15
 -12   2  -6    0.94    1.17
 -12   2  -6    1.61    1.39
  12  -1   6    5.59    2.01
 -12   1  -6    5.40    1.82
 -12   1  -6    6.16    1.89
  12   0   6   19.43    3.31
 -12   0  -6   20.58    3.24
  12   1   6   11.44    2.57
 -12  -1  -6   14.26    2.71
  12   2   6    5.41    2.07
 -12  -2  -6    5.51    1.98
  12   3   6   28.35    3.53
 -12  -3  -6   23.03    3.44
  12   4   6    3.66    1.82
 -12  -4  -6    2.49    1.64
  12   5   6   -0.49    1.23
 -12  -5  -6    0.70    1.58
  12   6   6    0.36    1.30
 -12  -6  -6    0.65    1.47
  12   7   6    2.56    1.80
 -12  -7  -6    4.49    2.11
  12   8   6   -0.54    1.31
 -12  -8  -6    1.05    1.67
  12   9   6    2.56    1.87
 -12  -9  -6    1.77    2.07
  12  10   6    4.50    2.02
 -12   8  -7    2.87    1.51
 -12   7  -7    1.34    1.36
 -12   6  -7    0.13    1.13
 -12   5  -7   24.53    3.52
 -12   4  -7    7.04    1.79
 -12   4  -7    6.10    2.00
 -12   3  -7    2.78    1.41
 -12   3  -7    2.61    1.55
 -12   2  -7    5.78    1.84
 -12   2  -7    5.44    1.95
  12  -1   7    1.96    1.49
 -12   1  -7    1.04    1.28
 -12   1  -7    2.41    1.49
  12   0   7    6.34    2.05
 -12   0  -7    7.66    2.05
  12   1   7  121.35    6.51
 -12  -1  -7  111.85    6.06
  12   2   7    3.77    1.83
 -12  -2  -7    1.87    1.63
  12   3   7    1.50    1.42
 -12  -3  -7    1.71    1.56
  12   4   7   51.36    4.53
 -12  -4  -7   45.41    4.36
  12   5   7    1.75    1.58
 -12  -5  -7    1.33    1.59
  12   6   7    7.48    2.40
 -12  -6  -7    6.08    2.27
  12   7   7    3.25    1.91
 -12  -7  -7    1.64    1.66
  12   8   7    7.02    2.35
 -12  -8  -7    5.41    2.39
  12   9   7   10.76    2.92
 -12  -9  -7   11.00    3.09
  12  10   7   49.77    4.64
  12  11   7   13.97    3.01
 -12   7  -8    0.99    1.29
 -12   6  -8    0.53    1.28
 -12   5  -8   14.83    2.84
 -12   4  -8    0.18    1.22
 -12   3  -8    3.27    1.47
 -12   3  -8    4.00    1.74
 -12   2  -8   21.00    2.99
 -12   2  -8   19.62    3.11
  12  -1   8    1.84    1.65
 -12   1  -8    0.54    1.26
 -12   1  -8    1.49    1.40
  12   0   8    1.63    1.56
 -12   0  -8    1.69    1.51
 -12   0  -8    2.67    1.65
  12   1   8   18.94    3.27
 -12  -1  -8   18.86    3.15
  12   2   8    4.77    2.03
 -12  -2  -8    1.33    1.39
  12   3   8    7.74    2.36
 -12  -3  -8    4.97    2.03
  12   4   8    0.43    1.42
 -12  -4  -8    1.27    1.60
  12   5   8    9.38    2.56
 -12  -5  -8    7.82    2.42
  12   6   8   12.24    2.89
 -12  -6  -8   11.42    2.90
  12   7   8    7.27    2.37
 -12  -7  -8    8.54    2.62
  12   8   8    0.93    1.54
 -12  -8  -8    0.58    1.62
  12   9   8    0.36    1.50
 -12  -9  -8    1.34    1.81
  12  10   8   -0.12    1.45
 -12 -10  -8    0.00    1.77
  12  11   8   17.54    3.33
 -12   7  -9    9.94    2.35
 -12   6  -9    3.11    1.63
 -12   5  -9    5.75    2.09
 -12   4  -9    2.44    1.61
 -12   3  -9   18.21    2.60
 -12   3  -9   18.33    3.23
 -12   2  -9   11.83    2.35
 -12   2  -9   13.62    2.80
 -12   1  -9   17.98    2.91
 -12   1  -9   22.46    3.61
  12   0   9    3.63    1.90
 -12   0  -9    2.58    1.57
 -12   0  -9    1.56    1.48
  12   1   9   -0.18    1.30
 -12  -1  -9    0.87    1.44
  12   2   9    6.01    2.24
 -12  -2  -9    4.70    1.91
  12   3   9   41.11    4.28
 -12  -3  -9   32.73    3.79
  12   4   9   -0.38    1.28
 -12  -4  -9    1.43    1.50
  12   5   9    5.00    2.17
 -12  -5  -9    3.44    2.04
  12   6   9   21.96    3.71
 -12  -6  -9   21.62    3.73
  12   7   9   28.64    4.29
 -12  -7  -9   20.99    3.75
  12   8   9    2.59    2.01
 -12  -8  -9    1.36    1.77
  12   9   9    0.25    1.47
 -12  -9  -9    1.20    1.76
  12  10   9   16.68    3.44
 -12 -10  -9   19.50    3.76
 -12   6 -10    5.04    1.93
 -12   5 -10   10.84    2.56
 -12   4 -10   -1.19    0.98
 -12   3 -10    2.68    1.68
 -12   2 -10    9.33    2.20
 -12   2 -10    7.61    2.24
 -12   1 -10    7.95    2.14
 -12   1 -10    8.10    2.39
  12   0  10   -0.36    1.41
 -12   0 -10   -0.79    1.09
 -12   0 -10   -0.26    1.23
  12   1  10   17.52    3.32
 -12  -1 -10   12.90    2.70
  12   2  10    7.28    2.50
 -12  -2 -10    8.51    2.40
  12   3  10    2.62    1.82
 -12  -3 -10    0.78    1.45
  12   4  10   -0.22    1.38
 -12  -4 -10    0.50    1.43
  12   5  10    0.84    1.52
 -12  -5 -10    2.33    1.80
  12   6  10   10.77    2.86
 -12  -6 -10   12.59    3.02
  12   7  10    0.52    1.65
 -12  -7 -10    0.52    1.62
  12   8  10    9.82    2.80
 -12  -8 -10   11.59    3.18
  12   9  10    1.86    1.88
 -12  -9 -10    0.45    1.77
  12  10  10   50.94    4.90
 -12 -10 -10   49.90    5.31
 -12   4 -11   22.15    3.66
 -12   3 -11    1.59    1.57
 -12   2 -11    0.45    1.21
 -12   2 -11    0.49    1.27
 -12   1 -11    0.16    1.25
 -12   1 -11    1.19    1.53
 -12   0 -11    2.72    1.62
 -12   0 -11    2.81    1.76
  12   1  11    0.30    1.60
 -12  -1 -11    0.18    1.37
  12   2  11   21.87    3.91
 -12  -2 -11   17.44    3.16
  12   3  11    6.27    2.46
 -12  -3 -11    9.73    2.53
  12   4  11    2.63    1.87
 -12  -4 -11    2.08    1.79
  12   5  11    5.99    2.37
 -12  -5 -11    7.66    2.50
  12   6  11   13.12    3.19
 -12  -6 -11   16.09    3.51
  12   7  11   -0.06    1.44
 -12  -7 -11    0.45    1.63
  12   8  11   19.78    3.81
 -12  -8 -11   21.39    3.91
  12   9  11    0.92    1.76
 -12  -9 -11    0.15    1.63
  12  10  11   18.70    3.77
 -12 -10 -11   16.54    3.70
 -12   3 -12    8.85    2.58
 -12   2 -12    0.84    1.48
 -12   1 -12   42.05    3.88
 -12   1 -12   36.73    4.32
 -12   0 -12    1.75    1.48
 -12   0 -12    1.29    1.71
 -12  -1 -12    5.04    2.09
  12   2  12   14.83    3.23
 -12  -2 -12   12.63    2.96
  12   3  12   12.97    3.21
 -12  -3 -12    7.85    2.42
  12   4  12    1.24    1.69
 -12  -4 -12    1.03    1.59
  12   5  12    0.84    1.72
 -12  -5 -12    1.81    1.79
  12   6  12    1.13    1.68
 -12  -6 -12    1.08    1.65
  12   7  12    7.59    2.75
 -12  -7 -12    3.58    2.06
  12   8  12    1.00    1.49
 -12  -8 -12    1.23    1.73
  12   9  12   -0.31    1.42
 -12  -9 -12   -1.00    1.34
 -12   1 -13   24.03    3.35
 -12   1 -13   21.22    3.79
 -12   0 -13    5.05    2.03
 -12  -1 -13    3.19    1.92
  12   2  13   15.03    3.39
 -12  -2 -13   10.35    2.65
  12   3  13   46.04    5.05
 -12  -3 -13   39.99    4.38
  12   4  13   19.99    3.96
 -12  -4 -13   20.34    3.74
  12   5  13    3.00    2.17
 -12  -5 -13    2.94    1.96
  12   6  13    0.93    1.64
 -12  -6 -13    2.17    1.81
  12   7  13    3.24    2.07
 -12  -7 -13    3.69    2.17
  12   8  13    5.49    2.38
 -12  -8 -13    5.71    2.56
 -12  -1 -14    2.57    1.79
 -12  -2 -14   61.96    5.26
  12   3  14   39.60    4.77
 -12  -3 -14   41.37    4.47
  12   4  14   19.79    3.98
 -12  -4 -14   18.20    3.63
  12   5  14    6.33    2.74
 -12  -5 -14    7.07    2.63
  12   6  14   -0.54    1.42
 -12  -6 -14    0.43    1.79
  13  -6  -4   21.62    4.10
 -13   6   4   23.33    3.93
  13  -5  -4    0.23    1.78
 -13   5   4   -0.04    1.63
  13  -4  -4    9.12    2.85
 -13   4   4    9.06    2.83
  13  -3  -4   -0.31    1.50
 -13   3   4    1.08    1.79
  13  -2  -4    0.27    1.71
 -13   2   4   -0.27    1.61
  13  -1  -4    1.38    1.75
 -13   1   4    1.96    1.93
  13   0  -4   25.19    4.35
 -13   0   4   20.91    3.98
 -13   7   3  172.89    8.09
  13  -6  -3   22.26    4.19
 -13   6   3   23.45    3.91
  13  -5  -3   18.60    3.75
 -13   5   3   18.16    3.49
  13  -4  -3   19.30    3.75
 -13   4   3   17.23    3.39
  13  -3  -3    0.74    1.59
 -13   3   3    0.97    1.72
  13  -2  -3   13.40    3.30
 -13   2   3    8.57    2.84
  13  -1  -3    0.32    1.56
 -13   1   3    0.57    1.68
  13   0  -3   15.27    3.36
 -13   0   3   12.81    3.18
  13   1  -3    1.72    1.98
 -13  -1   3    0.62    1.66
  13   2  -3   11.20    3.09
 -13  -2   3    7.30    2.75
 -13   8   2   15.84    3.00
 -13   7   2   24.38    3.69
  13  -6  -2    2.03    1.97
 -13   6   2    1.75    1.70
  13  -5  -2   16.78    3.57
 -13   5   2   16.18    3.22
  13  -4  -2    1.82    1.79
 -13   4   2    1.59    1.69
  13  -3  -2   14.82    3.34
 -13   3   2   20.29    3.61
  13  -2  -2    5.11    2.17
 -13   2   2    8.12    2.73
  13  -1  -2    0.32    1.57
 -13   1   2    1.76    1.81
  13   0  -2   41.02    4.61
 -13   0   2   30.83    4.42
  13   1  -2   -0.05    1.39
 -13  -1   2   -1.04    1.46
  13   2  -2   14.48    3.31
 -13  -2   2   14.46    3.40
  13   3  -2   12.70    3.11
 -13  -3   2   13.06    3.36
  13   4  -2    2.73    2.06
 -13  -4   2    0.75    1.83
 -13   9   1    9.08    2.79
 -13   8   1   13.23    2.64
 -13   8   1   13.93    3.13
 -13   7   1   36.52    3.89
 -13   6   1    8.54    2.48
  13  -5  -1    1.66    1.85
 -13   5   1    0.63    1.58
  13  -4  -1    0.35    1.49
 -13   4   1    0.26    1.42
  13  -3  -1    1.12    1.70
 -13   3   1    0.53    1.56
  13  -2  -1    3.04    2.01
 -13   2   1    3.58    2.06
  13  -1  -1    0.67    1.68
 -13   1   1    2.42    1.86
  13   0  -1    5.58    2.38
 -13   0   1    5.51    2.28
  13   1  -1   20.82    3.85
 -13  -1   1   14.70    3.29
  13   2  -1    4.81    2.27
 -13  -2   1    3.21    2.04
  13   3  -1   28.30    4.36
 -13  -3   1   28.42    4.58
  13   4  -1   28.59    4.31
 -13  -4   1   29.89    4.71
  13   5  -1    8.95    2.73
 -13  -5   1    9.74    3.07
 -13   9   0    4.05    1.99
 -13   8   0    0.62    1.36
 -13   8   0   -0.49    1.32
 -13   7   0    1.34    1.44
 -13   7   0    1.24    1.66
 -13   6   0   49.53    4.27
 -13   6   0   42.24    4.57
  13  -5   0    0.16    1.50
 -13   5   0    0.44    1.37
  13  -4   0   25.18    4.06
 -13   4   0   23.77    3.61
  13  -3   0    4.84    2.11
 -13   3   0    2.58    1.80
  13  -2   0   -1.17    1.14
 -13   2   0    1.68    1.69
  13  -1   0   69.04    5.53
 -13   1   0   66.68    5.32
  13   0   0   69.98    5.60
 -13   0   0   66.20    5.39
  13   1   0    5.17    2.21
 -13  -1   0    3.71    2.01
  13   2   0    0.87    1.54
 -13  -2   0   -0.41    1.53
  13   3   0    4.52    2.09
 -13  -3   0    3.18    2.07
  13   4   0    1.44    1.76
 -13  -4   0    1.99    1.99
  13   5   0    1.60    1.78
 -13  -5   0   -0.98    1.52
  13   6   0   -0.31    1.53
 -13   9  -1    1.85    1.56
 -13   8  -1    9.26    2.63
 -13   7  -1    3.49    1.63
 -13   7  -1    4.19    1.97
 -13   6  -1    3.71    1.74
 -13   6  -1    6.01    2.30
 -13   5  -1    0.57    1.32
 -13   5  -1   -0.25    1.23
  13  -4   1    0.18    1.44
 -13   4  -1   -0.80    1.10
  13  -3   1    7.08    2.52
 -13   3  -1    7.57    2.30
  13  -2   1    2.20    1.80
 -13   2  -1    1.55    1.51
  13  -1   1   10.53    2.74
 -13   1  -1   10.21    2.71
  13   0   1   31.98    4.53
 -13   0  -1   23.97    3.72
  13   1   1    4.89    2.14
 -13  -1  -1    4.75    2.08
  13   2   1   37.41    4.24
 -13  -2  -1   37.59    4.34
  13   3   1    0.60    1.56
 -13  -3  -1    0.02    1.44
  13   4   1   -0.42    1.30
 -13  -4  -1    0.41    1.58
  13   5   1   18.16    3.62
 -13  -5  -1   15.21    3.48
  13   6   1    3.09    1.93
 -13  -6  -1    2.26    2.10
  13   7   1    0.00    1.37
 -13   9  -2    7.71    2.43
 -13   8  -2    3.01    1.77
 -13   7  -2    3.20    1.50
 -13   7  -2    2.33    1.70
 -13   6  -2   25.13    3.07
 -13   6  -2   24.60    3.85
 -13   5  -2   59.55    4.46
 -13   5  -2   55.88    4.90
  13  -4   2   -1.09    1.14
 -13   4  -2    0.77    1.36
 -13   4  -2    0.38    1.44
  13  -3   2    7.43    2.42
 -13   3  -2    5.46    1.97
  13  -2   2    2.21    1.72
 -13   2  -2    1.84    1.66
  13  -1   2   -1.27    1.10
 -13   1  -2   -0.33    1.21
  13   0   2    1.78    1.62
 -13   0  -2    1.54    1.48
  13   1   2    7.45    2.43
 -13  -1  -2    4.15    1.98
  13   2   2   27.93    4.22
 -13  -2  -2   26.07    4.12
  13   3   2   33.04    4.09
 -13  -3  -2   34.64    4.23
  13   4   2    8.63    2.63
 -13  -4  -2   12.08    3.10
  13   5   2    0.87    1.65
 -13  -5  -2    0.53    1.57
  13   6   2   13.39    3.10
 -13  -6  -2   14.06    3.32
  13   7   2    5.53    2.29
 -13  -7  -2    5.27    2.70
 -13   9  -3   10.16    2.54
 -13   8  -3   10.63    2.73
 -13   7  -3    8.99    2.54
 -13   6  -3   31.08    3.18
 -13   6  -3   29.79    4.16
 -13   5  -3    1.53    1.37
 -13   5  -3   -0.50    1.18
 -13   4  -3    0.99    1.38
 -13   4  -3    2.32    1.67
  13  -3   3   14.38    3.06
 -13   3  -3   12.11    2.58
  13  -2   3    8.03    2.39
 -13   2  -3    9.52    2.45
  13  -1   3    0.33    1.38
 -13   1  -3   -1.23    1.02
  13   0   3   17.28    3.24
 -13   0  -3   17.06    3.21
  13   1   3    1.96    1.58
 -13  -1  -3    2.03    1.64
  13   2   3   -0.26    1.30
 -13  -2  -3    0.00    1.33
  13   3   3   -0.85    1.25
 -13  -3  -3   -0.15    1.39
  13   4   3    0.25    1.41
 -13  -4  -3    0.33    1.55
  13   5   3   -1.05    1.29
 -13  -5  -3   -0.49    1.48
  13   6   3    2.31    1.80
 -13  -6  -3    3.21    2.10
  13   7   3    0.07    1.42
 -13  -7  -3    1.31    1.92
  13   8   3   -1.09    1.37
 -13   8  -4   18.98    3.27
 -13   7  -4    6.68    2.20
 -13   6  -4  126.65    5.93
 -13   6  -4  120.33    6.66
 -13   5  -4    1.79    1.36
 -13   5  -4    0.53    1.28
 -13   4  -4   -0.31    1.08
 -13   4  -4    1.12    1.46
  13  -3   4   14.76    3.03
 -13   3  -4   10.93    2.42
 -13   3  -4   11.21    2.70
  13  -2   4    1.46    1.56
 -13   2  -4   -0.90    1.00
  13  -1   4   11.17    2.78
 -13   1  -4   13.42    2.84
  13   0   4   13.41    3.00
 -13   0  -4    8.47    2.43
  13   1   4    2.63    1.71
 -13  -1  -4    0.33    1.36
  13   2   4    0.29    1.33
 -13  -2  -4    0.52    1.39
  13   3   4    2.01    1.69
 -13  -3  -4    0.98    1.53
  13   4   4    2.72    1.75
 -13  -4  -4    0.29    1.47
  13   5   4   21.05    3.73
 -13  -5  -4   17.53    3.52
  13   6   4   -1.07    1.35
 -13  -6  -4   -0.73    1.41
  13   7   4   14.10    3.19
 -13  -7  -4    8.31    2.78
  13   8   4    1.76    1.77
 -13  -8  -4    1.77    2.04
 -13   8  -5   10.33    2.53
 -13   7  -5    0.80    1.38
 -13   6  -5   24.62    3.77
 -13   5  -5    2.88    1.43
 -13   5  -5    0.93    1.40
 -13   4  -5   77.86    4.73
 -13   4  -5   72.50    5.30
 -13   3  -5   14.95    2.64
 -13   3  -5   14.90    2.94
  13  -2   5   19.13    3.43
 -13   2  -5   13.94    2.67
  13  -1   5    0.02    1.25
 -13   1  -5   -0.47    1.09
  13   0   5   17.20    3.18
 -13   0  -5   19.23    3.24
  13   1   5    5.76    2.20
 -13  -1  -5    4.36    1.95
  13   2   5    0.02    1.23
 -13  -2  -5    0.24    1.35
  13   3   5    2.24    1.71
 -13  -3  -5    1.53    1.66
  13   4   5   17.01    3.29
 -13  -4  -5   14.98    3.10
  13   5   5    1.65    1.70
 -13  -5  -5    1.46    1.71
  13   6   5    2.00    1.72
 -13  -6  -5    1.51    1.71
  13   7   5    1.13    1.64
 -13  -7  -5    1.76    1.83
  13   8   5   -0.75    1.35
 -13  -8  -5   -0.53    1.71
  13   9   5   11.17    2.85
 -13   8  -6   21.12    3.38
 -13   7  -6   77.32    5.38
 -13   6  -6   -0.75    1.14
 -13   5  -6    0.83    1.28
 -13   4  -6    0.91    1.15
 -13   4  -6    0.62    1.37
 -13   3  -6    0.84    1.23
 -13   3  -6    1.11    1.31
  13  -2   6   -0.09    1.13
 -13   2  -6    0.59    1.30
 -13   2  -6   -1.18    1.08
  13  -1   6   -0.51    1.19
 -13   1  -6    0.41    1.31
  13   0   6    0.46    1.27
 -13   0  -6    0.02    1.19
  13   1   6   15.81    3.16
 -13  -1  -6   19.70    3.29
  13   2   6   23.16    3.87
 -13  -2  -6   17.42    3.21
  13   3   6   -1.13    1.16
 -13  -3  -6   -0.88    1.22
  13   4   6    7.85    2.55
 -13  -4  -6   10.26    2.65
  13   5   6    0.13    1.51
 -13  -5  -6   -1.01    1.21
  13   6   6   37.67    4.24
 -13  -6  -6   40.49    4.55
  13   7   6    0.68    1.68
 -13  -7  -6    0.82    1.71
  13   8   6    4.06    2.08
 -13  -8  -6    2.58    2.03
  13   9   6    0.57    1.58
 -13  -9  -6    0.02    1.76
 -13   7  -7    2.01    1.53
 -13   6  -7    7.00    2.28
 -13   5  -7    2.39    1.70
 -13   4  -7    6.71    1.88
 -13   4  -7    4.04    1.88
 -13   3  -7   12.08    2.37
 -13   3  -7    7.97    2.24
 -13   2  -7    0.00    1.06
 -13   2  -7    0.98    1.46
  13  -1   7    0.39    1.42
 -13   1  -7    0.84    1.28
  13   0   7    0.55    1.36
 -13   0  -7    1.83    1.50
  13   1   7   24.76    3.83
 -13  -1  -7   23.08    3.56
  13   2   7    0.07    1.29
 -13  -2  -7    1.32    1.58
  13   3   7   -0.16    1.19
 -13  -3  -7   -0.01    1.39
  13   4   7    8.38    2.51
 -13  -4  -7    7.82    2.47
  13   5   7    1.21    1.55
 -13  -5  -7    0.25    1.48
  13   6   7   14.12    3.24
 -13  -6  -7    7.96    2.57
  13   7   7    0.70    1.74
 -13  -7  -7    2.03    1.91
  13   8   7    1.22    1.68
 -13  -8  -7    2.17    1.97
  13   9   7   17.92    3.61
 -13  -9  -7   15.75    3.80
 -13   6  -8    0.92    1.34
 -13   5  -8    6.67    2.27
 -13   4  -8    2.34    1.61
 -13   3  -8   -0.16    1.09
 -13   3  -8    2.05    1.63
 -13   2  -8    0.95    1.29
 -13   2  -8   -0.67    1.27
 -13   1  -8    0.81    1.44
 -13   1  -8    1.81    1.74
  13   0   8    0.01    1.46
 -13   0  -8    0.76    1.37
  13   1   8   16.95    3.52
 -13  -1  -8   15.66    3.00
  13   2   8   -0.67    1.23
 -13  -2  -8   -0.03    1.33
  13   3   8    1.48    1.53
 -13  -3  -8    0.36    1.46
  13   4   8    4.55    2.06
 -13  -4  -8    1.10    1.63
  13   5   8    4.73    2.14
 -13  -5  -8    5.86    2.28
  13   6   8    2.33    1.89
 -13  -6  -8   -1.06    1.46
  13   7   8    5.51    2.35
 -13  -7  -8    5.57    2.51
  13   8   8    3.88    2.30
 -13  -8  -8    1.83    1.91
  13   9   8   10.68    2.90
 -13  -9  -8    6.93    2.80
 -13   5  -9    5.68    2.23
 -13   4  -9    0.06    1.28
 -13   3  -9    1.60    1.29
 -13   3  -9   -0.48    1.13
 -13   2  -9   18.11    2.91
 -13   2  -9   21.90    3.72
 -13   1  -9    1.77    1.58
 -13   1  -9    1.99    1.71
  13   0   9   -0.09    1.47
 -13   0  -9   -0.13    1.27
  13   1   9   28.53    4.33
 -13  -1  -9   25.32    3.76
  13   2   9   20.69    3.78
 -13  -2  -9   17.66    3.31
  13   3   9   17.50    3.43
 -13  -3  -9   19.46    3.52
  13   4   9   53.11    4.99
 -13  -4  -9   46.58    4.73
  13   5   9    5.36    2.31
 -13  -5  -9    3.22    2.01
  13   6   9    2.65    1.92
 -13  -6  -9    3.89    2.11
  13   7   9    6.36    2.51
 -13  -7  -9    8.52    2.77
  13   8   9    0.31    1.56
 -13  -8  -9   -0.18    1.59
  13   9   9   28.59    4.43
 -13  -9  -9   28.23    4.64
 -13   4 -10    0.63    1.30
 -13   3 -10    1.35    1.67
 -13   2 -10   18.06    2.93
 -13   2 -10   16.77    3.27
 -13   1 -10    2.26    1.64
 -13   1 -10    2.87    1.91
 -13   0 -10    1.71    1.53
  13   1  10   -0.90    1.36
 -13  -1 -10    0.34    1.42
  13   2  10   16.64    3.34
 -13  -2 -10   13.41    3.02
  13   3  10   41.35    4.60
 -13  -3 -10   40.84    4.36
  13   4  10    3.29    1.94
 -13  -4 -10    3.58    2.05
  13   5  10    1.70    1.70
 -13  -5 -10   -0.20    1.47
  13   6  10   -0.09    1.50
 -13  -6 -10    0.29    1.52
  13   7  10    6.96    2.68
 -13  -7 -10    4.69    2.37
  13   8  10    0.18    1.82
 -13  -8 -10    2.06    2.18
  13   9  10    0.78    1.57
 -13  -9 -10   -1.09    1.61
 -13   3 -11    1.01    1.60
 -13   2 -11   -0.42    1.18
 -13   2 -11    0.00    1.39
 -13   1 -11    9.09    2.44
 -13   1 -11    8.92    2.59
 -13   0 -11    3.96    1.94
  13   1  11    0.82    1.72
 -13  -1 -11    0.91    1.50
  13   2  11    7.13    2.63
 -13  -2 -11    4.90    2.11
  13   3  11    6.90    2.66
 -13  -3 -11    4.29    2.14
  13   4  11    0.95    1.79
 -13  -4 -11    1.03    1.66
  13   5  11   -0.03    1.52
 -13  -5 -11    0.73    1.69
  13   6  11    1.36    1.77
 -13  -6 -11    0.62    1.68
  13   7  11    3.32    2.10
 -13  -7 -11    4.93    2.35
  13   8  11    5.19    2.30
 -13  -8 -11    4.27    2.34
 -13   1 -12   10.94    2.52
 -13   1 -12    9.06    2.69
 -13   0 -12    2.27    1.67
 -13  -1 -12    6.36    2.22
  13   2  12   28.69    4.69
 -13  -2 -12   25.93    4.01
  13   3  12    0.08    1.52
 -13  -3 -12   -0.44    1.39
  13   4  12    4.59    2.35
 -13  -4 -12    6.31    2.44
  13   5  12   -0.20    1.46
 -13  -5 -12   -0.27    1.37
  13   6  12   -0.82    1.45
 -13  -6 -12    1.47    1.79
  13   7  12    1.94    1.96
 -13  -7 -12   -0.30    1.64
 -13  -1 -13   -0.48    1.34
  13   2  13    9.87    3.02
 -13  -2 -13    8.83    2.63
  13   3  13    3.60    2.40
 -13  -3 -13    4.95    2.21
  13   4  13    0.55    1.75
 -13  -4 -13    2.57    2.02
  13   5  13    0.98    1.89
 -13  -5 -13    0.85    1.72
  13   6  13    3.04    2.08
 -13  -6 -13    4.83    2.32
  14  -5  -2   30.69    4.94
 -14   5   2   29.34    4.40
  14  -4  -2   22.98    4.18
 -14   4   2   26.67    4.30
  14  -3  -2    3.83    2.21
 -14   3   2    3.34    2.19
  14  -2  -2    2.24    2.09
 -14   2   2    2.36    2.04
  14  -1  -2    5.24    2.34
 -14   1   2    3.90    2.24
  14   0  -2   18.90    3.89
 -14   0   2   16.34    3.65
 -14   6   1   88.53    5.96
  14  -5  -1    5.43    2.53
 -14   5   1    3.59    2.14
  14  -4  -1   47.07    5.03
 -14   4   1   47.68    4.87
  14  -3  -1   95.66    6.82
 -14   3   1   87.89    6.27
  14  -2  -1    2.33    2.05
 -14   2   1    3.00    2.07
  14  -1  -1    0.39    1.57
 -14   1   1    1.92    1.86
  14   0  -1    6.45    2.58
 -14   0   1    4.36    2.22
  14   1  -1   -0.40    1.55
 -14  -1   1   -0.79    1.48
  14   2  -1    2.75    2.16
 -14  -2   1    1.91    2.04
 -14   7   0   44.97    4.17
 -14   6   0   17.51    3.20
 -14   5   0  122.31    6.81
  14  -4   0   81.45    6.38
 -14   4   0   98.76    6.37
  14  -3   0   20.54    3.97
 -14   3   0   21.01    3.69
  14  -2   0   46.93    4.96
 -14   2   0   46.50    4.84
  14  -1   0   -0.19    1.52
 -14   1   0    1.64    1.72
  14   0   0    6.58    2.56
 -14   0   0   11.55    2.97
  14   1   0    2.28    2.02
 -14  -1   0    1.61    1.88
  14   2   0   30.97    4.65
 -14  -2   0   31.60    4.63
  14   3   0    1.05    1.73
 -14  -3   0    1.03    1.90
 -14   7  -1   17.70    2.93
 -14   7  -1   19.19    3.45
 -14   6  -1   28.89    3.88
 -14   5  -1    3.29    1.81
  14  -4   1   -1.21    1.43
 -14   4  -1    0.82    1.59
  14  -3   1    0.47    1.67
 -14   3  -1   -0.27    1.35
  14  -2   1    4.98    2.32
 -14   2  -1    5.11    2.29
  14  -1   1    0.79    1.65
 -14   1  -1    1.31    1.76
  14   0   1    3.32    2.08
 -14   0  -1    2.57    1.83
  14   1   1    1.33    1.79
 -14  -1  -1    1.09    1.71
  14   2   1   40.48    4.64
 -14  -2  -1   39.68    4.71
  14   3   1   13.17    3.24
 -14  -3  -1   14.03    3.48
  14   4   1    0.02    1.54
 -14  -4  -1    0.79    1.74
  14   5   1    5.56    2.49
 -14  -5  -1    7.38    2.85
 -14   7  -2    6.91    2.49
 -14   6  -2    0.08    1.27
 -14   6  -2    0.53    1.58
 -14   5  -2    2.21    1.63
  14  -4   2   -0.14    1.66
 -14   4  -2    0.94    1.55
  14  -3   2   -0.52    1.50
 -14   3  -2   -0.94    1.36
  14  -2   2   16.25    3.54
 -14   2  -2   15.05    3.14
  14  -1   2    1.22    1.74
 -14   1  -2    0.77    1.65
  14   0   2    6.42    2.57
 -14   0  -2    3.57    2.10
  14   1   2   -0.20    1.55
 -14  -1  -2    1.48    1.78
  14   2   2    0.27    1.59
 -14  -2  -2   -0.15    1.48
  14   3   2   12.52    3.06
 -14  -3  -2   11.55    3.10
  14   4   2   33.28    4.77
 -14  -4  -2   31.80    4.68
  14   5   2    7.13    2.66
 -14  -5  -2    6.10    2.63
 -14   7  -3    4.64    2.17
 -14   6  -3    1.49    1.47
 -14   6  -3    0.89    1.55
 -14   5  -3    3.82    1.89
 -14   5  -3    3.54    1.92
 -14   4  -3   34.52    3.78
  14  -3   3    3.33    1.91
 -14   3  -3    5.18    2.10
  14  -2   3   34.07    4.17
 -14   2  -3   28.30    3.97
  14  -1   3   -0.86    1.21
 -14   1  -3    1.19    1.54
  14   0   3    0.31    1.58
 -14   0  -3   -0.35    1.51
  14   1   3   10.64    2.87
 -14  -1  -3    6.35    2.46
  14   2   3   40.33    4.53
 -14  -2  -3   36.91    4.36
  14   3   3    2.26    1.87
 -14  -3  -3    2.82    2.04
  14   4   3    1.12    1.65
 -14  -4  -3    0.45    1.64
  14   5   3    1.10    1.71
 -14  -5  -3    3.70    2.37
  14   6   3   -0.43    1.49
 -14  -6  -3   -1.60    1.52
 -14   7  -4    1.12    1.56
 -14   6  -4   -0.22    1.27
 -14   5  -4   39.22    3.76
 -14   5  -4   30.04    4.34
 -14   4  -4    0.24    1.29
 -14   4  -4   -0.52    1.40
 -14   3  -4    4.26    1.85
  14  -2   4   18.50    3.66
 -14   2  -4   17.59    3.21
  14  -1   4    0.07    1.45
 -14   1  -4    2.21    1.75
  14   0   4    0.58    1.55
 -14   0  -4    1.43    1.69
  14   1   4   41.87    4.56
 -14  -1  -4   47.30    4.68
  14   2   4    5.43    2.33
 -14  -2  -4    3.71    2.06
  14   3   4    5.58    2.31
 -14  -3  -4    8.23    2.67
  14   4   4    4.93    2.22
 -14  -4  -4    7.38    2.64
  14   5   4    8.50    2.68
 -14  -5  -4    6.34    2.45
  14   6   4    6.66    2.53
 -14  -6  -4    4.21    2.35
  14   7   4    1.16    1.64
 -14  -7  -4    0.83    1.89
 -14   7  -5   14.11    3.05
 -14   6  -5   -0.05    1.41
 -14   5  -5    9.98    2.20
 -14   5  -5    9.17    2.67
 -14   4  -5   33.25    3.63
 -14   4  -5   35.94    4.29
 -14   3  -5   68.76    4.95
  14  -2   5   -0.34    1.33
 -14   2  -5    1.27    1.53
  14  -1   5   12.64    3.09
 -14   1  -5   11.76    2.79
  14   0   5   25.64    4.26
 -14   0  -5   19.19    3.35
  14   1   5   26.88    4.20
 -14  -1  -5   23.48    3.91
  14   2   5   21.88    3.88
 -14  -2  -5   22.73    3.82
  14   3   5    1.87    1.84
 -14  -3  -5   -0.17    1.50
  14   4   5    0.53    1.59
 -14  -4  -5    0.63    1.61
  14   5   5   16.02    3.54
 -14  -5  -5   17.66    3.72
  14   6   5    1.17    1.75
 -14  -6  -5    1.73    1.90
  14   7   5    3.90    2.21
 -14  -7  -5    1.23    1.90
 -14   6  -6    0.00    1.44
 -14   5  -6    8.28    2.51
 -14   4  -6    5.99    1.96
 -14   4  -6    5.23    2.24
 -14   3  -6   19.17    3.18
 -14   3  -6   19.92    3.63
 -14   2  -6    4.74    1.94
  14  -1   6    9.58    2.75
 -14   1  -6    7.41    2.35
  14   0   6    8.51    2.60
 -14   0  -6    8.35    2.43
  14   1   6   18.64    3.63
 -14  -1  -6   19.46    3.54
  14   2   6    1.83    1.66
 -14  -2  -6    1.60    1.78
  14   3   6    2.95    1.94
 -14  -3  -6    1.73    1.72
  14   4   6    1.19    1.66
 -14  -4  -6    1.48    1.77
  14   5   6    8.90    2.72
 -14  -5  -6    7.22    2.66
  14   6   6    1.21    1.84
 -14  -6  -6    2.78    1.99
  14   7   6   -0.29    1.55
 -14  -7  -6    0.80    1.83
 -14   6  -7    5.19    2.19
 -14   5  -7   26.27    4.05
 -14   4  -7   26.15    3.10
 -14   4  -7   27.55    4.01
 -14   3  -7    1.60    1.48
 -14   3  -7    2.31    1.98
 -14   2  -7    2.90    1.72
  14  -1   7    2.43    1.85
 -14   1  -7    3.49    1.86
  14   0   7    5.65    2.29
 -14   0  -7    4.19    2.00
  14   1   7   43.86    4.68
 -14  -1  -7   36.72    4.27
  14   2   7   14.64    3.26
 -14  -2  -7   14.71    3.10
  14   3   7    3.06    2.03
 -14  -3  -7    2.48    1.90
  14   4   7    0.58    1.54
 -14  -4  -7   -0.88    1.35
  14   5   7   -0.22    1.54
 -14  -5  -7   -0.67    1.41
  14   6   7   -0.38    1.64
 -14  -6  -7   -0.05    1.65
  14   7   7    3.54    2.08
 -14  -7  -7    1.54    1.92
  14   8   7   -0.88    1.59
 -14  -8  -7    0.58    1.78
 -14   5  -8    1.44    1.65
 -14   4  -8    5.29    2.30
 -14   3  -8    0.57    1.34
 -14   3  -8   -0.40    1.45
 -14   2  -8    2.24    1.62
 -14   1  -8    6.74    2.15
  14   0   8   13.35    3.19
 -14   0  -8    9.16    2.56
  14   1   8    5.38    2.36
 -14  -1  -8    8.99    2.54
  14   2   8   -0.24    1.51
 -14  -2  -8   -0.42    1.34
  14   3   8    6.71    2.57
 -14  -3  -8    7.06    2.44
  14   4   8   -1.31    1.22
 -14  -4  -8   -0.59    1.54
  14   5   8   -0.37    1.45
 -14  -5  -8    0.82    1.75
  14   6   8   11.36    3.27
 -14  -6  -8    8.68    2.99
  14   7   8    8.50    2.82
 -14  -7  -8    4.03    2.33
  14   8   8    9.82    2.84
 -14  -8  -8    3.69    2.25
 -14   4  -9    1.08    1.61
 -14   3  -9    9.59    2.28
 -14   3  -9   10.74    2.78
 -14   2  -9    0.54    1.35
 -14   2  -9   -1.97    1.24
 -14   1  -9    1.52    1.53
  14   0   9    9.39    2.90
 -14   0  -9    8.22    2.50
  14   1   9   -0.88    1.41
 -14  -1  -9    0.74    1.58
  14   2   9   -0.40    1.51
 -14  -2  -9    0.35    1.51
  14   3   9   44.67    4.93
 -14  -3  -9   52.01    5.07
  14   4   9    4.97    2.37
 -14  -4  -9    5.22    2.33
  14   5   9    7.60    2.63
 -14  -5  -9    8.84    2.76
  14   6   9    0.85    1.57
 -14  -6  -9    0.23    1.63
  14   7   9    6.14    2.58
 -14  -7  -9    3.43    2.24
 -14   3 -10    0.24    1.43
 -14   2 -10    2.66    1.62
 -14   2 -10    0.67    1.61
 -14   1 -10    3.84    1.90
 -14   0 -10    7.81    2.44
  14   1  10    5.11    2.48
 -14  -1 -10    2.80    1.91
  14   2  10    0.74    1.67
 -14  -2 -10    1.33    1.59
  14   3  10   51.78    5.24
 -14  -3 -10   54.03    5.15
  14   4  10   13.15    3.39
 -14  -4 -10   17.05    3.52
  14   5  10    1.57    1.86
 -14  -5 -10    2.35    1.94
  14   6  10   19.82    3.93
 -14  -6 -10   12.73    3.39
  14   7  10   -0.19    1.75
 -14  -7 -10   -0.68    1.56
 -14   1 -11   10.86    2.59
 -14   0 -11    5.93    2.27
  14   1  11   12.52    3.28
 -14  -1 -11   13.53    2.96
  14   2  11   -0.68    1.49
 -14  -2 -11    2.11    1.92
  14   3  11    4.41    2.28
 -14  -3 -11    3.42    2.02
  14   4  11    9.62    3.01
 -14  -4 -11   13.10    3.20
  14   5  11   23.36    4.24
 -14  -5 -11   22.37    4.04
  14   6  11    4.22    2.37
 -14  -6 -11    3.14    2.28
 -14  -1 -12   -0.67    1.39
  14   2  12    3.17    2.19
 -14  -2 -12    4.90    2.23
  14   3  12    4.50    2.38
 -14  -3 -12    8.91    2.82
  14   4  12    2.22    2.15
 -14  -4 -12    1.45    1.83
  15  -2   0    0.29    1.74
 -15   2   0   -0.04    1.63
  15  -1   0    6.75    2.84
 -15   1   0    2.70    2.06
  15  -4   1   23.20    4.23
 -15   4  -1   26.46    4.17
  15  -3   1  111.65    7.46
 -15   3  -1  128.65    7.47
  15  -2   1   26.36    4.46
 -15   2  -1   20.93    3.78
  15  -1   1    2.73    2.01
 -15   1  -1    4.38    2.23
  15   0   1   50.45    5.47
 -15   0  -1   60.14    5.58
  15   1   1   -0.46    1.72
 -15  -1  -1   -0.24    1.50
 -15   5  -2    2.22    1.82
 -15   4  -2  106.10    6.53
  15  -3   2    0.95    1.72
 -15   3  -2    0.49    1.62
  15  -2   2   13.39    3.44
 -15   2  -2   13.62    3.23
  15  -1   2   66.34    5.86
 -15   1  -2   62.21    5.47
  15   0   2   14.21    3.42
 -15   0  -2   13.88    3.36
  15   1   2    4.97    2.49
 -15  -1  -2    2.75    2.12
  15   2   2    0.19    1.59
 -15  -2  -2    0.30    1.81
  15   3   2   18.67    3.82
 -15  -3  -2   15.35    3.56
 -15   5  -3    0.79    1.45
 -15   4  -3   -0.18    1.36
  15  -3   3   33.59    4.93
 -15   3  -3   38.00    4.29
  15  -2   3   11.89    3.16
 -15   2  -3   10.12    2.72
  15  -1   3    5.94    2.46
 -15   1  -3    6.02    2.46
  15   0   3    6.69    2.59
 -15   0  -3    9.64    2.84
  15   1   3   29.91    4.56
 -15  -1  -3   32.80    4.78
  15   2   3    0.68    1.76
 -15  -2  -3    0.29    1.64
  15   3   3    0.11    1.60
 -15  -3  -3    0.85    1.86
  15   4   3   19.89    4.11
 -15  -4  -3   13.93    3.40
 -15   5  -4    5.29    1.98
 -15   4  -4   31.85    3.84
 -15   3  -4   -1.34    1.25
  15  -2   4   -0.14    1.44
 -15   2  -4    1.13    1.58
  15  -1   4   15.43    3.55
 -15   1  -4   13.63    3.15
  15   0   4    5.93    2.58
 -15   0  -4    3.98    2.12
  15   1   4    7.13    2.54
 -15  -1  -4    8.32    2.78
  15   2   4    2.11    2.08
 -15  -2  -4    4.48    2.25
  15   3   4    0.60    1.70
 -15  -3  -4    0.81    1.86
  15   4   4   15.26    3.61
 -15  -4  -4   12.98    3.36
 -15   5  -5    3.33    1.75
 -15   4  -5    4.33    1.98
 -15   3  -5    3.38    1.95
  15  -2   5    0.10    1.64
 -15   2  -5    1.19    1.59
  15  -1   5    1.00    1.72
 -15   1  -5    1.56    1.73
  15   0   5   18.77    3.88
 -15   0  -5   14.11    3.09
  15   1   5   18.44    3.73
 -15  -1  -5   17.32    3.42
  15   2   5   -0.75    1.51
 -15  -2  -5    1.24    1.88
  15   3   5    0.30    1.54
 -15  -3  -5    0.20    1.61
  15   4   5   31.64    4.89
 -15  -4  -5   21.31    4.02
  15   5   5   50.96    5.31
 -15  -5  -5   39.01    5.42
 -15   4  -6    2.26    1.65
 -15   4  -6    4.44    2.34
 -15   3  -6    3.26    1.86
 -15   2  -6   11.02    2.71
  15  -1   6    5.33    2.37
 -15   1  -6    3.86    2.07
  15   0   6    6.46    2.62
  15   1   6    0.89    1.74
 -15  -1  -6   -0.47    1.31
  15   2   6    2.46    1.97
 -15  -2  -6    0.97    1.63
  15   3   6   -0.99    1.44
 -15  -3  -6    0.30    1.56
  15   4   6   21.82    4.17
 -15  -4  -6   18.20    3.75
  15   5   6    0.49    1.72
 -15  -5  -6    0.17    1.85
 -15   3  -7   27.35    3.81
 -15   2  -7   -0.11    1.48
  15  -1   7    1.61    1.87
 -15   1  -7    0.45    1.39
  15   0   7   14.63    3.52
 -15   0  -7   12.40    3.01
  15   1   7   10.75    2.97
 -15  -1  -7   15.19    3.28
  15   2   7    3.01    2.01
 -15  -2  -7    3.59    2.08
  15   3   7   55.49    5.41
 -15  -3  -7   51.84    5.17
  15   4   7   18.57    3.86
 -15  -4  -7   28.82    4.56
  15   5   7   -0.97    1.53
 -15  -5  -7    1.19    1.94
 -15   3  -8    0.92    1.47
 -15   2  -8   28.88    4.01
 -15   1  -8   -0.27    1.33
  15   0   8   -0.14    1.60
 -15   0  -8    0.48    1.55
  15   1   8    0.63    1.69
 -15  -1  -8    2.37    1.90
  15   2   8   -0.51    1.42
 -15  -2  -8    2.71    2.00
  15   3   8    2.93    2.24
 -15  -3  -8    2.39    1.97
  15   4   8    1.15    1.92
 -15  -4  -8   -0.67    1.60
  15   5   8    0.04    1.65
 -15  -5  -8    0.11    1.66
 -15   1  -9    2.19    1.86
  15   0   9    0.38    1.73
 -15   0  -9    0.56    1.59
  15   1   9    0.38    1.79
 -15  -1  -9    0.85    1.62
  15   2   9    4.14    2.23
 -15  -2  -9    1.65    1.89
  15   3   9   14.88    3.67
 -15  -3  -9    8.54    2.80
  15   4   9    0.85    1.77
 -15  -4  -9    1.63    1.95
  15   5   9    4.75    2.39
 -15  -5  -9    2.86    2.23
  15   1  10    2.33    2.01
 -15  -1 -10    0.57    1.63
  15   2  10    3.67    2.23
 -15  -2 -10    2.51    2.03
  15   3  10   27.78    4.76
 -15  -3 -10   22.92    4.10
   0   0   0    0.00    0.00
;
_shelx_hkl_checksum              92777
_olex2_submission_original_sample_id n3672
_olex2_submission_special_instructions 'No special instructions were received'
#END Tags that were not found in dictionaries
loop_
_space_group_symop_operation_xyz
'x, y, z'
'-x, -y, -z'
loop_
_atom_site_label
_atom_site_type_symbol
_atom_site_fract_x
_atom_site_fract_y
_atom_site_fract_z
_atom_site_U_iso_or_equiv
_atom_site_adp_type
_atom_site_occupancy
_atom_site_site_symmetry_order
_atom_site_calc_flag
_atom_site_refinement_flags_posn
F1 F 0.36306(9) 1.23983(8) 0.30005(12) 0.0445(3) Uani 1 1 d .
F2 F 0.23518(10) 1.10728(9) 0.28960(11) 0.0403(3) Uani 1 1 d .
F3 F 0.22807(9) 1.10857(9) 0.47637(9) 0.0343(2) Uani 1 1 d .
F4 F 0.76906(8) 1.11260(7) 0.06462(8) 0.02446(19) Uani 1 1 d .
F5 F 0.83781(8) 1.06366(8) 0.22876(8) 0.0258(2) Uani 1 1 d .
F6 F 0.81932(8) 0.92718(7) 0.14417(9) 0.0264(2) Uani 1 1 d .
O1 O 0.60739(9) 0.60625(8) 0.51083(9) 0.0187(2) Uani 1 1 d .
O2 O 0.78278(9) 0.11289(8) 0.79798(10) 0.0209(2) Uani 1 1 d .
O3 O 0.85942(9) 0.31392(8) 0.67782(9) 0.0188(2) Uani 1 1 d .
O4 O -0.22316(9) 0.42394(9) 0.92706(10) 0.0191(2) Uani 1 1 d .
O5 O -0.23999(9) 0.36201(9) 1.13982(9) 0.0202(2) Uani 1 1 d .
N1 N 0.42403(11) 0.70724(10) 0.55460(11) 0.0161(2) Uani 1 1 d .
H1 H 0.3467(17) 0.6956(16) 0.6005(17) 0.028(5) Uiso 1 1 d .
N2 N 0.42849(10) 0.51435(9) 0.69706(11) 0.0139(2) Uani 1 1 d .
H2 H 0.3574(17) 0.5313(16) 0.7440(17) 0.029(5) Uiso 1 1 d .
C1 C 0.46612(12) 0.82444(11) 0.45583(12) 0.0139(2) Uani 1 1 d .
C2 C 0.37492(12) 0.91172(11) 0.45310(13) 0.0153(2) Uani 1 1 d .
H2A H 0.2887 0.8888 0.5154 0.018 Uiso 1 1 calc R
C3 C 0.41032(12) 1.03111(11) 0.35990(13) 0.0153(2) Uani 1 1 d .
C4 C 0.53529(13) 1.06816(11) 0.26816(13) 0.0164(3) Uani 1 1 d .
H4 H 0.5593 1.1506 0.2053 0.020 Uiso 1 1 calc R
C5 C 0.62436(12) 0.98097(11) 0.27114(12) 0.0141(2) Uani 1 1 d .
C6 C 0.59181(12) 0.85992(11) 0.36284(13) 0.0148(2) Uani 1 1 d .
H6 H 0.6546 0.8020 0.3621 0.018 Uiso 1 1 calc R
C7 C 0.30971(13) 1.12100(12) 0.35689(14) 0.0190(3) Uani 1 1 d .
C8 C 0.76142(13) 1.02044(12) 0.17766(13) 0.0174(3) Uani 1 1 d .
C9 C 0.49704(12) 0.60877(11) 0.58095(12) 0.0137(2) Uani 1 1 d .
C10 C 0.46638(12) 0.39724(11) 0.75390(12) 0.0121(2) Uani 1 1 d .
C11 C 0.59552(12) 0.37025(11) 0.71592(12) 0.0130(2) Uani 1 1 d .
H11 H 0.6606 0.4294 0.6428 0.016 Uiso 1 1 calc R
C12 C 0.62903(12) 0.25678(11) 0.78499(12) 0.0135(2) Uani 1 1 d .
C13 C 0.53526(12) 0.16920(11) 0.89282(13) 0.0163(3) Uani 1 1 d .
H13 H 0.5591 0.0927 0.9408 0.020 Uiso 1 1 calc R
C14 C 0.40706(12) 0.19496(11) 0.92919(13) 0.0156(2) Uani 1 1 d .
H14 H 0.3430 0.1353 1.0029 0.019 Uiso 1 1 calc R
C15 C 0.36929(12) 0.30667(11) 0.86011(12) 0.0127(2) Uani 1 1 d .
C16 C 0.76877(12) 0.23359(11) 0.74609(13) 0.0145(2) Uani 1 1 d .
C17 C 0.91631(13) 0.08371(14) 0.77310(17) 0.0266(3) Uani 1 1 d .
H17A H 0.9587 0.0996 0.6789 0.040 Uiso 1 1 calc GR
H17B H 0.9168 -0.0043 0.8235 0.040 Uiso 1 1 calc GR
H17C H 0.9639 0.1360 0.8000 0.040 Uiso 1 1 calc GR
C18 C 0.22914(12) 0.32656(11) 0.90004(12) 0.0126(2) Uani 1 1 d .
C19 C 0.15781(12) 0.30433(11) 1.03246(12) 0.0145(2) Uani 1 1 d .
H19 H 0.2000 0.2775 1.0961 0.017 Uiso 1 1 calc R
C20 C 0.02669(12) 0.32083(11) 1.07193(13) 0.0146(2) Uani 1 1 d .
H20 H -0.0206 0.3059 1.1621 0.018 Uiso 1 1 calc R
C21 C -0.03581(12) 0.35924(11) 0.97945(13) 0.0136(2) Uani 1 1 d .
C22 C 0.03308(12) 0.37916(11) 0.84719(13) 0.0144(2) Uani 1 1 d .
H22 H -0.0102 0.4034 0.7843 0.017 Uiso 1 1 calc R
C23 C 0.16465(12) 0.36347(11) 0.80780(12) 0.0140(2) Uani 1 1 d .
H23 H 0.2115 0.3778 0.7177 0.017 Uiso 1 1 calc R
C24 C -0.17544(12) 0.38044(11) 1.02593(13) 0.0151(2) Uani 1 1 d .
C25 C -0.35750(13) 0.44947(14) 0.96498(15) 0.0224(3) Uani 1 1 d .
H25A H -0.3796 0.4921 0.8859 0.034 Uiso 1 1 calc GR
H25B H -0.3695 0.5027 1.0179 0.034 Uiso 1 1 calc GR
H25C H -0.4147 0.3709 1.0170 0.034 Uiso 1 1 calc GR
N3 N 0.87886(16) 0.31233(16) 0.39433(15) 0.0466(4) Uani 1 1 d .
C26 C 0.97414(16) 0.34032(15) 0.40459(15) 0.0300(3) Uani 1 1 d .
C27 C 1.09527(14) 0.37973(14) 0.41552(17) 0.0291(3) Uani 1 1 d .
H27A H 1.1697 0.3708 0.3445 0.044 Uiso 1 1 calc GR
H27B H 1.1009 0.3278 0.5008 0.044 Uiso 1 1 calc GR
H27C H 1.0967 0.4672 0.4087 0.044 Uiso 1 1 calc GR
loop_
_atom_site_aniso_label
_atom_site_aniso_U_11
_atom_site_aniso_U_22
_atom_site_aniso_U_33
_atom_site_aniso_U_23
_atom_site_aniso_U_13
_atom_site_aniso_U_12
F1 0.0280(5) 0.0142(4) 0.0733(8) -0.0066(4) -0.0039(5) 0.0064(4)
F2 0.0499(6) 0.0449(6) 0.0543(7) -0.0296(5) -0.0418(6) 0.0307(5)
F3 0.0333(5) 0.0401(5) 0.0244(5) -0.0095(4) -0.0057(4) 0.0234(4)
F4 0.0225(4) 0.0233(4) 0.0168(4) 0.0012(3) -0.0018(3) -0.0003(3)
F5 0.0183(4) 0.0297(4) 0.0278(5) -0.0087(4) -0.0073(4) -0.0050(3)
F6 0.0172(4) 0.0187(4) 0.0349(5) -0.0105(4) 0.0028(4) 0.0016(3)
O1 0.0145(4) 0.0165(4) 0.0173(5) -0.0025(4) 0.0007(4) 0.0039(3)
O2 0.0120(4) 0.0174(4) 0.0305(6) -0.0062(4) -0.0062(4) 0.0060(3)
O3 0.0125(4) 0.0206(5) 0.0213(5) -0.0072(4) -0.0034(4) 0.0012(3)
O4 0.0108(4) 0.0284(5) 0.0224(5) -0.0137(4) -0.0062(4) 0.0066(4)
O5 0.0151(5) 0.0228(5) 0.0188(5) -0.0080(4) -0.0002(4) 0.0039(4)
N1 0.0106(5) 0.0137(5) 0.0165(5) -0.0008(4) 0.0000(4) 0.0028(4)
N2 0.0107(5) 0.0129(5) 0.0139(5) -0.0031(4) -0.0008(4) 0.0033(4)
C1 0.0144(6) 0.0128(5) 0.0133(6) -0.0031(4) -0.0049(5) 0.0022(4)
C2 0.0132(6) 0.0156(6) 0.0151(6) -0.0042(5) -0.0037(5) 0.0018(4)
C3 0.0159(6) 0.0142(6) 0.0167(6) -0.0055(5) -0.0067(5) 0.0046(4)
C4 0.0188(6) 0.0126(5) 0.0159(6) -0.0032(5) -0.0054(5) 0.0014(5)
C5 0.0140(6) 0.0132(5) 0.0139(6) -0.0039(4) -0.0043(5) 0.0003(4)
C6 0.0135(6) 0.0138(5) 0.0159(6) -0.0043(5) -0.0047(5) 0.0019(4)
C7 0.0200(7) 0.0161(6) 0.0198(7) -0.0048(5) -0.0071(5) 0.0046(5)
C8 0.0170(6) 0.0142(6) 0.0185(6) -0.0039(5) -0.0047(5) 0.0006(5)
C9 0.0144(6) 0.0115(5) 0.0143(6) -0.0035(4) -0.0049(5) 0.0008(4)
C10 0.0121(5) 0.0118(5) 0.0126(6) -0.0046(4) -0.0045(5) 0.0017(4)
C11 0.0106(5) 0.0139(5) 0.0138(6) -0.0046(4) -0.0033(5) 0.0005(4)
C12 0.0116(5) 0.0138(5) 0.0159(6) -0.0057(5) -0.0054(5) 0.0021(4)
C13 0.0145(6) 0.0128(5) 0.0197(6) -0.0029(5) -0.0064(5) 0.0025(4)
C14 0.0122(6) 0.0144(6) 0.0163(6) -0.0022(5) -0.0034(5) 0.0004(4)
C15 0.0103(5) 0.0135(5) 0.0138(6) -0.0051(4) -0.0033(5) 0.0011(4)
C16 0.0135(6) 0.0166(6) 0.0151(6) -0.0073(5) -0.0052(5) 0.0029(4)
C17 0.0137(6) 0.0246(7) 0.0386(9) -0.0084(6) -0.0084(6) 0.0087(5)
C18 0.0109(5) 0.0106(5) 0.0153(6) -0.0041(4) -0.0035(5) 0.0008(4)
C19 0.0131(6) 0.0146(5) 0.0140(6) -0.0028(4) -0.0049(5) 0.0012(4)
C20 0.0132(6) 0.0146(5) 0.0131(6) -0.0045(5) -0.0014(5) -0.0001(4)
C21 0.0116(5) 0.0119(5) 0.0170(6) -0.0060(5) -0.0035(5) 0.0008(4)
C22 0.0126(6) 0.0154(5) 0.0160(6) -0.0062(5) -0.0054(5) 0.0017(4)
C23 0.0124(6) 0.0148(5) 0.0135(6) -0.0053(5) -0.0024(5) 0.0006(4)
C24 0.0123(6) 0.0134(5) 0.0196(6) -0.0073(5) -0.0040(5) 0.0009(4)
C25 0.0117(6) 0.0298(7) 0.0318(8) -0.0177(6) -0.0085(6) 0.0081(5)
N3 0.0445(10) 0.0631(11) 0.0247(8) -0.0128(7) -0.0045(7) -0.0209(8)
C26 0.0316(8) 0.0307(8) 0.0192(7) -0.0085(6) 0.0021(6) -0.0077(6)
C27 0.0174(7) 0.0225(7) 0.0379(9) -0.0063(6) -0.0022(6) 0.0026(5)
loop_
_atom_type_symbol
_atom_type_description
_atom_type_scat_dispersion_real
_atom_type_scat_dispersion_imag
_atom_type_scat_source
C C 0.0033 0.0016 'International Tables Vol C Tables 4.2.6.8 and 6.1.1.4'
H H 0.0000 0.0000 'International Tables Vol C Tables 4.2.6.8 and 6.1.1.4'
F F 0.0171 0.0103 'International Tables Vol C Tables 4.2.6.8 and 6.1.1.4'
N N 0.0061 0.0033 'International Tables Vol C Tables 4.2.6.8 and 6.1.1.4'
O O 0.0106 0.0060 'International Tables Vol C Tables 4.2.6.8 and 6.1.1.4'
loop_
_geom_angle_atom_site_label_1
_geom_angle_atom_site_label_2
_geom_angle_atom_site_label_3
_geom_angle
C16 O2 C17 115.42(10)
C24 O4 C25 115.37(10)
C1 N1 H1 115.6(12)
C9 N1 H1 117.1(12)
C9 N1 C1 127.36(11)
C9 N2 H2 116.1(12)
C9 N2 C10 128.18(11)
C10 N2 H2 115.4(12)
N1 C1 C2 116.76(11)
N1 C1 C6 124.33(11)
C6 C1 C2 118.90(11)
C1 C2 H2A 119.9
C3 C2 C1 120.18(12)
C3 C2 H2A 119.9
C2 C3 C4 121.54(11)
C2 C3 C7 118.94(12)
C4 C3 C7 119.50(11)
C3 C4 H4 121.1
C3 C4 C5 117.81(11)
C5 C4 H4 121.1
C4 C5 C6 122.16(12)
C4 C5 C8 118.78(11)
C6 C5 C8 118.97(11)
C1 C6 H6 120.3
C5 C6 C1 119.40(11)
C5 C6 H6 120.3
F1 C7 C3 112.52(11)
F2 C7 F1 105.96(11)
F2 C7 C3 112.41(11)
F3 C7 F1 106.40(11)
F3 C7 F2 106.04(11)
F3 C7 C3 112.96(11)
F4 C8 C5 112.50(11)
F5 C8 F4 106.13(10)
F5 C8 F6 106.12(10)
F5 C8 C5 111.94(11)
F6 C8 F4 106.65(11)
F6 C8 C5 113.00(10)
O1 C9 N1 124.35(11)
O1 C9 N2 124.63(11)
N2 C9 N1 111.02(11)
N2 C10 C15 117.49(10)
C11 C10 N2 122.87(11)
C11 C10 C15 119.50(11)
C10 C11 H11 120.0
C12 C11 C10 120.07(11)
C12 C11 H11 120.0
C11 C12 C13 120.83(11)
C11 C12 C16 118.66(11)
C13 C12 C16 120.42(11)
C12 C13 H13 120.4
C14 C13 C12 119.15(11)
C14 C13 H13 120.4
C13 C14 H14 119.2
C13 C14 C15 121.57(12)
C15 C14 H14 119.2
C10 C15 C18 122.13(10)
C14 C15 C10 118.78(11)
C14 C15 C18 119.09(11)
O2 C16 C12 111.93(10)
O3 C16 O2 123.67(11)
O3 C16 C12 124.38(11)
O2 C17 H17A 109.5
O2 C17 H17B 109.5
O2 C17 H17C 109.5
H17A C17 H17B 109.5
H17A C17 H17C 109.5
H17B C17 H17C 109.5
C19 C18 C15 119.97(11)
C19 C18 C23 118.78(11)
C23 C18 C15 121.21(11)
C18 C19 H19 119.6
C20 C19 C18 120.86(12)
C20 C19 H19 119.6
C19 C20 H20 120.1
C19 C20 C21 119.89(12)
C21 C20 H20 120.1
C20 C21 C22 120.07(11)
C20 C21 C24 117.85(11)
C22 C21 C24 122.06(11)
C21 C22 H22 120.1
C23 C22 C21 119.89(12)
C23 C22 H22 120.1
C18 C23 H23 119.8
C22 C23 C18 120.48(12)
C22 C23 H23 119.8
O4 C24 C21 112.50(11)
O5 C24 O4 123.03(12)
O5 C24 C21 124.47(12)
O4 C25 H25A 109.5
O4 C25 H25B 109.5
O4 C25 H25C 109.5
H25A C25 H25B 109.5
H25A C25 H25C 109.5
H25B C25 H25C 109.5
N3 C26 C27 178.33(19)
C26 C27 H27A 109.5
C26 C27 H27B 109.5
C26 C27 H27C 109.5
H27A C27 H27B 109.5
H27A C27 H27C 109.5
H27B C27 H27C 109.5
loop_
_geom_bond_atom_site_label_1
_geom_bond_atom_site_label_2
_geom_bond_distance
F1 C7 1.3369(16)
F2 C7 1.3315(16)
F3 C7 1.3311(16)
F4 C8 1.3452(15)
F5 C8 1.3434(15)
F6 C8 1.3431(15)
O1 C9 1.2167(15)
O2 C16 1.3390(15)
O2 C17 1.4471(16)
O3 C16 1.2089(15)
O4 C24 1.3423(16)
O4 C25 1.4425(15)
O5 C24 1.2117(15)
N1 H1 0.819(18)
N1 C1 1.3940(16)
N1 C9 1.3820(16)
N2 H2 0.852(18)
N2 C9 1.3769(16)
N2 C10 1.4046(15)
C1 C2 1.4046(17)
C1 C6 1.3945(17)
C2 H2A 0.9500
C2 C3 1.3847(17)
C3 C4 1.3847(18)
C3 C7 1.4989(17)
C4 H4 0.9500
C4 C5 1.3875(17)
C5 C6 1.3920(17)
C5 C8 1.4920(18)
C6 H6 0.9500
C10 C11 1.3961(16)
C10 C15 1.4166(17)
C11 H11 0.9500
C11 C12 1.3916(17)
C12 C13 1.3920(17)
C12 C16 1.4892(17)
C13 H13 0.9500
C13 C14 1.3815(17)
C14 H14 0.9500
C14 C15 1.3980(17)
C15 C18 1.4837(16)
C17 H17A 0.9800
C17 H17B 0.9800
C17 H17C 0.9800
C18 C19 1.3982(17)
C18 C23 1.4027(17)
C19 H19 0.9500
C19 C20 1.3830(17)
C20 H20 0.9500
C20 C21 1.3896(17)
C21 C22 1.3967(18)
C21 C24 1.4867(17)
C22 H22 0.9500
C22 C23 1.3853(17)
C23 H23 0.9500
C25 H25A 0.9800
C25 H25B 0.9800
C25 H25C 0.9800
N3 C26 1.142(2)
C26 C27 1.455(2)
C27 H27A 0.9800
C27 H27B 0.9800
C27 H27C 0.9800
loop_
_geom_hbond_atom_site_label_D
_geom_hbond_atom_site_label_H
_geom_hbond_atom_site_label_A
_geom_hbond_distance_DH
_geom_hbond_distance_HA
_geom_hbond_distance_DA
_geom_hbond_angle_DHA
C6 H6 O1 0.95 2.25 2.8660(15) 121.5
C11 H11 O1 0.95 2.28 2.8943(15) 121.4
loop_
_geom_torsion_atom_site_label_1
_geom_torsion_atom_site_label_2
_geom_torsion_atom_site_label_3
_geom_torsion_atom_site_label_4
_geom_torsion
N1 C1 C2 C3 178.45(12)
N1 C1 C6 C5 -177.92(12)
N2 C10 C11 C12 173.45(11)
N2 C10 C15 C14 -172.18(11)
N2 C10 C15 C18 7.92(18)
C1 N1 C9 O1 -8.5(2)
C1 N1 C9 N2 171.32(12)
C1 C2 C3 C4 -0.4(2)
C1 C2 C3 C7 178.19(12)
C2 C1 C6 C5 0.92(19)
C2 C3 C4 C5 0.87(19)
C2 C3 C7 F1 156.98(13)
C2 C3 C7 F2 -83.48(16)
C2 C3 C7 F3 36.48(17)
C3 C4 C5 C6 -0.41(19)
C3 C4 C5 C8 -177.01(12)
C4 C3 C7 F1 -24.35(18)
C4 C3 C7 F2 95.18(15)
C4 C3 C7 F3 -144.86(13)
C4 C5 C6 C1 -0.49(19)
C4 C5 C8 F4 -29.77(17)
C4 C5 C8 F5 89.64(14)
C4 C5 C8 F6 -150.61(12)
C6 C1 C2 C3 -0.47(19)
C6 C5 C8 F4 153.52(11)
C6 C5 C8 F5 -87.07(14)
C6 C5 C8 F6 32.67(17)
C7 C3 C4 C5 -177.75(12)
C8 C5 C6 C1 176.11(12)
C9 N1 C1 C2 -176.74(12)
C9 N1 C1 C6 2.1(2)
C9 N2 C10 C11 16.5(2)
C9 N2 C10 C15 -167.81(12)
C10 N2 C9 O1 -3.5(2)
C10 N2 C9 N1 176.67(12)
C10 C11 C12 C13 -0.40(19)
C10 C11 C12 C16 -176.97(11)
C10 C15 C18 C19 -130.95(13)
C10 C15 C18 C23 51.26(17)
C11 C10 C15 C14 3.69(18)
C11 C10 C15 C18 -176.21(11)
C11 C12 C13 C14 1.44(19)
C11 C12 C16 O2 -165.17(11)
C11 C12 C16 O3 16.09(19)
C12 C13 C14 C15 0.2(2)
C13 C12 C16 O2 18.25(17)
C13 C12 C16 O3 -160.50(13)
C13 C14 C15 C10 -2.71(19)
C13 C14 C15 C18 177.20(12)
C14 C15 C18 C19 49.15(17)
C14 C15 C18 C23 -128.64(13)
C15 C10 C11 C12 -2.19(18)
C15 C18 C19 C20 -179.20(11)
C15 C18 C23 C22 178.67(11)
C16 C12 C13 C14 177.95(12)
C17 O2 C16 O3 3.23(19)
C17 O2 C16 C12 -175.53(11)
C18 C19 C20 C21 0.41(18)
C19 C18 C23 C22 0.85(18)
C19 C20 C21 C22 1.06(18)
C19 C20 C21 C24 -177.66(11)
C20 C21 C22 C23 -1.56(18)
C20 C21 C24 O4 176.47(10)
C20 C21 C24 O5 -2.92(18)
C21 C22 C23 C18 0.59(18)
C22 C21 C24 O4 -2.23(16)
C22 C21 C24 O5 178.38(12)
C23 C18 C19 C20 -1.36(18)
C24 C21 C22 C23 177.10(11)
C25 O4 C24 O5 0.85(17)
C25 O4 C24 C21 -178.55(10)
