#------------------------------------------------------------------------------
#$Date: 2016-03-22 22:13:18 +0200 (Tue, 22 Mar 2016) $
#$Revision: 179035 $
#$URL: svn://www.crystallography.net/cod/cif/4/12/33/4123396.cif $
#------------------------------------------------------------------------------
#
# This file is available in the Crystallography Open Database (COD),
# http://www.crystallography.net/
#
# All data on this site have been placed in the public domain by the
# contributors.
#
data_4123396
loop_
_publ_author_name
'Gan, Quan'
'Ronson, Tanya K.'
'Vosburg, David A.'
'Thoburn, John D.'
'Nitschke, Jonathan R.'
_publ_section_title
;
 Cooperative loading and release behavior of a metal-organic receptor.
;
_journal_issue                   5
_journal_name_full               'Journal of the American Chemical Society'
_journal_page_first              1770
_journal_page_last               1773
_journal_paper_doi               10.1021/ja5120437
_journal_volume                  137
_journal_year                    2015
_chemical_formula_moiety
'C172 H114 Cd4 Co2 N16 O10, 4(C2 F6 N O4 S2), 2(C6 H6), 4(C2 H3 N)'
_chemical_formula_sum            'C200 H138 Cd4 Co2 F24 N24 O26 S8'
_chemical_formula_weight         4573.28
_chemical_name_systematic
;
 ?
;
_space_group_crystal_system      triclinic
_space_group_IT_number           2
_space_group_name_Hall           '-P 1'
_space_group_name_H-M_alt        'P -1'
_symmetry_space_group_name_Hall  '-P 1'
_symmetry_space_group_name_H-M   'P -1'
_atom_sites_solution_hydrogens   mixed
_audit_creation_method           SHELXL-2013
_cell_angle_alpha                111.383(5)
_cell_angle_beta                 102.126(5)
_cell_angle_gamma                100.709(5)
_cell_formula_units_Z            1
_cell_length_a                   11.8627(11)
_cell_length_b                   21.3198(18)
_cell_length_c                   22.347(2)
_cell_measurement_reflns_used    4561
_cell_measurement_temperature    100(2)
_cell_measurement_theta_max      48.452
_cell_measurement_theta_min      4.461
_cell_volume                     4926.9(8)
_computing_cell_refinement
;
CrystalClear-SM Expert 2.0 r5 (Rigaku, 2010)
;
_computing_data_collection
;
CrystalClear-SM Expert 2.0 r5 (Rigaku, 2010)
;
_computing_data_reduction
;
Bruker Apex II; SAINT
;
_computing_structure_refinement  'SHELXL-2013 (Sheldrick, 2013)'
_computing_structure_solution    'SUPERFLIP (Palatinus & Chapuis, 2007)'
_diffrn_ambient_temperature      100(2)
_diffrn_measured_fraction_theta_full 0.782
_diffrn_measured_fraction_theta_max 0.783
_diffrn_measurement_device_type
'Rigaku Saturn 724+ detector on Crystal Logic diffractometer'
_diffrn_measurement_method       '\w  scans'
_diffrn_radiation_monochromator  'silicon double crystal'
_diffrn_radiation_source         'Diamond beamline I19'
_diffrn_radiation_wavelength     0.6889
_diffrn_reflns_av_unetI/netI     0.0824
_diffrn_reflns_Laue_measured_fraction_full 0.782
_diffrn_reflns_Laue_measured_fraction_max 0.783
_diffrn_reflns_limit_h_max       11
_diffrn_reflns_limit_h_min       -12
_diffrn_reflns_limit_k_max       20
_diffrn_reflns_limit_k_min       -22
_diffrn_reflns_limit_l_max       22
_diffrn_reflns_limit_l_min       0
_diffrn_reflns_number            8056
_diffrn_reflns_point_group_measured_fraction_full 0.782
_diffrn_reflns_point_group_measured_fraction_max 0.783
_diffrn_reflns_theta_full        21.260
_diffrn_reflns_theta_max         21.258
_diffrn_reflns_theta_min         0.995
_exptl_absorpt_coefficient_mu    0.716
_exptl_absorpt_correction_T_max  0.744989
_exptl_absorpt_correction_T_min  0.552992
_exptl_absorpt_correction_type   multi-scan
_exptl_absorpt_process_details   TWINABS
_exptl_crystal_colour            yellow
_exptl_crystal_density_diffrn    1.541
_exptl_crystal_description       block
_exptl_crystal_F_000             2304
_exptl_crystal_size_max          0.010
_exptl_crystal_size_mid          0.010
_exptl_crystal_size_min          0.010
_refine_diff_density_max         0.958
_refine_diff_density_min         -0.981
_refine_diff_density_rms         0.221
_refine_ls_extinction_method     none
_refine_ls_goodness_of_fit_ref   1.351
_refine_ls_hydrogen_treatment    constr
_refine_ls_matrix_type           full
_refine_ls_number_parameters     1390
_refine_ls_number_reflns         8056
_refine_ls_number_restraints     3145
_refine_ls_restrained_S_all      1.147
_refine_ls_R_factor_all          0.1302
_refine_ls_R_factor_gt           0.1066
_refine_ls_shift/su_max          0.000
_refine_ls_shift/su_mean         0.000
_refine_ls_structure_factor_coef Fsqd
_refine_ls_weighting_details
;
 w=1/[\s^2^(Fo^2^)+(0.2000P)^2^]
 where P=(Fo^2^+2Fc^2^)/3
;
_refine_ls_weighting_scheme      calc
_refine_ls_wR_factor_gt          0.2842
_refine_ls_wR_factor_ref         0.3094
_reflns_Friedel_coverage         0.000
_reflns_number_gt                6494
_reflns_number_total             8056
_reflns_threshold_expression     'I > 2\s(I)'
_cod_data_source_file            ja5120437_si_005.cif
_cod_data_source_block           qfg
_cod_depositor_comments
'Adding full bibliography for 4123396--4123399.cif.'
_cod_database_code               4123396
#BEGIN Tags that were not found in dictionaries:
_shelx_space_group_comment
;
The symmetry employed for this shelxl refinement is uniquely defined
by the following loop, which should always be used as a source of
symmetry information in preference to the above space-group names.
They are only intended as comments.
;
_shelx_estimated_absorpt_t_min   0.993
_shelx_estimated_absorpt_t_max   0.993
_shelxl_version_number           2013-2
_shelx_res_file
;
TITL QFG in P-1
CELL  0.68890  11.8627  21.3198  22.3468  111.383  102.126  100.709
ZERR     1.00   0.0011   0.0018   0.0020    0.005    0.005    0.005
LATT   1
SFAC  C    H    N    O    F    S    CO   CD
DISP $C  0.00341  0.00169 11.495
DISP $O  0.01140  0.00623 32.4821
DISP $N  0.00664  0.00342 19.5902
DISP $H -0.00002  0.00000 0.623989
DISP $S  0.12652  0.12558 531.672
DISP $F  0.01796  0.01064 51.4704
DISP $Cd  -0.8469 1.1419  4695.72
DISP $Co   0.3480  0.9239 3659.81
UNIT  200  138  24   26   24   8    2    4
MERG   0
OMIT     2   3   3
OMIT     8 -22   1
OMIT     8 -18   2
OMIT     1  -6   3
OMIT    -1  -6   3
OMIT     1  -6   2
DFIX  1.646 0.013 S1 N200
DFIX  1.828 0.010 S1 C1A
DFIX  1.429 0.013 S1 O1
DFIX  1.429 0.013 S1 O2
DFIX  1.321 0.020 C1a F1a
DFIX  1.321 0.020 C1a F2a
DFIX  1.321 0.020 C1a F3a
DFIX  1.646 0.013 N200 S2
DFIX  1.429 0.013 S2 o4
DFIX  1.429 0.013 S2 o3
DFIX  1.828 0.010 S2 C2a
DFIX  1.321 0.020 C2a F4a
DFIX  1.321 0.020 C2a F5a
DFIX  1.321 0.020 C2a F6a
DANG   2.493 O2   O1
DANG   2.596 O2   C1a
DANG   2.483 O2   N200
DANG   2.596 O1   C1a
DANG   2.483 O1   N200
DANG   2.850 C1a   N200
DANG   2.607 S1   F1a
DANG   2.607 S1   F2a
DANG   2.607 S1   F3a
DANG   2.140 F1a   F2a
DANG   2.140 F1a   F3a
DANG   2.139 F2a   f3a
DANG   2.926 S1   S2   s1' s2'
DANG   2.480 N200   o3
DANG   2.480 N200   o4
DANG   2.866 N200   C2a
DANG   2.490 o3  o4
DANG   2.595 o3  C2a
DANG   2.595 o4  C2a
DANG   2.607 S2   F4a
DANG   2.608 S2   F5a
DANG   2.608 S2   F6a
DANG   2.139 F4a  F5a
DANG   2.139 F4a  F6a
DANG   2.140 F5a  F6a
DFIX  1.646 0.02 S1' N202
DFIX  1.828 0.02 S1' C1A'
DFIX  1.429 0.02 S1' O1'
DFIX  1.429 0.02 S1' O2'
DFIX  1.321 0.020 C1a' F1a'
DFIX  1.321 0.020 C1a' F2a'
DFIX  1.321 0.020 C1a' F3a'
DFIX  1.646 0.02 N202 S2'
DFIX  1.429 0.02 S2' o4'
DFIX  1.429 0.02 S2' o3'
DFIX  1.828 0.02 S2' C2a'
DFIX  1.321 0.020 C2a' F4a'
DFIX  1.321 0.020 C2a' F5a'
DFIX  1.321 0.020 C2a' F6a'
DANG   2.493 O2'   O1'
DANG   2.596 O2'   C1a'
DANG   2.483 O2'   N202
DANG   2.596 O1'   C1a'
DANG   2.483 O1'   N202
DANG   2.850 C1a'   N202
DANG   2.607 S1'   F1a'
DANG   2.607 S1'  F2a'
DANG   2.607 S1'   F3a'
DANG   2.140 F1a'  F2a'
DANG   2.140 F1a'   F3a'
DANG   2.139 F2a'   f3a'
DANG   2.480 N202   o3'
DANG   2.480 N202   o4'
DANG   2.866 N202   C2a'
DANG   2.490 o3'  o4'
DANG   2.595 o3'  C2a'
DANG   2.595 o4'  C2a'
DANG   2.607 S2'   F4a'
DANG   2.608 S2'   F5a'
DANG   2.608 S2'   F6a'
DANG   2.139 F4a'  F5a'
DANG   2.139 F4a' F6a'
DANG   2.140 F5a'  F6a'
DFIX  1.646 0.013 S3 N201
DFIX  1.828 0.010 S3 C3A
DFIX  1.429 0.013 S3 O5
DFIX  1.429 0.013 S3 O6
DFIX  1.321 0.020 C3a F1b
DFIX  1.321 0.020 C3a F2b
DFIX  1.321 0.020 C3a F3b
DANG   2.493 O5   O6
DANG   2.596 O5   C3a
DANG   2.483 O5   N201
DANG   2.596 O6   C3a
DANG   2.483 O6   N201
DANG   2.850 C3a   N201
DANG   2.607 S3   F1b
DANG   2.607 S3   F2b
DANG   2.607 S3   F3b
DANG   2.140 F1b   F2b
DANG   2.140 F1b   F3b
DANG   2.139 F2b   f3b
dFIX  1.646 0.013 S5 N102
DFIX  1.828 0.010 S5 C5a
DFIX  1.429 0.013 S5 O9
DFIX  1.429 0.013 S5 O10
DFIX  1.321 0.020 C5a F1c
DFIX  1.321 0.020 C5a F2c
DFIX  1.646 0.013 N102 S6
DFIX  1.429 0.013 S6 O12
DFIX  1.429 0.013 S6 O11
DANG   2.493 O10   O9
DANG   2.596 O10   C5a
DANG   2.483 O10   N102
DANG   2.596 O9   C5a
DANG   2.483 O9   N102
DANG   2.850 C5a   N102
DANG   2.607 S5   F1c
DANG   2.607 S5   F2c
DANG   2.140 F1c   F2c
DANG   2.926 S5   S6
DANG   2.480 N102   O11
DANG   2.480 N102   O12
DANG   2.490 O11  O12
DANG   2.607 S6   F4c
DFIX  1.345 0.005 N1   C2
DFIX  1.346 0.005 N1   C6
DFIX  1.381 0.005 C2   C3
DFIX  1.375 0.005 C3   C4
DFIX  1.382 0.005 C4   C5
DFIX  1.391 0.005 C5   C6
DANG  2.301 0.005 C2   C6
DANG  2.403  0.005 N1   C3
DANG  2.363 0.005 C2   C4
DANG  2.382 0.005 C3   C5
DANG  2.388 0.005 C4   C6
DANG  2.395 0.005 N1   C5
DFIX  1.345 0.005 N8   C72
DFIX  1.346 0.005 N8   C76
DFIX  1.381 0.005 C72   C73
DFIX  1.375 0.005 C73   C74
DFIX  1.382 0.005 C74   C75
DFIX  1.391 0.005 C75   C76
DANG  2.301 0.005 C72   C76
DANG  2.403  0.005 N8   C73
DANG  2.363 0.005 C72   C74
DANG  2.382 0.005 C73   C75
DANG  2.388 0.005 C74   C76
DANG  2.395 0.005 N8   C75
DFIX  1.345 0.005 N4   C34
DFIX  1.346 0.005 N4   C38
DFIX  1.381 0.005 C34   C35
DFIX  1.375 0.005 C35   C36
DFIX  1.382 0.005 C36   C37
DFIX  1.391 0.005 C37   C38
DANG  2.301 0.005 C34   C38
DANG  2.403  0.005 N4   C35
DANG  2.363 0.005 C34   C36
DANG  2.382 0.005 C35   C37
DANG  2.388 0.005 C36   C38
DANG  2.395 0.005 N4   C37
simu 0.003 0.006   n4 n4' c36 c36' c35 c35' c34 c34' c37 c37' c38 c38'
delu 0.003 0.006   n4 n4' c36 c36' c35 c35' c34 c34' c37 c37' c38 c38'
DFIX  1.345 0.01 N4'   C34'
DFIX  1.346 0.01 N4'   C38'
DFIX  1.381 0.01 C34'   C35'
DFIX  1.375 0.01 C35'   C36'
DFIX  1.382 0.01 C36'   C37'
DFIX  1.391 0.01 C37'   C38'
DANG  2.301 0.01 C34'   C38'
DANG  2.403  0.01 N4'   C35'
DANG  2.363 0.01 C34'   C36'
DANG  2.382 0.01 C35'   C37'
DANG  2.388 0.01 C36'   C38'
DANG  2.395 0.01 N4'   C37'
DFIX  1.345 0.005 N5   C39
DFIX  1.346 0.005 N5   C43
DFIX  1.381 0.005 C39   C40
DFIX  1.375 0.005 C40   C41
DFIX  1.382 0.005 C41   C42
DFIX  1.391 0.005 C42   C43
DANG  2.301 0.005 C39   C43
DANG  2.403  0.005 N5   C40
DANG  2.363 0.005 C39   C41
DANG  2.382 0.005 C40   C42
DANG  2.388 0.005 C41   C43
dfix 1.390   c59 c60' c60' c61' c61' c62 c62 c63' c63' c64'  c64' c59
dfix 1.390  c51 c56' c56' c55' c55' c54 c54 c53' c53' c52' c52' c51
dfix 1.390  c21 c26' c26' c25' c25' c24 c24 c23' c23' c22' c22' c21
dfix 1.390   c13 c14' c14' c15' c15' c16 c16 c17' c17' c18' c18' c13
DANG  2.395 0.005 N5   C42
dfix 1.47 c1 c6 c24 c27 c49 c51 c58 c59
simu 0.01 $N $C $O $F
delu 0.01  $N $C $O $F
rigu $N $C $O $F
simu 0.01 $S
delu 0.01 $S
isor 0.02 c25  c5   c103
isor 0.01 n7
isor 0.01 c23  c60   c87  c53   c52   c19
dfix 1.15 n1s c1s n2s c3s
dfix 1.47 c1s c2s c3s c4s
shel 99 0.95
simu 0.003 0.006 s1 > C1a
FMAP   2
PLAN   10
SIZE     0.010   0.010   0.010
ACTA    42.52
BOND   $H
CONF
L.S.  50
TEMP  -173.00
WGHT    0.200000
BASF   0.45154
FVAR       0.27391   0.48900   0.48762   0.43935   0.49212   0.46637   0.55510
FVAR       0.66895   0.54634   0.59945
CO1   7    1.177288    0.002882    0.378520    11.00000    0.01724    0.03256 =
         0.02831    0.01551    0.00942    0.01097
CD1   8    0.415823    0.199858    0.277489    11.00000    0.02174    0.03471 =
         0.04957    0.02459    0.00808    0.00979
CD2   8    0.218905   -0.190533    0.115685    11.00000    0.02301    0.03336 =
         0.03117    0.01062    0.00535    0.00803
N1    3    0.160706   -0.240540   -0.002553    11.00000    0.03471    0.05448 =
         0.03957    0.01665    0.00458    0.01165
N2    3    0.332827   -0.272914    0.078523    11.00000    0.02036    0.04324 =
         0.03010    0.01292    0.01252    0.01435
N3    3    0.605926    0.286118    0.307139    11.00000    0.02131    0.03442 =
         0.04795    0.02438    0.01642    0.01462
N5    3    1.984409    0.194402    0.890336    11.00000    0.03007    0.06361 =
         0.05200    0.02973    0.01820    0.02369
N6    3    1.846914    0.252173    0.821839    11.00000    0.02274    0.03714 =
         0.03898    0.02153    0.01018    0.00885
N7    3    1.585308   -0.259332    0.608637    11.00000    0.03576    0.03674 =
         0.05009    0.03628    0.01483    0.01282
N8    3    1.780774   -0.201810    0.720049    11.00000    0.02669    0.05456 =
         0.06482    0.04038    0.01600    0.01591
C2    1    0.083813   -0.223277   -0.043098    11.00000    0.04421    0.05630 =
         0.04651    0.01862   -0.00044    0.01364
AFIX  43
H2    2    0.052000   -0.185965   -0.022693    11.00000   -1.20000
AFIX   0
C3    1    0.048438   -0.256605   -0.112612    11.00000    0.05558    0.06459 =
         0.04594    0.01963   -0.00059    0.01231
AFIX  43
H3    2   -0.004627   -0.241911   -0.139324    11.00000   -1.20000
AFIX   0
C4    1    0.092255   -0.311691   -0.142056    11.00000    0.05943    0.06703 =
         0.03940    0.01853   -0.00079    0.01449
AFIX  43
H4    2    0.063763   -0.338790   -0.189506    11.00000   -1.20000
AFIX   0
C5    1    0.178189   -0.327296   -0.101971    11.00000    0.05385    0.06185 =
         0.03613    0.01652    0.00120    0.01270
AFIX  43
H5    2    0.216376   -0.361435   -0.121760    11.00000   -1.20000
AFIX   0
C6    1    0.207841   -0.292209   -0.032201    11.00000    0.03845    0.05499 =
         0.03633    0.01800    0.00504    0.01209
C1    1    0.294565   -0.308693    0.014873    11.00000    0.03120    0.04980 =
         0.03054    0.01152    0.00890    0.01328
AFIX  43
H1    2    0.322743   -0.348197   -0.003844    11.00000   -1.20000
AFIX  66
C7    1    0.417938   -0.290411    0.117882    11.00000    0.02240    0.03813 =
         0.03119    0.01288    0.01106    0.00906
C8    1    0.402035   -0.359709    0.109433    11.00000    0.02741    0.03749 =
         0.03282    0.01319    0.00803    0.00735
AFIX  43
H8    2    0.330979   -0.395198    0.078050    11.00000   -1.20000
AFIX  65
C9    1    0.490096   -0.377083    0.146903    11.00000    0.03244    0.03958 =
         0.03123    0.01311    0.01113    0.01146
AFIX  43
H9    2    0.479226   -0.424445    0.141129    11.00000   -1.20000
AFIX  65
C10   1    0.594062   -0.325158    0.192822    11.00000    0.02867    0.03951 =
         0.02911    0.01135    0.00994    0.01469
AFIX  43
H10   2    0.654248   -0.337032    0.218431    11.00000   -1.20000
AFIX  65
C11   1    0.609967   -0.255859    0.201271    11.00000    0.02220    0.03870 =
         0.02622    0.01036    0.01457    0.01274
C12   1    0.521906   -0.238485    0.163802    11.00000    0.02313    0.04086 =
         0.02847    0.01234    0.01093    0.00974
AFIX  43
H12   2    0.532775   -0.191122    0.169577    11.00000   -1.20000
AFIX  66
C13   1    0.722050   -0.197028    0.251236    11.00000    0.02021    0.03613 =
         0.02765    0.01603    0.01375    0.01377
PART    1
C14   1    0.713360   -0.129870    0.285207    31.00000    0.02237    0.03427 =
         0.02954    0.01716    0.01381    0.01360
AFIX  43
H14   2    0.638281   -0.120129    0.275798    31.00000   -1.20000
AFIX  65
C15   1    0.814523   -0.076966    0.332945    31.00000    0.02240    0.03547 =
         0.03167    0.01457    0.01335    0.01428
AFIX  43
H15   2    0.808584   -0.031066    0.356162    31.00000   -1.20000
PART    0
AFIX  65
C16   1    0.924376   -0.091218    0.346712    11.00000    0.02048    0.03606 =
         0.02622    0.01745    0.01560    0.01304
PART    1
C17   1    0.933066   -0.158376    0.312741    31.00000    0.01861    0.03735 =
         0.02632    0.01676    0.01657    0.01294
AFIX  43
H17   2    1.008146   -0.168117    0.322151    31.00000   -1.20000
AFIX  65
C18   1    0.831905   -0.211281    0.265003    31.00000    0.01921    0.03543 =
         0.02682    0.01825    0.01595    0.01256
AFIX  43
H18   2    0.837845   -0.257181    0.241786    31.00000   -1.20000
AFIX   0
PART    2
C14'  1    0.752843   -0.137688    0.241558   -31.00000    0.02440    0.03596 =
         0.02961    0.01623    0.01328    0.01322
AFIX  43
H14'  2    0.707468   -0.130266    0.205618   -31.00000   -1.20000
AFIX   0
C15'  1    0.856921   -0.089347    0.289403   -31.00000    0.02273    0.03598 =
         0.02829    0.01820    0.01334    0.01291
AFIX  43
H15'  2    0.886254   -0.049170    0.281853   -31.00000   -1.20000
AFIX   0
C18'  1    0.782249   -0.214991    0.300600   -31.00000    0.01665    0.03533 =
         0.02816    0.01614    0.01479    0.01387
AFIX  43
H18'  2    0.756160   -0.258001    0.304230   -31.00000   -1.20000
AFIX   0
C17'  1    0.887361   -0.160074    0.344288   -31.00000    0.01707    0.03576 =
         0.02843    0.01796    0.01423    0.01347
AFIX  43
H17'  2    0.939738   -0.170047    0.375830   -31.00000   -1.20000
AFIX   0
PART    0
C19   1    1.027028   -0.034529    0.401283    11.00000    0.02103    0.03226 =
         0.02570    0.01859    0.01468    0.01415
C20   1    1.076277    0.044481    0.430105    11.00000    0.02008    0.03087 =
         0.02975    0.01756    0.01253    0.01596
AFIX  66
C21   1    1.014257    0.098100    0.426524    11.00000    0.02310    0.02919 =
         0.03279    0.01542    0.01036    0.01639
PART    1
C22   1    0.933755    0.088536    0.366725    41.00000    0.02091    0.02853 =
         0.03117    0.01566    0.01123    0.01374
AFIX  43
H22   2    0.911212    0.045109    0.328077    41.00000   -1.20000
AFIX  65
C23   1    0.886238    0.142512    0.363474    41.00000    0.02412    0.02933 =
         0.03227    0.01505    0.00902    0.01271
AFIX  43
H23   2    0.831218    0.135975    0.322604    41.00000   -1.20000
PART    0
AFIX  65
C24   1    0.919222    0.206052    0.420022    11.00000    0.02281    0.03015 =
         0.03448    0.01500    0.00876    0.01382
PART    1
C25   1    0.999724    0.215617    0.479822    41.00000    0.02190    0.02848 =
         0.03259    0.01314    0.00960    0.01591
AFIX  43
H25   2    1.022266    0.259045    0.518470    41.00000   -1.20000
AFIX  65
C26   1    1.047242    0.161642    0.483073    41.00000    0.02243    0.02984 =
         0.03227    0.01484    0.01017    0.01594
AFIX  43
H26   2    1.102261    0.168179    0.523944    41.00000   -1.20000
AFIX   0
PART    2
C22'  1    0.890821    0.079137    0.401230   -41.00000    0.02290    0.03080 =
         0.03343    0.01466    0.01013    0.01484
AFIX  43
H22'  2    0.839690    0.033452    0.388397   -41.00000   -1.20000
AFIX   0
C23'  1    0.849564    0.134864    0.396638   -41.00000    0.02286    0.02994 =
         0.03350    0.01383    0.01036    0.01391
AFIX  43
H23'  2    0.765775    0.124214    0.375601   -41.00000   -1.20000
AFIX   0
C25'  1    1.040733    0.212454    0.440476   -41.00000    0.02257    0.02841 =
         0.03004    0.01655    0.01111    0.01443
AFIX  43
H25'  2    1.093951    0.258495    0.457665   -41.00000   -1.20000
AFIX   0
C26'  1    1.093998    0.159305    0.438791   -41.00000    0.02234    0.02957 =
         0.02967    0.01493    0.01070    0.01653
AFIX  43
H26'  2    1.177747    0.165180    0.445539   -41.00000   -1.20000
PART    0
AFIX  66
C27   1    0.865948    0.264230    0.414792    11.00000    0.02245    0.03429 =
         0.04146    0.02012    0.01092    0.01482
C28   1    0.926591    0.333234    0.460816    11.00000    0.02763    0.03814 =
         0.04944    0.01638    0.00434    0.01599
AFIX  43
H28   2    0.999532    0.343194    0.494527    11.00000   -1.20000
AFIX  65
C29   1    0.880511    0.387664    0.457516    11.00000    0.02600    0.03911 =
         0.04984    0.02023    0.00919    0.01511
AFIX  43
H29   2    0.921959    0.434825    0.488972    11.00000   -1.20000
AFIX  65
C30   1    0.773788    0.373092    0.408193    11.00000    0.02486    0.03517 =
         0.04666    0.01902    0.01202    0.01810
AFIX  43
H30   2    0.742296    0.410293    0.405938    11.00000   -1.20000
AFIX  65
C31   1    0.713144    0.304088    0.362169    11.00000    0.01957    0.03304 =
         0.04359    0.02026    0.01813    0.01711
C32   1    0.759222    0.249657    0.365468    11.00000    0.02031    0.03366 =
         0.04223    0.02183    0.01482    0.01493
AFIX  43
H32   2    0.717774    0.202496    0.334013    11.00000   -1.20000
AFIX   0
C33   1    0.599086    0.324236    0.275248    11.00000    0.02836    0.05068 =
         0.05829    0.03651    0.01665    0.01681
AFIX  43
H33   2    0.669651    0.359876    0.284025    11.00000   -1.20000
AFIX   0
PART    1
C34   1    0.489546    0.316924    0.225777    71.00000    0.02834    0.05548 =
         0.05772    0.03681    0.01892    0.02089
C35   1    0.487417    0.359903    0.192166    71.00000    0.02845    0.05553 =
         0.05787    0.03686    0.01899    0.02122
AFIX  43
H35   2    0.556258    0.397380    0.202485    71.00000   -1.20000
AFIX   0
C36   1    0.382759    0.346889    0.143322    71.00000    0.02860    0.05579 =
         0.05790    0.03684    0.01888    0.02141
AFIX  43
H36   2    0.378945    0.374685    0.118427    71.00000   -1.20000
AFIX   0
C37   1    0.283203    0.293133    0.130692    71.00000    0.02843    0.05596 =
         0.05787    0.03659    0.01892    0.02142
AFIX  43
H37   2    0.210838    0.282859    0.096444    71.00000   -1.20000
AFIX   0
C38   1    0.290641    0.254307    0.168924    71.00000    0.02830    0.05583 =
         0.05792    0.03660    0.01884    0.02109
AFIX  43
H38   2    0.222239    0.217304    0.160219    71.00000   -1.20000
AFIX   0
N4    3    0.391754    0.267504    0.217905    71.00000    0.02833    0.05582 =
         0.05785    0.03656    0.01881    0.02063
PART    2
C34'  1    0.501460    0.306097    0.216594   -71.00000    0.02833    0.05551 =
         0.05774    0.03685    0.01885    0.02088
C35'  1    0.507962    0.345494    0.179480   -71.00000    0.02850    0.05550 =
         0.05787    0.03692    0.01883    0.02129
AFIX  43
H35'  2    0.574712    0.385440    0.193305   -71.00000   -1.20000
AFIX   0
C36'  1    0.413936    0.324695    0.121586   -71.00000    0.02857    0.05577 =
         0.05788    0.03681    0.01886    0.02143
AFIX  43
H36'  2    0.423008    0.340996    0.088085   -71.00000   -1.20000
AFIX   0
C37'  1    0.305817    0.279376    0.113542   -71.00000    0.02857    0.05598 =
         0.05793    0.03652    0.01886    0.02126
AFIX  43
H37'  2    0.232326    0.276471    0.084274   -71.00000   -1.20000
AFIX   0
C38'  1    0.308571    0.238243    0.149819   -71.00000    0.02825    0.05588 =
         0.05791    0.03651    0.01879    0.02103
AFIX  43
H38'  2    0.242118    0.198262    0.136402   -71.00000   -1.20000
AFIX   0
N4'   3    0.403578    0.253983    0.203580   -71.00000    0.02811    0.05566 =
         0.05788    0.03655    0.01890    0.02099
PART    0
C39   1    2.052545    0.165233    0.921981    11.00000    0.03701    0.07457 =
         0.05737    0.03557    0.01914    0.02948
AFIX  43
H39   2    2.013573    0.131652    0.935212    11.00000   -1.20000
AFIX   0
C40   1    2.176376    0.181532    0.936291    11.00000    0.03710    0.08294 =
         0.06441    0.03712    0.01872    0.03106
AFIX  43
H40   2    2.220581    0.156305    0.954405    11.00000   -1.20000
AFIX   0
C41   1    2.233484    0.235315    0.923508    11.00000    0.03157    0.08601 =
         0.06368    0.03673    0.01785    0.02779
AFIX  43
H41   2    2.318928    0.250989    0.936815    11.00000   -1.20000
AFIX   0
C42   1    2.166000    0.266511    0.891186    11.00000    0.02782    0.07653 =
         0.06036    0.03264    0.01736    0.02080
AFIX  43
H42   2    2.204116    0.301922    0.879736    11.00000   -1.20000
AFIX   0
C43   1    2.041253    0.245153    0.875705    11.00000    0.02566    0.06408 =
         0.05159    0.02825    0.01476    0.01920
C44   1    1.962949    0.270730    0.835283    11.00000    0.02362    0.05286 =
         0.04721    0.02355    0.01090    0.01004
AFIX  43
H44   2    1.998695    0.301830    0.818540    11.00000   -1.20000
AFIX  66
C45   1    1.772107    0.277210    0.781340    11.00000    0.02640    0.04026 =
         0.03988    0.02466    0.01152    0.00912
C46   1    1.802330    0.346633    0.789442    11.00000    0.03090    0.04078 =
         0.04328    0.02514    0.01402    0.00874
AFIX  43
H46   2    1.873882    0.379584    0.822953    11.00000   -1.20000
AFIX  65
C47   1    1.727861    0.367845    0.748513    11.00000    0.03258    0.03786 =
         0.04655    0.02688    0.01438    0.00912
AFIX  43
H47   2    1.748518    0.415292    0.754050    11.00000   -1.20000
AFIX  65
C48   1    1.623168    0.319633    0.699481    11.00000    0.03230    0.03413 =
         0.04047    0.02309    0.01651    0.01108
AFIX  43
H48   2    1.572272    0.334131    0.671508    11.00000   -1.20000
AFIX  65
C49   1    1.592945    0.250210    0.691379    11.00000    0.02457    0.03421 =
         0.03446    0.02214    0.01434    0.01117
C50   1    1.667412    0.228998    0.732308    11.00000    0.02430    0.03975 =
         0.03901    0.02178    0.01208    0.01308
AFIX  43
H50   2    1.646754    0.181550    0.726771    11.00000   -1.20000
AFIX  66
C51   1    1.485812    0.195036    0.633610    11.00000    0.02119    0.02840 =
         0.03374    0.01615    0.01326    0.01770
PART    1
C52   1    1.496716    0.130589    0.593114    51.00000    0.02114    0.02723 =
         0.03165    0.01689    0.01137    0.01533
AFIX  43
H52   2    1.572144    0.120918    0.600820    51.00000   -1.20000
AFIX  65
C53   1    1.397257    0.080291    0.541343    51.00000    0.02104    0.02742 =
         0.03164    0.01337    0.01179    0.01672
AFIX  43
H53   2    1.404710    0.036244    0.513665    51.00000   -1.20000
PART    0
AFIX  65
C54   1    1.286894    0.094439    0.530067    11.00000    0.02030    0.02569 =
         0.03157    0.01629    0.01268    0.01654
PART    1
C55   1    1.275989    0.158886    0.570563    51.00000    0.02000    0.02625 =
         0.03210    0.01533    0.01257    0.01772
AFIX  43
H55   2    1.200561    0.168556    0.562856    51.00000   -1.20000
AFIX  65
C56   1    1.375446    0.209185    0.622334    51.00000    0.02201    0.02679 =
         0.03223    0.01638    0.01121    0.01710
AFIX  43
H56   2    1.367992    0.253231    0.650011    51.00000   -1.20000
AFIX   0
PART    2
C52'  1    1.438572    0.135884    0.642023   -51.00000    0.01960    0.02764 =
         0.03321    0.01694    0.01128    0.01763
AFIX  43
H52'  2    1.467476    0.129666    0.681863   -51.00000   -1.20000
AFIX   0
C53'  1    1.344193    0.086050    0.586331   -51.00000    0.02089    0.02741 =
         0.03097    0.01564    0.01164    0.01742
AFIX  43
H53'  2    1.316074    0.041617    0.586929   -51.00000   -1.20000
AFIX   0
C55'  1    1.338433    0.162163    0.535405   -51.00000    0.01921    0.02601 =
         0.03138    0.01540    0.01164    0.01707
AFIX  43
H55'  2    1.300047    0.173411    0.500458   -51.00000   -1.20000
AFIX   0
C56'  1    1.437039    0.214091    0.584598   -51.00000    0.02009    0.02549 =
         0.03296    0.01461    0.01227    0.01688
AFIX  43
H56'  2    1.467648    0.258409    0.584313   -51.00000   -1.20000
AFIX   0
PART    0
C57   1    1.181084    0.041218    0.472496    11.00000    0.02226    0.02576 =
         0.03106    0.01583    0.01188    0.01768
C58   1    1.142632   -0.036242    0.446125    11.00000    0.02349    0.02739 =
         0.02862    0.01382    0.01034    0.01543
AFIX  66
C59   1    1.190375   -0.094441    0.453974    11.00000    0.01719    0.02534 =
         0.02491    0.01265    0.01332    0.01216
PART    1
C60   1    1.175473   -0.156731    0.399121    61.00000    0.01995    0.02555 =
         0.02498    0.01113    0.01063    0.01160
AFIX  43
H60   2    1.133200   -0.163882    0.354962    61.00000   -1.20000
AFIX  65
C61   1    1.222424   -0.208559    0.408880    61.00000    0.01789    0.02439 =
         0.02573    0.01224    0.01213    0.01003
AFIX  43
H61   2    1.212238   -0.251131    0.371391    61.00000   -1.20000
PART    0
AFIX  65
C62   1    1.284277   -0.198096    0.473491    11.00000    0.02122    0.02661 =
         0.02621    0.01271    0.01285    0.01408
PART    1
C63   1    1.299179   -0.135806    0.528344    61.00000    0.01850    0.02555 =
         0.02366    0.01366    0.01310    0.01276
AFIX  43
H63   2    1.341452   -0.128656    0.572503    61.00000   -1.20000
AFIX  65
C64   1    1.252229   -0.083978    0.518586    61.00000    0.01811    0.02512 =
         0.02444    0.01292    0.01343    0.01291
AFIX  43
H64   2    1.262414   -0.041406    0.556076    61.00000   -1.20000
AFIX   0
PART    2
C60'  1    1.104253   -0.153370    0.443780   -61.00000    0.01925    0.02420 =
         0.02130    0.01170    0.01244    0.01147
AFIX  43
H60'  2    1.019790   -0.160091    0.431107   -61.00000   -1.20000
AFIX   0
C61'  1    1.160650   -0.201783    0.455013   -61.00000    0.02122    0.02522 =
         0.02391    0.01347    0.01112    0.01240
AFIX  43
H61'  2    1.107323   -0.244155    0.449324   -61.00000   -1.20000
AFIX   0
C63'  1    1.354502   -0.129437    0.488165   -61.00000    0.01820    0.02646 =
         0.02327    0.01166    0.01269    0.01361
AFIX  43
H63'  2    1.439119   -0.119549    0.505924   -61.00000   -1.20000
AFIX   0
C64'  1    1.314298   -0.074995    0.479665   -61.00000    0.01703    0.02475 =
         0.02219    0.01276    0.01381    0.01153
AFIX  43
H64'  2    1.365702   -0.030073    0.490222   -61.00000   -1.20000
PART    0
AFIX  66
C65   1    1.336960   -0.253553    0.484741    11.00000    0.02942    0.03154 =
         0.03620    0.01886    0.01752    0.01961
C66   1    1.291407   -0.323305    0.437656    11.00000    0.04082    0.03197 =
         0.04671    0.01458    0.01602    0.02257
AFIX  43
H66   2    1.223593   -0.336777    0.399560    11.00000   -1.20000
AFIX  65
C67   1    1.345075   -0.373346    0.446310    11.00000    0.04270    0.02830 =
         0.05177    0.01671    0.01814    0.02104
AFIX  43
H67   2    1.313942   -0.421019    0.414129    11.00000   -1.20000
AFIX  65
C68   1    1.444297   -0.353635    0.502050    11.00000    0.04034    0.03014 =
         0.05525    0.02541    0.01828    0.01632
AFIX  43
H68   2    1.480976   -0.387836    0.507965    11.00000   -1.20000
AFIX  65
C69   1    1.489851   -0.283883    0.549137    11.00000    0.03359    0.03041 =
         0.04745    0.02993    0.01733    0.01587
C70   1    1.436184   -0.233842    0.540483    11.00000    0.02938    0.02769 =
         0.04296    0.02675    0.01588    0.01444
AFIX  43
H70   2    1.467318   -0.186169    0.572664    11.00000   -1.20000
AFIX   0
C71   1    1.682325   -0.279166    0.604204    11.00000    0.03591    0.04796 =
         0.06261    0.03956    0.01633    0.01611
AFIX  43
H71   2    1.683020   -0.313402    0.562779    11.00000   -1.20000
AFIX   0
C72   1    1.789148   -0.248789    0.662716    11.00000    0.02877    0.05346 =
         0.06320    0.04423    0.02065    0.01412
C73   1    1.891146   -0.270194    0.657870    11.00000    0.03368    0.06866 =
         0.07186    0.04076    0.01997    0.02199
AFIX  43
H73   2    1.890833   -0.307190    0.617945    11.00000   -1.20000
AFIX   0
C74   1    1.993188   -0.236302    0.712622    11.00000    0.03124    0.08628 =
         0.07531    0.03793    0.01871    0.02153
AFIX  43
H74   2    2.066448   -0.247371    0.709917    11.00000   -1.20000
AFIX   0
C75   1    1.988531   -0.186106    0.771528    11.00000    0.02756    0.07741 =
         0.07032    0.04229    0.01711    0.01768
AFIX  43
H75   2    2.057547   -0.163488    0.810230    11.00000   -1.20000
AFIX   0
C76   1    1.881099   -0.169161    0.773313    11.00000    0.02495    0.06738 =
         0.06716    0.04344    0.01643    0.01271
AFIX  43
H76   2    1.878548   -0.133496    0.813317    11.00000   -1.20000
AFIX   0
C77   1    0.463242    0.065478    0.261332    11.00000    0.01991    0.02568 =
         0.03625    0.01066    0.00950    0.00995
C78   1    0.363010    0.044844    0.206643    11.00000    0.02556    0.02516 =
         0.03932    0.01383    0.00613    0.00616
C79   1    0.322565   -0.032626    0.173818    11.00000    0.02486    0.02495 =
         0.03454    0.01279    0.00731    0.00405
C80   1    0.409873   -0.054721    0.213662    11.00000    0.02214    0.02561 =
         0.03302    0.01307    0.00936    0.00467
C81   1    0.503104    0.004150    0.266354    11.00000    0.01701    0.02601 =
         0.03170    0.01038    0.01448    0.00878
PART    1
AFIX  56
C82   1    1.193555   -0.056025    0.281646    21.00000    0.01355    0.02974 =
         0.02526    0.00881    0.00801    0.00354
AFIX  43
H82   2    1.149914   -0.103394    0.251766    21.00000   -1.20000
AFIX  55
C83   1    1.160465    0.004667    0.281688    21.00000    0.01362    0.03025 =
         0.02647    0.00889    0.00851    0.00420
AFIX  43
H83   2    1.090799    0.005030    0.251840    21.00000   -1.20000
AFIX  55
C84   1    1.249790    0.064719    0.334176    21.00000    0.01557    0.03001 =
         0.02663    0.01031    0.00751    0.00310
AFIX  43
H84   2    1.250376    0.112313    0.345610    21.00000   -1.20000
AFIX  55
C85   1    1.338086    0.041142    0.366575    21.00000    0.01505    0.02971 =
         0.02685    0.00926    0.00687    0.00353
AFIX  43
H85   2    1.408114    0.070193    0.403489    21.00000   -1.20000
AFIX  55
C86   1    1.303331   -0.033482    0.334110    21.00000    0.01396    0.02989 =
         0.02563    0.00857    0.00810    0.00323
AFIX  43
H86   2    1.346025   -0.063121    0.345490    21.00000   -1.20000
PART    2
AFIX  56
C87   1    1.296979    0.067159    0.353875   -21.00000    0.01673    0.02863 =
         0.02699    0.01085    0.00689    0.00344
AFIX  43
H87   2    1.336254    0.116085    0.378925   -21.00000   -1.20000
AFIX  55
C88   1    1.184436    0.036444    0.302351   -21.00000    0.01424    0.02822 =
         0.02601    0.01048    0.00808    0.00276
AFIX  43
H88   2    1.135201    0.061214    0.286878   -21.00000   -1.20000
AFIX  55
C89   1    1.158409   -0.037795    0.278015   -21.00000    0.01373    0.02867 =
         0.02509    0.00958    0.00947    0.00306
AFIX  43
H89   2    1.088704   -0.071412    0.243403   -21.00000   -1.20000
AFIX  55
C90   1    1.254867   -0.052962    0.314499   -21.00000    0.01532    0.02917 =
         0.02653    0.00955    0.00805    0.00392
AFIX  43
H90   2    1.261022   -0.098509    0.308580   -21.00000   -1.20000
AFIX  55
C91   1    1.340507    0.011903    0.361383   -21.00000    0.01463    0.02840 =
         0.02547    0.01124    0.00863    0.00337
AFIX  43
H91   2    1.414017    0.017371    0.392338   -21.00000   -1.20000
AFIX   0
PART    0
O20   4    0.517929    0.129974    0.299691    11.00000    0.01870    0.02864 =
         0.04025    0.00706    0.01185    0.00964
O21   4    0.588402    0.003847    0.308016    11.00000    0.02090    0.03179 =
         0.04368    0.00922    0.00713    0.01550
O22   4    0.393665   -0.120476    0.198726    11.00000    0.02544    0.02481 =
         0.02990    0.01037    0.00951    0.00416
O23   4    0.228721   -0.075543    0.124582    11.00000    0.03095    0.02766 =
         0.03150    0.00862    0.00510    0.00310
O24   4    0.314413    0.087375    0.191129    11.00000    0.02667    0.03315 =
         0.04417    0.02138    0.00887    0.00837
PART    1
S2    6    0.824047    0.501256    0.269542    81.00000    0.08931    0.09979 =
         0.13734    0.08162    0.07809    0.04708
S1    6    0.733641    0.550497    0.379930    81.00000    0.08324    0.08451 =
         0.08436    0.03600    0.02511    0.02304
N200  3    0.846529    0.544741    0.349962    81.00000    0.08443
O3    4    0.717093    0.503062    0.227175    81.00000    0.07810
O4    4    0.850302    0.436200    0.259024    81.00000    0.05632
C2A   1    0.945857    0.556346    0.256389    81.00000    0.08959
F4A   5    1.049730    0.564241    0.298731    81.00000    0.08485
F5A   5    0.931123    0.620523    0.270073    81.00000    0.09695
F6A   5    0.943604    0.531455    0.193763    81.00000    0.08811
O1    4    0.630990    0.490319    0.344710    81.00000    0.08336
F1A   5    0.606429    0.639054    0.407899    81.00000    0.09962
F2A   5    0.779815    0.676626    0.392363    81.00000    0.09554
O2    4    0.782713    0.575129    0.451771    81.00000    0.08637
F3A   5    0.623335    0.610144    0.311452    81.00000    0.09169
C1A   1    0.681980    0.623941    0.373338    81.00000    0.08616
PART    2
S2'   6    0.810461    0.502090    0.255769   -81.00000    0.09138    0.10886 =
         0.14667    0.07260    0.07323    0.04114
S1'   6    0.737909    0.546167    0.371379   -81.00000    0.04532    0.06160 =
         0.06632    0.05600    0.01305    0.01545
F3A'  5    0.634253    0.582997    0.466955   -81.00000    0.10406
N202  3    0.736719    0.549695    0.299690   -81.00000    0.09495
C1A'  1    0.667623    0.605326    0.422897   -81.00000    0.09461
O1'   4    0.855284    0.557041    0.412604   -81.00000    0.08506
F2A'  5    0.565100    0.602652    0.382618   -81.00000    0.10220
F1A'  5    0.738701    0.669650    0.457361   -81.00000    0.10331
O3'   4    0.737950    0.470257    0.186668   -81.00000    0.07033
O4'   4    0.852682    0.460953    0.288478   -81.00000    0.09777
C2A'  1    0.944985    0.561902    0.257828   -81.00000    0.08978
O2'   4    0.648095    0.481135    0.354015   -81.00000    0.07039
F5A'  5    1.002097    0.524798    0.220647   -81.00000    0.08559
F4A'  5    0.908561    0.605447    0.233227   -81.00000    0.09147
F6A'  5    1.017881    0.599761    0.320247   -81.00000    0.09469
PART    0
AFIX  66
C100  1    0.316457    0.435964    0.319670    11.00000    0.07818    0.06371 =
         0.10270    0.04060    0.00429    0.00798
AFIX  43
H100  2    0.355526    0.431727    0.285975    11.00000   -1.20000
AFIX  65
C101  1    0.378310    0.440541    0.381985    11.00000    0.07923    0.06048 =
         0.10109    0.03563    0.00342    0.00789
AFIX  43
H101  2    0.459653    0.439433    0.390879    11.00000   -1.20000
AFIX  65
C102  1    0.321147    0.446740    0.431286    11.00000    0.07839    0.05885 =
         0.10201    0.03762    0.00391    0.00306
AFIX  43
H102  2    0.363422    0.449869    0.473875    11.00000   -1.20000
AFIX  65
C103  1    0.202131    0.448362    0.418272    11.00000    0.07876    0.06270 =
         0.10435    0.03773    0.00713    0.00602
AFIX  43
H103  2    0.163063    0.452598    0.451968    11.00000   -1.20000
AFIX  65
C104  1    0.140276    0.443784    0.355958    11.00000    0.07842    0.07335 =
         0.10467    0.03991    0.00472    0.00542
AFIX  43
H104  2    0.058933    0.444892    0.347064    11.00000   -1.20000
AFIX  65
C105  1    0.197438    0.437585    0.306656    11.00000    0.07835    0.07343 =
         0.10378    0.04288    0.00387    0.00748
AFIX  43
H105  2    0.155163    0.434456    0.264067    11.00000   -1.20000
AFIX   0
N1S   3    0.471631    0.413205    0.036409    11.00000    0.13411
C1S   1    0.554480    0.456059    0.045342    11.00000    0.11266
C2S   1    0.662505    0.513837    0.062781    11.00000    0.12136
AFIX   3
H2S1  2    0.692697    0.538577    0.112078    11.00000   -1.50000
H2S2  2    0.641705    0.546466    0.043775    11.00000   -1.50000
H2S3  2    0.724867    0.495670    0.045696    11.00000   -1.50000
AFIX   0
N2S   3   -0.082184   -0.107917   -0.048774    11.00000    0.10597
C3S   1   -0.130799   -0.064672   -0.037228    11.00000    0.12825
C4S   1   -0.188320   -0.007013   -0.025230    11.00000    0.14649
AFIX   3
H4S1  2   -0.173454    0.019910    0.023182    11.00000   -1.50000
H4S2  2   -0.275218   -0.027449   -0.047651    11.00000   -1.50000
H4S3  2   -0.155118    0.024241   -0.044291    11.00000   -1.50000
AFIX   0
PART    1
S3    6   -0.012655   -0.432937    0.015289    11.00000    0.05617    0.09218 =
         0.07416    0.01366   -0.00587    0.03674
O5    4   -0.082663   -0.435571    0.059069    11.00000    0.17846
F1B   5   -0.128400   -0.380925   -0.053996    11.00000    0.12245
N201  3    0.066545   -0.488535   -0.001451    10.50000    0.08050
F2B   5   -0.218278   -0.488086   -0.081103    11.00000    0.11812
C3A   1   -0.113116   -0.443123   -0.063616    11.00000    0.08150
O6    4    0.070754   -0.364199    0.036093    91.00000    0.06970
F3B   5   -0.074314   -0.469969   -0.115303   101.00000    0.09774
PART    2
O6'   4    0.095664   -0.417245    0.016523   -91.00000    0.07125
F3B'  5   -0.076514   -0.409137   -0.106927  -101.00000    0.09572
PART    3
S5    6   -0.362851    0.004966    0.096999    10.50000    0.15339    0.10879 =
         0.14443    0.05223    0.10408    0.05386
S6    6   -0.355368    0.150493    0.127955    10.50000    0.22469
C5A   1   -0.281857   -0.001766    0.172698    10.50000    0.11853
O12   4   -0.262199    0.206940    0.182184    10.50000    0.11906
O9    4   -0.479762    0.006047    0.102282    10.50000    0.14111
O10   4   -0.339105   -0.047988    0.044111    10.50000    0.14961
F1C   5   -0.172791   -0.002459    0.167757    10.50000    0.11982
O11   4   -0.481262    0.127064    0.115245    10.50000    0.13750
F2C   5   -0.269332    0.058970    0.222886    10.50000    0.12851
N102  3   -0.301134    0.083076    0.101146    10.50000    0.12792
C6A   1   -0.393738    0.163450    0.059018    10.50000    0.13452
F4C   5   -0.494815    0.185284    0.043202    10.50000    0.14000
PART    4
F1X   5   -0.495466   -0.132652    0.026728    10.50000    0.08445
PART    5
F2X   5   -0.095331   -0.002002    0.136708    10.25000    0.09273
PART    6
F4X   5   -0.497123    0.238831    0.026683    10.25000    0.10909
PART    7
F3X   5   -0.500584    0.054292   -0.033402    10.12500    0.13228
PART    8
O1W   4   -0.598794   -0.137264    0.048571    10.50000    0.07998
PART    9
F5X   5   -0.437330    0.053564    0.049364    10.25000    0.12888
PART   10
F6X   5   -0.290598   -0.029570    0.155390    10.12500    0.11861
HKLF    5

REM  QFG in P-1
REM R1 =  0.1066 for    6494 Fo > 4sig(Fo)  and  0.1302 for all    8056 data
REM   1390 parameters refined using   3145 restraints

END

WGHT      0.2000      0.0000

REM Highest difference peak  0.958,  deepest hole -0.981,  1-sigma level  0.221
Q1    1   0.7648  0.6174  0.4524  11.00000  0.05    0.96
Q2    1  -0.4350  0.1423  0.0684  11.00000  0.05    0.95
Q3    1   1.0854  0.5211  0.2378  11.00000  0.05    0.93
Q4    1   0.1022  0.4762  0.2187  11.00000  0.05    0.91
Q5    1   0.3616  0.4262  0.4029  11.00000  0.05    0.87
Q6    1   1.1154 -0.3959  0.3934  11.00000  0.05    0.87
Q7    1   0.1058 -0.4036  0.0459  11.00000  0.05    0.86
Q8    1   1.1506  0.0268  0.2198  11.00000  0.05    0.86
Q9    1  -0.0427 -0.4297 -0.1091  11.00000  0.05    0.85
Q10   1   0.1993  0.3924  0.2595  11.00000  0.05    0.85
;
_shelx_res_checksum              7181
_shelx_hkl_file
;
  -2   2   0 1097.07 62.8586  -2
   2   0   0 1097.07 62.8586   1
  -3   3   0 311.417 12.4073  -2
   3   0   0 311.417 12.4073   1
  -4   4   0 0.60911 5.75931  -2
   4   0   0 0.60911 5.75931   1
  -5   5   0 1747.62 71.6461  -2
   5   0   0 1747.62 71.6461   1
  -6   6   0 57.9034 7.90861  -2
   6   0   0 57.9034 7.90861   1
  -7   7   0 32.4712 8.86364  -2
   7   0   0 32.4712 8.86364   1
  -8   8   0 129.585 10.9268  -2
   8   0   0 129.585 10.9268   1
  -9   9   0 73.6197 10.1156  -2
   9   0   0 73.6197 10.1156   1
 -10  10   0 596.704 32.5124  -2
  10   0   0 596.704 32.5124   1
  -9   8   0 236.270 15.4640  -2
  -9   1   0 236.270 15.4640   1
  -8   7   0 232.685 14.7854  -2
  -8   1   0 232.685 14.7854   1
  -7   6   0 44.4221 9.74524  -2
  -7   1   0 44.4221 9.74524   1
  -6   5   0 9.98256 8.04334  -2
  -6   1   0 9.98256 8.04334   1
  -5   4   0 348.568 17.3784  -2
  -5   1   0 348.568 17.3784   1
  -4   3   0 -1.9682 6.81487  -2
  -4   1   0 -1.9682 6.81487   1
  -3   2   0 257.833 13.1587  -2
  -3   1   0 257.833 13.1587   1
   1   0   0 231.322 15.7282  -2
  -1   1   0 231.322 15.7282   1
  -1   2   0 186.119 7.61623  -2
   1   1   0 186.119 7.61623   1
  -2   3   0 171.897 11.5646  -2
   2   1   0 171.897 11.5646   1
  -4   5   0 1.57120 5.83793  -2
   4   1   0 1.57120 5.83793   1
  -5   6   0 92.9553 8.78712  -2
   5   1   0 92.9553 8.78712   1
  -6   7   0 387.849 18.8954  -2
   6   1   0 387.849 18.8954   1
  -7   8   0 3.30406 7.76632  -2
   7   1   0 3.30406 7.76632   1
  -8   9   0 924.816 47.7702  -2
   8   1   0 924.816 47.7702   1
  -9  10   0 29.6463 9.56588  -2
   9   1   0 29.6463 9.56588   1
 -10  11   0 35.3459 10.5892  -2
  10   1   0 35.3459 10.5892   1
 -10   8   0 357.228 21.0235  -2
 -10   2   0 357.228 21.0235   1
  -9   7   0 465.828 17.0194  -2
  -9   2   0 465.828 17.0194   1
  -8   6   0 65.3001 6.30027  -2
  -8   2   0 65.3001 6.30027   1
  -7   5   0 0.62769 9.65249  -2
  -7   2   0 0.62769 9.65249   1
  -6   4   0 404.784 19.4859  -2
  -6   2   0 404.784 19.4859   1
  -5   3   0 406.597 19.3885  -2
  -5   2   0 406.597 19.3885   1
  -4   2   0 45.2270 8.17430  -2
  -4   2   0 45.2270 8.17430   1
  -3   1   0 270.476 13.6811  -2
  -3   2   0 270.476 13.6811   1
   2   0   0 1066.79 47.6916  -2
  -2   2   0 1066.79 47.6916   1
   1   1   0 246.902 9.95957  -2
  -1   2   0 246.902 9.95957   1
   0   2   0 571.936 17.8226  -2
   0   2   0 571.936 17.8226   1
  -1   3   0 1878.37 81.7297  -2
   1   2   0 1878.37 81.7297   1
  -2   4   0 191.927 10.0283  -2
   2   2   0 191.927 10.0283   1
  -3   5   0 1071.79 45.5028  -2
   3   2   0 1071.79 45.5028   1
  -4   6   0 466.366 22.3358  -2
   4   2   0 466.366 22.3358   1
  -5   7   0 615.526 38.9394  -2
   5   2   0 615.526 38.9394   1
  -6   8   0 1713.39 98.0421  -2
   6   2   0 1713.39 98.0421   1
  -7   9   0 13.7824 7.24502  -2
   7   2   0 13.7824 7.24502   1
  -8  10   0 389.221 22.1053  -2
   8   2   0 389.221 22.1053   1
  -9  11   0 38.0522 10.4958  -2
   9   2   0 38.0522 10.4958   1
 -10  12   0 44.8903 11.2982  -2
  10   2   0 44.8903 11.2982   1
 -11  13   0 516.118 29.3380  -2
  11   2   0 516.118 29.3380   1
 -10   7   0 55.1223 17.4204  -2
 -10   3   0 55.1223 17.4204   1
  -9   6   0 262.369 11.0796  -2
  -9   3   0 262.369 11.0796   1
  -8   5   0 225.537 9.63668  -2
  -8   3   0 225.537 9.63668   1
  -7   4   0 255.117 18.5617  -2
  -7   3   0 255.117 18.5617   1
  -6   3   0 987.511 41.7140  -2
  -6   3   0 987.511 41.7140   1
  -5   2   0 403.105 26.4102  -2
  -5   3   0 403.105 26.4102   1
  -4   1   0 1.94310 8.30263  -2
  -4   3   0 1.94310 8.30263   1
   1   2   0 1366.79 60.0125  -2
  -1   3   0 1366.79 60.0125   1
   0   3   0 957.937 29.6672  -2
   0   3   0 957.937 29.6672   1
  -1   4   0 1850.40 60.5537  -2
   1   3   0 1850.40 60.5537   1
  -2   5   0 663.883 22.2777  -2
   2   3   0 663.883 22.2777   1
  -3   6   0 122.720 9.28129  -2
   3   3   0 122.720 9.28129   1
  -4   7   0 1161.73 44.0877  -2
   4   3   0 1161.73 44.0877   1
  -5   8   0 194.182 20.3749  -2
   5   3   0 194.182 20.3749   1
  -6   9   0 351.877 15.7455  -2
   6   3   0 351.877 15.7455   1
  -7  10   0 10.7803 7.48110  -2
   7   3   0 10.7803 7.48110   1
  -8  11   0 62.9849 8.98340  -2
   8   3   0 62.9849 8.98340   1
  -9  12   0 356.494 21.3279  -2
   9   3   0 356.494 21.3279   1
 -10  13   0 38.6659 11.9009  -2
  10   3   0 38.6659 11.9009   1
 -11  14   0 113.582 13.1955  -2
  11   3   0 113.582 13.1955   1
 -11   7   0 33.5485 19.7628  -2
 -11   4   0 33.5485 19.7628   1
 -10   6   0 14.1800 11.2874  -2
 -10   4   0 14.1800 11.2874   1
  -9   5   0 41.1589 10.3707  -2
  -9   4   0 41.1589 10.3707   1
  -8   4   0 2098.74 89.0126  -2
  -8   4   0 2098.74 89.0126   1
  -7   3   0 256.692 14.3159  -2
  -7   4   0 256.692 14.3159   1
  -6   2   0 383.247 25.6356  -2
  -6   4   0 383.247 25.6356   1
  -5   1   0 314.569 21.5062  -2
  -5   4   0 314.569 21.5062   1
   3   1   0 2716.34 117.920  -2
  -3   4   0 2716.34 117.920   1
   1   3   0 1526.34 67.5375  -2
  -1   4   0 1526.34 67.5375   1
   0   4   0 3914.06 238.707  -2
   0   4   0 3914.06 238.707   1
  -1   5   0 2305.67 88.9119  -2
   1   4   0 2305.67 88.9119   1
  -2   6   0 2357.43 70.7300  -2
   2   4   0 2357.43 70.7300   1
  -3   7   0 312.752 12.7899  -2
   3   4   0 312.752 12.7899   1
  -4   8   0 239.908 13.7668  -2
   4   4   0 239.908 13.7668   1
  -5   9   0 1005.12 59.2717  -2
   5   4   0 1005.12 59.2717   1
  -6  10   0 51.4568 7.41584  -2
   6   4   0 51.4568 7.41584   1
  -7  11   0 6.64107 8.02504  -2
   7   4   0 6.64107 8.02504   1
  -8  12   0 154.323 10.9541  -2
   8   4   0 154.323 10.9541   1
  -9  13   0 95.7243 10.4412  -2
   9   4   0 95.7243 10.4412   1
 -10  14   0 1.49246 11.5509  -2
  10   4   0 1.49246 11.5509   1
 -11  15   0 39.2731 12.3986  -2
  11   4   0 39.2731 12.3986   1
 -11   6   0 -15.736 18.6596  -2
 -11   5   0 -15.736 18.6596   1
 -10   5   0 -9.0118 11.4931  -2
 -10   5   0 -9.0118 11.4931   1
  -9   4   0 41.7370 11.1497  -2
  -9   5   0 41.7370 11.1497   1
  -8   3   0 229.683 14.1482  -2
  -8   5   0 229.683 14.1482   1
  -7   2   0 -6.0648 13.8818  -2
  -7   5   0 -6.0648 13.8818   1
  -6   1   0 -5.9939 9.43177  -2
  -6   5   0 -5.9939 9.43177   1
   5   0   0 1659.16 71.2915  -2
  -5   5   0 1659.16 71.2915   1
   3   2   0 1058.97 38.4310  -2
  -3   5   0 1058.97 38.4310   1
   2   3   0 470.148 19.3651  -2
  -2   5   0 470.148 19.3651   1
   1   4   0 2339.11 102.207  -2
  -1   5   0 2339.11 102.207   1
   0   5   0 3236.42 140.262  -2
   0   5   0 3236.42 140.262   1
  -1   6   0 737.865 21.0378  -2
   1   5   0 737.865 21.0378   1
  -2   7   0 93.8682 6.32958  -2
   2   5   0 93.8682 6.32958   1
  -3   8   0 484.153 15.2362  -2
   3   5   0 484.153 15.2362   1
  -4   9   0 113.377 13.3948  -2
   4   5   0 113.377 13.3948   1
  -5  10   0 1066.88 31.5188  -2
   5   5   0 1066.88 31.5188   1
  -6  11   0 162.152 10.1170  -2
   6   5   0 162.152 10.1170   1
  -7  12   0 16.4463 8.31133  -2
   7   5   0 16.4463 8.31133   1
  -8  13   0 2.48151 21.0597  -2
   8   5   0 2.48151 21.0597   1
  -9  14   0 49.2209 9.79196  -2
   9   5   0 49.2209 9.79196   1
 -10  15   0 105.391 12.8754  -2
  10   5   0 105.391 12.8754   1
 -11  16   0 143.006 14.6619  -2
  11   5   0 143.006 14.6619   1
 -12   6   0 -2.4365 20.0007  -2
 -12   6   0 -2.4365 20.0007   1
 -11   5   0 -11.658 18.6507  -2
 -11   6   0 -11.658 18.6507   1
 -10   4   0 4.02157 12.0249  -2
 -10   6   0 4.02157 12.0249   1
  -9   3   0 274.960 17.0267  -2
  -9   6   0 274.960 17.0267   1
  -8   2   0 63.9923 10.9286  -2
  -8   6   0 63.9923 10.9286   1
  -7   1   0 61.1649 9.63412  -2
  -7   6   0 61.1649 9.63412   1
   6   0   0 34.5556 8.26674  -2
  -6   6   0 34.5556 8.26674   1
   5   1   0 110.109 10.3374  -2
  -5   6   0 110.109 10.3374   1
   4   2   0 456.265 19.7376  -2
  -4   6   0 456.265 19.7376   1
   2   4   0 2357.34 77.1853  -2
  -2   6   0 2357.34 77.1853   1
   1   5   0 756.129 24.7431  -2
  -1   6   0 756.129 24.7431   1
  -1   7   0 117.041 6.91439  -2
   1   6   0 117.041 6.91439   1
  -2   8   0 682.445 18.8861  -2
   2   6   0 682.445 18.8861   1
  -3   9   0 2959.52 100.261  -2
   3   6   0 2959.52 100.261   1
  -4  10   0 113.009 6.21692  -2
   4   6   0 113.009 6.21692   1
  -5  11   0 374.869 14.6084  -2
   5   6   0 374.869 14.6084   1
  -6  12   0 -6.6772 7.94042  -2
   6   6   0 -6.6772 7.94042   1
  -7  13   0 14.3586 8.11636  -2
   7   6   0 14.3586 8.11636   1
  -8  14   0 349.787 16.8883  -2
   8   6   0 349.787 16.8883   1
  -9  15   0 -10.391 9.90224  -2
   9   6   0 -10.391 9.90224   1
 -10  16   0 61.6842 11.9707  -2
  10   6   0 61.6842 11.9707   1
 -11  17   0 22.7329 12.2671  -2
  11   6   0 22.7329 12.2671   1
 -12   5   0 104.597 22.7245  -2
 -12   7   0 104.597 22.7245   1
 -11   4   0 13.6678 13.3727  -2
 -11   7   0 13.6678 13.3727   1
 -10   3   0 53.8673 12.4032  -2
 -10   7   0 53.8673 12.4032   1
  -9   2   0 421.833 22.4699  -2
  -9   7   0 421.833 22.4699   1
  -8   1   0 245.408 15.8174  -2
  -8   7   0 245.408 15.8174   1
   7   0   0 15.6604 8.81096  -2
  -7   7   0 15.6604 8.81096   1
   6   1   0 364.497 14.3420  -2
  -6   7   0 364.497 14.3420   1
   5   2   0 604.731 20.7816  -2
  -5   7   0 604.731 20.7816   1
   4   3   0 1104.19 37.3629  -2
  -4   7   0 1104.19 37.3629   1
   3   4   0 271.237 14.0883  -2
  -3   7   0 271.237 14.0883   1
   2   5   0 80.6470 8.03303  -2
  -2   7   0 80.6470 8.03303   1
   1   6   0 152.947 9.06730  -2
  -1   7   0 152.947 9.06730   1
   0   7   0 264.361 11.7844  -2
   0   7   0 264.361 11.7844   1
  -1   8   0 81.5626 6.71747  -2
   1   7   0 81.5626 6.71747   1
  -2   9   0 698.646 21.4823  -2
   2   7   0 698.646 21.4823   1
  -3  10   0 923.799 27.0865  -2
   3   7   0 923.799 27.0865   1
  -4  11   0 29.6208 4.91332  -2
   4   7   0 29.6208 4.91332   1
  -5  12   0 75.6655 8.15939  -2
   5   7   0 75.6655 8.15939   1
  -6  13   0 428.266 15.2440  -2
   6   7   0 428.266 15.2440   1
  -7  14   0 68.1713 9.11118  -2
   7   7   0 68.1713 9.11118   1
  -8  15   0 17.7944 9.52632  -2
   8   7   0 17.7944 9.52632   1
  -9  16   0 136.547 11.3285  -2
   9   7   0 136.547 11.3285   1
 -10  17   0 -2.1192 11.3791  -2
  10   7   0 -2.1192 11.3791   1
 -11  18   0 159.405 15.2591  -2
  11   7   0 159.405 15.2591   1
 -13   5   0 21.0919 22.7345  -2
 -13   8   0 21.0919 22.7345   1
 -12   4   0 63.0417 19.9023  -2
 -12   8   0 63.0417 19.9023   1
 -11   3   0 123.545 15.5302  -2
 -11   8   0 123.545 15.5302   1
 -10   2   0 399.017 22.5708  -2
 -10   8   0 399.017 22.5708   1
  -9   1   0 290.236 18.3465  -2
  -9   8   0 290.236 18.3465   1
   8   0   0 153.031 12.9614  -2
  -8   8   0 153.031 12.9614   1
   7   1   0 27.1143 8.83482  -2
  -7   8   0 27.1143 8.83482   1
   6   2   0 1682.42 52.0005  -2
  -6   8   0 1682.42 52.0005   1
   5   3   0 199.871 10.4956  -2
  -5   8   0 199.871 10.4956   1
   4   4   0 266.403 14.8882  -2
  -4   8   0 266.403 14.8882   1
   3   5   0 425.421 22.7260  -2
  -3   8   0 425.421 22.7260   1
   2   6   0 775.351 26.9255  -2
  -2   8   0 775.351 26.9255   1
   1   7   0 70.8284 7.14572  -2
  -1   8   0 70.8284 7.14572   1
   0   8   0 472.175 17.5173  -2
   0   8   0 472.175 17.5173   1
  -1   9   0 -6.2601 6.45416  -2
   1   8   0 -6.2601 6.45416   1
  -2  10   0 58.2282 5.08346  -2
   2   8   0 58.2282 5.08346   1
  -3  11   0 15.5489 5.05235  -2
   3   8   0 15.5489 5.05235   1
  -4  12   0 193.051 8.10818  -2
   4   8   0 193.051 8.10818   1
  -5  13   0 246.499 9.48875  -2
   5   8   0 246.499 9.48875   1
  -6  14   0 262.109 12.3784  -2
   6   8   0 262.109 12.3784   1
  -7  15   0 0.31998 8.87720  -2
   7   8   0 0.31998 8.87720   1
  -8  16   0 123.159 10.9390  -2
   8   8   0 123.159 10.9390   1
  -9  17   0 77.5911 11.8057  -2
   9   8   0 77.5911 11.8057   1
 -10  18   0 44.8328 11.6893  -2
  10   8   0 44.8328 11.6893   1
 -11  19   0 60.7148 12.2018  -2
  11   8   0 60.7148 12.2018   1
 -13   4   0 127.454 26.6176  -2
 -13   9   0 127.454 26.6176   1
 -12   3   0 55.3873 15.7011  -2
 -12   9   0 55.3873 15.7011   1
 -11   2   0 316.784 20.3688  -2
 -11   9   0 316.784 20.3688   1
 -10   1   0 6.90211 13.7418  -2
 -10   9   0 6.90211 13.7418   1
   9   0   0 92.2670 13.1085  -2
  -9   9   0 92.2670 13.1085   1
   8   1   0 917.828 34.4413  -2
  -8   9   0 917.828 34.4413   1
   7   2   0 29.4815 8.78746  -2
  -7   9   0 29.4815 8.78746   1
   6   3   0 392.439 15.3625  -2
  -6   9   0 392.439 15.3625   1
   5   4   0 942.482 30.5502  -2
  -5   9   0 942.482 30.5502   1
   4   5   0 114.008 9.49615  -2
  -4   9   0 114.008 9.49615   1
   3   6   0 2730.36 116.658  -2
  -3   9   0 2730.36 116.658   1
   2   7   0 800.216 30.2892  -2
  -2   9   0 800.216 30.2892   1
   1   8   0 5.04609 6.94104  -2
  -1   9   0 5.04609 6.94104   1
   0   9   0 328.111 13.9266  -2
   0   9   0 328.111 13.9266   1
  -1  10   0 62.9593 5.06254  -2
   1   9   0 62.9593 5.06254   1
  -2  11   0 307.049 10.3022  -2
   2   9   0 307.049 10.3022   1
  -3  12   0 507.373 16.0483  -2
   3   9   0 507.373 16.0483   1
  -4  13   0 8.84648 5.45634  -2
   4   9   0 8.84648 5.45634   1
  -5  14   0 2.11780 5.53467  -2
   5   9   0 2.11780 5.53467   1
  -6  15   0 114.142 9.34420  -2
   6   9   0 114.142 9.34420   1
  -7  16   0 48.8204 9.30888  -2
   7   9   0 48.8204 9.30888   1
  -8  17   0 103.218 10.5573  -2
   8   9   0 103.218 10.5573   1
  -9  18   0 38.7982 11.2182  -2
   9   9   0 38.7982 11.2182   1
 -10  19   0 -5.4297 11.9259  -2
  10   9   0 -5.4297 11.9259   1
 -13   3   0 30.3043 22.1732  -2
 -13  10   0 30.3043 22.1732   1
 -12   2   0 36.0985 16.0864  -2
 -12  10   0 36.0985 16.0864   1
 -11   1   0 50.5184 14.9399  -2
 -11  10   0 50.5184 14.9399   1
  10   0   0 681.472 33.0047  -2
 -10  10   0 681.472 33.0047   1
   9   1   0 49.7715 12.7022  -2
  -9  10   0 49.7715 12.7022   1
   8   2   0 474.394 24.3551  -2
  -8  10   0 474.394 24.3551   1
   7   3   0 16.2778 10.1931  -2
  -7  10   0 16.2778 10.1931   1
   6   4   0 80.2645 9.36714  -2
  -6  10   0 80.2645 9.36714   1
   5   5   0 1167.77 42.3705  -2
  -5  10   0 1167.77 42.3705   1
   4   6   0 92.5587 9.09085  -2
  -4  10   0 92.5587 9.09085   1
   3   7   0 961.236 31.1521  -2
  -3  10   0 961.236 31.1521   1
   2   8   0 52.8781 8.04833  -2
  -2  10   0 52.8781 8.04833   1
   1   9   0 55.1430 5.31846  -2
  -1  10   0 55.1430 5.31846   1
   0  10   0 385.310 12.4097  -2
   0  10   0 385.310 12.4097   1
  -1  11   0 86.2876 5.93008  -2
   1  10   0 86.2876 5.93008   1
  -2  12   0 337.253 11.7842  -2
   2  10   0 337.253 11.7842   1
  -3  13   0 16.4033 5.42064  -2
   3  10   0 16.4033 5.42064   1
  -4  14   0 190.459 8.96925  -2
   4  10   0 190.459 8.96925   1
  -5  15   0 224.066 12.6253  -2
   5  10   0 224.066 12.6253   1
  -6  16   0 111.278 9.75080  -2
   6  10   0 111.278 9.75080   1
  -7  17   0 -1.9612 9.35524  -2
   7  10   0 -1.9612 9.35524   1
  -8  18   0 -12.961 10.1722  -2
   8  10   0 -12.961 10.1722   1
  -9  19   0 -8.1515 11.6583  -2
   9  10   0 -8.1515 11.6583   1
 -10  20   0 34.0819 12.0952  -2
  10  10   0 34.0819 12.0952   1
 -13   2   0 23.2524 25.5748  -2
 -13  11   0 23.2524 25.5748   1
 -12   1   0 120.790 17.2628  -2
 -12  11   0 120.790 17.2628   1
  11   0   0 424.889 24.6622  -2
 -11  11   0 424.889 24.6622   1
  10   1   0 75.1448 14.6708  -2
 -10  11   0 75.1448 14.6708   1
   9   2   0 52.8297 11.8286  -2
  -9  11   0 52.8297 11.8286   1
   8   3   0 69.3540 7.88537  -2
  -8  11   0 69.3540 7.88537   1
   7   4   0 14.0418 10.2466  -2
  -7  11   0 14.0418 10.2466   1
   6   5   0 165.869 7.93010  -2
  -6  11   0 165.869 7.93010   1
   5   6   0 374.467 16.8448  -2
  -5  11   0 374.467 16.8448   1
   4   7   0 30.6500 8.23662  -2
  -4  11   0 30.6500 8.23662   1
   3   8   0 16.5528 8.22836  -2
  -3  11   0 16.5528 8.22836   1
   2   9   0 324.858 10.1201  -2
  -2  11   0 324.858 10.1201   1
   1  10   0 77.1056 6.08681  -2
  -1  11   0 77.1056 6.08681   1
   0  11   0 1371.04 36.8719  -2
   0  11   0 1371.04 36.8719   1
  -1  12   0 199.584 8.05191  -2
   1  11   0 199.584 8.05191   1
  -2  13   0 49.8863 5.73647  -2
   2  11   0 49.8863 5.73647   1
  -3  14   0 467.119 16.5454  -2
   3  11   0 467.119 16.5454   1
  -4  15   0 91.9099 7.00061  -2
   4  11   0 91.9099 7.00061   1
  -5  16   0 250.657 13.5547  -2
   5  11   0 250.657 13.5547   1
  -6  17   0 -11.288 10.4715  -2
   6  11   0 -11.288 10.4715   1
  -7  18   0 8.35002 9.44138  -2
   7  11   0 8.35002 9.44138   1
  -8  19   0 64.6653 10.6829  -2
   8  11   0 64.6653 10.6829   1
  -9  20   0 31.4118 11.6658  -2
   9  11   0 31.4118 11.6658   1
 -13   1   0 147.959 20.0577  -2
 -13  12   0 147.959 20.0577   1
  12   0   0 135.431 17.9931  -2
 -12  12   0 135.431 17.9931   1
  11   1   0 18.1595 15.2622  -2
 -11  12   0 18.1595 15.2622   1
  10   2   0 82.0356 15.1867  -2
 -10  12   0 82.0356 15.1867   1
   9   3   0 377.600 22.3248  -2
  -9  12   0 377.600 22.3248   1
   8   4   0 182.569 10.6199  -2
  -8  12   0 182.569 10.6199   1
   7   5   0 29.7185 7.33798  -2
  -7  12   0 29.7185 7.33798   1
   6   6   0 13.8666 10.2406  -2
  -6  12   0 13.8666 10.2406   1
   5   7   0 96.9785 9.67746  -2
  -5  12   0 96.9785 9.67746   1
   4   8   0 131.100 11.0620  -2
  -4  12   0 131.100 11.0620   1
   3   9   0 432.941 18.0824  -2
  -3  12   0 432.941 18.0824   1
   2  10   0 379.586 12.5766  -2
  -2  12   0 379.586 12.5766   1
   1  11   0 243.387 8.68070  -2
  -1  12   0 243.387 8.68070   1
   0  12   0 63.9834 5.91874  -2
   0  12   0 63.9834 5.91874   1
  -1  13   0 191.588 8.10140  -2
   1  12   0 191.588 8.10140   1
  -2  14   0 233.697 9.94607  -2
   2  12   0 233.697 9.94607   1
  -3  15   0 484.963 17.2102  -2
   3  12   0 484.963 17.2102   1
  -4  16   0 44.9397 8.68890  -2
   4  12   0 44.9397 8.68890   1
  -5  17   0 9.27058 9.15588  -2
   5  12   0 9.27058 9.15588   1
  -6  18   0 231.653 13.1761  -2
   6  12   0 231.653 13.1761   1
  -7  19   0 40.7240 10.1069  -2
   7  12   0 40.7240 10.1069   1
  -8  20   0 146.280 14.1138  -2
   8  12   0 146.280 14.1138   1
  -9  21   0 -5.2836 11.6735  -2
   9  12   0 -5.2836 11.6735   1
  13   0   0 2.15396 23.7641  -2
 -13  13   0 2.15396 23.7641   1
  12   1   0 20.9123 17.0243  -2
 -12  13   0 20.9123 17.0243   1
  11   2   0 566.792 30.2751  -2
 -11  13   0 566.792 30.2751   1
  10   3   0 82.8979 15.3623  -2
 -10  13   0 82.8979 15.3623   1
   9   4   0 94.5446 14.7413  -2
  -9  13   0 94.5446 14.7413   1
   8   5   0 -7.6028 12.8519  -2
  -8  13   0 -7.6028 12.8519   1
   7   6   0 22.4744 7.52602  -2
  -7  13   0 22.4744 7.52602   1
   6   7   0 434.147 22.1283  -2
  -6  13   0 434.147 22.1283   1
   5   8   0 342.452 18.7207  -2
  -5  13   0 342.452 18.7207   1
   4   9   0 -5.2912 9.13643  -2
  -4  13   0 -5.2912 9.13643   1
   3  10   0 5.72233 5.36160  -2
  -3  13   0 5.72233 5.36160   1
   2  11   0 38.0789 5.35965  -2
  -2  13   0 38.0789 5.35965   1
   1  12   0 157.126 7.62544  -2
  -1  13   0 157.126 7.62544   1
   0  13   0 366.501 15.5916  -2
   0  13   0 366.501 15.5916   1
  -1  14   0 59.1466 6.38052  -2
   1  13   0 59.1466 6.38052   1
  -2  15   0 14.3296 6.16034  -2
   2  13   0 14.3296 6.16034   1
  -3  16   0 -1.5445 6.80016  -2
   3  13   0 -1.5445 6.80016   1
  -4  17   0 -4.5577 10.1602  -2
   4  13   0 -4.5577 10.1602   1
  -5  18   0 148.754 11.5333  -2
   5  13   0 148.754 11.5333   1
  -6  19   0 16.1677 9.77846  -2
   6  13   0 16.1677 9.77846   1
  -7  20   0 -1.2178 9.99410  -2
   7  13   0 -1.2178 9.99410   1
  -8  21   0 -8.4009 11.6852  -2
   8  13   0 -8.4009 11.6852   1
  12   2   0 38.3017 18.1192  -2
 -12  14   0 38.3017 18.1192   1
  11   3   0 164.795 18.4193  -2
 -11  14   0 164.795 18.4193   1
  10   4   0 22.6773 16.4481  -2
 -10  14   0 22.6773 16.4481   1
   9   5   0 71.4411 14.8205  -2
  -9  14   0 71.4411 14.8205   1
   8   6   0 378.231 16.0251  -2
  -8  14   0 378.231 16.0251   1
   7   7   0 110.839 8.72328  -2
  -7  14   0 110.839 8.72328   1
   6   8   0 323.480 18.6183  -2
  -6  14   0 323.480 18.6183   1
   5   9   0 11.4121 10.8382  -2
  -5  14   0 11.4121 10.8382   1
   4  10   0 188.743 13.2381  -2
  -4  14   0 188.743 13.2381   1
   3  11   0 517.022 18.4028  -2
  -3  14   0 517.022 18.4028   1
   2  12   0 294.150 10.7214  -2
  -2  14   0 294.150 10.7214   1
   1  13   0 51.7730 5.88601  -2
  -1  14   0 51.7730 5.88601   1
   0  14   0 68.8298 6.03749  -2
   0  14   0 68.8298 6.03749   1
  -1  15   0 158.149 8.54935  -2
   1  14   0 158.149 8.54935   1
  -2  16   0 373.475 16.9512  -2
   2  14   0 373.475 16.9512   1
  -3  17   0 71.2025 8.17783  -2
   3  14   0 71.2025 8.17783   1
  -4  18   0 11.3774 10.5920  -2
   4  14   0 11.3774 10.5920   1
  -5  19   0 -14.496 10.1331  -2
   5  14   0 -14.496 10.1331   1
  -6  20   0 -19.561 19.8733  -2
   6  14   0 -19.561 19.8733   1
  -7  21   0 8.07802 10.4465  -2
   7  14   0 8.07802 10.4465   1
  -8  22   0 3.98781 12.2421  -2
   8  14   0 3.98781 12.2421   1
  12   3   0 0.88298 18.4172  -2
 -12  15   0 0.88298 18.4172   1
  11   4   0 103.863 17.6713  -2
 -11  15   0 103.863 17.6713   1
  10   5   0 164.959 18.6905  -2
 -10  15   0 164.959 18.6905   1
   9   6   0 5.94177 15.4190  -2
  -9  15   0 5.94177 15.4190   1
   8   7   0 15.5361 13.8790  -2
  -8  15   0 15.5361 13.8790   1
   7   8   0 5.48199 13.2085  -2
  -7  15   0 5.48199 13.2085   1
   6   9   0 164.903 14.7869  -2
  -6  15   0 164.903 14.7869   1
   5  10   0 291.387 17.8254  -2
  -5  15   0 291.387 17.8254   1
   4  11   0 86.6092 7.65563  -2
  -4  15   0 86.6092 7.65563   1
   3  12   0 536.147 19.2101  -2
  -3  15   0 536.147 19.2101   1
   2  13   0 3.07491 7.18056  -2
  -2  15   0 3.07491 7.18056   1
   1  14   0 164.434 8.52433  -2
  -1  15   0 164.434 8.52433   1
   0  15   0 509.070 20.7038  -2
   0  15   0 509.070 20.7038   1
  -1  16   0 147.624 10.3477  -2
   1  15   0 147.624 10.3477   1
  -2  17   0 20.0582 8.74623  -2
   2  15   0 20.0582 8.74623   1
  -3  18   0 34.3025 10.8825  -2
   3  15   0 34.3025 10.8825   1
  -4  19   0 2.20615 10.1017  -2
   4  15   0 2.20615 10.1017   1
  -5  20   0 175.688 14.3164  -2
   5  15   0 175.688 14.3164   1
  -6  21   0 72.7550 10.9097  -2
   6  15   0 72.7550 10.9097   1
  -7  22   0 -5.7369 10.5973  -2
   7  15   0 -5.7369 10.5973   1
  12   4   0 92.1919 29.6804  -2
 -12  16   0 92.1919 29.6804   1
  11   5   0 250.379 21.1547  -2
 -11  16   0 250.379 21.1547   1
  10   6   0 115.119 17.2631  -2
 -10  16   0 115.119 17.2631   1
   9   7   0 184.686 17.9726  -2
  -9  16   0 184.686 17.9726   1
   8   8   0 142.743 13.1225  -2
  -8  16   0 142.743 13.1225   1
   7   9   0 36.0306 13.2256  -2
  -7  16   0 36.0306 13.2256   1
   6  10   0 118.949 14.4474  -2
  -6  16   0 118.949 14.4474   1
   5  11   0 347.897 19.7022  -2
  -5  16   0 347.897 19.7022   1
   4  12   0 87.6894 18.1861  -2
  -4  16   0 87.6894 18.1861   1
   3  13   0 -10.576 7.47930  -2
  -3  16   0 -10.576 7.47930   1
   2  14   0 497.453 21.3459  -2
  -2  16   0 497.453 21.3459   1
   1  15   0 146.567 9.44978  -2
  -1  16   0 146.567 9.44978   1
   0  16   0 850.625 44.1599  -2
   0  16   0 850.625 44.1599   1
  -1  17   0 191.495 11.6531  -2
   1  16   0 191.495 11.6531   1
  -2  18   0 42.0292 10.0409  -2
   2  16   0 42.0292 10.0409   1
  -3  19   0 243.326 16.4697  -2
   3  16   0 243.326 16.4697   1
  -4  20   0 123.671 12.3051  -2
   4  16   0 123.671 12.3051   1
  -5  21   0 98.6676 13.1049  -2
   5  16   0 98.6676 13.1049   1
  -6  22   0 -15.652 12.0299  -2
   6  16   0 -15.652 12.0299   1
   7  16   0 -3.0578 8.97357   1
  11   6   0 67.3277 19.2816  -2
 -11  17   0 67.3277 19.2816   1
  10   7   0 8.65051 16.3514  -2
 -10  17   0 8.65051 16.3514   1
   9   8   0 105.804 17.5843  -2
  -9  17   0 105.804 17.5843   1
   8   9   0 120.755 11.0956  -2
  -8  17   0 120.755 11.0956   1
   7  10   0 0.92330 14.5115  -2
  -7  17   0 0.92330 14.5115   1
   6  11   0 10.5388 17.9140  -2
  -6  17   0 10.5388 17.9140   1
   5  12   0 9.94758 12.0636  -2
  -5  17   0 9.94758 12.0636   1
   4  13   0 13.9634 17.0746  -2
  -4  17   0 13.9634 17.0746   1
   2  15   0 6.02605 8.53039  -2
  -2  17   0 6.02605 8.53039   1
   1  16   0 188.865 10.7126  -2
  -1  17   0 188.865 10.7126   1
   0  17   0 283.518 17.8887  -2
   0  17   0 283.518 17.8887   1
  -1  18   0 35.0870 10.1963  -2
   1  17   0 35.0870 10.1963   1
  -2  19   0 182.395 14.3702  -2
   2  17   0 182.395 14.3702   1
  -3  20   0 191.623 15.4816  -2
   3  17   0 191.623 15.4816   1
  -4  21   0 22.5930 11.8262  -2
   4  17   0 22.5930 11.8262   1
  -5  22   0 4.93432 12.1124  -2
   5  17   0 4.93432 12.1124   1
  -6  23   0 50.1968 11.4506  -2
   6  17   0 50.1968 11.4506   1
  11   7   0 236.923 22.5959  -2
 -11  18   0 236.923 22.5959   1
  10   8   0 107.231 19.1315  -2
 -10  18   0 107.231 19.1315   1
   9   9   0 26.8957 11.5864  -2
  -9  18   0 26.8957 11.5864   1
   8  10   0 6.54728 15.6978  -2
  -8  18   0 6.54728 15.6978   1
   7  11   0 5.69216 22.6917  -2
  -7  18   0 5.69216 22.6917   1
   6  12   0 283.829 19.5967  -2
  -6  18   0 283.829 19.5967   1
   5  13   0 224.263 25.0631  -2
  -5  18   0 224.263 25.0631   1
   4  14   0 16.5345 17.4683  -2
  -4  18   0 16.5345 17.4683   1
   2  16   0 71.6854 10.7638  -2
  -2  18   0 71.6854 10.7638   1
   1  17   0 42.3641 8.56304  -2
  -1  18   0 42.3641 8.56304   1
  -1  19   0 88.2151 11.4759  -2
   1  18   0 88.2151 11.4759   1
  -2  20   0 -7.5041 10.8035  -2
   2  18   0 -7.5041 10.8035   1
  -3  21   0 1.09929 10.6138  -2
   3  18   0 1.09929 10.6138   1
  -4  22   0 63.8941 11.7120  -2
   4  18   0 63.8941 11.7120   1
  -5  23   0 33.5124 11.0438  -2
   5  18   0 33.5124 11.0438   1
  10   9   0 9.09902 17.7685  -2
 -10  19   0 9.09902 17.7685   1
   9  10   0 28.1460 16.6169  -2
  -9  19   0 28.1460 16.6169   1
   8  11   0 120.994 17.1932  -2
  -8  19   0 120.994 17.1932   1
   7  12   0 85.8469 15.3501  -2
  -7  19   0 85.8469 15.3501   1
   6  13   0 31.1306 14.8694  -2
  -6  19   0 31.1306 14.8694   1
   0  19   0 -9.8650 9.37550  -2
   0  19   0 -9.8650 9.37550   1
  -1  20   0 26.8968 10.7992  -2
   1  19   0 26.8968 10.7992   1
  -2  21   0 49.7901 10.5478  -2
   2  19   0 49.7901 10.5478   1
  -3  22   0 44.7097 12.3007  -2
   3  19   0 44.7097 12.3007   1
  -4  23   0 14.2391 12.6302  -2
   4  19   0 14.2391 12.6302   1
  10  10   0 66.4144 18.2537  -2
 -10  20   0 66.4144 18.2537   1
   9  11   0 95.8989 18.9427  -2
  -9  20   0 95.8989 18.9427   1
   8  12   0 248.464 15.8264  -2
  -8  20   0 248.464 15.8264   1
   7  13   0 -6.5177 23.4132  -2
  -7  20   0 -6.5177 23.4132   1
   6  14   0 16.5437 18.4968  -2
  -6  20   0 16.5437 18.4968   1
   5  15   0 273.600 27.3312  -2
  -5  20   0 273.600 27.3312   1
  -2  22   0 64.3482 10.4393  -2
   2  20   0 64.3482 10.4393   1
  -3  23   0 -4.6323 12.1827  -2
   3  20   0 -4.6323 12.1827   1
   9  12   0 19.2458 17.3835  -2
  -9  21   0 19.2458 17.3835   1
   7  14   0 8.97589 19.8687  -2
  -7  21   0 8.97589 19.8687   1
   6  15   0 64.2402 19.8744  -2
  -6  21   0 64.2402 19.8744   1
  -2  23   0 -0.9243 11.7532  -2
   2  21   0 -0.9243 11.7532   1
   8  14   0 198.603 15.8066  -2
  -8  22   0 198.603 15.8066   1
   6  16   1 -9.1663 27.0582  -2
   6 -23   1 -9.1663 27.0582   1
   7  15   1 -11.875 28.6092  -2
   7 -23   1 -11.875 28.6092   1
   5  16   1 45.2456 25.3821  -2
   5 -22   1 45.2456 25.3821   1
   6  15   1 142.808 29.1874  -2
   6 -22   1 142.808 29.1874   1
   8  13   1 388.554 23.9403  -2
   8 -22   1 388.554 23.9403   1
  -2  22   1 -5.5225 13.3504  -2
  -2 -21   1 -5.5225 13.3504   1
   5  15   1 133.992 26.7735  -2
   5 -21   1 133.992 26.7735   1
   6  14   1 227.264 31.3114  -2
   6 -21   1 227.264 31.3114   1
   7  13   1 -5.8828 27.9234  -2
   7 -21   1 -5.8828 27.9234   1
  -4  23   1 8.86325 11.3334  -2
  -4 -20   1 8.86325 11.3334   1
  -3  22   1 23.7734 12.0323  -2
  -3 -20   1 23.7734 12.0323   1
  -2  21   1 24.9641 11.8229  -2
  -2 -20   1 24.9641 11.8229   1
   4  15   1 361.038 33.0833  -2
   4 -20   1 361.038 33.0833   1
   5  14   1 75.5754 25.2590  -2
   5 -20   1 75.5754 25.2590   1
   6  13   1 33.5182 25.8588  -2
   6 -20   1 33.5182 25.8588   1
   7  12   1 91.8855 29.0826  -2
   7 -20   1 91.8855 29.0826   1
  -5  23   1 59.8279 11.0526  -2
  -5 -19   1 59.8279 11.0526   1
  -4  22   1 71.7054 11.5453  -2
  -4 -19   1 71.7054 11.5453   1
  -3  21   1 9.33819 12.9825  -2
  -3 -19   1 9.33819 12.9825   1
  -2  20   1 -11.913 12.3851  -2
  -2 -19   1 -11.913 12.3851   1
  -1  19   1 5.57476 12.1044  -2
  -1 -19   1 5.57476 12.1044   1
   3  15   1 22.1480 20.2985  -2
   3 -19   1 22.1480 20.2985   1
   5  13   1 12.4475 23.2522  -2
   5 -19   1 12.4475 23.2522   1
   6  12   1 201.913 27.0547  -2
   6 -19   1 201.913 27.0547   1
   7  11   1 87.1768 27.9061  -2
   7 -19   1 87.1768 27.9061   1
  -5  22   1 134.630 12.2569  -2
  -5 -18   1 134.630 12.2569   1
  -4  21   1 15.2910 10.8340  -2
  -4 -18   1 15.2910 10.8340   1
  -3  20   1 0.82129 10.8979  -2
  -3 -18   1 0.82129 10.8979   1
  -2  19   1 207.541 16.6042  -2
  -2 -18   1 207.541 16.6042   1
  -1  18   1 141.979 14.4988  -2
  -1 -18   1 141.979 14.4988   1
   3  14   1 202.691 24.4344  -2
   3 -18   1 202.691 24.4344   1
   4  13   1 201.870 26.2612  -2
   4 -18   1 201.870 26.2612   1
   5  12   1 4.73707 22.3428  -2
   5 -18   1 4.73707 22.3428   1
   6  11   1 28.1224 25.0088  -2
   6 -18   1 28.1224 25.0088   1
   7  10   1 -6.6559 25.1567  -2
   7 -18   1 -6.6559 25.1567   1
   9   8   1 311.069 34.9299  -2
   9 -18   1 311.069 34.9299   1
  11   6   1 38.6297 31.8709  -2
  11 -18   1 38.6297 31.8709   1
  -6  22   1 -19.174 19.4092  -2
  -6 -17   1 -19.174 19.4092   1
  -5  21   1 6.53056 10.1300  -2
  -5 -17   1 6.53056 10.1300   1
  -4  20   1 276.286 15.2665  -2
  -4 -17   1 276.286 15.2665   1
  -3  19   1 84.7336 10.7464  -2
  -3 -17   1 84.7336 10.7464   1
  -2  18   1 183.517 15.3589  -2
  -2 -17   1 183.517 15.3589   1
  -1  17   1 -5.3136 11.5991  -2
  -1 -17   1 -5.3136 11.5991   1
   2  14   1 211.115 22.9046  -2
   2 -17   1 211.115 22.9046   1
   3  13   1 115.804 21.3421  -2
   3 -17   1 115.804 21.3421   1
   4  12   1 -5.2852 20.5953  -2
   4 -17   1 -5.2852 20.5953   1
   5  11   1 -8.0775 19.5089  -2
   5 -17   1 -8.0775 19.5089   1
   6  10   1 390.503 35.6253  -2
   6 -17   1 390.503 35.6253   1
   7   9   1 163.686 19.8908  -2
   7 -17   1 163.686 19.8908   1
   8   8   1 145.615 12.9404  -2
   8 -17   1 145.615 12.9404   1
   9   7   1 24.5081 19.5258  -2
   9 -17   1 24.5081 19.5258   1
  10   6   1 73.3898 29.1688  -2
  10 -17   1 73.3898 29.1688   1
  11   5   1 80.2593 32.6305  -2
  11 -17   1 80.2593 32.6305   1
  -7  22   1 -16.958 11.6092  -2
  -7 -16   1 -16.958 11.6092   1
  -6  21   1 13.0832 9.88372  -2
  -6 -16   1 13.0832 9.88372   1
  -5  20   1 72.2896 9.92250  -2
  -5 -16   1 72.2896 9.92250   1
  -4  19   1 179.029 12.5700  -2
  -4 -16   1 179.029 12.5700   1
  -3  18   1 21.1068 10.2748  -2
  -3 -16   1 21.1068 10.2748   1
  -2  17   1 6.47673 10.3445  -2
  -2 -16   1 6.47673 10.3445   1
  -1  16   1 221.175 13.7122  -2
  -1 -16   1 221.175 13.7122   1
   0  15   1 147.055 13.3808  -2
   0 -16   1 147.055 13.3808   1
   1  14   1 256.450 17.2031  -2
   1 -16   1 256.450 17.2031   1
   2  13   1 286.752 25.4120  -2
   2 -16   1 286.752 25.4120   1
   3  12   1 -23.616 18.4899  -2
   3 -16   1 -23.616 18.4899   1
   4  11   1 360.630 31.0708  -2
   4 -16   1 360.630 31.0708   1
   5  10   1 258.422 27.8623  -2
   5 -16   1 258.422 27.8623   1
   6   9   1 495.375 27.6449  -2
   6 -16   1 495.375 27.6449   1
   7   8   1 135.407 27.3043  -2
   7 -16   1 135.407 27.3043   1
   8   7   1 23.2181 12.1841  -2
   8 -16   1 23.2181 12.1841   1
   9   6   1 80.4897 27.7077  -2
   9 -16   1 80.4897 27.7077   1
  10   5   1 113.609 29.1751  -2
  10 -16   1 113.609 29.1751   1
  11   4   1 101.084 30.5713  -2
  11 -16   1 101.084 30.5713   1
  -7  21   1 10.8667 11.4688  -2
  -7 -15   1 10.8667 11.4688   1
  -6  20   1 11.2289 9.63704  -2
  -6 -15   1 11.2289 9.63704   1
  -5  19   1 23.6448 9.54875  -2
  -5 -15   1 23.6448 9.54875   1
  -4  18   1 -5.9625 9.66920  -2
  -4 -15   1 -5.9625 9.66920   1
  -3  17   1 41.6685 9.40740  -2
  -3 -15   1 41.6685 9.40740   1
  -2  16   1 48.0597 11.2351  -2
  -2 -15   1 48.0597 11.2351   1
  -1  15   1 182.863 12.0407  -2
  -1 -15   1 182.863 12.0407   1
   0  14   1 48.0974 10.6424  -2
   0 -15   1 48.0974 10.6424   1
   1  13   1 25.1763 10.1769  -2
   1 -15   1 25.1763 10.1769   1
   2  12   1 168.614 11.3733  -2
   2 -15   1 168.614 11.3733   1
   3  11   1 49.7956 9.37296  -2
   3 -15   1 49.7956 9.37296   1
   4  10   1 224.446 24.5458  -2
   4 -15   1 224.446 24.5458   1
   5   9   1 40.4122 20.8647  -2
   5 -15   1 40.4122 20.8647   1
   6   8   1 29.7959 22.5133  -2
   6 -15   1 29.7959 22.5133   1
   7   7   1 83.4939 16.9600  -2
   7 -15   1 83.4939 16.9600   1
   8   6   1 41.4057 18.0287  -2
   8 -15   1 41.4057 18.0287   1
   9   5   1 201.641 30.3624  -2
   9 -15   1 201.641 30.3624   1
  10   4   1 105.416 20.1114  -2
  10 -15   1 105.416 20.1114   1
  11   3   1 40.6487 30.3484  -2
  11 -15   1 40.6487 30.3484   1
  12   2   1 119.737 33.7322  -2
  12 -15   1 119.737 33.7322   1
  -8  21   1 52.0231 11.6385  -2
  -8 -14   1 52.0231 11.6385   1
  -7  20   1 3.13086 9.52729  -2
  -7 -14   1 3.13086 9.52729   1
  -6  19   1 6.03326 9.19040  -2
  -6 -14   1 6.03326 9.19040   1
  -5  18   1 2.11316 9.12213  -2
  -5 -14   1 2.11316 9.12213   1
  -4  17   1 122.547 10.3881  -2
  -4 -14   1 122.547 10.3881   1
  -3  16   1 2.36641 9.33134  -2
  -3 -14   1 2.36641 9.33134   1
  -2  15   1 63.8464 9.48380  -2
  -2 -14   1 63.8464 9.48380   1
  -1  14   1 64.7951 9.02136  -2
  -1 -14   1 64.7951 9.02136   1
   0  13   1 52.2478 10.2318  -2
   0 -14   1 52.2478 10.2318   1
   1  12   1 472.820 20.5532  -2
   1 -14   1 472.820 20.5532   1
   2  11   1 201.259 11.8145  -2
   2 -14   1 201.259 11.8145   1
   3  10   1 39.8944 13.0903  -2
   3 -14   1 39.8944 13.0903   1
   4   9   1 4.66010 12.9658  -2
   4 -14   1 4.66010 12.9658   1
   5   8   1 7.00649 19.9903  -2
   5 -14   1 7.00649 19.9903   1
   6   7   1 255.601 16.9611  -2
   6 -14   1 255.601 16.9611   1
   7   6   1 228.306 11.9327  -2
   7 -14   1 228.306 11.9327   1
   8   5   1 6.56065 16.7064  -2
   8 -14   1 6.56065 16.7064   1
   9   4   1 48.0481 16.8833  -2
   9 -14   1 48.0481 16.8833   1
  10   3   1 268.174 23.0755  -2
  10 -14   1 268.174 23.0755   1
  11   2   1 134.241 29.4436  -2
  11 -14   1 134.241 29.4436   1
  12   1   1 350.357 39.0893  -2
  12 -14   1 350.357 39.0893   1
  -9  21   1 -5.0677 10.8242  -2
  -9 -13   1 -5.0677 10.8242   1
  -8  20   1 -6.6083 10.7923  -2
  -8 -13   1 -6.6083 10.7923   1
  -7  19   1 85.9584 9.99471  -2
  -7 -13   1 85.9584 9.99471   1
  -6  18   1 155.134 11.2364  -2
  -6 -13   1 155.134 11.2364   1
  -5  17   1 304.123 15.1565  -2
  -5 -13   1 304.123 15.1565   1
  -4  16   1 92.0278 9.33867  -2
  -4 -13   1 92.0278 9.33867   1
  -3  15   1 21.3331 8.23847  -2
  -3 -13   1 21.3331 8.23847   1
  -2  14   1 481.930 20.5568  -2
  -2 -13   1 481.930 20.5568   1
  -1  13   1 571.268 30.5882  -2
  -1 -13   1 571.268 30.5882   1
   0  12   1 290.188 13.9066  -2
   0 -13   1 290.188 13.9066   1
   1  11   1 223.862 10.6189  -2
   1 -13   1 223.862 10.6189   1
   2  10   1 81.0771 7.53919  -2
   2 -13   1 81.0771 7.53919   1
   3   9   1 440.681 23.0928  -2
   3 -13   1 440.681 23.0928   1
   4   8   1 159.854 14.1255  -2
   4 -13   1 159.854 14.1255   1
   5   7   1 155.214 15.3823  -2
   5 -13   1 155.214 15.3823   1
   6   6   1 165.279 14.1839  -2
   6 -13   1 165.279 14.1839   1
   7   5   1 141.824 9.88800  -2
   7 -13   1 141.824 9.88800   1
   8   4   1 15.6740 14.5710  -2
   8 -13   1 15.6740 14.5710   1
   9   3   1 442.018 26.3517  -2
   9 -13   1 442.018 26.3517   1
  10   2   1 385.403 36.5845  -2
  10 -13   1 385.403 36.5845   1
  13  -1   1 83.4056 32.6012  -2
  13 -13   1 83.4056 32.6012   1
  -9  20   1 28.3621 11.1521  -2
  -9 -12   1 28.3621 11.1521   1
  -8  19   1 17.7692 10.5251  -2
  -8 -12   1 17.7692 10.5251   1
  -7  18   1 151.825 11.2205  -2
  -7 -12   1 151.825 11.2205   1
  -6  17   1 14.1704 8.75203  -2
  -6 -12   1 14.1704 8.75203   1
  -5  16   1 2.23896 8.14209  -2
  -5 -12   1 2.23896 8.14209   1
  -4  15   1 210.609 11.8439  -2
  -4 -12   1 210.609 11.8439   1
  -3  14   1 155.891 9.90799  -2
  -3 -12   1 155.891 9.90799   1
  -2  13   1 582.786 20.2594  -2
  -2 -12   1 582.786 20.2594   1
  -1  12   1 89.4332 8.31287  -2
  -1 -12   1 89.4332 8.31287   1
   0  11   1 43.8278 7.65739  -2
   0 -12   1 43.8278 7.65739   1
   1  10   1 456.231 19.7557  -2
   1 -12   1 456.231 19.7557   1
   2   9   1 459.433 20.0185  -2
   2 -12   1 459.433 20.0185   1
   3   8   1 785.252 35.9965  -2
   3 -12   1 785.252 35.9965   1
   4   7   1 170.962 14.6769  -2
   4 -12   1 170.962 14.6769   1
   5   6   1 29.6972 12.9192  -2
   5 -12   1 29.6972 12.9192   1
   6   5   1 69.9243 12.0659  -2
   6 -12   1 69.9243 12.0659   1
   7   4   1 151.288 9.96492  -2
   7 -12   1 151.288 9.96492   1
   8   3   1 129.700 15.0374  -2
   8 -12   1 129.700 15.0374   1
   9   2   1 64.3457 15.9861  -2
   9 -12   1 64.3457 15.9861   1
  10   1   1 40.7648 26.2317  -2
  10 -12   1 40.7648 26.2317   1
  11   0   1 222.273 31.8688  -2
  11 -12   1 222.273 31.8688   1
 -10  20   1 60.8104 11.2059  -2
 -10 -11   1 60.8104 11.2059   1
  -9  19   1 3.41364 10.0772  -2
  -9 -11   1 3.41364 10.0772   1
  -8  18   1 5.22958 8.62641  -2
  -8 -11   1 5.22958 8.62641   1
  -7  17   1 -7.1637 8.59332  -2
  -7 -11   1 -7.1637 8.59332   1
  -6  16   1 12.2370 8.45981  -2
  -6 -11   1 12.2370 8.45981   1
  -5  15   1 306.547 14.8199  -2
  -5 -11   1 306.547 14.8199   1
  -4  14   1 309.568 14.7128  -2
  -4 -11   1 309.568 14.7128   1
  -3  13   1 37.1468 6.81690  -2
  -3 -11   1 37.1468 6.81690   1
  -2  12   1 85.3206 6.63816  -2
  -2 -11   1 85.3206 6.63816   1
  -1  11   1 491.115 18.0772  -2
  -1 -11   1 491.115 18.0772   1
   0  10   1 15.6296 6.90325  -2
   0 -11   1 15.6296 6.90325   1
   1   9   1 874.704 27.1839  -2
   1 -11   1 874.704 27.1839   1
   2   8   1 43.1459 15.2853  -2
   2 -11   1 43.1459 15.2853   1
   3   7   1 57.2750 12.1251  -2
   3 -11   1 57.2750 12.1251   1
   4   6   1 505.575 25.2361  -2
   4 -11   1 505.575 25.2361   1
   5   5   1 68.5847 16.4629  -2
   5 -11   1 68.5847 16.4629   1
   6   4   1 760.272 30.0962  -2
   6 -11   1 760.272 30.0962   1
   7   3   1 19.6806 12.0298  -2
   7 -11   1 19.6806 12.0298   1
   8   2   1 54.5101 12.8538  -2
   8 -11   1 54.5101 12.8538   1
   9   1   1 160.760 18.0602  -2
   9 -11   1 160.760 18.0602   1
  10   0   1 308.347 32.5098  -2
  10 -11   1 308.347 32.5098   1
  11  -1   1 240.794 31.3454  -2
  11 -11   1 240.794 31.3454   1
  12  -2   1 115.355 29.6911  -2
  12 -11   1 115.355 29.6911   1
 -10  19   1 7.13237 10.4456  -2
 -10 -10   1 7.13237 10.4456   1
  -9  18   1 25.8996 9.98709  -2
  -9 -10   1 25.8996 9.98709   1
  -8  17   1 24.7201 8.43027  -2
  -8 -10   1 24.7201 8.43027   1
  -7  16   1 243.204 13.1381  -2
  -7 -10   1 243.204 13.1381   1
  -6  15   1 45.9107 8.04529  -2
  -6 -10   1 45.9107 8.04529   1
  -5  14   1 18.6685 7.48034  -2
  -5 -10   1 18.6685 7.48034   1
  -4  13   1 56.5445 7.97198  -2
  -4 -10   1 56.5445 7.97198   1
  -3  12   1 107.945 7.43262  -2
  -3 -10   1 107.945 7.43262   1
  -2  11   1 100.082 6.67112  -2
  -2 -10   1 100.082 6.67112   1
  -1  10   1 178.180 8.85030  -2
  -1 -10   1 178.180 8.85030   1
   0   9   1 122.901 7.77969  -2
   0 -10   1 122.901 7.77969   1
   1   8   1 100.745 11.4917  -2
   1 -10   1 100.745 11.4917   1
   2   7   1 477.070 21.2742  -2
   2 -10   1 477.070 21.2742   1
   3   6   1 134.003 15.1318  -2
   3 -10   1 134.003 15.1318   1
   4   5   1 1653.89 71.0084  -2
   4 -10   1 1653.89 71.0084   1
   5   4   1 39.4378 10.6766  -2
   5 -10   1 39.4378 10.6766   1
   6   3   1 177.437 13.6064  -2
   6 -10   1 177.437 13.6064   1
   7   2   1 385.372 19.1630  -2
   7 -10   1 385.372 19.1630   1
   8   1   1 49.8927 11.8237  -2
   8 -10   1 49.8927 11.8237   1
   9   0   1 712.599 29.3965  -2
   9 -10   1 712.599 29.3965   1
  10  -1   1 94.7373 25.3537  -2
  10 -10   1 94.7373 25.3537   1
  11  -2   1 29.5221 26.0171  -2
  11 -10   1 29.5221 26.0171   1
  12  -3   1 141.359 27.9033  -2
  12 -10   1 141.359 27.9033   1
 -10  18   1 129.440 12.0386  -2
 -10  -9   1 129.440 12.0386   1
  -9  17   1 26.8372 10.4725  -2
  -9  -9   1 26.8372 10.4725   1
  -8  16   1 255.377 13.5395  -2
  -8  -9   1 255.377 13.5395   1
  -7  15   1 47.5357 9.02147  -2
  -7  -9   1 47.5357 9.02147   1
  -6  14   1 7.32029 7.44290  -2
  -6  -9   1 7.32029 7.44290   1
  -5  13   1 571.577 20.5988  -2
  -5  -9   1 571.577 20.5988   1
  -4  12   1 430.666 15.3968  -2
  -4  -9   1 430.666 15.3968   1
  -3  11   1 28.4175 5.80382  -2
  -3  -9   1 28.4175 5.80382   1
  -2  10   1 101.489 6.60698  -2
  -2  -9   1 101.489 6.60698   1
  -1   9   1 9.91566 12.0238  -2
  -1  -9   1 9.91566 12.0238   1
   0   8   1 436.768 18.2125  -2
   0  -9   1 436.768 18.2125   1
   1   7   1 1639.68 59.0090  -2
   1  -9   1 1639.68 59.0090   1
   2   6   1 687.573 27.4994  -2
   2  -9   1 687.573 27.4994   1
   3   5   1 329.662 21.9210  -2
   3  -9   1 329.662 21.9210   1
   4   4   1 5.73351 11.0968  -2
   4  -9   1 5.73351 11.0968   1
   5   3   1 98.0541 11.0013  -2
   5  -9   1 98.0541 11.0013   1
   6   2   1 129.091 12.4179  -2
   6  -9   1 129.091 12.4179   1
   7   1   1 1284.11 46.9608  -2
   7  -9   1 1284.11 46.9608   1
   8   0   1 -5.5015 10.7012  -2
   8  -9   1 -5.5015 10.7012   1
   9  -1   1 413.656 33.2896  -2
   9  -9   1 413.656 33.2896   1
  10  -2   1 280.084 30.2707  -2
  10  -9   1 280.084 30.2707   1
  11  -3   1 138.711 26.9452  -2
  11  -9   1 138.711 26.9452   1
 -11  18   1 10.7325 10.1097  -2
 -11  -8   1 10.7325 10.1097   1
 -10  17   1 134.667 11.9413  -2
 -10  -8   1 134.667 11.9413   1
  -9  16   1 71.8094 10.0142  -2
  -9  -8   1 71.8094 10.0142   1
  -8  15   1 -1.8197 8.17129  -2
  -8  -8   1 -1.8197 8.17129   1
  -7  14   1 64.6014 8.30270  -2
  -7  -8   1 64.6014 8.30270   1
  -6  13   1 92.7666 6.36375  -2
  -6  -8   1 92.7666 6.36375   1
  -5  12   1 810.161 24.1341  -2
  -5  -8   1 810.161 24.1341   1
  -4  11   1 44.1199 5.70879  -2
  -4  -8   1 44.1199 5.70879   1
  -3  10   1 15.6690 5.62722  -2
  -3  -8   1 15.6690 5.62722   1
  -2   9   1 352.785 14.1789  -2
  -2  -8   1 352.785 14.1789   1
  -1   8   1 562.133 21.1061  -2
  -1  -8   1 562.133 21.1061   1
   0   7   1 134.293 11.6049  -2
   0  -8   1 134.293 11.6049   1
   1   6   1 256.286 13.3121  -2
   1  -8   1 256.286 13.3121   1
   3   4   1 103.732 15.4575  -2
   3  -8   1 103.732 15.4575   1
   4   3   1 916.631 36.0511  -2
   4  -8   1 916.631 36.0511   1
   5   2   1 82.3858 10.9093  -2
   5  -8   1 82.3858 10.9093   1
   6   1   1 184.645 11.9069  -2
   6  -8   1 184.645 11.9069   1
   7   0   1 281.046 15.5568  -2
   7  -8   1 281.046 15.5568   1
   8  -1   1 59.0670 13.7590  -2
   8  -8   1 59.0670 13.7590   1
   9  -2   1 215.317 24.3028  -2
   9  -8   1 215.317 24.3028   1
  10  -3   1 428.181 35.1915  -2
  10  -8   1 428.181 35.1915   1
 -11  17   1 21.7006 10.1057  -2
 -11  -7   1 21.7006 10.1057   1
 -10  16   1 16.8389 9.50787  -2
 -10  -7   1 16.8389 9.50787   1
  -9  15   1 -4.3637 9.01907  -2
  -9  -7   1 -4.3637 9.01907   1
  -8  14   1 69.2928 8.69310  -2
  -8  -7   1 69.2928 8.69310   1
  -7  13   1 470.667 20.0981  -2
  -7  -7   1 470.667 20.0981   1
  -6  12   1 41.2664 7.82632  -2
  -6  -7   1 41.2664 7.82632   1
  -5  11   1 140.066 7.65809  -2
  -5  -7   1 140.066 7.65809   1
  -4  10   1 276.828 11.9342  -2
  -4  -7   1 276.828 11.9342   1
  -3   9   1 111.053 9.87990  -2
  -3  -7   1 111.053 9.87990   1
  -2   8   1 3157.61 84.4721  -2
  -2  -7   1 3157.61 84.4721   1
  -1   7   1 152.450 11.1992  -2
  -1  -7   1 152.450 11.1992   1
   1   5   1 1152.40 37.2391  -2
   1  -7   1 1152.40 37.2391   1
   3   3   1 1490.87 54.4577  -2
   3  -7   1 1490.87 54.4577   1
   4   2   1 601.412 25.8716  -2
   4  -7   1 601.412 25.8716   1
   5   1   1 389.986 16.4856  -2
   5  -7   1 389.986 16.4856   1
   6   0   1 465.169 18.2454  -2
   6  -7   1 465.169 18.2454   1
   7  -1   1 80.4851 10.7715  -2
   7  -7   1 80.4851 10.7715   1
   8  -2   1 237.666 16.9217  -2
   8  -7   1 237.666 16.9217   1
   9  -3   1 151.492 22.0769  -2
   9  -7   1 151.492 22.0769   1
  10  -4   1 48.9882 20.8115  -2
  10  -7   1 48.9882 20.8115   1
  13  -6   1 22.2050 27.7627  -2
  13  -7   1 22.2050 27.7627   1
 -11  16   1 8.73179 10.0162  -2
 -11  -6   1 8.73179 10.0162   1
 -10  15   1 8.69940 9.37498  -2
 -10  -6   1 8.69940 9.37498   1
  -9  14   1 18.8892 8.20991  -2
  -9  -6   1 18.8892 8.20991   1
  -8  13   1 25.8310 7.88429  -2
  -8  -6   1 25.8310 7.88429   1
  -7  12   1 3.95332 7.03702  -2
  -7  -6   1 3.95332 7.03702   1
  -6  11   1 17.8549 7.29952  -2
  -6  -6   1 17.8549 7.29952   1
  -5  10   1 598.803 20.9231  -2
  -5  -6   1 598.803 20.9231   1
  -4   9   1 941.808 34.3230  -2
  -4  -6   1 941.808 34.3230   1
  -3   8   1 121.367 11.2759  -2
  -3  -6   1 121.367 11.2759   1
  -2   7   1 491.913 16.0071  -2
  -2  -6   1 491.913 16.0071   1
  -1   6   1 329.634 14.6208  -2
  -1  -6   1 329.634 14.6208   1
   1   4   1 726.224 24.9592  -2
   1  -6   1 726.224 24.9592   1
   4   1   1 555.720 24.0847  -2
   4  -6   1 555.720 24.0847   1
   5   0   1 226.224 15.1530  -2
   5  -6   1 226.224 15.1530   1
   6  -1   1 2760.34 96.1536  -2
   6  -6   1 2760.34 96.1536   1
   7  -2   1 136.176 13.2061  -2
   7  -6   1 136.176 13.2061   1
   8  -3   1 21.2750 12.3379  -2
   8  -6   1 21.2750 12.3379   1
   9  -4   1 177.400 21.6176  -2
   9  -6   1 177.400 21.6176   1
  10  -5   1 43.0217 19.5278  -2
  10  -6   1 43.0217 19.5278   1
 -10  14   1 58.1006 10.1503  -2
 -10  -5   1 58.1006 10.1503   1
  -9  13   1 2.37197 8.00671  -2
  -9  -5   1 2.37197 8.00671   1
  -8  12   1 146.224 9.93536  -2
  -8  -5   1 146.224 9.93536   1
  -7  11   1 120.593 8.68499  -2
  -7  -5   1 120.593 8.68499   1
  -6  10   1 -2.4836 6.93143  -2
  -6  -5   1 -2.4836 6.93143   1
  -5   9   1 149.355 15.6867  -2
  -5  -5   1 149.355 15.6867   1
  -4   8   1 217.711 15.6422  -2
  -4  -5   1 217.711 15.6422   1
  -3   7   1 323.335 15.2585  -2
  -3  -5   1 323.335 15.2585   1
  -2   6   1 192.369 11.3950  -2
  -2  -5   1 192.369 11.3950   1
  -1   5   1 2183.36 66.8883  -2
  -1  -5   1 2183.36 66.8883   1
   1   3   1 1013.70 32.8185  -2
   1  -5   1 1013.70 32.8185   1
   4   0   1 2825.02 99.0275  -2
   4  -5   1 2825.02 99.0275   1
   5  -1   1 43.7940 15.0785  -2
   5  -5   1 43.7940 15.0785   1
   6  -2   1 409.869 28.4059  -2
   6  -5   1 409.869 28.4059   1
   7  -3   1 486.632 23.9199  -2
   7  -5   1 486.632 23.9199   1
   9  -5   1 953.626 59.7020  -2
   9  -5   1 953.626 59.7020   1
 -10  13   1 136.380 12.1994  -2
 -10  -4   1 136.380 12.1994   1
  -9  12   1 57.2451 8.16725  -2
  -9  -4   1 57.2451 8.16725   1
  -8  11   1 123.949 9.04460  -2
  -8  -4   1 123.949 9.04460   1
  -7  10   1 63.2374 7.25576  -2
  -7  -4   1 63.2374 7.25576   1
  -6   9   1 32.1154 6.31547  -2
  -6  -4   1 32.1154 6.31547   1
  -5   8   1 1193.16 50.6564  -2
  -5  -4   1 1193.16 50.6564   1
  -4   7   1 2782.30 115.166  -2
  -4  -4   1 2782.30 115.166   1
  -3   6   1 318.077 14.9370  -2
  -3  -4   1 318.077 14.9370   1
  -2   5   1 200.536 10.9962  -2
  -2  -4   1 200.536 10.9962   1
  -1   4   1 512.971 22.4965  -2
  -1  -4   1 512.971 22.4965   1
   2   1   1 2754.78 96.5143  -2
   2  -4   1 2754.78 96.5143   1
   6  -3   1 902.941 55.0870  -2
   6  -4   1 902.941 55.0870   1
   7  -4   1 1623.75 69.3957  -2
   7  -4   1 1623.75 69.3957   1
 -10  12   1 945.373 49.1221  -2
 -10  -3   1 945.373 49.1221   1
  -9  11   1 129.445 9.81811  -2
  -9  -3   1 129.445 9.81811   1
  -8  10   1 77.2370 7.80299  -2
  -8  -3   1 77.2370 7.80299   1
  -7   9   1 434.688 18.3366  -2
  -7  -3   1 434.688 18.3366   1
  -6   8   1 216.226 13.5935  -2
  -6  -3   1 216.226 13.5935   1
  -5   7   1 1376.16 78.7243  -2
  -5  -3   1 1376.16 78.7243   1
  -4   6   1 83.5567 11.5366  -2
  -4  -3   1 83.5567 11.5366   1
  -3   5   1 421.076 20.6782  -2
  -3  -3   1 421.076 20.6782   1
  -2   4   1 323.890 12.9322  -2
  -2  -3   1 323.890 12.9322   1
   0   2   1 1308.92 40.4255  -2
   0  -3   1 1308.92 40.4255   1
   2   0   1 816.335 40.4742  -2
   2  -3   1 816.335 40.4742   1
   3  -1   1 494.724 16.3393  -2
   3  -3   1 494.724 16.3393   1
   4  -2   1 651.892 29.0390  -2
   4  -3   1 651.892 29.0390   1
   5  -3   1 160.556 15.5018  -2
   5  -3   1 160.556 15.5018   1
   6  -4   1 1051.38 63.4250  -2
   6  -3   1 1051.38 63.4250   1
   7  -5   1 459.503 30.3804  -2
   7  -3   1 459.503 30.3804   1
 -10  11   1 85.8987 9.12052  -2
 -10  -2   1 85.8987 9.12052   1
  -9  10   1 136.875 10.0063  -2
  -9  -2   1 136.875 10.0063   1
  -8   9   1 22.2423 6.20278  -2
  -8  -2   1 22.2423 6.20278   1
  -7   8   1 645.965 25.7917  -2
  -7  -2   1 645.965 25.7917   1
  -6   7   1 147.563 16.0632  -2
  -6  -2   1 147.563 16.0632   1
  -5   6   1 321.869 16.8201  -2
  -5  -2   1 321.869 16.8201   1
  -4   5   1 31.6214 10.2602  -2
  -4  -2   1 31.6214 10.2602   1
  -3   4   1 833.088 36.0667  -2
  -3  -2   1 833.088 36.0667   1
  -1   2   1 2047.55 89.4215  -2
  -1  -2   1 2047.55 89.4215   1
   0   1   1 97.0318 8.05829  -2
   0  -2   1 97.0318 8.05829   1
   1   0   1 216.074 10.5164  -2
   1  -2   1 216.074 10.5164   1
   2  -1   1 975.939 30.3177  -2
   2  -2   1 975.939 30.3177   1
   3  -2   1 1683.97 57.7114  -2
   3  -2   1 1683.97 57.7114   1
   4  -3   1 605.183 27.2054  -2
   4  -2   1 605.183 27.2054   1
   5  -4   1 431.744 28.3131  -2
   5  -2   1 431.744 28.3131   1
   6  -5   1 474.841 30.5450  -2
   6  -2   1 474.841 30.5450   1
 -10  10   1 358.593 16.9373  -2
 -10  -1   1 358.593 16.9373   1
  -9   9   1 44.0822 7.95085  -2
  -9  -1   1 44.0822 7.95085   1
  -8   8   1 94.9436 7.96375  -2
  -8  -1   1 94.9436 7.96375   1
  -7   7   1 311.468 16.7146  -2
  -7  -1   1 311.468 16.7146   1
  -6   6   1 54.4186 7.51983  -2
  -6  -1   1 54.4186 7.51983   1
  -5   5   1 13.1509 6.92409  -2
  -5  -1   1 13.1509 6.92409   1
  -4   4   1 1932.64 65.5888  -2
  -4  -1   1 1932.64 65.5888   1
  -3   3   1 292.494 12.3474  -2
  -3  -1   1 292.494 12.3474   1
  -2   2   1 586.480 25.9955  -2
  -2  -1   1 586.480 25.9955   1
  -1   1   1 5.38471 7.21819  -2
  -1  -1   1 5.38471 7.21819   1
   0  -1   1 7.91668 2.12300   1
   2  -2   1 711.671 30.6470  -2
   2  -1   1 711.671 30.6470   1
   3  -3   1 455.368 20.9433  -2
   3  -1   1 455.368 20.9433   1
   4  -4   1 581.969 26.2502  -2
   4  -1   1 581.969 26.2502   1
   5  -5   1 52.0693 10.3421  -2
   5  -1   1 52.0693 10.3421   1
   6  -6   1 2518.80 147.903  -2
   6  -1   1 2518.80 147.903   1
   7  -7   1 70.7980 9.68153  -2
   7  -1   1 70.7980 9.68153   1
 -10   9   1 462.455 34.1529  -2
 -10   0   1 462.455 34.1529   1
  -9   8   1 46.9723 7.23742  -2
  -9   0   1 46.9723 7.23742   1
  -8   7   1 140.829 9.01631  -2
  -8   0   1 140.829 9.01631   1
  -7   6   1 554.955 35.7097  -2
  -7   0   1 554.955 35.7097   1
  -6   5   1 442.239 17.0081  -2
  -6   0   1 442.239 17.0081   1
  -5   4   1 96.6232 8.95882  -2
  -5   0   1 96.6232 8.95882   1
  -4   3   1 91.8650 7.46781  -2
  -4   0   1 91.8650 7.46781   1
  -3   2   1 136.332 8.13536  -2
  -3   0   1 136.332 8.13536   1
  -2   1   1 590.379 25.2351  -2
  -2   0   1 590.379 25.2351   1
  -1   0   1 136.674 8.87457   1
   0   0   1 -1.8640 0.95541   1
   1  -2   1 213.407 10.4686  -2
   1   0   1 213.407 10.4686   1
   2  -3   1 628.143 23.5834  -2
   2   0   1 628.143 23.5834   1
   3  -4   1 47.8489 6.71915  -2
   3   0   1 47.8489 6.71915   1
   4  -5   1 2694.68 109.553  -2
   4   0   1 2694.68 109.553   1
   5  -6   1 167.545 13.1351  -2
   5   0   1 167.545 13.1351   1
   6  -7   1 413.259 26.1282  -2
   6   0   1 413.259 26.1282   1
   7  -8   1 339.731 19.9512  -2
   7   0   1 339.731 19.9512   1
 -10   8   1 393.675 30.0226  -2
 -10   1   1 393.675 30.0226   1
  -9   7   1 243.302 10.5627  -2
  -9   1   1 243.302 10.5627   1
  -8   6   1 573.703 21.4239  -2
  -8   1   1 573.703 21.4239   1
  -7   5   1 309.243 16.1076  -2
  -7   1   1 309.243 16.1076   1
  -6   4   1 19.3419 6.87904  -2
  -6   1   1 19.3419 6.87904   1
  -5   3   1 381.830 18.3893  -2
  -5   1   1 381.830 18.3893   1
  -4   2   1 351.081 17.0477  -2
  -4   1   1 351.081 17.0477   1
  -3   1   1 108.310 9.74059  -2
  -3   1   1 108.310 9.74059   1
  -2   0   1 890.228 53.5029  -2
  -2   1   1 890.228 53.5029   1
   0  -2   1 138.239 10.8864  -2
   0   1   1 138.239 10.8864   1
   1  -3   1 740.545 33.0827  -2
   1   1   1 740.545 33.0827   1
   2  -4   1 2929.74 121.660  -2
   2   1   1 2929.74 121.660   1
   3  -5   1 13.3769 19.2116  -2
   3   1   1 13.3769 19.2116   1
   4  -6   1 584.789 39.0212  -2
   4   1   1 584.789 39.0212   1
   5  -7   1 386.223 19.0721  -2
   5   1   1 386.223 19.0721   1
   7  -9   1 1158.52 59.4710  -2
   7   1   1 1158.52 59.4710   1
   8 -10   1 27.2443 11.0823  -2
   8   1   1 27.2443 11.0823   1
   9 -11   1 125.413 13.5729  -2
   9   1   1 125.413 13.5729   1
  10 -12   1 -18.531 12.7599  -2
  10   1   1 -18.531 12.7599   1
  11 -13   1 -25.124 13.5248  -2
  11   1   1 -25.124 13.5248   1
 -11   8   1 17.5487 17.1897  -2
 -11   2   1 17.5487 17.1897   1
 -10   7   1 611.477 28.4071  -2
 -10   2   1 611.477 28.4071   1
  -9   6   1 381.211 12.5526  -2
  -9   2   1 381.211 12.5526   1
  -8   5   1 239.394 11.3476  -2
  -8   2   1 239.394 11.3476   1
  -7   4   1 331.173 16.6878  -2
  -7   2   1 331.173 16.6878   1
  -6   3   1 1051.50 44.0662  -2
  -6   2   1 1051.50 44.0662   1
  -4   1   1 346.107 23.9137  -2
  -4   2   1 346.107 23.9137   1
  -3   0   1 134.064 14.8906  -2
  -3   2   1 134.064 14.8906   1
  -2  -1   1 644.543 29.1317  -2
  -2   2   1 644.543 29.1317   1
  -1  -2   1 2122.21 176.207  -2
  -1   2   1 2122.21 176.207   1
   0  -3   1 1339.75 64.4294  -2
   0   2   1 1339.75 64.4294   1
   1  -4   1 642.279 38.6244  -2
   1   2   1 642.279 38.6244   1
   2  -5   1 535.338 24.1749  -2
   2   2   1 535.338 24.1749   1
   3  -6   1 210.251 18.0771  -2
   3   2   1 210.251 18.0771   1
   4  -7   1 526.557 36.1450  -2
   4   2   1 526.557 36.1450   1
   5  -8   1 110.239 22.1777  -2
   5   2   1 110.239 22.1777   1
   6  -9   1 107.963 9.25865  -2
   6   2   1 107.963 9.25865   1
   7 -10   1 371.360 21.6471  -2
   7   2   1 371.360 21.6471   1
   8 -11   1 30.0088 10.9972  -2
   8   2   1 30.0088 10.9972   1
   9 -12   1 66.6044 13.1443  -2
   9   2   1 66.6044 13.1443   1
  10 -13   1 330.953 21.6963  -2
  10   2   1 330.953 21.6963   1
  11 -14   1 35.2530 14.3886  -2
  11   2   1 35.2530 14.3886   1
 -11   7   1 -27.269 16.8136  -2
 -11   3   1 -27.269 16.8136   1
 -10   6   1 64.8213 8.12314  -2
 -10   3   1 64.8213 8.12314   1
  -9   5   1 4.62070 4.95053  -2
  -9   3   1 4.62070 4.95053   1
  -8   4   1 61.5912 8.34852  -2
  -8   3   1 61.5912 8.34852   1
  -7   3   1 3382.64 190.011  -2
  -7   3   1 3382.64 190.011   1
  -6   2   1 1096.58 45.8168  -2
  -6   3   1 1096.58 45.8168   1
  -5   1   1 425.920 19.8376  -2
  -5   3   1 425.920 19.8376   1
  -4   0   1 69.1931 13.2739  -2
  -4   3   1 69.1931 13.2739   1
  -3  -1   1 336.112 17.7933  -2
  -3   3   1 336.112 17.7933   1
   1  -5   1 1025.69 59.9718  -2
   1   3   1 1025.69 59.9718   1
   2  -6   1 492.515 46.1680  -2
   2   3   1 492.515 46.1680   1
   3  -7   1 1316.99 50.7425  -2
   3   3   1 1316.99 50.7425   1
   4  -8   1 965.706 43.5546  -2
   4   3   1 965.706 43.5546   1
   5  -9   1 93.8344 20.7128  -2
   5   3   1 93.8344 20.7128   1
   6 -10   1 181.564 11.8557  -2
   6   3   1 181.564 11.8557   1
   7 -11   1 12.4035 9.87872  -2
   7   3   1 12.4035 9.87872   1
   8 -12   1 92.1197 12.5303  -2
   8   3   1 92.1197 12.5303   1
   9 -13   1 377.682 23.2486  -2
   9   3   1 377.682 23.2486   1
  10 -14   1 203.590 17.5813  -2
  10   3   1 203.590 17.5813   1
  11 -15   1 -8.5984 14.2179  -2
  11   3   1 -8.5984 14.2179   1
 -11   6   1 151.616 17.3471  -2
 -11   4   1 151.616 17.3471   1
 -10   5   1 142.646 9.88089  -2
 -10   4   1 142.646 9.88089   1
  -9   4   1 10.5565 4.88629  -2
  -9   4   1 10.5565 4.88629   1
  -8   3   1 80.2627 9.46920  -2
  -8   4   1 80.2627 9.46920   1
  -7   2   1 359.768 14.4642  -2
  -7   4   1 359.768 14.4642   1
  -6   1   1 31.2347 12.8135  -2
  -6   4   1 31.2347 12.8135   1
  -5   0   1 82.5125 14.3347  -2
  -5   4   1 82.5125 14.3347   1
  -4  -1   1 1835.95 78.6784  -2
  -4   4   1 1835.95 78.6784   1
  -3  -2   1 722.520 33.1258  -2
  -3   4   1 722.520 33.1258   1
  -1  -4   1 487.993 24.1525  -2
  -1   4   1 487.993 24.1525   1
   1  -6   1 831.943 27.6936  -2
   1   4   1 831.943 27.6936   1
   2  -7   1 97.2845 7.75011  -2
   2   4   1 97.2845 7.75011   1
   3  -8   1 130.346 15.6100  -2
   3   4   1 130.346 15.6100   1
   4  -9   1 0.70479 12.9205  -2
   4   4   1 0.70479 12.9205   1
   5 -10   1 46.9269 7.92571  -2
   5   4   1 46.9269 7.92571   1
   6 -11   1 617.641 25.7409  -2
   6   4   1 617.641 25.7409   1
   7 -12   1 145.252 12.6664  -2
   7   4   1 145.252 12.6664   1
   8 -13   1 17.2529 11.4048  -2
   8   4   1 17.2529 11.4048   1
   9 -14   1 48.9779 13.0757  -2
   9   4   1 48.9779 13.0757   1
  10 -15   1 49.3116 13.6373  -2
  10   4   1 49.3116 13.6373   1
  11 -16   1 34.9943 14.8553  -2
  11   4   1 34.9943 14.8553   1
 -11   5   1 23.1333 10.4559  -2
 -11   5   1 23.1333 10.4559   1
 -10   4   1 165.447 12.6560  -2
 -10   5   1 165.447 12.6560   1
  -9   3   1 8.66479 8.75126  -2
  -9   5   1 8.66479 8.75126   1
  -8   2   1 272.036 15.1013  -2
  -8   5   1 272.036 15.1013   1
  -7   1   1 265.565 14.6212  -2
  -7   5   1 265.565 14.6212   1
  -6   0   1 480.081 22.7137  -2
  -6   5   1 480.081 22.7137   1
  -5  -1   1 14.8993 11.3363  -2
  -5   5   1 14.8993 11.3363   1
  -3  -3   1 324.999 18.8917  -2
  -3   5   1 324.999 18.8917   1
  -1  -5   1 1993.79 76.0030  -2
  -1   5   1 1993.79 76.0030   1
   1  -7   1 993.285 32.6903  -2
   1   5   1 993.285 32.6903   1
   2  -8   1 157.509 19.6759  -2
   2   5   1 157.509 19.6759   1
   3  -9   1 264.012 12.8038  -2
   3   5   1 264.012 12.8038   1
   4 -10   1 1619.84 52.8854  -2
   4   5   1 1619.84 52.8854   1
   5 -11   1 113.109 8.57250  -2
   5   5   1 113.109 8.57250   1
   6 -12   1 76.4015 8.80203  -2
   6   5   1 76.4015 8.80203   1
   7 -13   1 101.900 10.7543  -2
   7   5   1 101.900 10.7543   1
   8 -14   1 0.45581 11.5097  -2
   8   5   1 0.45581 11.5097   1
   9 -15   1 117.420 14.1368  -2
   9   5   1 117.420 14.1368   1
  10 -16   1 58.1474 13.8682  -2
  10   5   1 58.1474 13.8682   1
  11 -17   1 13.4659 14.8542  -2
  11   5   1 13.4659 14.8542   1
 -12   5   1 109.074 18.1548  -2
 -12   6   1 109.074 18.1548   1
 -11   4   1 176.086 13.8443  -2
 -11   6   1 176.086 13.8443   1
 -10   3   1 37.2320 9.55585  -2
 -10   6   1 37.2320 9.55585   1
  -9   2   1 371.727 19.4777  -2
  -9   6   1 371.727 19.4777   1
  -8   1   1 514.164 24.4462  -2
  -8   6   1 514.164 24.4462   1
  -7   0   1 587.520 27.1387  -2
  -7   6   1 587.520 27.1387   1
  -6  -1   1 50.1300 8.31758  -2
  -6   6   1 50.1300 8.31758   1
  -5  -2   1 294.145 17.9222  -2
  -5   6   1 294.145 17.9222   1
  -4  -3   1 88.0941 13.0321  -2
  -4   6   1 88.0941 13.0321   1
  -3  -4   1 248.643 16.8037  -2
  -3   6   1 248.643 16.8037   1
  -2  -5   1 213.775 15.5067  -2
  -2   6   1 213.775 15.5067   1
  -1  -6   1 278.816 17.2202  -2
  -1   6   1 278.816 17.2202   1
   1  -8   1 216.627 11.8279  -2
   1   6   1 216.627 11.8279   1
   2  -9   1 817.896 29.9626  -2
   2   6   1 817.896 29.9626   1
   3 -10   1 101.448 6.93706  -2
   3   6   1 101.448 6.93706   1
   4 -11   1 478.073 18.3652  -2
   4   6   1 478.073 18.3652   1
   5 -12   1 23.5711 8.69070  -2
   5   6   1 23.5711 8.69070   1
   6 -13   1 143.368 10.1646  -2
   6   6   1 143.368 10.1646   1
   7 -14   1 222.789 14.1956  -2
   7   6   1 222.789 14.1956   1
   8 -15   1 23.4401 12.5929  -2
   8   6   1 23.4401 12.5929   1
   9 -16   1 60.3058 13.1714  -2
   9   6   1 60.3058 13.1714   1
  10 -17   1 11.2353 13.4152  -2
  10   6   1 11.2353 13.4152   1
  11 -18   1 12.9762 14.8952  -2
  11   6   1 12.9762 14.8952   1
 -13   5   1 49.7912 19.2568  -2
 -13   7   1 49.7912 19.2568   1
 -12   4   1 6.59768 16.6467  -2
 -12   7   1 6.59768 16.6467   1
 -11   3   1 -4.8862 10.3316  -2
 -11   7   1 -4.8862 10.3316   1
 -10   2   1 641.150 30.1538  -2
 -10   7   1 641.150 30.1538   1
  -9   1   1 297.074 17.2195  -2
  -9   7   1 297.074 17.2195   1
  -8   0   1 168.905 12.3344  -2
  -8   7   1 168.905 12.3344   1
  -7  -1   1 325.521 14.9235  -2
  -7   7   1 325.521 14.9235   1
  -6  -2   1 159.325 10.6595  -2
  -6   7   1 159.325 10.6595   1
  -5  -3   1 1339.86 47.9123  -2
  -5   7   1 1339.86 47.9123   1
  -4  -4   1 2895.30 123.521  -2
  -4   7   1 2895.30 123.521   1
  -3  -5   1 397.078 22.1822  -2
  -3   7   1 397.078 22.1822   1
  -2  -6   1 424.208 23.0968  -2
  -2   7   1 424.208 23.0968   1
  -1  -7   1 163.924 14.2396  -2
  -1   7   1 163.924 14.2396   1
   0  -8   1 128.217 12.3977  -2
   0   7   1 128.217 12.3977   1
   1  -9   1 1710.42 59.1462  -2
   1   7   1 1710.42 59.1462   1
   2 -10   1 400.406 17.3194  -2
   2   7   1 400.406 17.3194   1
   3 -11   1 93.4363 6.98382  -2
   3   7   1 93.4363 6.98382   1
   4 -12   1 145.659 7.92571  -2
   4   7   1 145.659 7.92571   1
   5 -13   1 146.730 11.1524  -2
   5   7   1 146.730 11.1524   1
   6 -14   1 182.422 12.8292  -2
   6   7   1 182.422 12.8292   1
   7 -15   1 83.1963 11.1293  -2
   7   7   1 83.1963 11.1293   1
   8 -16   1 25.8002 12.2603  -2
   8   7   1 25.8002 12.2603   1
   9 -17   1 9.37509 12.9410  -2
   9   7   1 9.37509 12.9410   1
  10 -18   1 60.9525 14.2719  -2
  10   7   1 60.9525 14.2719   1
  11 -19   1 47.5304 14.9803  -2
  11   7   1 47.5304 14.9803   1
 -13   4   1 41.1147 18.9286  -2
 -13   8   1 41.1147 18.9286   1
 -12   3   1 277.359 17.6622  -2
 -12   8   1 277.359 17.6622   1
 -11   2   1 29.8900 11.5530  -2
 -11   8   1 29.8900 11.5530   1
 -10   1   1 447.383 23.0073  -2
 -10   8   1 447.383 23.0073   1
  -9   0   1 48.2097 11.0210  -2
  -9   8   1 48.2097 11.0210   1
  -8  -1   1 111.766 9.93341  -2
  -8   8   1 111.766 9.93341   1
  -7  -2   1 646.185 25.0884  -2
  -7   8   1 646.185 25.0884   1
  -6  -3   1 273.416 13.4350  -2
  -6   8   1 273.416 13.4350   1
  -5  -4   1 1233.79 44.5204  -2
  -5   8   1 1233.79 44.5204   1
  -4  -5   1 182.465 11.8603  -2
  -4   8   1 182.465 11.8603   1
  -3  -6   1 108.866 13.9124  -2
  -3   8   1 108.866 13.9124   1
  -2  -7   1 2787.10 119.232  -2
  -2   8   1 2787.10 119.232   1
  -1  -8   1 591.060 29.4497  -2
  -1   8   1 591.060 29.4497   1
   0  -9   1 373.897 21.5593  -2
   0   8   1 373.897 21.5593   1
   1 -10   1 93.1839 10.3562  -2
   1   8   1 93.1839 10.3562   1
   2 -11   1 47.0528 6.71067  -2
   2   8   1 47.0528 6.71067   1
   3 -12   1 651.485 22.0609  -2
   3   8   1 651.485 22.0609   1
   4 -13   1 215.690 10.0392  -2
   4   8   1 215.690 10.0392   1
   5 -14   1 -2.6713 9.37087  -2
   5   8   1 -2.6713 9.37087   1
   6 -15   1 24.8817 9.77613  -2
   6   8   1 24.8817 9.77613   1
   7 -16   1 66.1393 12.7901  -2
   7   8   1 66.1393 12.7901   1
   8 -17   1 90.4844 12.4435  -2
   8   8   1 90.4844 12.4435   1
   9 -18   1 200.016 16.8005  -2
   9   8   1 200.016 16.8005   1
  10 -19   1 53.8295 13.9010  -2
  10   8   1 53.8295 13.9010   1
 -13   3   1 83.8693 20.4113  -2
 -13   9   1 83.8693 20.4113   1
 -12   2   1 26.0076 12.5611  -2
 -12   9   1 26.0076 12.5611   1
 -11   1   1 46.0228 12.3155  -2
 -11   9   1 46.0228 12.3155   1
 -10   0   1 513.154 25.8828  -2
 -10   9   1 513.154 25.8828   1
  -9  -1   1 66.0245 11.6214  -2
  -9   9   1 66.0245 11.6214   1
  -8  -2   1 15.0531 8.76218  -2
  -8   9   1 15.0531 8.76218   1
  -7  -3   1 520.476 21.3526  -2
  -7   9   1 520.476 21.3526   1
  -6  -4   1 18.3690 8.63992  -2
  -6   9   1 18.3690 8.63992   1
  -5  -5   1 194.335 11.6587  -2
  -5   9   1 194.335 11.6587   1
  -4  -6   1 1030.27 37.8503  -2
  -4   9   1 1030.27 37.8503   1
  -3  -7   1 129.628 15.1249  -2
  -3   9   1 129.628 15.1249   1
  -2  -8   1 425.201 24.0153  -2
  -2   9   1 425.201 24.0153   1
  -1  -9   1 -2.9307 12.5407  -2
  -1   9   1 -2.9307 12.5407   1
   0 -10   1 101.876 7.60071  -2
   0   9   1 101.876 7.60071   1
   1 -11   1 846.437 25.5818  -2
   1   9   1 846.437 25.5818   1
   2 -12   1 484.981 17.3834  -2
   2   9   1 484.981 17.3834   1
   3 -13   1 420.321 15.4782  -2
   3   9   1 420.321 15.4782   1
   4 -14   1 13.8592 6.82109  -2
   4   9   1 13.8592 6.82109   1
   5 -15   1 20.7095 10.0321  -2
   5   9   1 20.7095 10.0321   1
   6 -16   1 386.379 19.0188  -2
   6   9   1 386.379 19.0188   1
   7 -17   1 161.305 15.4136  -2
   7   9   1 161.305 15.4136   1
   8 -18   1 26.4066 11.5908  -2
   8   9   1 26.4066 11.5908   1
   9 -19   1 -2.2649 13.1618  -2
   9   9   1 -2.2649 13.1618   1
  10 -20   1 19.1712 14.1681  -2
  10   9   1 19.1712 14.1681   1
 -13   2   1 56.5441 14.1983  -2
 -13  10   1 56.5441 14.1983   1
 -12   1   1 157.393 15.3806  -2
 -12  10   1 157.393 15.3806   1
 -11   0   1 82.5227 12.8460  -2
 -11  10   1 82.5227 12.8460   1
 -10  -1   1 420.978 22.7502  -2
 -10  10   1 420.978 22.7502   1
  -9  -2   1 123.197 11.4937  -2
  -9  10   1 123.197 11.4937   1
  -8  -3   1 60.4628 6.63142  -2
  -8  10   1 60.4628 6.63142   1
  -7  -4   1 49.5803 5.95291  -2
  -7  10   1 49.5803 5.95291   1
  -6  -5   1 -0.4872 5.74842  -2
  -6  10   1 -0.4872 5.74842   1
  -5  -6   1 633.404 25.0797  -2
  -5  10   1 633.404 25.0797   1
  -4  -7   1 274.150 14.5039  -2
  -4  10   1 274.150 14.5039   1
  -3  -8   1 5.61219 8.74867  -2
  -3  10   1 5.61219 8.74867   1
  -2  -9   1 146.698 8.99141  -2
  -2  10   1 146.698 8.99141   1
  -1 -10   1 164.803 9.66460  -2
  -1  10   1 164.803 9.66460   1
   0 -11   1 24.1419 7.33894  -2
   0  10   1 24.1419 7.33894   1
   1 -12   1 385.507 14.5632  -2
   1  10   1 385.507 14.5632   1
   2 -13   1 67.4820 7.19384  -2
   2  10   1 67.4820 7.19384   1
   3 -14   1 37.6878 7.49483  -2
   3  10   1 37.6878 7.49483   1
   4 -15   1 232.927 12.5252  -2
   4  10   1 232.927 12.5252   1
   5 -16   1 266.217 18.3579  -2
   5  10   1 266.217 18.3579   1
   6 -17   1 259.058 15.6113  -2
   6  10   1 259.058 15.6113   1
   7 -18   1 -6.5308 11.5554  -2
   7  10   1 -6.5308 11.5554   1
   8 -19   1 1.07873 11.7857  -2
   8  10   1 1.07873 11.7857   1
   9 -20   1 145.747 15.7936  -2
   9  10   1 145.747 15.7936   1
  10  10   1 55.6510 10.8004   1
 -13   1   1 274.760 19.5465  -2
 -13  11   1 274.760 19.5465   1
 -12   0   1 235.375 17.7673  -2
 -12  11   1 235.375 17.7673   1
 -11  -1   1 69.2440 13.3691  -2
 -11  11   1 69.2440 13.3691   1
 -10  -2   1 91.8400 13.4043  -2
 -10  11   1 91.8400 13.4043   1
  -9  -3   1 131.897 12.0982  -2
  -9  11   1 131.897 12.0982   1
  -8  -4   1 122.090 8.19291  -2
  -8  11   1 122.090 8.19291   1
  -7  -5   1 112.394 7.75049  -2
  -7  11   1 112.394 7.75049   1
  -6  -6   1 31.1349 5.67296  -2
  -6  11   1 31.1349 5.67296   1
  -5  -7   1 153.443 11.4106  -2
  -5  11   1 153.443 11.4106   1
  -4  -8   1 46.4740 9.12334  -2
  -4  11   1 46.4740 9.12334   1
  -3  -9   1 30.4447 5.88275  -2
  -3  11   1 30.4447 5.88275   1
  -2 -10   1 78.8580 6.88250  -2
  -2  11   1 78.8580 6.88250   1
  -1 -11   1 560.536 23.2285  -2
  -1  11   1 560.536 23.2285   1
   0 -12   1 47.1946 7.64706  -2
   0  11   1 47.1946 7.64706   1
   1 -13   1 166.917 10.0996  -2
   1  11   1 166.917 10.0996   1
   2 -14   1 189.119 11.6316  -2
   2  11   1 189.119 11.6316   1
   3 -15   1 35.5360 10.3299  -2
   3  11   1 35.5360 10.3299   1
   4 -16   1 355.826 14.5428  -2
   4  11   1 355.826 14.5428   1
   5 -17   1 7.38771 12.5678  -2
   5  11   1 7.38771 12.5678   1
   6 -18   1 24.7810 11.3123  -2
   6  11   1 24.7810 11.3123   1
   7 -19   1 105.013 12.6523  -2
   7  11   1 105.013 12.6523   1
   8 -20   1 57.0007 12.4089  -2
   8  11   1 57.0007 12.4089   1
   9 -21   1 139.371 15.9408  -2
   9  11   1 139.371 15.9408   1
 -13   0   1 165.359 17.1750  -2
 -13  12   1 165.359 17.1750   1
 -12  -1   1 26.9678 13.4930  -2
 -12  12   1 26.9678 13.4930   1
 -11  -2   1 1.67661 13.4235  -2
 -11  12   1 1.67661 13.4235   1
 -10  -3   1 1088.69 48.9867  -2
 -10  12   1 1088.69 48.9867   1
  -9  -4   1 76.3077 12.8507  -2
  -9  12   1 76.3077 12.8507   1
  -8  -5   1 168.340 9.07287  -2
  -8  12   1 168.340 9.07287   1
  -7  -6   1 17.0754 9.79194  -2
  -7  12   1 17.0754 9.79194   1
  -6  -7   1 64.4004 5.70239  -2
  -6  12   1 64.4004 5.70239   1
  -5  -8   1 790.269 35.9872  -2
  -5  12   1 790.269 35.9872   1
  -4  -9   1 498.152 24.1068  -2
  -4  12   1 498.152 24.1068   1
  -3 -10   1 110.016 7.30878  -2
  -3  12   1 110.016 7.30878   1
  -2 -11   1 105.453 8.52741  -2
  -2  12   1 105.453 8.52741   1
  -1 -12   1 106.318 8.86690  -2
  -1  12   1 106.318 8.86690   1
   0 -13   1 209.097 11.4724  -2
   0  12   1 209.097 11.4724   1
   1 -14   1 505.209 21.3962  -2
   1  12   1 505.209 21.3962   1
   2 -15   1 179.250 11.0359  -2
   2  12   1 179.250 11.0359   1
   3 -16   1 14.4993 10.4836  -2
   3  12   1 14.4993 10.4836   1
   4 -17   1 -8.1848 12.5313  -2
   4  12   1 -8.1848 12.5313   1
   5 -18   1 14.3816 11.2374  -2
   5  12   1 14.3816 11.2374   1
   6 -19   1 155.297 13.2995  -2
   6  12   1 155.297 13.2995   1
   7 -20   1 87.8777 13.1959  -2
   7  12   1 87.8777 13.1959   1
   8 -21   1 -23.637 28.3714  -2
   8  12   1 -23.637 28.3714   1
   9  12   1 12.2516 9.93297   1
 -13  -1   1 13.3443 15.9111  -2
 -13  13   1 13.3443 15.9111   1
 -12  -2   1 62.1176 15.3536  -2
 -12  13   1 62.1176 15.3536   1
 -11  -3   1 66.8161 14.3121  -2
 -11  13   1 66.8161 14.3121   1
 -10  -4   1 218.619 17.1759  -2
 -10  13   1 218.619 17.1759   1
  -9  -5   1 -6.0873 11.3076  -2
  -9  13   1 -6.0873 11.3076   1
  -8  -6   1 25.1294 7.44942  -2
  -8  13   1 25.1294 7.44942   1
  -7  -7   1 552.187 18.9308  -2
  -7  13   1 552.187 18.9308   1
  -6  -8   1 154.022 12.1788  -2
  -6  13   1 154.022 12.1788   1
  -5  -9   1 551.309 26.7783  -2
  -5  13   1 551.309 26.7783   1
  -4 -10   1 63.1931 6.89104  -2
  -4  13   1 63.1931 6.89104   1
  -3 -11   1 35.3420 6.43066  -2
  -3  13   1 35.3420 6.43066   1
  -2 -12   1 601.788 25.1053  -2
  -2  13   1 601.788 25.1053   1
  -1 -13   1 632.499 26.1952  -2
  -1  13   1 632.499 26.1952   1
   0 -14   1 69.8954 8.82796  -2
   0  13   1 69.8954 8.82796   1
   1 -15   1 11.4049 10.4189  -2
   1  13   1 11.4049 10.4189   1
   3 -17   1 75.1546 11.9428  -2
   3  13   1 75.1546 11.9428   1
   4 -18   1 154.456 15.5004  -2
   4  13   1 154.456 15.5004   1
   5 -19   1 -1.8562 11.5667  -2
   5  13   1 -1.8562 11.5667   1
   6 -20   1 -19.812 11.7914  -2
   6  13   1 -19.812 11.7914   1
   7 -21   1 -20.233 12.2931  -2
   7  13   1 -20.233 12.2931   1
   8 -22   1 7.41279 14.3892  -2
   8  13   1 7.41279 14.3892   1
 -12  -3   1 47.6052 15.7046  -2
 -12  14   1 47.6052 15.7046   1
 -11  -4   1 24.2536 14.1913  -2
 -11  14   1 24.2536 14.1913   1
 -10  -5   1 81.9037 15.3268  -2
 -10  14   1 81.9037 15.3268   1
  -9  -6   1 13.4550 7.97800  -2
  -9  14   1 13.4550 7.97800   1
  -8  -7   1 41.3840 7.56517  -2
  -8  14   1 41.3840 7.56517   1
  -7  -8   1 61.2804 7.32385  -2
  -7  14   1 61.2804 7.32385   1
  -6  -9   1 34.3514 12.0265  -2
  -6  14   1 34.3514 12.0265   1
  -5 -10   1 46.7999 11.9231  -2
  -5  14   1 46.7999 11.9231   1
  -4 -11   1 387.490 15.1647  -2
  -4  14   1 387.490 15.1647   1
  -3 -12   1 174.487 9.31243  -2
  -3  14   1 174.487 9.31243   1
  -2 -13   1 533.939 22.7888  -2
  -2  14   1 533.939 22.7888   1
  -1 -14   1 56.3199 9.24759  -2
  -1  14   1 56.3199 9.24759   1
   0 -15   1 50.2617 10.6192  -2
   0  14   1 50.2617 10.6192   1
   3 -18   1 148.307 14.2464  -2
   3  14   1 148.307 14.2464   1
   5 -20   1 57.6878 14.2296  -2
   5  14   1 57.6878 14.2296   1
   6 -21   1 116.582 13.2983  -2
   6  14   1 116.582 13.2983   1
   7 -22   1 42.3966 12.8645  -2
   7  14   1 42.3966 12.8645   1
 -12  -4   1 103.064 16.7490  -2
 -12  15   1 103.064 16.7490   1
 -11  -5   1 18.8399 14.4988  -2
 -11  15   1 18.8399 14.4988   1
 -10  -6   1 28.8314 14.0875  -2
 -10  15   1 28.8314 14.0875   1
  -9  -7   1 14.1245 8.24405  -2
  -9  15   1 14.1245 8.24405   1
  -8  -8   1 -2.0956 12.5121  -2
  -8  15   1 -2.0956 12.5121   1
  -7  -9   1 67.8430 7.15357  -2
  -7  15   1 67.8430 7.15357   1
  -6 -10   1 68.5658 14.0828  -2
  -6  15   1 68.5658 14.0828   1
  -5 -11   1 369.085 21.2359  -2
  -5  15   1 369.085 21.2359   1
  -4 -12   1 309.685 18.3919  -2
  -4  15   1 309.685 18.3919   1
  -3 -13   1 22.6842 18.3377  -2
  -3  15   1 22.6842 18.3377   1
  -2 -14   1 51.2363 10.4120  -2
  -2  15   1 51.2363 10.4120   1
  -1 -15   1 232.557 16.1414  -2
  -1  15   1 232.557 16.1414   1
   0 -16   1 159.505 14.0527  -2
   0  15   1 159.505 14.0527   1
   3 -19   1 3.38722 13.1383  -2
   3  15   1 3.38722 13.1383   1
   4 -20   1 273.903 20.0711  -2
   4  15   1 273.903 20.0711   1
   5 -21   1 100.467 15.2015  -2
   5  15   1 100.467 15.2015   1
   6 -22   1 78.7554 12.9472  -2
   6  15   1 78.7554 12.9472   1
   7 -23   1 -5.3124 12.1653  -2
   7  15   1 -5.3124 12.1653   1
 -12  -5   1 208.170 28.2034  -2
 -12  16   1 208.170 28.2034   1
 -11  -6   1 24.0207 14.7511  -2
 -11  16   1 24.0207 14.7511   1
 -10  -7   1 22.8992 14.4351  -2
 -10  16   1 22.8992 14.4351   1
  -9  -8   1 99.9976 14.9863  -2
  -9  16   1 99.9976 14.9863   1
  -8  -9   1 265.625 13.2381  -2
  -8  16   1 265.625 13.2381   1
  -7 -10   1 180.406 12.7578  -2
  -7  16   1 180.406 12.7578   1
  -6 -11   1 19.7059 12.6863  -2
  -6  16   1 19.7059 12.6863   1
  -5 -12   1 34.3654 12.6692  -2
  -5  16   1 34.3654 12.6692   1
  -4 -13   1 111.156 17.0613  -2
  -4  16   1 111.156 17.0613   1
  -2 -15   1 57.7191 11.2143  -2
  -2  16   1 57.7191 11.2143   1
   3 -20   1 139.299 15.6434  -2
   3  16   1 139.299 15.6434   1
   4 -21   1 173.813 17.1245  -2
   4  16   1 173.813 17.1245   1
   5 -22   1 15.8863 14.5053  -2
   5  16   1 15.8863 14.5053   1
   6 -23   1 -14.830 14.5200  -2
   6  16   1 -14.830 14.5200   1
 -11  -7   1 42.1241 15.8011  -2
 -11  17   1 42.1241 15.8011   1
 -10  -8   1 210.699 18.3110  -2
 -10  17   1 210.699 18.3110   1
  -9  -9   1 31.6118 9.17884  -2
  -9  17   1 31.6118 9.17884   1
  -8 -10   1 47.8386 9.07539  -2
  -8  17   1 47.8386 9.07539   1
  -7 -11   1 -6.3370 12.9534  -2
  -7  17   1 -6.3370 12.9534   1
  -6 -12   1 48.1593 13.7880  -2
  -6  17   1 48.1593 13.7880   1
  -5 -13   1 364.489 21.3426  -2
  -5  17   1 364.489 21.3426   1
   4 -22   1 45.5200 14.6832  -2
   4  17   1 45.5200 14.6832   1
   5 -23   1 25.7637 15.2451  -2
   5  17   1 25.7637 15.2451   1
 -11  -8   1 34.2730 15.6294  -2
 -11  18   1 34.2730 15.6294   1
 -10  -9   1 216.145 18.5656  -2
 -10  18   1 216.145 18.5656   1
  -9 -10   1 24.4150 10.1018  -2
  -9  18   1 24.4150 10.1018   1
  -8 -11   1 9.14784 9.05007  -2
  -8  18   1 9.14784 9.05007   1
  -7 -12   1 162.842 8.77285  -2
  -7  18   1 162.842 8.77285   1
  -6 -13   1 245.290 24.1596  -2
  -6  18   1 245.290 24.1596   1
  -5 -14   1 9.03591 21.8019  -2
  -5  18   1 9.03591 21.8019   1
   5  18   1 7.77635 8.91448   1
 -10 -10   1 7.28655 15.4286  -2
 -10  19   1 7.28655 15.4286   1
  -9 -11   1 12.1440 10.3878  -2
  -9  19   1 12.1440 10.3878   1
  -8 -12   1 21.1594 9.25610  -2
  -8  19   1 21.1594 9.25610   1
  -6 -14   1 12.8121 17.7129  -2
  -6  19   1 12.8121 17.7129   1
   4  19   1 -2.9396 10.5693   1
 -10 -11   1 98.3293 21.9233  -2
 -10  20   1 98.3293 21.9233   1
  -9 -12   1 53.7736 10.9227  -2
  -9  20   1 53.7736 10.9227   1
  -8 -13   1 32.8594 9.94848  -2
  -8  20   1 32.8594 9.94848   1
  -7 -14   1 16.1687 14.1332  -2
  -7  20   1 16.1687 14.1332   1
   3  20   1 -2.0076 10.3476   1
  -9 -13   1 5.73924 19.3490  -2
  -9  21   1 5.73924 19.3490   1
  -8 -14   1 87.6344 10.6557  -2
  -8  21   1 87.6344 10.6557   1
  -7 -15   1 52.7382 17.4612  -2
  -7  21   1 52.7382 17.4612   1
  -8 -15   1 100.719 12.4414  -2
  -8  22   1 100.719 12.4414   1
  -7 -16   1 -0.2815 17.6570  -2
  -7  22   1 -0.2815 17.6570   1
  -5  23   1 120.033 20.7357   1
   5  16   2 3.43470 30.2881  -2
   5 -23   2 3.43470 30.2881   1
  -2  22   2 2.83577 15.9353  -2
  -2 -22   2 2.83577 15.9353   1
  -1  21   2 -10.184 15.7295  -2
  -1 -22   2 -10.184 15.7295   1
   4  16   2 -30.087 28.0962  -2
   4 -22   2 -30.087 28.0962   1
   5  15   2 308.555 36.6182  -2
   5 -22   2 308.555 36.6182   1
  -3  22   2 16.8826 14.1922  -2
  -3 -21   2 16.8826 14.1922   1
  -2  21   2 38.2678 15.5573  -2
  -2 -21   2 38.2678 15.5573   1
  -1  20   2 51.7511 15.2764  -2
  -1 -21   2 51.7511 15.2764   1
   3  16   2 92.0705 27.3168  -2
   3 -21   2 92.0705 27.3168   1
   4  15   2 107.077 27.6777  -2
   4 -21   2 107.077 27.6777   1
  -4  22   2 88.2416 14.3439  -2
  -4 -20   2 88.2416 14.3439   1
  -3  21   2 43.7039 13.8311  -2
  -3 -20   2 43.7039 13.8311   1
  -2  20   2 42.7060 15.1093  -2
  -2 -20   2 42.7060 15.1093   1
  -1  19   2 -10.336 14.3037  -2
  -1 -20   2 -10.336 14.3037   1
   3  15   2 94.0790 25.1281  -2
   3 -20   2 94.0790 25.1281   1
  -5  22   2 102.094 13.8713  -2
  -5 -19   2 102.094 13.8713   1
  -4  21   2 145.932 14.7373  -2
  -4 -19   2 145.932 14.7373   1
  -3  20   2 -16.181 12.9210  -2
  -3 -19   2 -16.181 12.9210   1
  -2  19   2 3.67079 12.7466  -2
  -2 -19   2 3.67079 12.7466   1
  -1  18   2 139.543 14.0286  -2
  -1 -19   2 139.543 14.0286   1
   2  15   2 35.9936 23.9499  -2
   2 -19   2 35.9936 23.9499   1
   3  14   2 13.7595 23.7411  -2
   3 -19   2 13.7595 23.7411   1
   5  12   2 211.157 31.8134  -2
   5 -19   2 211.157 31.8134   1
  11   7   1 125.951 41.7218  -2
  11 -19   2 125.951 41.7218   1
  -6  22   2 70.6178 15.7568  -2
  -6 -18   2 70.6178 15.7568   1
  -5  21   2 8.95342 12.7857  -2
  -5 -18   2 8.95342 12.7857   1
  -4  20   2 -12.251 12.7999  -2
  -4 -18   2 -12.251 12.7999   1
  -3  19   2 133.058 13.4033  -2
  -3 -18   2 133.058 13.4033   1
  -2  18   2 121.714 13.6046  -2
  -2 -18   2 121.714 13.6046   1
  -1  17   2 312.589 21.7761  -2
  -1 -18   2 312.589 21.7761   1
   2  14   2 381.103 33.9936  -2
   2 -18   2 381.103 33.9936   1
   3  13   2 129.871 26.8716  -2
   3 -18   2 129.871 26.8716   1
   4  12   2 174.267 27.4804  -2
   4 -18   2 174.267 27.4804   1
   5  11   2 -14.504 27.2242  -2
   5 -18   2 -14.504 27.2242   1
   8   9   2 584.323 33.7552  -2
   8 -18   2 584.323 33.7552   1
   9   8   2 118.150 33.4183  -2
   9 -18   2 118.150 33.4183   1
  11   6   2 89.0385 34.9600  -2
  11 -18   2 89.0385 34.9600   1
  -6  21   2 -2.9314 12.4109  -2
  -6 -17   2 -2.9314 12.4109   1
  -5  20   2 26.4166 11.5872  -2
  -5 -17   2 26.4166 11.5872   1
  -4  19   2 124.125 13.6015  -2
  -4 -17   2 124.125 13.6015   1
  -3  18   2 118.827 13.4548  -2
  -3 -17   2 118.827 13.4548   1
  -2  17   2 75.5073 25.7824  -2
  -2 -17   2 75.5073 25.7824   1
  -1  16   2 20.3171 11.9012  -2
  -1 -17   2 20.3171 11.9012   1
   1  14   2 118.764 23.4083  -2
   1 -17   2 118.764 23.4083   1
   2  13   2 784.487 53.9008  -2
   2 -17   2 784.487 53.9008   1
   3  12   2 20.6594 23.8844  -2
   3 -17   2 20.6594 23.8844   1
   4  11   2 82.5880 26.0878  -2
   4 -17   2 82.5880 26.0878   1
   5  10   2 291.265 33.1521  -2
   5 -17   2 291.265 33.1521   1
   7   8   2 190.844 31.9779  -2
   7 -17   2 190.844 31.9779   1
   8   7   2 379.728 39.0429  -2
   8 -17   2 379.728 39.0429   1
   8   8   2 624.533 36.0459  -2
   8 -17   2 624.533 36.0459   1
   9   7   2 26.3358 31.4819  -2
   9 -17   2 26.3358 31.4819   1
  10   6   2 117.661 34.8235  -2
  10 -17   2 117.661 34.8235   1
  11   5   2 39.1861 36.1121  -2
  11 -17   2 39.1861 36.1121   1
  -7  21   2 24.7725 13.9463  -2
  -7 -16   2 24.7725 13.9463   1
  -6  20   2 32.2093 12.2242  -2
  -6 -16   2 32.2093 12.2242   1
  -5  19   2 30.3733 11.9482  -2
  -5 -16   2 30.3733 11.9482   1
  -4  18   2 8.83334 11.9439  -2
  -4 -16   2 8.83334 11.9439   1
  -3  17   2 -2.0742 11.6104  -2
  -3 -16   2 -2.0742 11.6104   1
  -2  16   2 20.1004 12.1653  -2
  -2 -16   2 20.1004 12.1653   1
  -1  15   2 203.085 16.9748  -2
  -1 -16   2 203.085 16.9748   1
   0  14   2 336.091 21.4602  -2
   0 -16   2 336.091 21.4602   1
   1  13   2 103.469 11.2184  -2
   1 -16   2 103.469 11.2184   1
   2  12   2 90.8932 22.1998  -2
   2 -16   2 90.8932 22.1998   1
   3 -16   2 78.4656 14.7302   1
   4  10   2 66.4903 24.9700  -2
   4 -16   2 66.4903 24.9700   1
   6   8   2 68.0993 27.5235  -2
   6 -16   2 68.0993 27.5235   1
  -8  21   2 67.1338 14.1048  -2
  -8 -15   2 67.1338 14.1048   1
  -7  20   2 72.8378 14.1079  -2
  -7 -15   2 72.8378 14.1079   1
  -6  19   2 47.4970 11.2555  -2
  -6 -15   2 47.4970 11.2555   1
  -5  18   2 -18.191 11.3265  -2
  -5 -15   2 -18.191 11.3265   1
  -4  17   2 23.5389 11.3407  -2
  -4 -15   2 23.5389 11.3407   1
  -3  16   2 135.653 11.8428  -2
  -3 -15   2 135.653 11.8428   1
  -2  15   2 31.4168 12.5858  -2
  -2 -15   2 31.4168 12.5858   1
  -1  14   2 74.2676 12.6697  -2
  -1 -15   2 74.2676 12.6697   1
   0  13   2 56.2949 11.6445  -2
   0 -15   2 56.2949 11.6445   1
   1  12   2 29.4526 19.2636  -2
   1 -15   2 29.4526 19.2636   1
   2  11   2 533.462 23.5487  -2
   2 -15   2 533.462 23.5487   1
   3 -15   2 27.1580 12.5923   1
   4   9   2 10.2201 21.5530  -2
   4 -15   2 10.2201 21.5530   1
   7   6   2 265.099 31.8216  -2
   7 -15   2 265.099 31.8216   1
   8   6   2 167.093 31.2301  -2
   8 -15   2 167.093 31.2301   1
  -8  20   2 -15.383 13.7178  -2
  -8 -14   2 -15.383 13.7178   1
  -7  19   2 -0.0644 12.8706  -2
  -7 -14   2 -0.0644 12.8706   1
  -6  18   2 31.4098 11.4368  -2
  -6 -14   2 31.4098 11.4368   1
  -5  17   2 113.358 12.1158  -2
  -5 -14   2 113.358 12.1158   1
  -4  16   2 -9.0110 10.9567  -2
  -4 -14   2 -9.0110 10.9567   1
  -3  15   2 38.2149 10.8323  -2
  -3 -14   2 38.2149 10.8323   1
  -2  14   2 3.23308 10.0705  -2
  -2 -14   2 3.23308 10.0705   1
  -1  13   2 205.381 15.3629  -2
  -1 -14   2 205.381 15.3629   1
   0  12   2 642.139 34.5178  -2
   0 -14   2 642.139 34.5178   1
   1  11   2 283.579 15.1403  -2
   1 -14   2 283.579 15.1403   1
   2  10   2 9.50168 9.09566  -2
   2 -14   2 9.50168 9.09566   1
   3   9   2 20.4870 21.0582  -2
   3 -14   2 20.4870 21.0582   1
   4   8   2 180.182 17.7205  -2
   4 -14   2 180.182 17.7205   1
   6   6   2 184.852 27.4852  -2
   6 -14   2 184.852 27.4852   1
   7   5   2 49.6767 25.3533  -2
   7 -14   2 49.6767 25.3533   1
   8 -14   2 59.2349 26.2286   1
  -9  20   2 -6.5465 12.5668  -2
  -9 -13   2 -6.5465 12.5668   1
  -8  19   2 18.9526 12.7677  -2
  -8 -13   2 18.9526 12.7677   1
  -7  18   2 39.8816 11.0518  -2
  -7 -13   2 39.8816 11.0518   1
  -6  17   2 257.710 15.3403  -2
  -6 -13   2 257.710 15.3403   1
  -5  16   2 66.2407 10.9799  -2
  -5 -13   2 66.2407 10.9799   1
  -4  15   2 -21.202 10.2085  -2
  -4 -13   2 -21.202 10.2085   1
  -3  14   2 356.148 17.1245  -2
  -3 -13   2 356.148 17.1245   1
  -2  13   2 306.899 15.6748  -2
  -2 -13   2 306.899 15.6748   1
  -1  12   2 569.181 31.0028  -2
  -1 -13   2 569.181 31.0028   1
   0  11   2 302.625 13.7222  -2
   0 -13   2 302.625 13.7222   1
   1  10   2 5.84642 8.66466  -2
   1 -13   2 5.84642 8.66466   1
   2   9   2 136.453 15.5209  -2
   2 -13   2 136.453 15.5209   1
   3   8   2 462.548 24.7962  -2
   3 -13   2 462.548 24.7962   1
   4   7   2 730.549 35.3517  -2
   4 -13   2 730.549 35.3517   1
   5   6   2 135.724 24.0187  -2
   5 -13   2 135.724 24.0187   1
   6   5   2 100.836 24.2399  -2
   6 -13   2 100.836 24.2399   1
   7   5   2 493.660 28.2583  -2
   7 -13   2 493.660 28.2583   1
   8 -13   2 102.757 24.8649   1
  13 -13   2 13.3124 21.6095   1
  -9  19   2 50.5776 12.7661  -2
  -9 -12   2 50.5776 12.7661   1
  -8  18   2 27.9614 13.1052  -2
  -8 -12   2 27.9614 13.1052   1
  -7  17   2 19.1684 10.8005  -2
  -7 -12   2 19.1684 10.8005   1
  -6  16   2 4.85731 10.5052  -2
  -6 -12   2 4.85731 10.5052   1
  -5  15   2 94.0968 11.0945  -2
  -5 -12   2 94.0968 11.0945   1
  -4  14   2 -4.8552 9.60792  -2
  -4 -12   2 -4.8552 9.60792   1
  -3  13   2 221.611 12.9978  -2
  -3 -12   2 221.611 12.9978   1
  -2  12   2 22.3873 8.07785  -2
  -2 -12   2 22.3873 8.07785   1
  -1  11   2 166.439 11.3622  -2
  -1 -12   2 166.439 11.3622   1
   0  10   2 421.943 17.0295  -2
   0 -12   2 421.943 17.0295   1
   1   9   2 131.174 10.6035  -2
   1 -12   2 131.174 10.6035   1
   2   8   2 626.963 25.1441  -2
   2 -12   2 626.963 25.1441   1
   3   7   2 64.6948 20.8125  -2
   3 -12   2 64.6948 20.8125   1
   4   6   2 -1.4648 14.2357  -2
   4 -12   2 -1.4648 14.2357   1
   5   5   2 349.654 30.3335  -2
   5 -12   2 349.654 30.3335   1
   6 -12   2 30.3052 11.5782   1
   8 -12   2 -1.9699 20.0964   1
 -10  19   2 26.0531 13.0500  -2
 -10 -11   2 26.0531 13.0500   1
  -9  18   2 -4.5369 12.0116  -2
  -9 -11   2 -4.5369 12.0116   1
  -8  17   2 -0.4758 12.4908  -2
  -8 -11   2 -0.4758 12.4908   1
  -7  16   2 95.5115 11.8375  -2
  -7 -11   2 95.5115 11.8375   1
  -6  15   2 303.618 15.9491  -2
  -6 -11   2 303.618 15.9491   1
  -5  14   2 85.1508 10.4133  -2
  -5 -11   2 85.1508 10.4133   1
  -4  13   2 -16.568 8.97539  -2
  -4 -11   2 -16.568 8.97539   1
  -3  12   2 19.0356 7.73885  -2
  -3 -11   2 19.0356 7.73885   1
  -2  11   2 33.2156 7.35417  -2
  -2 -11   2 33.2156 7.35417   1
  -1  10   2 462.560 20.3551  -2
  -1 -11   2 462.560 20.3551   1
   0   9   2 162.341 10.2091  -2
   0 -11   2 162.341 10.2091   1
   1   8   2 301.871 18.2978  -2
   1 -11   2 301.871 18.2978   1
   2   7   2 -4.3974 14.3498  -2
   2 -11   2 -4.3974 14.3498   1
   3   6   2 63.4613 20.7863  -2
   3 -11   2 63.4613 20.7863   1
   4   5   2 72.1856 15.0359  -2
   4 -11   2 72.1856 15.0359   1
   5 -11   2 688.749 43.8895   1
   6   4   2 42.6093 23.1402  -2
   6 -11   2 42.6093 23.1402   1
   7   2   2 161.851 37.3076  -2
   7 -11   2 161.851 37.3076   1
   8 -11   2 35.4351 20.6067   1
 -10  18   2 6.34495 12.8470  -2
 -10 -10   2 6.34495 12.8470   1
  -9  17   2 20.6175 11.7938  -2
  -9 -10   2 20.6175 11.7938   1
  -8  16   2 77.5768 13.2070  -2
  -8 -10   2 77.5768 13.2070   1
  -7  15   2 150.207 12.4929  -2
  -7 -10   2 150.207 12.4929   1
  -6  14   2 62.3235 10.2224  -2
  -6 -10   2 62.3235 10.2224   1
  -5  13   2 173.269 11.9094  -2
  -5 -10   2 173.269 11.9094   1
  -4  12   2 397.433 17.9651  -2
  -4 -10   2 397.433 17.9651   1
  -3  11   2 221.871 10.5344  -2
  -3 -10   2 221.871 10.5344   1
  -2  10   2 223.202 9.93070  -2
  -2 -10   2 223.202 9.93070   1
  -1   9   2 310.734 13.4571  -2
  -1 -10   2 310.734 13.4571   1
   0   8   2 28.1426 13.8368  -2
   0 -10   2 28.1426 13.8368   1
   1   7   2 164.020 15.1219  -2
   1 -10   2 164.020 15.1219   1
   2   6   2 461.475 22.3625  -2
   2 -10   2 461.475 22.3625   1
   3   5   2 111.678 19.1141  -2
   3 -10   2 111.678 19.1141   1
   4   4   2 183.315 16.1149  -2
   4 -10   2 183.315 16.1149   1
   5   4   2 778.285 51.8602  -2
   5 -10   2 778.285 51.8602   1
 -11  18   2 17.9193 12.8990  -2
 -11  -9   2 17.9193 12.8990   1
 -10  17   2 30.6491 13.0405  -2
 -10  -9   2 30.6491 13.0405   1
  -9  16   2 366.746 22.6922  -2
  -9  -9   2 366.746 22.6922   1
  -8  15   2 37.1006 10.7699  -2
  -8  -9   2 37.1006 10.7699   1
  -7  14   2 2.47434 10.1934  -2
  -7  -9   2 2.47434 10.1934   1
  -6  13   2 379.133 15.2056  -2
  -6  -9   2 379.133 15.2056   1
  -5  12   2 366.978 17.0315  -2
  -5  -9   2 366.978 17.0315   1
  -4  11   2 1059.19 34.5540  -2
  -4  -9   2 1059.19 34.5540   1
  -3  10   2 53.0986 7.55846  -2
  -3  -9   2 53.0986 7.55846   1
  -2   9   2 27.3291 7.10706  -2
  -2  -9   2 27.3291 7.10706   1
  -1   8   2 410.820 26.4102  -2
  -1  -9   2 410.820 26.4102   1
   0   7   2 299.563 16.7059  -2
   0  -9   2 299.563 16.7059   1
   1   6   2 2023.31 72.4790  -2
   1  -9   2 2023.31 72.4790   1
   2   5   2 142.138 14.4432  -2
   2  -9   2 142.138 14.4432   1
   3   4   2 3.90537 17.7099  -2
   3  -9   2 3.90537 17.7099   1
   4   3   2 105.622 21.5423  -2
   4  -9   2 105.622 21.5423   1
   5   2   2 912.559 65.9574  -2
   5  -9   2 912.559 65.9574   1
 -10  16   2 10.5709 12.3030  -2
 -10  -8   2 10.5709 12.3030   1
  -9  15   2 108.229 13.3878  -2
  -9  -8   2 108.229 13.3878   1
  -8  14   2 151.114 12.3391  -2
  -8  -8   2 151.114 12.3391   1
  -7  13   2 11.5664 9.44303  -2
  -7  -8   2 11.5664 9.44303   1
  -6  12   2 515.094 19.5213  -2
  -6  -8   2 515.094 19.5213   1
  -5  11   2 193.140 11.7041  -2
  -5  -8   2 193.140 11.7041   1
  -4  10   2 43.9334 7.95439  -2
  -4  -8   2 43.9334 7.95439   1
  -3   9   2 111.258 15.9798  -2
  -3  -8   2 111.258 15.9798   1
  -2   8   2 367.565 15.6210  -2
  -2  -8   2 367.565 15.6210   1
  -1   7   2 1375.79 44.3219  -2
  -1  -8   2 1375.79 44.3219   1
   0   6   2 60.2497 19.5790  -2
   0  -8   2 60.2497 19.5790   1
   2   4   2 1317.55 48.3765  -2
   2  -8   2 1317.55 48.3765   1
   3   3   2 525.499 29.8902  -2
   3  -8   2 525.499 29.8902   1
   4   3   2 894.662 57.5290  -2
   4  -8   2 894.662 57.5290   1
 -10  15   2 2.83770 12.5516  -2
 -10  -7   2 2.83770 12.5516   1
  -9  14   2 61.5096 12.2387  -2
  -9  -7   2 61.5096 12.2387   1
  -8  13   2 271.733 14.6426  -2
  -8  -7   2 271.733 14.6426   1
  -7  12   2 -0.6757 8.88543  -2
  -7  -7   2 -0.6757 8.88543   1
  -6  11   2 121.875 10.3177  -2
  -6  -7   2 121.875 10.3177   1
  -5  10   2 172.681 10.2319  -2
  -5  -7   2 172.681 10.2319   1
  -4   9   2 3.98538 13.9357  -2
  -4  -7   2 3.98538 13.9357   1
  -3   8   2 478.865 22.0930  -2
  -3  -7   2 478.865 22.0930   1
  -2   7   2 593.637 22.1946  -2
  -2  -7   2 593.637 22.1946   1
  -1   6   2 697.818 28.4242  -2
  -1  -7   2 697.818 28.4242   1
   2   3   2 1719.68 61.6436  -2
   2  -7   2 1719.68 61.6436   1
 -10  14   2 38.0338 12.4182  -2
 -10  -6   2 38.0338 12.4182   1
  -9  13   2 62.5592 12.0726  -2
  -9  -6   2 62.5592 12.0726   1
  -8  12   2 33.1312 9.68016  -2
  -8  -6   2 33.1312 9.68016   1
  -7  11   2 178.851 11.7413  -2
  -7  -6   2 178.851 11.7413   1
  -6  10   2 700.845 28.1472  -2
  -6  -6   2 700.845 28.1472   1
  -5   9   2 83.6802 14.2569  -2
  -5  -6   2 83.6802 14.2569   1
  -4   8   2 786.852 36.4309  -2
  -4  -6   2 786.852 36.4309   1
  -3   7   2 821.814 27.8088  -2
  -3  -6   2 821.814 27.8088   1
  -2   6   2 343.367 15.9191  -2
  -2  -6   2 343.367 15.9191   1
   1   3   2 6482.16 535.871  -2
   1  -6   2 6482.16 535.871   1
   3   1   2 1.07071 15.9737  -2
   3  -6   2 1.07071 15.9737   1
 -10  13   2 16.8639 11.9910  -2
 -10  -5   2 16.8639 11.9910   1
  -9  12   2 101.422 10.5497  -2
  -9  -5   2 101.422 10.5497   1
  -8  11   2 344.577 21.0063  -2
  -8  -5   2 344.577 21.0063   1
  -7  10   2 154.975 10.9846  -2
  -7  -5   2 154.975 10.9846   1
  -6   9   2 22.4022 7.97979  -2
  -6  -5   2 22.4022 7.97979   1
  -5   8   2 -8.1167 17.1744  -2
  -5  -5   2 -8.1167 17.1744   1
  -4   7   2 197.703 20.1981  -2
  -4  -5   2 197.703 20.1981   1
  -3   6   2 1246.10 39.0738  -2
  -3  -5   2 1246.10 39.0738   1
   1   2   2 9999.99 825.761  -2
   1  -5   2 9999.99 825.761   1
   3   0   2 215.140 19.5771  -2
   3  -5   2 215.140 19.5771   1
   5  -2   2 1210.58 101.732  -2
   5  -5   2 1210.58 101.732   1
 -10  12   2 43.3606 12.2045  -2
 -10  -4   2 43.3606 12.2045   1
  -9  11   2 537.835 23.1375  -2
  -9  -4   2 537.835 23.1375   1
  -8  10   2 256.647 16.8513  -2
  -8  -4   2 256.647 16.8513   1
  -7   9   2 44.1741 8.33250  -2
  -7  -4   2 44.1741 8.33250   1
  -6   8   2 209.440 20.3363  -2
  -6  -4   2 209.440 20.3363   1
  -5   7   2 190.739 20.4546  -2
  -5  -4   2 190.739 20.4546   1
  -4   6   2 1472.71 62.2447  -2
  -4  -4   2 1472.71 62.2447   1
  -3   5   2 1284.07 40.0143  -2
  -3  -4   2 1284.07 40.0143   1
   0   2   2 2321.56 192.868  -2
   0  -4   2 2321.56 192.868   1
   1   1   2 2337.95 194.307  -2
   1  -4   2 2337.95 194.307   1
   2   0   2 109.212 17.3247  -2
   2  -4   2 109.212 17.3247   1
   3  -1   2 119.099 17.1569  -2
   3  -4   2 119.099 17.1569   1
   4  -2   2 134.861 17.0245  -2
   4  -4   2 134.861 17.0245   1
   5  -3   2 190.351 20.1006  -2
   5  -4   2 190.351 20.1006   1
  -9  10   2 62.6050 9.74312  -2
  -9  -3   2 62.6050 9.74312   1
  -8   9   2 27.2900 9.65207  -2
  -8  -3   2 27.2900 9.65207   1
  -6   7   2 535.960 34.8507  -2
  -6  -3   2 535.960 34.8507   1
  -5   6   2 220.952 21.2300  -2
  -5  -3   2 220.952 21.2300   1
  -4   5   2 388.570 20.5783  -2
  -4  -3   2 388.570 20.5783   1
  -2   3   2 2511.82 103.997  -2
  -2  -3   2 2511.82 103.997   1
  -1   2   2 2333.72 101.823  -2
  -1  -3   2 2333.72 101.823   1
   0   1   2 1724.87 105.702  -2
   0  -3   2 1724.87 105.702   1
   1   0   2 2876.81 169.031  -2
   1  -3   2 2876.81 169.031   1
   2  -1   2 150.489 18.4842  -2
   2  -3   2 150.489 18.4842   1
   3  -2   2 198.398 15.3625  -2
   3  -3   2 198.398 15.3625   1
   4  -3   2 447.008 39.0146  -2
   4  -3   2 447.008 39.0146   1
   5  -4   2 202.989 20.1830  -2
   5  -3   2 202.989 20.1830   1
  -9   9   2 268.474 14.3291  -2
  -9  -2   2 268.474 14.3291   1
  -8   8   2 161.264 13.1106  -2
  -8  -2   2 161.264 13.1106   1
  -5   5   2 83.1737 12.5759  -2
  -5  -2   2 83.1737 12.5759   1
  -4   4   2 599.631 27.5760  -2
  -4  -2   2 599.631 27.5760   1
  -3   3   2 1282.37 53.9576  -2
  -3  -2   2 1282.37 53.9576   1
  -2   2   2 78.6461 14.1903  -2
  -2  -2   2 78.6461 14.1903   1
  -1   1   2 995.144 61.8028  -2
  -1  -2   2 995.144 61.8028   1
   0  -2   2 65.8270 5.90962   1
   1  -2   2 106.145 13.1830   1
   2  -2   2 949.337 55.4753   1
   3  -3   2 187.198 16.4964  -2
   3  -2   2 187.198 16.4964   1
   4  -4   2 106.090 13.0435  -2
   4  -2   2 106.090 13.0435   1
   5  -5   2 72.5039 11.3454  -2
   5  -2   2 72.5039 11.3454   1
 -10   9   2 52.6119 19.1964  -2
 -10  -1   2 52.6119 19.1964   1
  -6   5   2 490.572 34.5618  -2
  -6  -1   2 490.572 34.5618   1
  -5   4   2 282.885 24.1739  -2
  -5  -1   2 282.885 24.1739   1
  -4   3   2 112.156 8.79294  -2
  -4  -1   2 112.156 8.79294   1
  -3   2   2 1114.96 48.2392  -2
  -3  -1   2 1114.96 48.2392   1
  -2   1   2 278.409 22.5737  -2
  -2  -1   2 278.409 22.5737   1
  -1  -1   2 108.415 7.92213   1
   0  -1   2 500.246 22.5124   1
   1  -1   2 26.9073 6.53233   1
   2  -2   2 1514.48 90.2207  -2
   2  -3   2 1514.48 90.2207  -2
   2  -1   2 1514.48 90.2207   1
   3  -4   2 230.534 16.6591  -2
   3  -1   2 230.534 16.6591   1
   4  -1   2 50.2753 7.27888   1
   5  -6   2 664.854 56.5120  -2
   5  -1   2 664.854 56.5120   1
 -10   8   2 -1.1396 17.2902  -2
 -10   0   2 -1.1396 17.2902   1
  -6   4   2 191.931 19.6894  -2
  -6   0   2 191.931 19.6894   1
  -5   3   2 92.1570 13.3661  -2
  -5   0   2 92.1570 13.3661   1
  -4   2   2 395.030 15.7877  -2
  -4   0   2 395.030 15.7877   1
  -3   1   2 1021.80 35.4164  -2
  -3   0   2 1021.80 35.4164   1
  -2   0   2 5.98135 6.15907   1
  -1   0   2 1262.66 44.8482   1
   0   0   2 71.5491 4.09440   1
   1   0   2 134.665 13.5106   1
   2  -4   2 192.701 11.5099  -2
   2   0   2 192.701 11.5099   1
   3  -5   2 48.5598 12.1176  -2
   3   0   2 48.5598 12.1176   1
   4   0   2 132.163 9.61210   1
 -10   7   2 142.212 18.7516  -2
 -10   1   2 142.212 18.7516   1
  -9   6   2 265.402 15.7787  -2
  -9   1   2 265.402 15.7787   1
  -6   3   2 48.9273 13.4571  -2
  -6   1   2 48.9273 13.4571   1
  -5   2   2 1633.18 96.9077  -2
  -5   1   2 1633.18 96.9077   1
  -4   1   2 1359.99 58.2848  -2
  -4   1   2 1359.99 58.2848   1
  -3   0   2 1332.10 56.9434  -2
  -3   1   2 1332.10 56.9434   1
  -2  -1   2 266.520 30.1275  -2
  -2   1   2 266.520 30.1275   1
  -1  -2   2 1051.34 69.0945  -2
  -1   1   2 1051.34 69.0945   1
   0  -3   2 1869.13 65.3026  -2
   0   1   2 1869.13 65.3026   1
   1  -4   2 6226.13 347.988  -2
   1   1   2 6226.13 347.988   1
   2  -5   2 191.626 24.5682  -2
   2   1   2 191.626 24.5682   1
 -10   6   2 8.39552 10.5194  -2
 -10   2   2 8.39552 10.5194   1
  -9   5   2 73.0199 10.9860  -2
  -9   2   2 73.0199 10.9860   1
  -8   4   2 128.526 15.5305  -2
  -8   2   2 128.526 15.5305   1
  -7   3   2 62.6120 13.9346  -2
  -7   2   2 62.6120 13.9346   1
  -5   1   2 1962.24 116.108  -2
  -5   2   2 1962.24 116.108   1
  -4   0   2 507.783 33.5842  -2
  -4   2   2 507.783 33.5842   1
  -3  -1   2 1166.77 70.3142  -2
  -3   2   2 1166.77 70.3142   1
   1  -5   2 1309.97 77.6450  -2
   1   2   2 1309.97 77.6450   1
 -11   6   2 10.8205 15.7863  -2
 -11   3   2 10.8205 15.7863   1
 -10   5   2 137.101 12.6293  -2
 -10   3   2 137.101 12.6293   1
  -9   4   2 244.794 14.8522  -2
  -9   3   2 244.794 14.8522   1
  -8   3   2 343.694 18.3013  -2
  -8   3   2 343.694 18.3013   1
  -7   2   2 76.2826 14.6615  -2
  -7   3   2 76.2826 14.6615   1
  -5   0   2 120.776 17.2915  -2
  -5   3   2 120.776 17.2915   1
  -4  -1   2 104.387 16.6067  -2
  -4   3   2 104.387 16.6067   1
  -3  -2   2 1286.60 82.6627  -2
  -3   3   2 1286.60 82.6627   1
  -2  -3   2 2563.28 213.003  -2
  -2   3   2 2563.28 213.003   1
   0  -5   2 1329.89 79.2078  -2
   0   3   2 1329.89 79.2078   1
   1  -6   2 212.370 16.2211  -2
   1   3   2 212.370 16.2211   1
   2  -7   2 1624.33 137.607  -2
   2   3   2 1624.33 137.607   1
  12 -16   2 -15.155 16.3061  -2
  12   3   2 -15.155 16.3061   1
 -11   5   2 220.902 22.7141  -2
 -11   4   2 220.902 22.7141   1
 -10   4   2 -5.9681 14.7662  -2
 -10   4   2 -5.9681 14.7662   1
  -9   3   2 300.784 17.3527  -2
  -9   4   2 300.784 17.3527   1
  -8   2   2 142.539 11.9465  -2
  -8   4   2 142.539 11.9465   1
  -7   1   2 360.147 18.9521  -2
  -7   4   2 360.147 18.9521   1
  -6   0   2 192.179 20.3357  -2
  -6   4   2 192.179 20.3357   1
  -5  -1   2 361.033 27.3729  -2
  -5   4   2 361.033 27.3729   1
  -4  -2   2 587.319 25.6512  -2
  -4   4   2 587.319 25.6512   1
   0  -6   2 1495.60 72.6896  -2
   0   4   2 1495.60 72.6896   1
   1  -7   2 214.368 17.2740  -2
   1   4   2 214.368 17.2740   1
   2  -8   2 1093.80 64.9664  -2
   2   4   2 1093.80 64.9664   1
   3  -9   2 5.70713 6.25989  -2
   3   4   2 5.70713 6.25989   1
   4 -10   2 133.517 13.4124  -2
   4   4   2 133.517 13.4124   1
   5 -11   2 1086.39 44.1768  -2
   5   4   2 1086.39 44.1768   1
  11 -16   2 29.6780 15.1606  -2
  11   4   2 29.6780 15.1606   1
 -12   5   2 123.500 20.9470  -2
 -12   5   2 123.500 20.9470   1
 -11   4   2 258.129 24.5881  -2
 -11   5   2 258.129 24.5881   1
 -10   3   2 166.178 19.6787  -2
 -10   5   2 166.178 19.6787   1
  -9   2   2 82.8106 11.9491  -2
  -9   5   2 82.8106 11.9491   1
  -8   1   2 264.163 16.4736  -2
  -8   5   2 264.163 16.4736   1
  -7   0   2 1276.20 55.3774  -2
  -7   5   2 1276.20 55.3774   1
  -6  -1   2 688.041 31.3686  -2
  -6   5   2 688.041 31.3686   1
  -5  -2   2 67.6636 14.7198  -2
  -5   5   2 67.6636 14.7198   1
  -4  -3   2 304.614 19.7649  -2
  -4   5   2 304.614 19.7649   1
  -3  -4   2 1154.26 45.9438  -2
  -3   5   2 1154.26 45.9438   1
   0  -7   2 262.741 15.5176  -2
   0   5   2 262.741 15.5176   1
   1  -8   2 244.988 18.6927  -2
   1   5   2 244.988 18.6927   1
   2  -9   2 106.331 13.0595  -2
   2   5   2 106.331 13.0595   1
   3 -10   2 113.258 11.0016  -2
   3   5   2 113.258 11.0016   1
   4 -11   2 64.6829 11.2382  -2
   4   5   2 64.6829 11.2382   1
   5 -12   2 330.954 20.6967  -2
   5   5   2 330.954 20.6967   1
   6 -13   2 39.1540 27.1326  -2
   6   5   2 39.1540 27.1326   1
  11 -17   2 -17.542 15.1231  -2
  11   5   2 -17.542 15.1231   1
 -12   4   2 45.8066 20.0889  -2
 -12   6   2 45.8066 20.0889   1
 -11   3   2 54.4458 16.7176  -2
 -11   6   2 54.4458 16.7176   1
 -10   2   2 6.63335 12.5281  -2
 -10   6   2 6.63335 12.5281   1
  -9   1   2 273.982 17.1121  -2
  -9   6   2 273.982 17.1121   1
  -8   0   2 769.529 35.2725  -2
  -8   6   2 769.529 35.2725   1
  -7  -1   2 278.449 16.8804  -2
  -7   6   2 278.449 16.8804   1
  -6  -2   2 218.252 12.8266  -2
  -6   6   2 218.252 12.8266   1
  -5  -3   2 203.535 17.4527  -2
  -5   6   2 203.535 17.4527   1
  -4  -4   2 1350.40 59.9607  -2
  -4   6   2 1350.40 59.9607   1
  -3  -5   2 1309.92 58.3749  -2
  -3   6   2 1309.92 58.3749   1
  -2  -6   2 349.905 21.5769  -2
  -2   6   2 349.905 21.5769   1
  -1  -7   2 496.023 26.9207  -2
  -1   6   2 496.023 26.9207   1
   0  -8   2 35.6714 10.7890  -2
   0   6   2 35.6714 10.7890   1
   1  -9   2 1742.62 60.5521  -2
   1   6   2 1742.62 60.5521   1
   2 -10   2 472.954 20.4091  -2
   2   6   2 472.954 20.4091   1
   3 -11   2 146.357 9.72523  -2
   3   6   2 146.357 9.72523   1
   4 -12   2 14.6226 10.8228  -2
   4   6   2 14.6226 10.8228   1
   5 -13   2 96.9561 12.8642  -2
   5   6   2 96.9561 12.8642   1
   9 -16   2 26.3711 14.2478  -2
   9   6   2 26.3711 14.2478   1
  10 -17   2 48.4358 15.7079  -2
  10   6   2 48.4358 15.7079   1
  11 -18   2 13.5429 15.9654  -2
  11   6   2 13.5429 15.9654   1
 -13   4   2 38.5452 20.8816  -2
 -13   7   2 38.5452 20.8816   1
 -12   3   2 34.0969 15.0242  -2
 -12   7   2 34.0969 15.0242   1
 -11   2   2 134.984 15.7030  -2
 -11   7   2 134.984 15.7030   1
 -10   1   2 180.496 15.9650  -2
 -10   7   2 180.496 15.9650   1
  -9   0   2 370.686 21.1084  -2
  -9   7   2 370.686 21.1084   1
  -8  -1   2 156.835 14.3944  -2
  -8   7   2 156.835 14.3944   1
  -7  -2   2 80.4928 10.9404  -2
  -7   7   2 80.4928 10.9404   1
  -6  -3   2 491.972 20.8635  -2
  -6   7   2 491.972 20.8635   1
  -5  -4   2 227.978 13.3945  -2
  -5   7   2 227.978 13.3945   1
  -4  -5   2 216.139 18.1843  -2
  -4   7   2 216.139 18.1843   1
  -3  -6   2 630.445 32.0763  -2
  -3   7   2 630.445 32.0763   1
  -2  -7   2 602.176 30.9261  -2
  -2   7   2 602.176 30.9261   1
  -1  -8   2 1249.03 56.3581  -2
  -1   7   2 1249.03 56.3581   1
   0  -9   2 328.486 16.1918  -2
   0   7   2 328.486 16.1918   1
   1 -10   2 161.904 12.4725  -2
   1   7   2 161.904 12.4725   1
   2 -11   2 22.2634 7.87884  -2
   2   7   2 22.2634 7.87884   1
   3 -12   2 80.6750 12.1285  -2
   3   7   2 80.6750 12.1285   1
   4 -13   2 566.725 23.3832  -2
   4   7   2 566.725 23.3832   1
   5 -14   2 285.377 19.3095  -2
   5   7   2 285.377 19.3095   1
   9 -17   2 3.17194 14.2350  -2
   9   7   2 3.17194 14.2350   1
  10 -18   2 23.5709 15.0417  -2
  10   7   2 23.5709 15.0417   1
 -13   3   2 18.3888 21.4747  -2
 -13   8   2 18.3888 21.4747   1
 -12   2   2 36.2100 14.4462  -2
 -12   8   2 36.2100 14.4462   1
 -11   1   2 116.889 15.2776  -2
 -11   8   2 116.889 15.2776   1
 -10   0   2 18.4380 16.6346  -2
 -10   8   2 18.4380 16.6346   1
  -9  -1   2 630.759 31.0396  -2
  -9   8   2 630.759 31.0396   1
  -8  -2   2 194.591 10.2781  -2
  -8   8   2 194.591 10.2781   1
  -7  -3   2 47.2447 11.4531  -2
  -7   8   2 47.2447 11.4531   1
  -6  -4   2 188.344 19.3473  -2
  -6   8   2 188.344 19.3473   1
  -5  -5   2 -6.8212 10.7097  -2
  -5   8   2 -6.8212 10.7097   1
  -4  -6   2 671.383 26.8989  -2
  -4   8   2 671.383 26.8989   1
  -3  -7   2 542.941 29.3373  -2
  -3   8   2 542.941 29.3373   1
  -2  -8   2 411.686 24.4166  -2
  -2   8   2 411.686 24.4166   1
  -1  -9   2 368.093 22.8134  -2
  -1   8   2 368.093 22.8134   1
   0 -10   2 39.3949 11.9617  -2
   0   8   2 39.3949 11.9617   1
   1 -11   2 237.377 10.7716  -2
   1   8   2 237.377 10.7716   1
   2 -12   2 509.078 21.6065  -2
   2   8   2 509.078 21.6065   1
   3 -13   2 637.494 34.4893  -2
   3   8   2 637.494 34.4893   1
   4 -14   2 225.117 12.1903  -2
   4   8   2 225.117 12.1903   1
   5 -15   2 76.1576 13.7245  -2
   5   8   2 76.1576 13.7245   1
   9   8   2 25.9370 10.0293   1
  10 -19   2 18.2677 15.1185  -2
  10   8   2 18.2677 15.1185   1
 -13   2   2 27.4059 19.7049  -2
 -13   9   2 27.4059 19.7049   1
 -12   1   2 80.2639 21.8046  -2
 -12   9   2 80.2639 21.8046   1
 -11   0   2 309.082 21.4349  -2
 -11   9   2 309.082 21.4349   1
 -10  -1   2 91.5800 14.9489  -2
 -10   9   2 91.5800 14.9489   1
  -9  -2   2 312.737 20.1766  -2
  -9   9   2 312.737 20.1766   1
  -8  -3   2 43.4182 7.46217  -2
  -8   9   2 43.4182 7.46217   1
  -7  -4   2 62.0733 7.83839  -2
  -7   9   2 62.0733 7.83839   1
  -6  -5   2 22.2683 7.24100  -2
  -6   9   2 22.2683 7.24100   1
  -5  -6   2 81.6836 10.9562  -2
  -5   9   2 81.6836 10.9562   1
  -4  -7   2 8.22167 11.8589  -2
  -4   9   2 8.22167 11.8589   1
  -3  -8   2 88.7749 12.6831  -2
  -3   9   2 88.7749 12.6831   1
  -2  -9   2 33.8351 15.9299  -2
  -2   9   2 33.8351 15.9299   1
  -1 -10   2 221.353 20.9274  -2
  -1   9   2 221.353 20.9274   1
   0 -11   2 173.168 9.88071  -2
   0   9   2 173.168 9.88071   1
   1 -12   2 132.794 9.15962  -2
   1   9   2 132.794 9.15962   1
   2 -13   2 187.625 11.1971  -2
   2   9   2 187.625 11.1971   1
   3 -14   2 16.6460 9.68437  -2
   3   9   2 16.6460 9.68437   1
   4 -15   2 139.598 19.2845  -2
   4  10   2 139.598 19.2845   1
   4   9   2 139.598 19.2845   1
   4 -15   2 15.2666 13.0321  -2
   4   9   2 15.2666 13.0321   1
   5 -16   2 416.284 25.9951  -2
   5   9   2 416.284 25.9951   1
   6 -17   2 251.484 19.5010  -2
   6   9   2 251.484 19.5010   1
  10 -20   2 4.66319 15.4595  -2
  10   9   2 4.66319 15.4595   1
 -13   1   2 36.5054 17.1663  -2
 -13  10   2 36.5054 17.1663   1
 -12   0   2 343.997 22.5962  -2
 -12  10   2 343.997 22.5962   1
 -11  -1   2 744.468 36.3726  -2
 -11  10   2 744.468 36.3726   1
 -10  -2   2 153.487 17.7082  -2
 -10  10   2 153.487 17.7082   1
  -9  -3   2 54.0922 8.15757  -2
  -9  10   2 54.0922 8.15757   1
  -8  -4   2 284.740 12.5871  -2
  -8  10   2 284.740 12.5871   1
  -7  -5   2 159.274 9.71901  -2
  -7  10   2 159.274 9.71901   1
  -6  -6   2 763.444 27.2397  -2
  -6  10   2 763.444 27.2397   1
  -5  -7   2 160.389 12.4001  -2
  -5  10   2 160.389 12.4001   1
  -4  -8   2 41.0180 10.9294  -2
  -4  10   2 41.0180 10.9294   1
  -3  -9   2 51.7816 11.8058  -2
  -3  10   2 51.7816 11.8058   1
  -2 -10   2 192.830 11.5062  -2
  -2  10   2 192.830 11.5062   1
  -1 -11   2 456.144 19.8552  -2
  -1  10   2 456.144 19.8552   1
   0 -12   2 423.506 18.6785  -2
   0  10   2 423.506 18.6785   1
   1 -13   2 6.88844 8.79799  -2
   1  10   2 6.88844 8.79799   1
   2 -14   2 -15.613 11.6831  -2
   2  10   2 -15.613 11.6831   1
   3 -15   2 38.0141 11.0065  -2
   3  10   2 38.0141 11.0065   1
   4 -16   2 59.6778 13.7792  -2
   4  10   2 59.6778 13.7792   1
   4 -15   2 139.598 19.2845  -2
   4  10   2 139.598 19.2845   1
   4   9   2 139.598 19.2845   1
   5 -17   2 252.318 19.5768  -2
   5  10   2 252.318 19.5768   1
   6 -18   2 -0.1815 14.6738  -2
   6  10   2 -0.1815 14.6738   1
 -13   0   2 82.2580 21.7835  -2
 -13  11   2 82.2580 21.7835   1
 -12  -1   2 211.262 19.0966  -2
 -12  11   2 211.262 19.0966   1
 -11  -2   2 29.6969 19.5964  -2
 -11  11   2 29.6969 19.5964   1
 -10  -3   2 69.6914 21.9105  -2
 -10  11   2 69.6914 21.9105   1
  -9  -4   2 545.344 22.4234  -2
  -9  11   2 545.344 22.4234   1
  -8  -5   2 447.226 18.0819  -2
  -8  11   2 447.226 18.0819   1
  -7  -6   2 222.266 11.4980  -2
  -7  11   2 222.266 11.4980   1
  -6  -7   2 96.4908 8.72899  -2
  -6  11   2 96.4908 8.72899   1
  -5  -8   2 286.103 18.1442  -2
  -5  11   2 286.103 18.1442   1
  -4  -9   2 984.488 33.2635  -2
  -4  11   2 984.488 33.2635   1
  -3 -10   2 213.758 10.4442  -2
  -3  11   2 213.758 10.4442   1
  -2 -11   2 49.0382 8.37664  -2
  -2  11   2 49.0382 8.37664   1
  -1 -12   2 158.693 10.8056  -2
  -1  11   2 158.693 10.8056   1
   0 -13   2 294.879 12.9023  -2
   0  11   2 294.879 12.9023   1
   1 -14   2 256.672 13.9455  -2
   1  11   2 256.672 13.9455   1
   2 -15   2 429.299 19.5566  -2
   2  11   2 429.299 19.5566   1
   4 -17   2 44.9739 14.4309  -2
   4  11   2 44.9739 14.4309   1
   5 -18   2 0.39512 14.7326  -2
   5  11   2 0.39512 14.7326   1
   6 -19   2 64.6449 15.6166  -2
   6  11   2 64.6449 15.6166   1
   9 -21   2 61.2611 15.8844  -2
   9  11   2 61.2611 15.8844   1
 -13  -1   2 120.665 19.0156  -2
 -13  12   2 120.665 19.0156   1
 -12  -2   2 43.7960 22.8626  -2
 -12  12   2 43.7960 22.8626   1
 -11  -3   2 105.250 21.9030  -2
 -11  12   2 105.250 21.9030   1
 -10  -4   2 77.6850 17.3317  -2
 -10  12   2 77.6850 17.3317   1
  -9  -5   2 150.576 12.1755  -2
  -9  12   2 150.576 12.1755   1
  -8  -6   2 44.6607 9.03817  -2
  -8  12   2 44.6607 9.03817   1
  -7  -7   2 8.23266 13.4300  -2
  -7  12   2 8.23266 13.4300   1
  -6  -8   2 548.966 27.4632  -2
  -6  12   2 548.966 27.4632   1
  -5  -9   2 439.631 23.1565  -2
  -5  12   2 439.631 23.1565   1
  -4 -10   2 375.386 20.3539  -2
  -4  12   2 375.386 20.3539   1
  -3 -11   2 30.3431 8.39026  -2
  -3  12   2 30.3431 8.39026   1
  -2 -12   2 14.6291 8.67068  -2
  -2  12   2 14.6291 8.67068   1
  -1 -13   2 521.855 22.5790  -2
  -1  12   2 521.855 22.5790   1
   0 -14   2 627.113 26.2248  -2
   0  12   2 627.113 26.2248   1
   1 -15   2 121.821 11.3211  -2
   1  12   2 121.821 11.3211   1
   2 -16   2 102.631 14.0041  -2
   2  12   2 102.631 14.0041   1
   4 -18   2 151.903 15.9032  -2
   4  12   2 151.903 15.9032   1
   5 -19   2 165.905 16.4585  -2
   5  12   2 165.905 16.4585   1
   6 -20   2 19.3203 15.2242  -2
   6  12   2 19.3203 15.2242   1
   7 -21   2 -25.243 15.4646  -2
   7  12   2 -25.243 15.4646   1
   8 -21   2 16.6418 16.3304  -2
   8  12   2 16.6418 16.3304   1
 -13  -2   2 26.3009 21.8968  -2
 -13  13   2 26.3009 21.8968   1
 -12  -3   2 27.7060 20.4798  -2
 -12  13   2 27.7060 20.4798   1
 -11  -4   2 110.592 17.5378  -2
 -11  13   2 110.592 17.5378   1
 -10  -5   2 33.5523 22.8891  -2
 -10  13   2 33.5523 22.8891   1
  -9  -6   2 44.1831 10.3583  -2
  -9  13   2 44.1831 10.3583   1
  -8  -7   2 322.630 14.7649  -2
  -8  13   2 322.630 14.7649   1
  -7  -8   2 -5.6360 9.84871  -2
  -7  13   2 -5.6360 9.84871   1
  -6  -9   2 215.983 14.5834  -2
  -6  13   2 215.983 14.5834   1
  -5 -10   2 241.988 17.7899  -2
  -5  13   2 241.988 17.7899   1
  -4 -11   2 2.01682 12.6116  -2
  -4  13   2 2.01682 12.6116   1
  -2 -13   2 451.589 25.3858  -2
  -2  13   2 451.589 25.3858   1
   4 -19   2 111.606 16.3500  -2
   4  13   2 111.606 16.3500   1
   5 -20   2 10.9863 15.3524  -2
   5  13   2 10.9863 15.3524   1
   6 -21   2 18.8485 15.8372  -2
   6  13   2 18.8485 15.8372   1
   7 -22   2 94.1518 17.1937  -2
   7  13   2 94.1518 17.1937   1
   8 -22   2 12.9195 14.3861  -2
   8  13   2 12.9195 14.3861   1
 -12  -4   2 56.7881 17.5892  -2
 -12  14   2 56.7881 17.5892   1
 -11  -5   2 199.122 25.8250  -2
 -11  14   2 199.122 25.8250   1
 -10  -6   2 86.1351 18.6174  -2
 -10  14   2 86.1351 18.6174   1
  -9  -7   2 52.7640 10.9832  -2
  -9  14   2 52.7640 10.9832   1
  -8  -8   2 230.014 14.6194  -2
  -8  14   2 230.014 14.6194   1
  -7  -9   2 22.4178 9.28953  -2
  -7  14   2 22.4178 9.28953   1
  -6 -10   2 71.9246 7.57349  -2
  -6  14   2 71.9246 7.57349   1
  -5 -11   2 52.1922 18.2381  -2
  -5  14   2 52.1922 18.2381   1
  -4 -12   2 21.7338 20.7839  -2
  -4  14   2 21.7338 20.7839   1
   4 -20   2 30.3229 15.6404  -2
   4  14   2 30.3229 15.6404   1
   5 -21   2 144.840 17.8390  -2
   5  14   2 144.840 17.8390   1
   6 -22   2 81.6237 16.8356  -2
   6  14   2 81.6237 16.8356   1
   7 -23   2 19.0647 15.1750  -2
   7  14   2 19.0647 15.1750   1
 -12  -5   2 118.680 24.3293  -2
 -12  15   2 118.680 24.3293   1
 -11  -6   2 279.451 29.0011  -2
 -11  15   2 279.451 29.0011   1
 -10  -7   2 19.7539 21.7687  -2
 -10  15   2 19.7539 21.7687   1
  -9  -8   2 62.7625 13.7881  -2
  -9  15   2 62.7625 13.7881   1
  -8  -9   2 65.4579 11.6924  -2
  -8  15   2 65.4579 11.6924   1
  -7 -10   2 75.3108 12.8603  -2
  -7  15   2 75.3108 12.8603   1
  -6 -11   2 467.538 37.8098  -2
  -6  15   2 467.538 37.8098   1
  -5 -12   2 132.187 23.0548  -2
  -5  15   2 132.187 23.0548   1
   4 -21   2 129.715 17.3844  -2
   4  15   2 129.715 17.3844   1
   6 -22   2 24.5730 28.8659  -2
   6  15   2 24.5730 28.8659   1
   6 -23   2 20.2426 16.6138  -2
   6  15   2 20.2426 16.6138   1
 -12  -6   2 122.057 24.8992  -2
 -12  16   2 122.057 24.8992   1
 -11  -7   2 11.8387 17.8903  -2
 -11  16   2 11.8387 17.8903   1
 -10  -8   2 31.7207 22.6294  -2
 -10  16   2 31.7207 22.6294   1
  -9  -9   2 536.955 25.2248  -2
  -9  16   2 536.955 25.2248   1
  -8 -10   2 128.117 12.9662  -2
  -8  16   2 128.117 12.9662   1
  -7 -11   2 120.184 11.2855  -2
  -7  16   2 120.184 11.2855   1
  -6 -12   2 5.44255 19.8189  -2
  -6  16   2 5.44255 19.8189   1
   4 -22   2 25.9158 16.0532  -2
   4  16   2 25.9158 16.0532   1
   6 -23   2 -32.225 29.2231  -2
   6  16   2 -32.225 29.2231   1
 -11  -8   2 25.9417 23.4355  -2
 -11  17   2 25.9417 23.4355   1
 -10  -9   2 50.3045 23.3682  -2
 -10  17   2 50.3045 23.3682   1
  -9 -10   2 29.7070 12.5145  -2
  -9  17   2 29.7070 12.5145   1
  -8 -11   2 19.9807 21.4990  -2
  -8  17   2 19.9807 21.4990   1
  -7 -12   2 52.4073 10.1264  -2
  -7  17   2 52.4073 10.1264   1
  -6 -13   2 300.888 28.6174  -2
  -6  17   2 300.888 28.6174   1
   5 -24   2 106.284 18.1461  -2
   5  17   2 106.284 18.1461   1
 -11  -9   2 26.9222 23.3648  -2
 -11  18   2 26.9222 23.3648   1
 -10 -10   2 32.0462 23.1576  -2
 -10  18   2 32.0462 23.1576   1
  -9 -11   2 -8.6252 22.0146  -2
  -9  18   2 -8.6252 22.0146   1
  -8 -12   2 11.0714 12.9703  -2
  -8  18   2 11.0714 12.9703   1
  -7 -13   2 64.3854 9.87651  -2
  -7  18   2 64.3854 9.87651   1
 -10 -11   2 9.79335 14.8553  -2
 -10  19   2 9.79335 14.8553   1
  -9 -12   2 56.5385 23.4006  -2
  -9  19   2 56.5385 23.4006   1
  -8 -13   2 27.0211 12.8219  -2
  -8  19   2 27.0211 12.8219   1
  -7 -14   2 55.3176 11.3110  -2
  -7  19   2 55.3176 11.3110   1
 -10  20   2 -16.619 13.5747   1
  -9 -13   2 4.62579 26.0351  -2
  -9  20   2 4.62579 26.0351   1
  -8 -14   2 -8.5380 15.0662  -2
  -8  20   2 -8.5380 15.0662   1
  -7 -15   2 96.2960 11.8498  -2
  -7  20   2 96.2960 11.8498   1
  -9  21   2 -3.9507 13.6082   1
  -8 -15   2 60.3946 16.5065  -2
  -8  21   2 60.3946 16.5065   1
  -7 -16   2 89.3420 12.2020  -2
  -7  21   2 89.3420 12.2020   1
  -7 -17   2 75.1361 12.2630  -2
  -7  22   2 75.1361 12.2630   1
   5 -24   3 163.480 24.5920   1
   4  17   3 158.122 28.6938  -2
   4 -23   3 158.122 28.6938   1
   5  16   3 -19.716 27.6669  -2
   5 -23   3 -19.716 27.6669   1
   6  15   3 23.1695 26.0381  -2
   6 -23   3 23.1695 26.0381   1
   7  14   3 13.9949 31.3077  -2
   7 -23   3 13.9949 31.3077   1
  -2  22   3 -25.419 16.7510  -2
  -2 -22   3 -25.419 16.7510   1
   3  17   3 28.1546 25.8472  -2
   3 -22   3 28.1546 25.8472   1
   4  16   3 19.6720 25.9434  -2
   4 -22   3 19.6720 25.9434   1
   5  15   3 78.6611 27.4421  -2
   5 -22   3 78.6611 27.4421   1
   6  14   3 103.205 27.0309  -2
   6 -22   3 103.205 27.0309   1
   7  13   3 124.856 31.7566  -2
   7 -22   3 124.856 31.7566   1
   8  12   3 57.2162 22.8090  -2
   8 -22   3 57.2162 22.8090   1
   9 -22   3 30.5424 25.6291   1
  -3 -21   3 29.8656 10.9717   1
  -2  21   3 68.8097 16.9897  -2
  -2 -21   3 68.8097 16.9897   1
   3  16   3 100.022 26.7730  -2
   3 -21   3 100.022 26.7730   1
   4  15   3 131.994 29.0866  -2
   4 -21   3 131.994 29.0866   1
   5  14   3 52.4070 27.4655  -2
   5 -21   3 52.4070 27.4655   1
   6  13   3 24.3486 19.7694  -2
   6 -21   3 24.3486 19.7694   1
   7  12   3 3.48437 21.1164  -2
   7 -21   3 3.48437 21.1164   1
   8  11   3 27.4058 20.5924  -2
   8 -21   3 27.4058 20.5924   1
   9  10   3 142.085 23.7211  -2
   9 -21   3 142.085 23.7211   1
  -4  22   3 68.3534 18.0340  -2
  -4 -20   3 68.3534 18.0340   1
  -3 -20   3 66.3205 11.3923   1
  -2  20   3 101.744 17.0241  -2
  -2 -20   3 101.744 17.0241   1
   2  16   3 261.283 29.7953  -2
   2 -20   3 261.283 29.7953   1
   3  15   3 129.869 25.2977  -2
   3 -20   3 129.869 25.2977   1
   4  14   3 24.7045 25.0009  -2
   4 -20   3 24.7045 25.0009   1
   5  13   3 178.317 29.6217  -2
   5 -20   3 178.317 29.6217   1
   6  12   3 136.366 20.3779  -2
   6 -20   3 136.366 20.3779   1
   7  11   3 36.5540 19.9949  -2
   7 -20   3 36.5540 19.9949   1
   8  10   3 25.7234 25.3581  -2
   8 -20   3 25.7234 25.3581   1
   9   9   3 108.080 21.2316  -2
   9 -20   3 108.080 21.2316   1
  10   8   3 36.6717 20.5470  -2
  10 -20   3 36.6717 20.5470   1
  -5  21   3 88.1270 17.7003  -2
  -5 -19   3 88.1270 17.7003   1
  -5  21   3 23.3051 36.4957  -2
  -5  22   3 23.3051 36.4957  -2
  -5 -19   3 23.3051 36.4957   1
  -4  21   3 93.6625 17.9567  -2
  -4 -19   3 93.6625 17.9567   1
  -3  20   3 -18.119 16.0905  -2
  -3 -19   3 -18.119 16.0905   1
  -2  19   3 1.08450 15.4772  -2
  -2 -19   3 1.08450 15.4772   1
  -1  18   3 90.8698 16.1707  -2
  -1 -19   3 90.8698 16.1707   1
   2  15   3 45.3453 24.3006  -2
   2 -19   3 45.3453 24.3006   1
   3  14   3 28.9856 22.8803  -2
   3 -19   3 28.9856 22.8803   1
   4  13   3 121.213 26.1390  -2
   4 -19   3 121.213 26.1390   1
   5  12   3 231.155 22.6913  -2
   5 -19   3 231.155 22.6913   1
   6  11   3 215.425 21.4478  -2
   6 -19   3 215.425 21.4478   1
   7  10   3 9.50843 18.7606  -2
   7 -19   3 9.50843 18.7606   1
   8   9   3 62.7468 20.9302  -2
   8 -19   3 62.7468 20.9302   1
   9   8   3 84.0021 20.1121  -2
   9 -19   3 84.0021 20.1121   1
  10   7   3 84.8458 21.8694  -2
  10 -19   3 84.8458 21.8694   1
  11 -19   3 70.6203 25.2921   1
  -6  21   3 -26.489 16.3767  -2
  -6 -18   3 -26.489 16.3767   1
  -5  20   3 25.7094 14.0221  -2
  -5 -18   3 25.7094 14.0221   1
  -4  20   3 11.1586 16.8062  -2
  -4 -18   3 11.1586 16.8062   1
  -3  19   3 114.529 16.7897  -2
  -3 -18   3 114.529 16.7897   1
  -2  18   3 164.244 17.6078  -2
  -2 -18   3 164.244 17.6078   1
  -1  17   3 133.524 16.5582  -2
  -1 -18   3 133.524 16.5582   1
   1  15   3 66.7145 22.8236  -2
   1 -18   3 66.7145 22.8236   1
   2  14   3 83.3306 21.9441  -2
   2 -18   3 83.3306 21.9441   1
   3  13   3 275.055 30.0942  -2
   3 -18   3 275.055 30.0942   1
   4  12   3 190.209 20.7530  -2
   4 -18   3 190.209 20.7530   1
   5  11   3 154.913 20.1752  -2
   5 -18   3 154.913 20.1752   1
   6  10   3 166.773 19.4508  -2
   6 -18   3 166.773 19.4508   1
   7   9   3 8.21400 17.9440  -2
   7 -18   3 8.21400 17.9440   1
   8   8   3 263.146 23.2629  -2
   8 -18   3 263.146 23.2629   1
   9   7   3 195.242 22.7123  -2
   9 -18   3 195.242 22.7123   1
  10   6   3 36.1730 19.4859  -2
  10 -18   3 36.1730 19.4859   1
  11   5   3 54.9986 21.3339  -2
  11 -18   3 54.9986 21.3339   1
  -7  21   3 11.1750 16.4054  -2
  -7 -17   3 11.1750 16.4054   1
  -6  20   3 11.3356 16.2463  -2
  -6 -17   3 11.3356 16.2463   1
  -5  19   3 84.9981 14.0224  -2
  -5 -17   3 84.9981 14.0224   1
  -4  19   3 98.0345 17.1178  -2
  -4 -17   3 98.0345 17.1178   1
  -3  18   3 54.1125 15.8293  -2
  -3 -17   3 54.1125 15.8293   1
  -1  16   3 44.0514 14.0144  -2
  -1 -17   3 44.0514 14.0144   1
   0  15   3 178.746 16.5562  -2
   0 -17   3 178.746 16.5562   1
   1  14   3 203.068 25.2661  -2
   1 -17   3 203.068 25.2661   1
   2  13   3 409.944 34.5062  -2
   2 -17   3 409.944 34.5062   1
   3  12   3 52.3540 21.8443  -2
   3 -17   3 52.3540 21.8443   1
   5  10   3 163.977 19.9116  -2
   5 -17   3 163.977 19.9116   1
   6   9   3 395.328 25.1587  -2
   6 -17   3 395.328 25.1587   1
   7   8   3 318.214 23.0921  -2
   7 -17   3 318.214 23.0921   1
   8   7   3 38.7833 18.0114  -2
   8 -17   3 38.7833 18.0114   1
   9   6   3 80.4152 19.0364  -2
   9 -17   3 80.4152 19.0364   1
  10   5   3 44.2419 20.0615  -2
  10 -17   3 44.2419 20.0615   1
  11   4   3 284.904 23.4492  -2
  11 -17   3 284.904 23.4492   1
  -7  20   3 38.1598 15.9632  -2
  -7 -16   3 38.1598 15.9632   1
  -6  19   3 72.7468 16.0045  -2
  -6 -16   3 72.7468 16.0045   1
  -5  18   3 51.1173 13.1877  -2
  -5 -16   3 51.1173 13.1877   1
  -4  17   3 25.1378 25.0033  -2
  -4 -16   3 25.1378 25.0033   1
  -4  18   3 35.9925 15.3404  -2
  -4 -16   3 35.9925 15.3404   1
  -3  17   3 24.7030 14.8588  -2
  -3 -16   3 24.7030 14.8588   1
  -2  16   3 102.926 15.2570  -2
  -2 -16   3 102.926 15.2570   1
  -1  15   3 188.382 16.8561  -2
  -1 -16   3 188.382 16.8561   1
   0  14   3 14.5763 18.9894  -2
   0 -16   3 14.5763 18.9894   1
   1  13   3 367.097 31.4065  -2
   1 -16   3 367.097 31.4065   1
   2  12   3 29.1192 10.4386  -2
   2 -16   3 29.1192 10.4386   1
   3  11   3 7.86074 21.8208  -2
   3 -16   3 7.86074 21.8208   1
   4  10   3 15.3416 17.1730  -2
   4 -16   3 15.3416 17.1730   1
   5   9   3 12.9935 16.0019  -2
   5 -16   3 12.9935 16.0019   1
   6   8   3 162.616 18.3199  -2
   6 -16   3 162.616 18.3199   1
   7   7   3 65.1859 18.4668  -2
   7 -16   3 65.1859 18.4668   1
   8   6   3 35.2946 16.9559  -2
   8 -16   3 35.2946 16.9559   1
   9   5   3 196.933 21.5544  -2
   9 -16   3 196.933 21.5544   1
  10   4   3 48.9986 18.2590  -2
  10 -16   3 48.9986 18.2590   1
  11   3   3 157.248 20.2321  -2
  11 -16   3 157.248 20.2321   1
  12   2   3 3.31853 19.2317  -2
  12 -16   3 3.31853 19.2317   1
  -8  20   3 44.0558 15.9664  -2
  -8 -15   3 44.0558 15.9664   1
  -7  19   3 17.4656 15.2894  -2
  -7 -15   3 17.4656 15.2894   1
  -6  18   3 -3.7766 14.8530  -2
  -6 -15   3 -3.7766 14.8530   1
  -5 -15   3 6.00538 9.14572   1
  -4  16   3 56.1576 24.0159  -2
  -4 -15   3 56.1576 24.0159   1
  -4  17   3 56.5192 15.2836  -2
  -4 -15   3 56.5192 15.2836   1
  -3  16   3 594.741 33.6729  -2
  -3 -15   3 594.741 33.6729   1
  -2  15   3 99.2035 14.4183  -2
  -2 -15   3 99.2035 14.4183   1
  -1  14   3 34.9167 12.7277  -2
  -1 -15   3 34.9167 12.7277   1
   0  13   3 61.8703 10.6109  -2
   0 -15   3 61.8703 10.6109   1
   1  12   3 380.656 18.6844  -2
   1 -15   3 380.656 18.6844   1
   2  11   3 126.708 16.3703  -2
   2 -15   3 126.708 16.3703   1
   3  10   3 193.394 18.1466  -2
   3 -15   3 193.394 18.1466   1
   4   9   3 45.4055 16.2747  -2
   4 -15   3 45.4055 16.2747   1
   5   8   3 30.3206 16.1633  -2
   5 -15   3 30.3206 16.1633   1
   6   7   3 10.6032 15.6602  -2
   6 -15   3 10.6032 15.6602   1
   7   6   3 19.1182 17.3275  -2
   7 -15   3 19.1182 17.3275   1
   8   5   3 79.8099 18.3919  -2
   8 -15   3 79.8099 18.3919   1
   9   4   3 10.4005 17.4029  -2
   9 -15   3 10.4005 17.4029   1
  10   3   3 2.94129 18.6090  -2
  10 -15   3 2.94129 18.6090   1
  11   2   3 66.1327 29.2447  -2
  11 -15   3 66.1327 29.2447   1
  12   1   3 78.7679 20.5137  -2
  12 -15   3 78.7679 20.5137   1
  -9  20   3 32.3081 14.8504  -2
  -9 -14   3 32.3081 14.8504   1
  -8  19   3 -14.206 14.3225  -2
  -8 -14   3 -14.206 14.3225   1
  -7  18   3 -7.4022 14.7035  -2
  -7 -14   3 -7.4022 14.7035   1
  -6  17   3 24.1364 14.4800  -2
  -6 -14   3 24.1364 14.4800   1
  -5  16   3 153.303 25.1370  -2
  -5 -14   3 153.303 25.1370   1
  -4  16   3 40.3785 14.2753  -2
  -4 -14   3 40.3785 14.2753   1
  -3  15   3 262.621 19.2505  -2
  -3 -14   3 262.621 19.2505   1
  -2  14   3 15.6861 12.7489  -2
  -2 -14   3 15.6861 12.7489   1
  -1  13   3 85.5128 12.4502  -2
  -1 -14   3 85.5128 12.4502   1
   0  12   3 887.780 46.3880  -2
   0 -14   3 887.780 46.3880   1
   1  11   3 577.779 21.3505  -2
   1 -14   3 577.779 21.3505   1
   2  10   3 4.56705 14.6413  -2
   2 -14   3 4.56705 14.6413   1
   3   9   3 0.16362 15.0020  -2
   3 -14   3 0.16362 15.0020   1
   4   8   3 -3.4582 14.7819  -2
   4 -14   3 -3.4582 14.7819   1
   5   7   3 331.010 21.9897  -2
   5 -14   3 331.010 21.9897   1
   6   6   3 108.695 16.7692  -2
   6 -14   3 108.695 16.7692   1
   7   5   3 31.5388 15.3015  -2
   7 -14   3 31.5388 15.3015   1
   8   4   3 153.959 16.9985  -2
   8 -14   3 153.959 16.9985   1
   9   3   3 139.182 18.3838  -2
   9 -14   3 139.182 18.3838   1
  10   2   3 42.4431 17.4634  -2
  10 -14   3 42.4431 17.4634   1
  11   1   3 96.4157 18.4813  -2
  11 -14   3 96.4157 18.4813   1
  12   0   3 114.627 20.5243  -2
  12 -14   3 114.627 20.5243   1
  -9  19   3 55.8039 14.7232  -2
  -9 -13   3 55.8039 14.7232   1
  -8  18   3 117.215 15.5046  -2
  -8 -13   3 117.215 15.5046   1
  -7  17   3 22.5621 15.5189  -2
  -7 -13   3 22.5621 15.5189   1
  -6  16   3 27.3859 14.4686  -2
  -6 -13   3 27.3859 14.4686   1
  -5  15   3 139.196 23.8724  -2
  -5 -13   3 139.196 23.8724   1
  -4  15   3 103.138 14.6636  -2
  -4 -13   3 103.138 14.6636   1
  -3  13   3 138.805 22.8104  -2
  -3 -13   3 138.805 22.8104   1
  -3  14   3 102.326 13.7417  -2
  -3 -13   3 102.326 13.7417   1
  -2  13   3 387.218 23.2192  -2
  -2 -13   3 387.218 23.2192   1
  -1  12   3 304.159 19.4673  -2
  -1 -13   3 304.159 19.4673   1
   0  11   3 223.622 13.1334  -2
   0 -13   3 223.622 13.1334   1
   1  10   3 168.966 11.6172  -2
   1 -13   3 168.966 11.6172   1
   2   9   3 165.028 15.7958  -2
   2 -13   3 165.028 15.7958   1
   3   8   3 1193.64 52.8150  -2
   3 -13   3 1193.64 52.8150   1
   4   7   3 446.665 19.7288  -2
   4 -13   3 446.665 19.7288   1
   5   6   3 434.385 24.6085  -2
   5 -13   3 434.385 24.6085   1
   6   5   3 -15.497 15.0072  -2
   6 -13   3 -15.497 15.0072   1
   7   4   3 128.180 15.6619  -2
   7 -13   3 128.180 15.6619   1
   8   3   3 600.151 27.1654  -2
   8 -13   3 600.151 27.1654   1
   9   2   3 225.674 21.2937  -2
   9 -13   3 225.674 21.2937   1
  10   1   3 21.1748 17.9845  -2
  10 -13   3 21.1748 17.9845   1
  11   0   3 51.1619 17.4804  -2
  11 -13   3 51.1619 17.4804   1
  12  -1   3 44.8326 19.2265  -2
  12 -13   3 44.8326 19.2265   1
 -10  19   3 58.5006 14.3842  -2
 -10 -12   3 58.5006 14.3842   1
  -9  18   3 64.0420 15.1048  -2
  -9 -12   3 64.0420 15.1048   1
  -8  17   3 55.5588 14.1947  -2
  -8 -12   3 55.5588 14.1947   1
  -7  16   3 93.8043 14.8936  -2
  -7 -12   3 93.8043 14.8936   1
  -6  15   3 50.9196 14.1056  -2
  -6 -12   3 50.9196 14.1056   1
  -5 -12   3 68.4095 9.26462   1
  -4  14   3 62.0684 13.2063  -2
  -4 -12   3 62.0684 13.2063   1
  -3  13   3 18.6490 11.7966  -2
  -3 -12   3 18.6490 11.7966   1
  -3  12   3 10.3557 19.6306  -2
  -3 -12   3 10.3557 19.6306   1
  -2  12   3 76.8142 20.2704  -2
  -2 -12   3 76.8142 20.2704   1
  -1  11   3 18.5117 9.84364  -2
  -1 -12   3 18.5117 9.84364   1
   0  10   3 372.247 17.9655  -2
   0 -12   3 372.247 17.9655   1
   1   9   3 582.106 40.6754  -2
   1 -12   3 582.106 40.6754   1
   2   8   3 143.293 15.2885  -2
   2 -12   3 143.293 15.2885   1
   3   7   3 306.231 15.7264  -2
   3 -12   3 306.231 15.7264   1
   4   6   3 302.497 19.6250  -2
   4 -12   3 302.497 19.6250   1
   5   5   3 112.461 14.9200  -2
   5 -12   3 112.461 14.9200   1
   6   4   3 519.833 24.1588  -2
   6 -12   3 519.833 24.1588   1
   7   3   3 21.6631 14.2098  -2
   7 -12   3 21.6631 14.2098   1
   8   2   3 116.914 14.9938  -2
   8 -12   3 116.914 14.9938   1
   9   1   3 -22.036 13.9779  -2
   9 -12   3 -22.036 13.9779   1
  11  -1   3 322.986 23.2576  -2
  11 -12   3 322.986 23.2576   1
  12  -2   3 89.4220 19.2327  -2
  12 -12   3 89.4220 19.2327   1
  13  -3   3 48.7419 22.6810  -2
  13 -12   3 48.7419 22.6810   1
 -10  18   3 75.1984 15.0155  -2
 -10 -11   3 75.1984 15.0155   1
  -9  17   3 22.3564 14.2432  -2
  -9 -11   3 22.3564 14.2432   1
  -8  16   3 68.7122 14.4873  -2
  -8 -11   3 68.7122 14.4873   1
  -7  15   3 199.646 17.9628  -2
  -7 -11   3 199.646 17.9628   1
  -6  14   3 194.708 16.7410  -2
  -6 -11   3 194.708 16.7410   1
  -5 -11   3 196.571 13.3194   1
  -4  13   3 7.28642 11.8939  -2
  -4 -11   3 7.28642 11.8939   1
  -3  12   3 64.3461 10.5782  -2
  -3 -11   3 64.3461 10.5782   1
  -3  11   3 101.826 19.6814  -2
  -3 -11   3 101.826 19.6814   1
  -2  11   3 163.943 11.6879  -2
  -2 -11   3 163.943 11.6879   1
  -1  10   3 508.209 27.8974  -2
  -1 -11   3 508.209 27.8974   1
   0   9   3 304.424 15.4296  -2
   0 -11   3 304.424 15.4296   1
   1   8   3 592.928 29.6744  -2
   1 -11   3 592.928 29.6744   1
   2   7   3 81.2814 14.5026  -2
   2 -11   3 81.2814 14.5026   1
   3   6   3 161.361 12.4628  -2
   3 -11   3 161.361 12.4628   1
   4   5   3 172.391 15.1880  -2
   4 -11   3 172.391 15.1880   1
   5   4   3 111.937 13.7753  -2
   5 -11   3 111.937 13.7753   1
   6   3   3 311.100 18.3729  -2
   6 -11   3 311.100 18.3729   1
   7   2   3 49.1082 14.2529  -2
   7 -11   3 49.1082 14.2529   1
   8   1   3 68.3568 15.0450  -2
   8 -11   3 68.3568 15.0450   1
   9   0   3 110.622 15.2276  -2
   9 -11   3 110.622 15.2276   1
  10  -1   3 72.5700 16.7040  -2
  10 -11   3 72.5700 16.7040   1
  11  -2   3 344.904 23.8223  -2
  11 -11   3 344.904 23.8223   1
  12  -3   3 32.3146 24.1820  -2
  12 -11   3 32.3146 24.1820   1
  13  -4   3 25.4122 24.5247  -2
  13 -11   3 25.4122 24.5247   1
 -10  17   3 38.5236 14.4705  -2
 -10 -10   3 38.5236 14.4705   1
  -9  16   3 47.4314 14.2328  -2
  -9 -10   3 47.4314 14.2328   1
  -8  15   3 161.387 16.0842  -2
  -8 -10   3 161.387 16.0842   1
  -7  14   3 29.3659 13.8422  -2
  -7 -10   3 29.3659 13.8422   1
  -6  13   3 64.3341 13.0593  -2
  -6 -10   3 64.3341 13.0593   1
  -5 -10   3 146.401 10.9977   1
  -4  12   3 1095.73 56.5876  -2
  -4 -10   3 1095.73 56.5876   1
  -3  11   3 470.257 26.2070  -2
  -3 -10   3 470.257 26.2070   1
  -2  10   3 1280.05 50.1364  -2
  -2 -10   3 1280.05 50.1364   1
  -1   9   3 49.0928 10.3143  -2
  -1 -10   3 49.0928 10.3143   1
   0   8   3 313.059 20.9313  -2
   0 -10   3 313.059 20.9313   1
   1   7   3 1254.98 55.4854  -2
   1 -10   3 1254.98 55.4854   1
   2   6   3 391.302 22.1014  -2
   2 -10   3 391.302 22.1014   1
   3   5   3 1531.96 48.0436  -2
   3 -10   3 1531.96 48.0436   1
   4   4   3 339.396 18.5581  -2
   4 -10   3 339.396 18.5581   1
   5   3   3 75.6637 12.9559  -2
   5 -10   3 75.6637 12.9559   1
   6   2   3 38.3775 11.5210  -2
   6 -10   3 38.3775 11.5210   1
   7   1   3 140.903 14.4475  -2
   7 -10   3 140.903 14.4475   1
   8   0   3 74.9708 14.3235  -2
   8 -10   3 74.9708 14.3235   1
   9  -1   3 453.597 25.4283  -2
   9 -10   3 453.597 25.4283   1
  10  -2   3 14.8136 16.5059  -2
  10 -10   3 14.8136 16.5059   1
  11  -3   3 96.6764 17.8385  -2
  11 -10   3 96.6764 17.8385   1
  12  -4   3 117.297 25.3073  -2
  12 -10   3 117.297 25.3073   1
  13  -5   3 39.8665 24.3516  -2
  13 -10   3 39.8665 24.3516   1
 -10  16   3 24.9449 14.0791  -2
 -10  -9   3 24.9449 14.0791   1
  -9  15   3 48.4146 13.9436  -2
  -9  -9   3 48.4146 13.9436   1
  -8  14   3 26.7099 13.4030  -2
  -8  -9   3 26.7099 13.4030   1
  -7  13   3 6.44240 12.8206  -2
  -7  -9   3 6.44240 12.8206   1
  -6  12   3 68.4391 12.3288  -2
  -6  -9   3 68.4391 12.3288   1
  -5  -9   3 555.960 29.3390   1
  -3  10   3 528.766 28.8649  -2
  -3  -9   3 528.766 28.8649   1
  -2   9   3 81.9420 11.6155  -2
  -2  -9   3 81.9420 11.6155   1
  -1   8   3 120.728 25.9112  -2
  -1  -9   3 120.728 25.9112   1
   0   7   3 4363.54 184.544  -2
   0  -9   3 4363.54 184.544   1
   1   6   3 1960.34 84.3393  -2
   1  -9   3 1960.34 84.3393   1
   2   5   3 808.537 37.1447  -2
   2  -9   3 808.537 37.1447   1
   3   4   3 386.574 30.5489  -2
   3  -9   3 386.574 30.5489   1
   4   3   3 576.038 31.2811  -2
   4  -9   3 576.038 31.2811   1
   5   2   3 701.622 25.1814  -2
   5  -9   3 701.622 25.1814   1
   6   1   3 450.857 20.9396  -2
   6  -9   3 450.857 20.9396   1
   7   0   3 14.5971 12.7284  -2
   7  -9   3 14.5971 12.7284   1
   8  -1   3 174.251 14.7711  -2
   8  -9   3 174.251 14.7711   1
   9  -2   3 100.367 15.9459  -2
   9  -9   3 100.367 15.9459   1
  10  -3   3 46.6246 16.0098  -2
  10  -9   3 46.6246 16.0098   1
  11  -4   3 360.516 33.3261  -2
  11  -9   3 360.516 33.3261   1
  12  -5   3 227.589 28.4547  -2
  12  -9   3 227.589 28.4547   1
  13  -6   3 15.4333 23.1913  -2
  13  -9   3 15.4333 23.1913   1
 -10  15   3 7.49281 13.2363  -2
 -10  -8   3 7.49281 13.2363   1
  -9  14   3 33.3593 13.0556  -2
  -9  -8   3 33.3593 13.0556   1
  -8  13   3 36.8074 12.6921  -2
  -8  -8   3 36.8074 12.6921   1
  -6  11   3 15.4740 11.6542  -2
  -6  -8   3 15.4740 11.6542   1
  -1   7   3 337.586 32.1940  -2
  -1  -8   3 337.586 32.1940   1
   0   6   3 518.282 26.9037  -2
   0  -8   3 518.282 26.9037   1
   2   4   3 924.318 41.4831  -2
   2  -8   3 924.318 41.4831   1
   3   3   3 1733.96 103.811  -2
   3  -8   3 1733.96 103.811   1
   4   2   3 1761.82 105.525  -2
   4  -8   3 1761.82 105.525   1
   5   1   3 250.160 14.4350  -2
   5  -8   3 250.160 14.4350   1
   6   0   3 142.431 13.2280  -2
   6  -8   3 142.431 13.2280   1
   7  -1   3 131.029 13.2392  -2
   7  -8   3 131.029 13.2392   1
   8  -2   3 444.283 24.2848  -2
   8  -8   3 444.283 24.2848   1
   9  -3   3 533.419 27.4002  -2
   9  -8   3 533.419 27.4002   1
  10  -4   3 236.565 18.4734  -2
  10  -8   3 236.565 18.4734   1
  11  -5   3 101.649 23.6013  -2
  11  -8   3 101.649 23.6013   1
  12  -6   3 12.5171 22.8943  -2
  12  -8   3 12.5171 22.8943   1
  13  -7   3 106.343 24.9699  -2
  13  -8   3 106.343 24.9699   1
 -10  14   3 93.7786 14.8176  -2
 -10  -7   3 93.7786 14.8176   1
  -9  13   3 155.962 15.6393  -2
  -9  -7   3 155.962 15.6393   1
   2   3   3 680.257 44.7389  -2
   2  -7   3 680.257 44.7389   1
   3   2   3 2093.64 124.299  -2
   3  -7   3 2093.64 124.299   1
   4   1   3 574.683 38.7737  -2
   4  -7   3 574.683 38.7737   1
   5   0   3 206.456 16.4222  -2
   5  -7   3 206.456 16.4222   1
   6  -1   3 690.282 27.8999  -2
   6  -7   3 690.282 27.8999   1
   7  -2   3 119.240 14.1363  -2
   7  -7   3 119.240 14.1363   1
   8  -3   3 392.691 21.9904  -2
   8  -7   3 392.691 21.9904   1
   9  -4   3 160.086 15.9347  -2
   9  -7   3 160.086 15.9347   1
  10  -5   3 223.714 17.9315  -2
  10  -7   3 223.714 17.9315   1
  11  -6   3 517.550 40.0883  -2
  11  -7   3 517.550 40.0883   1
  12  -7   3 65.7639 22.5357  -2
  12  -7   3 65.7639 22.5357   1
  13  -8   3 17.3463 23.8809  -2
  13  -7   3 17.3463 23.8809   1
  -4   8   3 88.9762 35.4958  -2
  -4  -6   3 88.9762 35.4958   1
  -2   6   3 3449.57 286.659  -2
  -2  -6   3 3449.57 286.659   1
  -1   5   3 6208.75 513.493  -2
  -1  -6   3 6208.75 513.493   1
   0   4   3 9433.31 779.029  -2
   0  -6   3 9433.31 779.029   1
   1   3   3 5118.17 423.660  -2
   1  -6   3 5118.17 423.660   1
   2   2   3 982.165 61.4801  -2
   2  -6   3 982.165 61.4801   1
   3   1   3 143.819 10.8924  -2
   3  -6   3 143.819 10.8924   1
   4   0   3 418.089 29.8975  -2
   4  -6   3 418.089 29.8975   1
   5  -1   3 873.427 44.3269  -2
   5  -6   3 873.427 44.3269   1
   6  -2   3 629.957 29.8935  -2
   6  -6   3 629.957 29.8935   1
   7  -3   3 17.3564 12.4808  -2
   7  -6   3 17.3564 12.4808   1
   8  -4   3 162.211 14.8327  -2
   8  -6   3 162.211 14.8327   1
   9  -5   3 569.232 28.5178  -2
   9  -6   3 569.232 28.5178   1
  10  -6   3 17.8435 20.2228  -2
  10  -6   3 17.8435 20.2228   1
  11  -7   3 463.601 37.2704  -2
  11  -6   3 463.601 37.2704   1
  12  -8   3 43.7743 22.2180  -2
  12  -6   3 43.7743 22.2180   1
  -5   7   3 310.827 30.8569  -2
  -5  -5   3 310.827 30.8569   1
  -2   5   3 8230.19 679.867  -2
  -2  -5   3 8230.19 679.867   1
  -1   4   3 7420.13 613.109  -2
  -1  -5   3 7420.13 613.109   1
   0   3   3 1547.63 129.810  -2
   0  -5   3 1547.63 129.810   1
   1   2   3 30.2714 17.5445  -2
   1  -5   3 30.2714 17.5445   1
   2   1   3 153.689 12.7106  -2
   2  -5   3 153.689 12.7106   1
   3   0   3 110.366 18.5556  -2
   3  -5   3 110.366 18.5556   1
   4  -1   3 196.204 22.7554  -2
   4  -5   3 196.204 22.7554   1
   5  -2   3 89.2995 16.0284  -2
   5  -5   3 89.2995 16.0284   1
   6  -3   3 256.249 16.7883  -2
   6  -5   3 256.249 16.7883   1
   8  -5   3 45.5840 12.5844  -2
   8  -5   3 45.5840 12.5844   1
   9  -6   3 497.452 36.3817  -2
   9  -5   3 497.452 36.3817   1
  10  -7   3 250.011 26.2218  -2
  10  -5   3 250.011 26.2218   1
  11  -8   3 120.246 23.0650  -2
  11  -5   3 120.246 23.0650   1
  13 -10   3 -31.503 23.2738  -2
  13  -5   3 -31.503 23.2738   1
  -3   5   3 7527.40 622.027  -2
  -3  -4   3 7527.40 622.027   1
  -2   4   3 6672.99 551.542  -2
  -2  -4   3 6672.99 551.542   1
  -1   3   3 494.172 44.5096  -2
  -1  -4   3 494.172 44.5096   1
   0   2   3 1868.66 155.913  -2
   0  -4   3 1868.66 155.913   1
   1   1   3 1411.91 118.512  -2
   1  -4   3 1411.91 118.512   1
   2   0   3 232.933 25.3358  -2
   2  -4   3 232.933 25.3358   1
   3  -1   3 62.6098 9.61296  -2
   3  -4   3 62.6098 9.61296   1
   4  -2   3 342.447 25.1985  -2
   4  -4   3 342.447 25.1985   1
   5  -3   3 823.741 70.0650  -2
   5  -4   3 823.741 70.0650   1
   6  -4   3 716.326 32.7626  -2
   6  -4   3 716.326 32.7626   1
   7  -5   3 14.9144 10.9265  -2
   7  -4   3 14.9144 10.9265   1
   8  -6   3 202.683 23.4798  -2
   8  -4   3 202.683 23.4798   1
   9  -7   3 169.945 23.6290  -2
   9  -4   3 169.945 23.6290   1
  10  -8   3 203.692 23.8983  -2
  10  -4   3 203.692 23.8983   1
  -8   8   3 97.3231 10.7177  -2
  -8  -3   3 97.3231 10.7177   1
  -3   4   3 5087.09 420.900  -2
  -3  -3   3 5087.09 420.900   1
  -2   3   3 1972.71 164.064  -2
  -2  -3   3 1972.71 164.064   1
  -1   2   3 596.260 52.0548  -2
  -1  -3   3 596.260 52.0548   1
   0   1   3 21.3752 16.0017  -2
   0  -3   3 21.3752 16.0017   1
   1   0   3 638.765 55.9313  -2
   1  -3   3 638.765 55.9313   1
   2  -1   3 24.1393 11.6530  -2
   2  -3   3 24.1393 11.6530   1
   3  -2   3 1147.67 48.8413  -2
   3  -3   3 1147.67 48.8413   1
   4  -3   3 28.0419 13.5949  -2
   4  -3   3 28.0419 13.5949   1
   5  -4   3 1812.11 107.330  -2
   5  -3   3 1812.11 107.330   1
   6  -5   3 169.826 16.7579  -2
   6  -3   3 169.826 16.7579   1
   7  -6   3 23.8539 10.3603  -2
   7  -3   3 23.8539 10.3603   1
   9  -8   3 522.332 38.7324  -2
   9  -3   3 522.332 38.7324   1
  10  -9   3 22.8471 18.4744  -2
  10  -3   3 22.8471 18.4744   1
  -6   5   3 121.062 20.8682  -2
  -6  -2   3 121.062 20.8682   1
  -4  -2   3 94.7590 10.8769   1
  -3   3   3 862.740 72.5127  -2
  -3  -2   3 862.740 72.5127   1
  -2   2   3 618.096 52.7837  -2
  -2  -2   3 618.096 52.7837   1
  -1   1   3 240.419 20.9895  -2
  -1  -2   3 240.419 20.9895   1
   0  -2   3 27.8102 6.36122   1
   1  -2   3 63.9999 7.71724   1
   2  -2   3 1005.84 38.0919  -2
   2  -2   3 1005.84 38.0919   1
   3  -3   3 1056.66 37.9292  -2
   3  -2   3 1056.66 37.9292   1
   4  -4   3 290.598 21.3139  -2
   4  -2   3 290.598 21.3139   1
   5  -5   3 174.035 16.2637  -2
   5  -2   3 174.035 16.2637   1
   6  -6   3 674.742 35.4541  -2
   6  -2   3 674.742 35.4541   1
   7  -7   3 131.945 19.3601  -2
   7  -2   3 131.945 19.3601   1
   9  -9   3 92.8931 20.5759  -2
   9  -2   3 92.8931 20.5759   1
  -6   4   3 59.5083 18.5212  -2
  -6  -1   3 59.5083 18.5212   1
  -4   3   3 173.524 17.3489  -2
  -4  -1   3 173.524 17.3489   1
  -3  -1   3 2058.50 120.885   1
  -2  -1   3 1124.39 50.8460   1
  -1  -1   3 203.390 11.4283   1
   0  -1   3 1246.27 55.8619   1
   1  -1   3 1184.36 54.5497   1
   2  -3   3 48.3533 10.2984  -2
   2  -1   3 48.3533 10.2984   1
   3  -4   3 82.0977 9.73597  -2
   3  -1   3 82.0977 9.73597   1
   4  -5   3 549.570 33.9425  -2
   4  -1   3 549.570 33.9425   1
   6  -7   3 615.585 32.6094  -2
   6  -1   3 615.585 32.6094   1
   8  -9   3 159.674 21.8827  -2
   8  -1   3 159.674 21.8827   1
  11 -12   3 247.091 18.1760  -2
  11  -1   3 247.091 18.1760   1
  12 -13   3 -13.321 12.9328  -2
  12  -1   3 -13.321 12.9328   1
  -6   3   3 107.295 18.4038  -2
  -6   0   3 107.295 18.4038   1
  -4   0   3 135.817 12.6086   1
  -3   0   3 1531.73 90.2562   1
  -2   0   3 1411.86 83.2528   1
  -1   0   3 89.2521 7.81804   1
   0   0   3 303.693 12.0573   1
   1  -3   3 407.779 37.4061  -2
   1   0   3 407.779 37.4061   1
   2  -4   3 205.703 22.0820  -2
   2   0   3 205.703 22.0820   1
   3  -5   3 255.495 14.1586  -2
   3   0   3 255.495 14.1586   1
   4  -6   3 314.010 19.9670  -2
   4   0   3 314.010 19.9670   1
   6  -8   3 123.629 11.2502  -2
   6   0   3 123.629 11.2502   1
   7  -9   3 -8.1913 9.19973  -2
   7   0   3 -8.1913 9.19973   1
   8 -10   3 86.1966 18.4406  -2
   8   0   3 86.1966 18.4406   1
   9 -11   3 122.164 13.4093  -2
   9   0   3 122.164 13.4093   1
  10 -12   3 23.6029 12.0471  -2
  10   0   3 23.6029 12.0471   1
  11 -13   3 1.95529 12.8125  -2
  11   0   3 1.95529 12.8125   1
  12 -14   3 44.4582 13.7923  -2
  12   0   3 44.4582 13.7923   1
  -4   1   3 50.8565 16.4773  -2
  -4   1   3 50.8565 16.4773   1
  -3   0   3 3376.17 198.240  -2
  -3   1   3 3376.17 198.240   1
  -1   1   3 42.5408 7.54765   1
   0  -3   3 40.4608 19.0406  -2
   0   1   3 40.4608 19.0406   1
   1  -4   3 3566.27 200.838  -2
   1   1   3 3566.27 200.838   1
   3  -6   3 58.6979 15.2227  -2
   3   1   3 58.6979 15.2227   1
   5  -8   3 198.728 13.8576  -2
   5   1   3 198.728 13.8576   1
   6  -9   3 405.856 23.0732  -2
   6   1   3 405.856 23.0732   1
   7 -10   3 95.8142 11.5748  -2
   7   1   3 95.8142 11.5748   1
   8 -11   3 98.7058 12.6191  -2
   8   1   3 98.7058 12.6191   1
  10 -13   3 -10.352 11.9744  -2
  10   1   3 -10.352 11.9744   1
  11 -14   3 61.6701 13.9147  -2
  11   1   3 61.6701 13.9147   1
  12 -15   3 5.83748 13.8647  -2
  12   1   3 5.83748 13.8647   1
 -10   5   3 10.1524 18.6247  -2
 -10   2   3 10.1524 18.6247   1
  -9   4   3 186.186 22.6007  -2
  -9   2   3 186.186 22.6007   1
  -8   3   3 425.872 31.5285  -2
  -8   2   3 425.872 31.5285   1
  -3  -1   3 2180.78 129.028  -2
  -3   2   3 2180.78 129.028   1
  -2   2   3 362.723 24.2176   1
  -1   2   3 1481.33 87.3688   1
   0  -4   3 4742.00 277.800  -2
   0   2   3 4742.00 277.800   1
   1   2   3 62.2688 7.29257   1
   5  -9   3 246.006 25.7211  -2
   5   2   3 246.006 25.7211   1
   6 -10   3 62.9968 10.6038  -2
   6   2   3 62.9968 10.6038   1
   7 -11   3 62.3928 11.5142  -2
   7   2   3 62.3928 11.5142   1
   8 -12   3 115.505 13.1391  -2
   8   2   3 115.505 13.1391   1
   9 -13   3 197.397 16.1993  -2
   9   2   3 197.397 16.1993   1
  10 -14   3 36.6658 12.6222  -2
  10   2   3 36.6658 12.6222   1
  11 -15   3 -5.8627 12.7312  -2
  11   2   3 -5.8627 12.7312   1
  12 -16   3 2.41207 14.0477  -2
  12   2   3 2.41207 14.0477   1
 -10   4   3 204.011 23.8714  -2
 -10   3   3 204.011 23.8714   1
  -9   3   3 69.7626 18.4682  -2
  -9   3   3 69.7626 18.4682   1
  -8   2   3 496.638 35.4857  -2
  -8   3   3 496.638 35.4857   1
  -7   1   3 39.5471 16.6280  -2
  -7   3   3 39.5471 16.6280   1
  -2  -3   3 5523.80 323.315  -2
  -2   3   3 5523.80 323.315   1
  -1  -4   3 1130.98 68.6355  -2
  -1   3   3 1130.98 68.6355   1
   0  -5   3 1308.23 77.9800  -2
   0   3   3 1308.23 77.9800   1
   1  -6   3 14.1631 10.0714  -2
   1   3   3 14.1631 10.0714   1
   2   3   3 150.729 10.1723   1
   3  -8   3 1592.68 92.4221  -2
   3   3   3 1592.68 92.4221   1
   5 -10   3 46.4079 10.5679  -2
   5   3   3 46.4079 10.5679   1
   6 -11   3 322.355 16.5777  -2
   6   3   3 322.355 16.5777   1
   7 -12   3 4.84505 10.6746  -2
   7   3   3 4.84505 10.6746   1
   8 -13   3 553.119 30.7858  -2
   8   3   3 553.119 30.7858   1
   9 -14   3 116.725 13.9580  -2
   9   3   3 116.725 13.9580   1
  11 -16   3 92.2237 14.7727  -2
  11   3   3 92.2237 14.7727   1
 -11   4   3 69.9212 20.6410  -2
 -11   4   3 69.9212 20.6410   1
 -10   3   3 206.819 23.0557  -2
 -10   4   3 206.819 23.0557   1
  -9   2   3 185.804 22.5326  -2
  -9   4   3 185.804 22.5326   1
  -8   1   3 202.643 20.8274  -2
  -8   4   3 202.643 20.8274   1
  -7   0   3 464.799 34.0052  -2
  -7   4   3 464.799 34.0052   1
  -3  -3   3 1174.01 100.991  -2
  -3   4   3 1174.01 100.991   1
  -2  -4   3 1516.01 128.833  -2
  -2   4   3 1516.01 128.833   1
  -1  -5   3 1310.01 112.504  -2
  -1   4   3 1310.01 112.504   1
   0  -6   3 1394.93 119.657  -2
   0   4   3 1394.93 119.657   1
   1  -7   3 533.179 53.8375  -2
   1   4   3 533.179 53.8375   1
   2  -8   3 830.170 49.6347  -2
   2   4   3 830.170 49.6347   1
   3  -9   3 389.189 31.6341  -2
   3   4   3 389.189 31.6341   1
   4 -10   3 341.742 16.4538  -2
   4   4   3 341.742 16.4538   1
   5 -11   3 77.2668 9.77534  -2
   5   4   3 77.2668 9.77534   1
   6 -12   3 415.116 17.5573  -2
   6   4   3 415.116 17.5573   1
   7 -13   3 114.354 11.3286  -2
   7   4   3 114.354 11.3286   1
   8 -14   3 122.092 12.0678  -2
   8   4   3 122.092 12.0678   1
   9 -15   3 38.7463 12.9945  -2
   9   4   3 38.7463 12.9945   1
  10 -16   3 29.6444 12.1768  -2
  10   4   3 29.6444 12.1768   1
  11 -17   3 169.500 16.6546  -2
  11   4   3 169.500 16.6546   1
 -12   4   3 115.250 23.7293  -2
 -12   5   3 115.250 23.7293   1
 -11   3   3 49.2400 20.8665  -2
 -11   5   3 49.2400 20.8665   1
 -10   2   3 9.40935 19.3094  -2
 -10   5   3 9.40935 19.3094   1
  -9   1   3 6.39787 19.5999  -2
  -9   5   3 6.39787 19.5999   1
  -8   0   3 213.143 23.6463  -2
  -8   5   3 213.143 23.6463   1
  -7  -1   3 381.621 29.1215  -2
  -7   5   3 381.621 29.1215   1
  -6  -2   3 149.496 19.2679  -2
  -6   5   3 149.496 19.2679   1
  -4   5   3 51.5041 18.1029   1
  -3  -4   3 1632.54 138.137  -2
  -3   5   3 1632.54 138.137   1
  -2  -5   3 1596.41 135.439  -2
  -2   5   3 1596.41 135.439   1
  -1  -6   3 720.577 66.7276  -2
  -1   5   3 720.577 66.7276   1
   0  -7   3 683.409 64.8744  -2
   0   5   3 683.409 64.8744   1
   1  -8   3 752.774 70.3167  -2
   1   5   3 752.774 70.3167   1
   2  -9   3 764.630 33.4777  -2
   2   5   3 764.630 33.4777   1
   3 -10   3 1468.24 48.8022  -2
   3   5   3 1468.24 48.8022   1
   4 -11   3 166.651 11.5759  -2
   4   5   3 166.651 11.5759   1
   5 -12   3 151.114 11.2851  -2
   5   5   3 151.114 11.2851   1
   6 -13   3 9.70989 14.9101  -2
   6   5   3 9.70989 14.9101   1
   7 -14   3 28.3997 10.6110  -2
   7   5   3 28.3997 10.6110   1
   8 -15   3 34.3481 11.7433  -2
   8   5   3 34.3481 11.7433   1
   9 -16   3 160.022 15.4670  -2
   9   5   3 160.022 15.4670   1
  10 -17   3 4.38389 13.3504  -2
  10   5   3 4.38389 13.3504   1
  11 -18   3 -7.5315 13.5593  -2
  11   5   3 -7.5315 13.5593   1
 -12   3   3 14.3572 22.3179  -2
 -12   6   3 14.3572 22.3179   1
 -11   2   3 113.881 23.3758  -2
 -11   6   3 113.881 23.3758   1
 -10   1   3 298.556 28.5984  -2
 -10   6   3 298.556 28.5984   1
  -9   0   3 169.726 21.4450  -2
  -9   6   3 169.726 21.4450   1
  -8  -1   3 50.8096 17.4896  -2
  -8   6   3 50.8096 17.4896   1
  -7  -2   3 151.013 21.4851  -2
  -7   6   3 151.013 21.4851   1
  -6  -3   3 139.592 15.9118  -2
  -6   6   3 139.592 15.9118   1
  -5   6   3 1054.54 65.3597   1
  -2  -6   3 734.994 67.8336  -2
  -2   6   3 734.994 67.8336   1
   0  -8   3 449.744 30.6946  -2
   0   6   3 449.744 30.6946   1
   1  -9   3 2094.19 123.555  -2
   1   6   3 2094.19 123.555   1
   2 -10   3 328.934 17.3621  -2
   2   6   3 328.934 17.3621   1
   3 -11   3 180.787 9.25450  -2
   3   6   3 180.787 9.25450   1
   4 -12   3 271.839 14.8649  -2
   4   6   3 271.839 14.8649   1
   5 -13   3 387.162 15.2829  -2
   5   6   3 387.162 15.2829   1
   6 -14   3 95.9190 9.93624  -2
   6   6   3 95.9190 9.93624   1
   7 -15   3 6.93525 11.2279  -2
   7   6   3 6.93525 11.2279   1
   8 -16   3 33.5409 12.0231  -2
   8   6   3 33.5409 12.0231   1
   9 -17   3 55.0610 13.1455  -2
   9   6   3 55.0610 13.1455   1
  10 -18   3 3.40487 13.1777  -2
  10   6   3 3.40487 13.1777   1
  11 -19   3 60.4197 14.3674  -2
  11   6   3 60.4197 14.3674   1
 -13   3   3 331.329 32.8511  -2
 -13   7   3 331.329 32.8511   1
 -12   2   3 33.8934 20.7573  -2
 -12   7   3 33.8934 20.7573   1
 -11   1   3 201.164 26.2234  -2
 -11   7   3 201.164 26.2234   1
 -10   0   3 127.594 21.2915  -2
 -10   7   3 127.594 21.2915   1
  -9  -1   3 88.5365 21.9253  -2
  -9   7   3 88.5365 21.9253   1
  -8  -2   3 247.869 24.1638  -2
  -8   7   3 247.869 24.1638   1
  -7  -3   3 -5.5794 19.3873  -2
  -7   7   3 -5.5794 19.3873   1
  -6  -4   3 47.1489 19.0358  -2
  -6   7   3 47.1489 19.0358   1
  -3  -6   3 115.132 20.2177  -2
  -3   7   3 115.132 20.2177   1
  -2  -7   3 1063.16 65.6947  -2
  -2   7   3 1063.16 65.6947   1
  -1  -8   3 314.377 25.9898  -2
  -1   7   3 314.377 25.9898   1
   0  -9   3 3895.34 157.879  -2
   0   7   3 3895.34 157.879   1
   1 -10   3 949.291 57.6793  -2
   1   7   3 949.291 57.6793   1
   2 -11   3 80.8337 8.05769  -2
   2   7   3 80.8337 8.05769   1
   3 -12   3 378.786 14.6936  -2
   3   7   3 378.786 14.6936   1
   4 -13   3 505.940 20.0179  -2
   4   7   3 505.940 20.0179   1
   5 -14   3 284.018 15.7003  -2
   5   7   3 284.018 15.7003   1
   6 -15   3 4.35841 9.64920  -2
   6   7   3 4.35841 9.64920   1
   7 -16   3 18.8851 11.0405  -2
   7   7   3 18.8851 11.0405   1
   8 -17   3 12.3060 25.8380  -2
   8   7   3 12.3060 25.8380   1
   9 -18   3 127.258 12.9725  -2
   9   7   3 127.258 12.9725   1
  10 -19   3 44.1956 12.2612  -2
  10   7   3 44.1956 12.2612   1
 -13   2   3 220.189 29.4668  -2
 -13   8   3 220.189 29.4668   1
 -12   1   3 104.014 24.5557  -2
 -12   8   3 104.014 24.5557   1
 -11   0   3 122.366 24.5612  -2
 -11   8   3 122.366 24.5612   1
 -10  -1   3 341.512 31.4940  -2
 -10   8   3 341.512 31.4940   1
  -9  -2   3 120.875 23.6517  -2
  -9   8   3 120.875 23.6517   1
  -8  -3   3 63.5950 17.4721  -2
  -8   8   3 63.5950 17.4721   1
  -7  -4   3 18.4000 20.2385  -2
  -7   8   3 18.4000 20.2385   1
  -6  -5   3 90.0710 20.4143  -2
  -6   8   3 90.0710 20.4143   1
  -4  -6   3 17.1353 20.5268  -2
  -4   8   3 17.1353 20.5268   1
  -3  -7   3 1101.05 68.3768  -2
  -3   8   3 1101.05 68.3768   1
  -2  -8   3 713.295 46.4716  -2
  -2   8   3 713.295 46.4716   1
  -1  -9   3 153.689 17.3369  -2
  -1   8   3 153.689 17.3369   1
   0 -10   3 252.896 15.2120  -2
   0   8   3 252.896 15.2120   1
   1 -11   3 588.298 19.2305  -2
   1   8   3 588.298 19.2305   1
   2 -12   3 145.733 9.57360  -2
   2   8   3 145.733 9.57360   1
   3 -13   3 1154.24 37.7084  -2
   3   8   3 1154.24 37.7084   1
   4 -14   3 32.5538 17.8613  -2
   4   8   3 32.5538 17.8613   1
   5 -15   3 29.0761 11.0669  -2
   5   8   3 29.0761 11.0669   1
   6 -16   3 156.263 11.9483  -2
   6   8   3 156.263 11.9483   1
   7 -17   3 285.158 16.6313  -2
   7   8   3 285.158 16.6313   1
   8 -18   3 151.268 13.4709  -2
   8   8   3 151.268 13.4709   1
   9 -19   3 75.1670 12.3057  -2
   9   8   3 75.1670 12.3057   1
  10 -20   3 1.35148 13.3687  -2
  10   8   3 1.35148 13.3687   1
 -13   1   3 52.6964 25.3906  -2
 -13   9   3 52.6964 25.3906   1
 -12   0   3 69.5268 25.0400  -2
 -12   9   3 69.5268 25.0400   1
 -11  -1   3 169.909 24.2658  -2
 -11   9   3 169.909 24.2658   1
 -10  -2   3 308.906 30.8857  -2
 -10   9   3 308.906 30.8857   1
  -9  -3   3 17.2610 16.9441  -2
  -9   9   3 17.2610 16.9441   1
  -8  -4   3 127.689 23.6647  -2
  -8   9   3 127.689 23.6647   1
  -7  -5   3 213.520 23.3428  -2
  -7   9   3 213.520 23.3428   1
  -6  -6   3 355.685 29.3067  -2
  -6   9   3 355.685 29.3067   1
  -5  -7   3 904.935 58.3335  -2
  -5   9   3 904.935 58.3335   1
  -4  -7   3 113.499 21.1450  -2
  -4   9   3 113.499 21.1450   1
  -3  -8   3 -9.1690 18.8526  -2
  -3   9   3 -9.1690 18.8526   1
  -2  -9   3 124.615 20.2308  -2
  -2   9   3 124.615 20.2308   1
  -1 -10   3 31.4994 16.3150  -2
  -1   9   3 31.4994 16.3150   1
   0 -11   3 311.237 12.4437  -2
   0   9   3 311.237 12.4437   1
   1 -12   3 561.622 21.6411  -2
   1   9   3 561.622 21.6411   1
   2 -13   3 180.844 11.2807  -2
   2   9   3 180.844 11.2807   1
   3 -14   3 18.8543 7.94887  -2
   3   9   3 18.8543 7.94887   1
   4 -15   3 47.4952 8.15233  -2
   4   9   3 47.4952 8.15233   1
   5 -16   3 24.4820 11.1483  -2
   5   9   3 24.4820 11.1483   1
   6 -17   3 322.399 17.6808  -2
   6   9   3 322.399 17.6808   1
   7 -18   3 4.13180 11.5841  -2
   7   9   3 4.13180 11.5841   1
   8 -19   3 17.4509 11.6607  -2
   8   9   3 17.4509 11.6607   1
   9 -20   3 26.1654 11.7680  -2
   9   9   3 26.1654 11.7680   1
 -13   0   3 81.4828 24.2907  -2
 -13  10   3 81.4828 24.2907   1
 -12  -1   3 111.856 23.7209  -2
 -12  10   3 111.856 23.7209   1
 -11  -2   3 23.7538 24.0865  -2
 -11  10   3 23.7538 24.0865   1
 -10  -3   3 115.812 23.1389  -2
 -10  10   3 115.812 23.1389   1
  -9  -4   3 82.3031 18.3232  -2
  -9  10   3 82.3031 18.3232   1
  -8  -5   3 327.320 31.1713  -2
  -8  10   3 327.320 31.1713   1
  -7  -6   3 420.601 34.5415  -2
  -7  10   3 420.601 34.5415   1
  -6  -7   3 171.177 22.1969  -2
  -6  10   3 171.177 22.1969   1
  -5  -8   3 149.990 20.5783  -2
  -5  10   3 149.990 20.5783   1
  -5  -7   3 337.899 29.1790  -2
  -5  10   3 337.899 29.1790   1
  -4  -8   3 211.377 23.8425  -2
  -4  10   3 211.377 23.8425   1
  -3  -9   3 613.314 41.7096  -2
  -3  10   3 613.314 41.7096   1
  -2 -10   3 1192.87 73.1331  -2
  -2  10   3 1192.87 73.1331   1
  -1 -11   3 324.216 26.4279  -2
  -1  10   3 324.216 26.4279   1
   0 -12   3 285.824 14.3963  -2
   0  10   3 285.824 14.3963   1
   1 -13   3 192.319 12.0232  -2
   1  10   3 192.319 12.0232   1
   2 -14   3 30.4609 14.9078  -2
   2  10   3 30.4609 14.9078   1
   3 -15   3 201.022 11.0415  -2
   3  10   3 201.022 11.0415   1
   4 -16   3 52.5140 11.4852  -2
   4  10   3 52.5140 11.4852   1
   5 -17   3 112.001 14.5077  -2
   5  10   3 112.001 14.5077   1
   6 -18   3 97.1673 12.4907  -2
   6  10   3 97.1673 12.4907   1
   7 -19   3 -14.601 11.7310  -2
   7  10   3 -14.601 11.7310   1
   8 -20   3 6.26560 12.2732  -2
   8  10   3 6.26560 12.2732   1
   9 -21   3 70.2480 12.4541  -2
   9  10   3 70.2480 12.4541   1
 -13  -1   3 8.58703 26.2617  -2
 -13  11   3 8.58703 26.2617   1
 -12  -2   3 114.111 26.8255  -2
 -12  11   3 114.111 26.8255   1
 -11  -3   3 118.734 24.0748  -2
 -11  11   3 118.734 24.0748   1
 -10  -4   3 143.199 24.4118  -2
 -10  11   3 143.199 24.4118   1
  -9  -5   3 44.3237 18.7713  -2
  -9  11   3 44.3237 18.7713   1
  -8  -6   3 158.804 25.7365  -2
  -8  11   3 158.804 25.7365   1
  -7  -7   3 57.6581 10.9858  -2
  -7  11   3 57.6581 10.9858   1
  -6  -8   3 42.5674 19.8129  -2
  -6  11   3 42.5674 19.8129   1
  -5  -8   3 282.830 27.5781  -2
  -5  11   3 282.830 27.5781   1
  -4  -9   3 831.083 53.9656  -2
  -4  11   3 831.083 53.9656   1
  -3 -10   3 374.213 29.9273  -2
  -3  11   3 374.213 29.9273   1
  -2 -11   3 150.071 11.0558  -2
  -2  11   3 150.071 11.0558   1
  -1 -12   3 30.8346 9.03160  -2
  -1  11   3 30.8346 9.03160   1
   0 -13   3 184.203 11.8332  -2
   0  11   3 184.203 11.8332   1
   1 -14   3 618.091 25.7314  -2
   1  11   3 618.091 25.7314   1
   2 -15   3 181.095 20.0253  -2
   2  11   3 181.095 20.0253   1
   3 -16   3 92.4491 16.4727  -2
   3  11   3 92.4491 16.4727   1
   4 -17   3 -6.2538 23.9174  -2
   4  11   3 -6.2538 23.9174   1
   5 -18   3 115.964 13.9974  -2
   5  11   3 115.964 13.9974   1
   6 -19   3 193.839 14.7443  -2
   6  11   3 193.839 14.7443   1
   7 -20   3 39.5985 12.2438  -2
   7  11   3 39.5985 12.2438   1
   8 -21   3 7.06689 12.0751  -2
   8  11   3 7.06689 12.0751   1
 -13  -2   3 149.620 26.8546  -2
 -13  12   3 149.620 26.8546   1
 -12  -3   3 55.5406 26.7481  -2
 -12  12   3 55.5406 26.7481   1
 -11  -4   3 21.0229 23.5417  -2
 -11  12   3 21.0229 23.5417   1
 -10  -5   3 61.6146 23.0944  -2
 -10  12   3 61.6146 23.0944   1
  -9  -6   3 81.1302 19.9879  -2
  -9  12   3 81.1302 19.9879   1
  -8  -7   3 3.12891 11.5978  -2
  -8  12   3 3.12891 11.5978   1
  -7  -8   3 51.8550 11.7991  -2
  -7  12   3 51.8550 11.7991   1
  -6  -8   3 58.0369 23.3101  -2
  -6  12   3 58.0369 23.3101   1
  -6  -9   3 83.3653 20.7912  -2
  -6  12   3 83.3653 20.7912   1
  -5  -9   3 984.096 62.8488  -2
  -5  12   3 984.096 62.8488   1
  -5 -10   3 500.795 38.0935  -2
  -5  12   3 500.795 38.0935   1
  -4 -10   3 1090.74 68.3427  -2
  -4  12   3 1090.74 68.3427   1
  -3 -11   3 84.3991 9.68842  -2
  -3  12   3 84.3991 9.68842   1
  -2 -12   3 98.5908 10.5041  -2
  -2  12   3 98.5908 10.5041   1
  -1 -13   3 331.984 20.3753  -2
  -1  12   3 331.984 20.3753   1
   0 -14   3 705.549 29.3042  -2
   0  12   3 705.549 29.3042   1
   1 -15   3 346.344 16.9430  -2
   1  12   3 346.344 16.9430   1
   2 -16   3 41.7957 17.7112  -2
   2  12   3 41.7957 17.7112   1
   3 -17   3 127.086 19.0458  -2
   3  12   3 127.086 19.0458   1
   5 -19   3 178.203 16.9983  -2
   5  12   3 178.203 16.9983   1
   6 -20   3 52.8504 12.7327  -2
   6  12   3 52.8504 12.7327   1
   7 -21   3 10.2567 12.1573  -2
   7  12   3 10.2567 12.1573   1
   8 -22   3 1.03514 12.4796  -2
   8  12   3 1.03514 12.4796   1
 -13  -3   3 151.396 27.7720  -2
 -13  13   3 151.396 27.7720   1
 -12  -4   3 69.8820 24.7670  -2
 -12  13   3 69.8820 24.7670   1
 -11  -5   3 -3.6668 23.6682  -2
 -11  13   3 -3.6668 23.6682   1
 -10  -6   3 221.019 30.3284  -2
 -10  13   3 221.019 30.3284   1
  -9  -7   3 156.666 13.3920  -2
  -9  13   3 156.666 13.3920   1
  -8  -8   3 31.1565 12.4373  -2
  -8  13   3 31.1565 12.4373   1
  -7  -9   3 9.35926 11.3276  -2
  -7  13   3 9.35926 11.3276   1
  -6 -10   3 116.022 24.6923  -2
  -6  13   3 116.022 24.6923   1
  -5 -10   3 225.656 26.6723  -2
  -5  13   3 225.656 26.6723   1
  -4 -11   3 30.0829 21.3888  -2
  -4  13   3 30.0829 21.3888   1
  -3  13   3 -2.8721 9.88354   1
  -2 -13   3 375.461 22.1807  -2
  -2  13   3 375.461 22.1807   1
   1 -16   3 359.709 22.2306  -2
   1  13   3 359.709 22.2306   1
   2 -17   3 552.777 39.1066  -2
   2  13   3 552.777 39.1066   1
   5 -20   3 80.6631 12.1291  -2
   5  13   3 80.6631 12.1291   1
   6 -21   3 17.8730 12.6316  -2
   6  13   3 17.8730 12.6316   1
   7 -22   3 60.4648 13.0069  -2
   7  13   3 60.4648 13.0069   1
 -12  -5   3 35.7510 25.3973  -2
 -12  14   3 35.7510 25.3973   1
 -11  -6   3 155.846 29.8679  -2
 -11  14   3 155.846 29.8679   1
 -10  -7   3 192.432 30.1668  -2
 -10  14   3 192.432 30.1668   1
  -9  -8   3 33.6957 13.2292  -2
  -9  14   3 33.6957 13.2292   1
  -8  -9   3 13.9657 12.5692  -2
  -8  14   3 13.9657 12.5692   1
  -7  -9   3 32.9539 25.8702  -2
  -7  14   3 32.9539 25.8702   1
  -7 -10   3 56.9448 12.4211  -2
  -7  14   3 56.9448 12.4211   1
  -4 -12   3 135.918 24.5164  -2
  -4  14   3 135.918 24.5164   1
  -3  14   3 1.34623 10.7916   1
   5 -21   3 46.6581 12.7058  -2
   5  14   3 46.6581 12.7058   1
   6 -22   3 64.7204 13.3356  -2
   6  14   3 64.7204 13.3356   1
   7 -23   3 14.9183 12.7536  -2
   7  14   3 14.9183 12.7536   1
 -12  -6   3 108.656 27.0962  -2
 -12  15   3 108.656 27.0962   1
 -11  -7   3 88.3190 29.2361  -2
 -11  15   3 88.3190 29.2361   1
 -10  -8   3 8.35579 14.4962  -2
 -10  15   3 8.35579 14.4962   1
  -9  -9   3 20.5073 13.8809  -2
  -9  15   3 20.5073 13.8809   1
  -8 -10   3 128.009 17.4025  -2
  -8  15   3 128.009 17.4025   1
  -7 -11   3 315.701 18.5966  -2
  -7  15   3 315.701 18.5966   1
  -3  15   3 248.170 21.8744   1
   5 -22   3 49.5253 26.8580  -2
   5  15   3 49.5253 26.8580   1
   6 -23   3 2.17941 13.0710  -2
   6  15   3 2.17941 13.0710   1
 -11  -8   3 63.4808 29.0203  -2
 -11  16   3 63.4808 29.0203   1
 -10  -9   3 32.0888 14.9554  -2
 -10  16   3 32.0888 14.9554   1
  -9 -10   3 61.0293 14.0022  -2
  -9  16   3 61.0293 14.0022   1
  -8 -11   3 77.4946 13.7954  -2
  -8  16   3 77.4946 13.7954   1
  -7 -12   3 100.852 16.2619  -2
  -7  16   3 100.852 16.2619   1
   5 -23   3 -32.338 27.4672  -2
   5  16   3 -32.338 27.4672   1
 -11  -9   3 45.2491 29.3974  -2
 -11  17   3 45.2491 29.3974   1
 -10 -10   3 71.5938 15.8863  -2
 -10  17   3 71.5938 15.8863   1
  -9 -11   3 36.1975 28.1996  -2
  -9  17   3 36.1975 28.1996   1
  -7 -13   3 21.0180 14.1500  -2
  -7  17   3 21.0180 14.1500   1
  -3  17   3 6.59188 12.4265   1
 -11  18   3 9.86737 19.1927   1
 -10 -11   3 58.4977 16.3920  -2
 -10  18   3 58.4977 16.3920   1
  -9 -12   3 -27.081 19.8103  -2
  -9  18   3 -27.081 19.8103   1
  -8 -13   3 79.7195 18.7792  -2
  -8  18   3 79.7195 18.7792   1
  -7 -14   3 9.93013 14.4989  -2
  -7  18   3 9.93013 14.4989   1
  -3  18   3 11.6299 13.4125   1
   4 -24   3 95.8614 31.6394  -2
   4  18   3 95.8614 31.6394   1
 -10 -12   3 80.7318 20.1620  -2
 -10  19   3 80.7318 20.1620   1
  -7 -15   3 34.9518 14.2578  -2
  -7  19   3 34.9518 14.2578   1
  -7 -16   3 66.4212 15.3595  -2
  -7  20   3 66.4212 15.3595   1
  -8 -16   3 -3.2289 19.5322  -2
  -8  21   3 -3.2289 19.5322   1
  -7 -17   3 16.4665 15.1957  -2
  -7  21   3 16.4665 15.1957   1
  -5  22   3 9.27115 17.4879   1
   4  17   4 98.0854 24.0756  -2
   4 -24   4 98.0854 24.0756   1
   5  16   4 205.874 29.0012  -2
   5 -24   4 205.874 29.0012   1
   6  15   4 6.31150 23.1302  -2
   6 -24   4 6.31150 23.1302   1
   3  17   4 63.6741 22.1714  -2
   3 -23   4 63.6741 22.1714   1
   4  16   4 62.9566 23.3392  -2
   4 -23   4 62.9566 23.3392   1
   5  15   4 24.2370 24.8087  -2
   5 -23   4 24.2370 24.8087   1
   6  14   4 12.8210 22.5967  -2
   6 -23   4 12.8210 22.5967   1
   7  13   4 101.401 20.0884  -2
   7 -23   4 101.401 20.0884   1
   8 -23   4 119.430 27.3146   1
  -3 -22   4 -0.9049 10.6067   1
  -2  21   4 -4.5060 15.0196  -2
  -2 -22   4 -4.5060 15.0196   1
  -1  20   4 87.8072 26.0500  -2
  -1 -22   4 87.8072 26.0500   1
   2  17   4 10.6098 21.8090  -2
   2 -22   4 10.6098 21.8090   1
   3  16   4 71.1626 22.3377  -2
   3 -22   4 71.1626 22.3377   1
   4  15   4 94.6001 23.9466  -2
   4 -22   4 94.6001 23.9466   1
   5  14   4 102.931 25.5473  -2
   5 -22   4 102.931 25.5473   1
   6  13   4 3.20821 16.9705  -2
   6 -22   4 3.20821 16.9705   1
   7  12   4 35.9340 25.7881  -2
   7 -22   4 35.9340 25.7881   1
   8  11   4 18.9773 18.1935  -2
   8 -22   4 18.9773 18.1935   1
   9  10   4 82.3901 27.5503  -2
   9 -22   4 82.3901 27.5503   1
  -4 -21   4 27.8430 11.3559   1
  -3  21   4 15.1623 15.4662  -2
  -3 -21   4 15.1623 15.4662   1
  -2  20   4 61.2123 15.1840  -2
  -2 -21   4 61.2123 15.1840   1
  -1  19   4 89.0814 24.6153  -2
  -1 -21   4 89.0814 24.6153   1
   2  16   4 17.1554 20.0121  -2
   2 -21   4 17.1554 20.0121   1
   3  15   4 109.995 21.9627  -2
   3 -21   4 109.995 21.9627   1
   4  14   4 56.8248 22.6979  -2
   4 -21   4 56.8248 22.6979   1
   5  13   4 -9.6498 19.9388  -2
   5 -21   4 -9.6498 19.9388   1
   6  12   4 93.1733 18.6088  -2
   6 -21   4 93.1733 18.6088   1
   7  11   4 71.0593 17.6535  -2
   7 -21   4 71.0593 17.6535   1
   8  10   4 13.2940 17.4752  -2
   8 -21   4 13.2940 17.4752   1
   9   9   4 46.7766 17.9933  -2
   9 -21   4 46.7766 17.9933   1
  -5 -20   4 23.3730 11.1053   1
  -4  21   4 37.9978 15.8750  -2
  -4 -20   4 37.9978 15.8750   1
  -3  20   4 38.9905 14.9681  -2
  -3 -20   4 38.9905 14.9681   1
  -2  19   4 -3.8436 12.2048  -2
  -2 -20   4 -3.8436 12.2048   1
   1  16   4 172.427 22.0378  -2
   1 -20   4 172.427 22.0378   1
   2  15   4 283.944 28.7150  -2
   2 -20   4 283.944 28.7150   1
   3  14   4 -3.5192 20.4170  -2
   3 -20   4 -3.5192 20.4170   1
   4  13   4 -18.073 18.6147  -2
   4 -20   4 -18.073 18.6147   1
   5  12   4 168.955 23.7467  -2
   5 -20   4 168.955 23.7467   1
   6  11   4 172.946 19.4154  -2
   6 -20   4 172.946 19.4154   1
   7  10   4 183.893 19.0633  -2
   7 -20   4 183.893 19.0633   1
   8   9   4 45.8354 16.5720  -2
   8 -20   4 45.8354 16.5720   1
   9   8   4 41.4089 17.2753  -2
   9 -20   4 41.4089 17.2753   1
  10   7   4 48.7993 16.8109  -2
  10 -20   4 48.7993 16.8109   1
  -6 -19   4 8.30134 10.6485   1
  -5  21   4 8.86183 15.4226  -2
  -5 -19   4 8.86183 15.4226   1
  -4  20   4 9.14132 14.9938  -2
  -4 -19   4 9.14132 14.9938   1
  -3  19   4 -11.047 14.2084  -2
  -3 -19   4 -11.047 14.2084   1
  -2  18   4 12.1049 13.5725  -2
  -2 -19   4 12.1049 13.5725   1
  -1  17   4 147.595 15.6850  -2
  -1 -19   4 147.595 15.6850   1
   1  15   4 205.030 24.3162  -2
   1 -19   4 205.030 24.3162   1
   2  14   4 0.43114 18.9747  -2
   2 -19   4 0.43114 18.9747   1
   3  13   4 72.9133 20.9065  -2
   3 -19   4 72.9133 20.9065   1
   4  12   4 359.506 31.9908  -2
   4 -19   4 359.506 31.9908   1
   5  11   4 203.677 18.6283  -2
   5 -19   4 203.677 18.6283   1
   6  10   4 139.845 18.2417  -2
   6 -19   4 139.845 18.2417   1
   7   9   4 30.9160 16.2312  -2
   7 -19   4 30.9160 16.2312   1
   8   8   4 31.6698 15.4266  -2
   8 -19   4 31.6698 15.4266   1
   9   7   4 174.603 18.2516  -2
   9 -19   4 174.603 18.2516   1
  10   6   4 105.160 17.4056  -2
  10 -19   4 105.160 17.4056   1
  11   5   4 32.3208 20.8638  -2
  11 -19   4 32.3208 20.8638   1
  -6  21   4 2.19641 15.2843  -2
  -6 -18   4 2.19641 15.2843   1
  -5  20   4 4.09018 15.0165  -2
  -5 -18   4 4.09018 15.0165   1
  -4  19   4 127.304 16.0724  -2
  -4 -18   4 127.304 16.0724   1
  -3  18   4 84.2742 14.7565  -2
  -3 -18   4 84.2742 14.7565   1
  -2  17   4 34.4229 11.7228  -2
  -2 -18   4 34.4229 11.7228   1
  -1  16   4 85.4398 13.9285  -2
  -1 -18   4 85.4398 13.9285   1
   0  15   4 29.0097 17.7518  -2
   0 -18   4 29.0097 17.7518   1
   1  14   4 124.306 21.0390  -2
   1 -18   4 124.306 21.0390   1
   2  13   4 -18.264 18.0730  -2
   2 -18   4 -18.264 18.0730   1
   3  12   4 17.8775 19.6657  -2
   3 -18   4 17.8775 19.6657   1
   4  11   4 47.3313 16.1741  -2
   4 -18   4 47.3313 16.1741   1
   5  10   4 11.0692 16.3096  -2
   5 -18   4 11.0692 16.3096   1
   6   9   4 98.4498 17.2231  -2
   6 -18   4 98.4498 17.2231   1
   7   8   4 657.068 33.2988  -2
   7 -18   4 657.068 33.2988   1
   8   7   4 237.110 19.6220  -2
   8 -18   4 237.110 19.6220   1
   9   6   4 30.7566 16.2314  -2
   9 -18   4 30.7566 16.2314   1
  10   5   4 23.0493 15.6149  -2
  10 -18   4 23.0493 15.6149   1
  11   4   4 37.3746 16.5177  -2
  11 -18   4 37.3746 16.5177   1
  -7  21   4 27.3168 15.1669  -2
  -7 -17   4 27.3168 15.1669   1
  -6  20   4 29.6023 14.9232  -2
  -6 -17   4 29.6023 14.9232   1
  -5  19   4 169.516 14.1963  -2
  -5 -17   4 169.516 14.1963   1
  -4  18   4 169.867 16.7947  -2
  -4 -17   4 169.867 16.7947   1
  -3  17   4 33.9275 23.0078  -2
  -3 -17   4 33.9275 23.0078   1
  -2  16   4 219.598 14.4786  -2
  -2 -17   4 219.598 14.4786   1
  -1  15   4 312.711 20.4805  -2
  -1 -17   4 312.711 20.4805   1
   0  14   4 49.3880 9.54192  -2
   0 -17   4 49.3880 9.54192   1
   1  13   4 87.2408 19.2552  -2
   1 -17   4 87.2408 19.2552   1
   2  12   4 9.44628 17.7361  -2
   2 -17   4 9.44628 17.7361   1
   3  11   4 20.0397 16.8113  -2
   3 -17   4 20.0397 16.8113   1
   4  10   4 156.254 21.6268  -2
   4 -17   4 156.254 21.6268   1
   5   9   4 100.079 15.4812  -2
   5 -17   4 100.079 15.4812   1
   6   8   4 81.6492 15.0496  -2
   6 -17   4 81.6492 15.0496   1
   7   7   4 1157.55 52.3519  -2
   7 -17   4 1157.55 52.3519   1
   8   6   4 15.1463 15.4376  -2
   8 -17   4 15.1463 15.4376   1
   9   5   4 -4.1011 15.2869  -2
   9 -17   4 -4.1011 15.2869   1
  10   4   4 123.382 21.9442  -2
  10 -17   4 123.382 21.9442   1
  11   3   4 66.0309 16.9131  -2
  11 -17   4 66.0309 16.9131   1
  -8 -16   4 16.1601 10.5183   1
  -7  20   4 77.7726 15.3604  -2
  -7 -16   4 77.7726 15.3604   1
  -6  19   4 69.0399 14.5717  -2
  -6 -16   4 69.0399 14.5717   1
  -5  18   4 27.5100 11.9277  -2
  -5 -16   4 27.5100 11.9277   1
  -4  17   4 7.05108 13.2404  -2
  -4 -16   4 7.05108 13.2404   1
  -3  16   4 135.592 14.7692  -2
  -3 -16   4 135.592 14.7692   1
  -2  15   4 518.412 29.3985  -2
  -2 -16   4 518.412 29.3985   1
  -1  14   4 287.298 19.1329  -2
  -1 -16   4 287.298 19.1329   1
   0  13   4 22.4702 16.4927  -2
   0 -16   4 22.4702 16.4927   1
   1  12   4 153.674 19.1218  -2
   1 -16   4 153.674 19.1218   1
   2  11   4 155.910 20.6872  -2
   2 -16   4 155.910 20.6872   1
   3  10   4 216.584 23.9704  -2
   3 -16   4 216.584 23.9704   1
   4   9   4 348.689 21.6525  -2
   4 -16   4 348.689 21.6525   1
   5   8   4 16.0850 13.9429  -2
   5 -16   4 16.0850 13.9429   1
   6   7   4 75.3992 14.8027  -2
   6 -16   4 75.3992 14.8027   1
   7   6   4 186.590 17.2666  -2
   7 -16   4 186.590 17.2666   1
   8   5   4 30.7427 15.0759  -2
   8 -16   4 30.7427 15.0759   1
   9   4   4 80.5831 15.0130  -2
   9 -16   4 80.5831 15.0130   1
  10   3   4 40.2725 15.1972  -2
  10 -16   4 40.2725 15.1972   1
  11   2   4 43.4577 15.6684  -2
  11 -16   4 43.4577 15.6684   1
  12   1   4 42.0575 15.9872  -2
  12 -16   4 42.0575 15.9872   1
  -8  20   4 5.08546 14.3984  -2
  -8 -15   4 5.08546 14.3984   1
  -7  19   4 20.3997 14.0802  -2
  -7 -15   4 20.3997 14.0802   1
  -6  18   4 35.0983 13.7324  -2
  -6 -15   4 35.0983 13.7324   1
  -5  17   4 15.4004 11.2991  -2
  -5 -15   4 15.4004 11.2991   1
  -4  16   4 136.627 12.3716  -2
  -4 -15   4 136.627 12.3716   1
  -3  15   4 320.035 16.7698  -2
  -3 -15   4 320.035 16.7698   1
  -2  14   4 197.977 15.4535  -2
  -2 -15   4 197.977 15.4535   1
  -1  13   4 43.6152 11.0624  -2
  -1 -15   4 43.6152 11.0624   1
   0  12   4 97.4932 9.62603  -2
   0 -15   4 97.4932 9.62603   1
   1  11   4 779.431 40.7515  -2
   1 -15   4 779.431 40.7515   1
   2  10   4 83.6647 13.5786  -2
   2 -15   4 83.6647 13.5786   1
   3   9   4 77.9379 13.8870  -2
   3 -15   4 77.9379 13.8870   1
   4   8   4 12.6040 12.7247  -2
   4 -15   4 12.6040 12.7247   1
   5   7   4 11.3765 14.1601  -2
   5 -15   4 11.3765 14.1601   1
   6   6   4 863.319 40.0577  -2
   6 -15   4 863.319 40.0577   1
   7   5   4 249.532 16.7904  -2
   7 -15   4 249.532 16.7904   1
   8   4   4 60.7738 13.5259  -2
   8 -15   4 60.7738 13.5259   1
   9   3   4 12.7650 14.3148  -2
   9 -15   4 12.7650 14.3148   1
  10   2   4 22.7364 14.8665  -2
  10 -15   4 22.7364 14.8665   1
  11   1   4 14.0552 14.9102  -2
  11 -15   4 14.0552 14.9102   1
  12   0   4 39.9416 15.7770  -2
  12 -15   4 39.9416 15.7770   1
  -9  20   4 -5.9782 15.3478  -2
  -9 -14   4 -5.9782 15.3478   1
  -8  19   4 -20.302 13.7448  -2
  -8 -14   4 -20.302 13.7448   1
  -7  18   4 18.5647 13.7009  -2
  -7 -14   4 18.5647 13.7009   1
  -6  17   4 0.24251 11.4589  -2
  -6 -14   4 0.24251 11.4589   1
  -5  16   4 15.5847 11.0668  -2
  -5 -14   4 15.5847 11.0668   1
  -4  15   4 -4.7802 12.0158  -2
  -4 -14   4 -4.7802 12.0158   1
  -3  14   4 37.0920 9.90814  -2
  -3 -14   4 37.0920 9.90814   1
  -2  13   4 57.6418 10.4841  -2
  -2 -14   4 57.6418 10.4841   1
  -1  12   4 553.408 30.1643  -2
  -1 -14   4 553.408 30.1643   1
   0  11   4 445.477 20.2267  -2
   0 -14   4 445.477 20.2267   1
   1  10   4 109.111 13.3516  -2
   1 -14   4 109.111 13.3516   1
   2   9   4 7.72084 12.4842  -2
   2 -14   4 7.72084 12.4842   1
   3   8   4 1.37259 12.4640  -2
   3 -14   4 1.37259 12.4640   1
   4   7   4 764.208 28.8382  -2
   4 -14   4 764.208 28.8382   1
   5   6   4 436.890 23.0896  -2
   5 -14   4 436.890 23.0896   1
   6   5   4 89.0811 13.1976  -2
   6 -14   4 89.0811 13.1976   1
   7   4   4 19.7383 12.5500  -2
   7 -14   4 19.7383 12.5500   1
   8   3   4 88.1413 13.2662  -2
   8 -14   4 88.1413 13.2662   1
   9   2   4 175.245 16.6648  -2
   9 -14   4 175.245 16.6648   1
  10   1   4 232.287 18.1873  -2
  10 -14   4 232.287 18.1873   1
  11   0   4 34.8467 15.3802  -2
  11 -14   4 34.8467 15.3802   1
  12  -1   4 45.5847 15.3041  -2
  12 -14   4 45.5847 15.3041   1
  -9  19   4 77.7461 14.7195  -2
  -9 -13   4 77.7461 14.7195   1
  -8  18   4 58.1041 13.8148  -2
  -8 -13   4 58.1041 13.8148   1
  -7  17   4 76.4595 13.8029  -2
  -7 -13   4 76.4595 13.8029   1
  -6  16   4 93.1044 11.9241  -2
  -6 -13   4 93.1044 11.9241   1
  -5  15   4 104.373 11.4790  -2
  -5 -13   4 104.373 11.4790   1
  -4  14   4 409.685 24.1087  -2
  -4 -13   4 409.685 24.1087   1
  -3  13   4 78.3222 9.74546  -2
  -3 -13   4 78.3222 9.74546   1
  -2  12   4 33.6973 10.3771  -2
  -2 -13   4 33.6973 10.3771   1
  -1  11   4 128.374 10.3357  -2
  -1 -13   4 128.374 10.3357   1
   0  10   4 171.915 11.0673  -2
   0 -13   4 171.915 11.0673   1
   1   9   4 193.853 21.5893  -2
   1 -13   4 193.853 21.5893   1
   2   8   4 392.497 21.1869  -2
   2 -13   4 392.497 21.1869   1
   3   7   4 54.2557 12.3884  -2
   3 -13   4 54.2557 12.3884   1
   4   6   4 591.398 23.2417  -2
   4 -13   4 591.398 23.2417   1
   5   5   4 131.726 14.0082  -2
   5 -13   4 131.726 14.0082   1
   6   4   4 75.2155 12.2361  -2
   6 -13   4 75.2155 12.2361   1
   7   3   4 888.634 34.8490  -2
   7 -13   4 888.634 34.8490   1
   8   2   4 38.0174 13.3789  -2
   8 -13   4 38.0174 13.3789   1
   9   1   4 45.2805 13.1171  -2
   9 -13   4 45.2805 13.1171   1
  10   0   4 12.9706 13.8949  -2
  10 -13   4 12.9706 13.8949   1
  11  -1   4 33.2434 14.4214  -2
  11 -13   4 33.2434 14.4214   1
  12  -2   4 183.957 17.6680  -2
  12 -13   4 183.957 17.6680   1
 -10  19   4 105.517 15.7286  -2
 -10 -12   4 105.517 15.7286   1
  -9  18   4 168.913 16.9626  -2
  -9 -12   4 168.913 16.9626   1
  -8  17   4 14.2486 13.5259  -2
  -8 -12   4 14.2486 13.5259   1
  -7  16   4 20.2642 12.9666  -2
  -7 -12   4 20.2642 12.9666   1
  -6  15   4 158.630 12.6449  -2
  -6 -12   4 158.630 12.6449   1
  -5  14   4 202.685 13.4811  -2
  -5 -12   4 202.685 13.4811   1
  -4  13   4 146.302 11.0993  -2
  -4 -12   4 146.302 11.0993   1
  -3  12   4 3.30085 7.42579  -2
  -3 -12   4 3.30085 7.42579   1
  -2  11   4 2.40550 18.5549  -2
  -2 -12   4 2.40550 18.5549   1
  -1  10   4 334.953 15.8914  -2
  -1 -12   4 334.953 15.8914   1
   0   9   4 84.8104 17.8014  -2
   0 -12   4 84.8104 17.8014   1
   1   8   4 101.856 13.4512  -2
   1 -12   4 101.856 13.4512   1
   2   7   4 2.72488 10.6754  -2
   2 -12   4 2.72488 10.6754   1
   3   6   4 159.703 11.2006  -2
   3 -12   4 159.703 11.2006   1
   4   5   4 88.1802 13.1159  -2
   4 -12   4 88.1802 13.1159   1
   5   4   4 60.4840 12.2533  -2
   5 -12   4 60.4840 12.2533   1
   6   3   4 29.0552 11.1487  -2
   6 -12   4 29.0552 11.1487   1
   7   2   4 60.8778 12.3507  -2
   7 -12   4 60.8778 12.3507   1
   8   1   4 136.293 13.8862  -2
   8 -12   4 136.293 13.8862   1
   9   0   4 68.9482 12.3232  -2
   9 -12   4 68.9482 12.3232   1
  10  -1   4 499.981 26.4526  -2
  10 -12   4 499.981 26.4526   1
  11  -2   4 84.2288 14.8807  -2
  11 -12   4 84.2288 14.8807   1
  12  -3   4 120.943 20.8687  -2
  12 -12   4 120.943 20.8687   1
 -10  18   4 19.2382 13.9877  -2
 -10 -11   4 19.2382 13.9877   1
  -9  17   4 56.1369 14.2317  -2
  -9 -11   4 56.1369 14.2317   1
  -8  16   4 29.3320 13.4168  -2
  -8 -11   4 29.3320 13.4168   1
  -7  15   4 93.2028 13.2970  -2
  -7 -11   4 93.2028 13.2970   1
  -6  14   4 490.892 21.9396  -2
  -6 -11   4 490.892 21.9396   1
  -5  13   4 131.711 11.0467  -2
  -5 -11   4 131.711 11.0467   1
  -4  12   4 91.8265 9.04361  -2
  -4 -11   4 91.8265 9.04361   1
  -3  11   4 192.351 10.1272  -2
  -3 -11   4 192.351 10.1272   1
  -2  10   4 1041.06 36.1083  -2
  -2 -11   4 1041.06 36.1083   1
  -1   9   4 1926.29 74.2809  -2
  -1 -11   4 1926.29 74.2809   1
   0   8   4 182.243 18.2848  -2
   0 -11   4 182.243 18.2848   1
   1   7   4 10.1275 12.7714  -2
   1 -11   4 10.1275 12.7714   1
   2   6   4 319.048 18.4824  -2
   2 -11   4 319.048 18.4824   1
   3   5   4 408.587 17.4964  -2
   3 -11   4 408.587 17.4964   1
   4   4   4 662.156 30.8379  -2
   4 -11   4 662.156 30.8379   1
   5   3   4 80.3911 11.8187  -2
   5 -11   4 80.3911 11.8187   1
   6   2   4 87.8741 11.7546  -2
   6 -11   4 87.8741 11.7546   1
   7   1   4 230.164 14.7340  -2
   7 -11   4 230.164 14.7340   1
   8   0   4 26.1515 11.9641  -2
   8 -11   4 26.1515 11.9641   1
   9  -1   4 263.082 17.9418  -2
   9 -11   4 263.082 17.9418   1
  10  -2   4 176.160 16.1068  -2
  10 -11   4 176.160 16.1068   1
  11  -3   4 75.7909 14.3209  -2
  11 -11   4 75.7909 14.3209   1
  12  -4   4 -10.924 19.3969  -2
  12 -11   4 -10.924 19.3969   1
  13  -5   4 26.8275 18.9727  -2
  13 -11   4 26.8275 18.9727   1
 -10  17   4 54.8854 13.9673  -2
 -10 -10   4 54.8854 13.9673   1
  -9  16   4 99.1134 14.3503  -2
  -9 -10   4 99.1134 14.3503   1
  -8  15   4 25.5751 12.9422  -2
  -8 -10   4 25.5751 12.9422   1
  -7  14   4 112.341 13.3190  -2
  -7 -10   4 112.341 13.3190   1
  -6  13   4 45.6095 9.96505  -2
  -6 -10   4 45.6095 9.96505   1
  -5  12   4 30.9486 9.07010  -2
  -5 -10   4 30.9486 9.07010   1
  -4  11   4 290.948 14.1882  -2
  -4 -10   4 290.948 14.1882   1
  -3  10   4 287.139 13.8399  -2
  -3 -10   4 287.139 13.8399   1
  -2   9   4 105.816 9.25063  -2
  -2 -10   4 105.816 9.25063   1
  -1   8   4 56.6136 8.24757  -2
  -1 -10   4 56.6136 8.24757   1
   0   7   4 263.367 16.3381  -2
   0 -10   4 263.367 16.3381   1
   1   6   4 1486.49 54.2024  -2
   1 -10   4 1486.49 54.2024   1
   2   5   4 526.879 22.7415  -2
   2 -10   4 526.879 22.7415   1
   3   4   4 185.401 10.9540  -2
   3 -10   4 185.401 10.9540   1
   4   3   4 82.6104 12.0426  -2
   4 -10   4 82.6104 12.0426   1
   5   2   4 241.110 13.4839  -2
   5 -10   4 241.110 13.4839   1
   6   1   4 402.146 16.7853  -2
   6 -10   4 402.146 16.7853   1
   7   0   4 1115.60 36.2271  -2
   7 -10   4 1115.60 36.2271   1
   8  -1   4 81.6113 10.7141  -2
   8 -10   4 81.6113 10.7141   1
   9  -2   4 5.62221 11.2715  -2
   9 -10   4 5.62221 11.2715   1
  10  -3   4 44.3436 13.9003  -2
  10 -10   4 44.3436 13.9003   1
  11  -4   4 87.8630 20.4121  -2
  11 -10   4 87.8630 20.4121   1
  12  -5   4 117.502 21.6503  -2
  12 -10   4 117.502 21.6503   1
  13  -6   4 61.7800 19.6627  -2
  13 -10   4 61.7800 19.6627   1
 -10  16   4 92.9215 14.6981  -2
 -10  -9   4 92.9215 14.6981   1
  -9  15   4 -6.0486 13.0783  -2
  -9  -9   4 -6.0486 13.0783   1
  -8  14   4 55.0932 12.7629  -2
  -8  -9   4 55.0932 12.7629   1
  -7  13   4 124.333 13.4543  -2
  -7  -9   4 124.333 13.4543   1
  -6  12   4 336.619 16.2041  -2
  -6  -9   4 336.619 16.2041   1
  -5  11   4 74.0112 9.54821  -2
  -5  -9   4 74.0112 9.54821   1
  -4  10   4 25.1719 7.59356  -2
  -4  -9   4 25.1719 7.59356   1
  -3   9   4 724.445 25.4045  -2
  -3  -9   4 724.445 25.4045   1
  -2   8   4 30.2043 33.4628  -2
  -2  -9   4 30.2043 33.4628   1
  -1   7   4 1602.10 58.2413  -2
  -1  -9   4 1602.10 58.2413   1
   0   6   4 195.722 13.4054  -2
   0  -9   4 195.722 13.4054   1
   1   5   4 349.639 16.6057  -2
   1  -9   4 349.639 16.6057   1
   4   2   4 998.093 37.4843  -2
   4  -9   4 998.093 37.4843   1
   5   1   4 1272.62 40.5380  -2
   5  -9   4 1272.62 40.5380   1
   6   0   4 -3.4387 9.42862  -2
   6  -9   4 -3.4387 9.42862   1
   7  -1   4 46.2067 8.57537  -2
   7  -9   4 46.2067 8.57537   1
   8  -2   4 97.6849 9.13173  -2
   8  -9   4 97.6849 9.13173   1
   9  -3   4 591.495 23.3915  -2
   9  -9   4 591.495 23.3915   1
  10  -4   4 261.699 14.6695  -2
  10  -9   4 261.699 14.6695   1
  11  -5   4 13.9876 13.3641  -2
  11  -9   4 13.9876 13.3641   1
  12  -6   4 23.2321 17.6506  -2
  12  -9   4 23.2321 17.6506   1
  13  -7   4 91.5669 22.1336  -2
  13  -9   4 91.5669 22.1336   1
  -9  14   4 77.9895 13.0602  -2
  -9  -8   4 77.9895 13.0602   1
  -8  13   4 97.7723 12.9616  -2
  -8  -8   4 97.7723 12.9616   1
  -7  12   4 186.885 14.8988  -2
  -7  -8   4 186.885 14.8988   1
  -6  11   4 17.5596 8.74806  -2
  -6  -8   4 17.5596 8.74806   1
  -5  10   4 105.019 9.00454  -2
  -5  -8   4 105.019 9.00454   1
  -4   9   4 475.111 16.1117  -2
  -4  -8   4 475.111 16.1117   1
  -3   8   4 155.577 15.0243  -2
  -3  -8   4 155.577 15.0243   1
  -2   7   4 315.813 20.4813  -2
  -2  -8   4 315.813 20.4813   1
   2   3   4 1415.80 45.1867  -2
   2  -8   4 1415.80 45.1867   1
   4   1   4 881.257 29.7622  -2
   4  -8   4 881.257 29.7622   1
   5   0   4 273.635 13.7259  -2
   5  -8   4 273.635 13.7259   1
   6  -1   4 33.7376 7.93656  -2
   6  -8   4 33.7376 7.93656   1
   7  -2   4 707.385 21.4888  -2
   7  -8   4 707.385 21.4888   1
   8  -3   4 218.690 12.8919  -2
   8  -8   4 218.690 12.8919   1
   9  -4   4 404.263 17.8793  -2
   9  -8   4 404.263 17.8793   1
  10  -5   4 80.1416 12.9682  -2
  10  -8   4 80.1416 12.9682   1
  11  -6   4 33.6017 13.4133  -2
  11  -8   4 33.6017 13.4133   1
  12  -7   4 136.507 20.4700  -2
  12  -8   4 136.507 20.4700   1
  13  -8   4 167.746 24.1416  -2
  13  -8   4 167.746 24.1416   1
  -9  13   4 583.854 32.3004  -2
  -9  -7   4 583.854 32.3004   1
  -8  12   4 77.5449 12.4235  -2
  -8  -7   4 77.5449 12.4235   1
  -7  11   4 -8.6021 10.1718  -2
  -7  -7   4 -8.6021 10.1718   1
  -6  10   4 573.661 23.7437  -2
  -6  -7   4 573.661 23.7437   1
  -5   9   4 293.919 23.4156  -2
  -5  -7   4 293.919 23.4156   1
  -4   8   4 1211.93 43.5111  -2
  -4  -7   4 1211.93 43.5111   1
  -3   7   4 146.154 11.8279  -2
  -3  -7   4 146.154 11.8279   1
   1   3   4 648.417 23.7723  -2
   1  -7   4 648.417 23.7723   1
   2   2   4 1601.00 50.3717  -2
   2  -7   4 1601.00 50.3717   1
   3   1   4 1525.61 56.0505  -2
   3  -7   4 1525.61 56.0505   1
   4   0   4 186.615 14.7115  -2
   4  -7   4 186.615 14.7115   1
   5  -1   4 886.733 29.4347  -2
   5  -7   4 886.733 29.4347   1
   6  -2   4 33.0551 8.00089  -2
   6  -7   4 33.0551 8.00089   1
   7  -3   4 373.839 13.5687  -2
   7  -7   4 373.839 13.5687   1
   8  -4   4 213.120 12.4529  -2
   8  -7   4 213.120 12.4529   1
   9  -5   4 83.8000 9.57312  -2
   9  -7   4 83.8000 9.57312   1
  10  -6   4 361.697 17.1153  -2
  10  -7   4 361.697 17.1153   1
  11  -7   4 163.694 16.7536  -2
  11  -7   4 163.694 16.7536   1
  12  -8   4 120.587 21.3063  -2
  12  -7   4 120.587 21.3063   1
  -9  12   4 21.1532 12.2357  -2
  -9  -6   4 21.1532 12.2357   1
  -8  11   4 11.8415 11.1684  -2
  -8  -6   4 11.8415 11.1684   1
  -7  10   4 535.244 29.0392  -2
  -7  -6   4 535.244 29.0392   1
  -6   9   4 373.045 16.7935  -2
  -6  -6   4 373.045 16.7935   1
  -5   8   4 469.499 19.9506  -2
  -5  -6   4 469.499 19.9506   1
  -4   7   4 432.213 20.0663  -2
  -4  -6   4 432.213 20.0663   1
  -1   4   4 4897.80 172.767  -2
  -1  -6   4 4897.80 172.767   1
   1   2   4 45.4891 8.97359  -2
   1  -6   4 45.4891 8.97359   1
   2   1   4 540.530 25.2490  -2
   2  -6   4 540.530 25.2490   1
   3   0   4 428.947 18.4915  -2
   3  -6   4 428.947 18.4915   1
   4  -1   4 1294.92 57.5118  -2
   4  -6   4 1294.92 57.5118   1
   5  -2   4 66.7982 9.73205  -2
   5  -6   4 66.7982 9.73205   1
   6  -3   4 25.4595 6.47823  -2
   6  -6   4 25.4595 6.47823   1
   7  -4   4 156.000 10.7857  -2
   7  -6   4 156.000 10.7857   1
   8  -5   4 52.9307 9.41468  -2
   8  -6   4 52.9307 9.41468   1
   9  -6   4 147.261 11.1979  -2
   9  -6   4 147.261 11.1979   1
  10  -7   4 301.149 13.4052  -2
  10  -6   4 301.149 13.4052   1
  11  -8   4 45.0530 8.17725  -2
  11  -6   4 45.0530 8.17725   1
  12  -9   4 27.5805 7.88265  -2
  12  -6   4 27.5805 7.88265   1
  -9  11   4 117.893 13.4041  -2
  -9  -5   4 117.893 13.4041   1
  -8  10   4 52.9512 11.2563  -2
  -8  -5   4 52.9512 11.2563   1
  -7   9   4 323.775 19.4134  -2
  -7  -5   4 323.775 19.4134   1
  -6   8   4 290.240 23.5842  -2
  -6  -5   4 290.240 23.5842   1
  -5   7   4 163.991 18.2926  -2
  -5  -5   4 163.991 18.2926   1
  -4   6   4 933.730 34.7421  -2
  -4  -5   4 933.730 34.7421   1
  -2   4   4 1442.71 53.6183  -2
  -2  -5   4 1442.71 53.6183   1
  -1   3   4 2050.01 90.3023  -2
  -1  -5   4 2050.01 90.3023   1
   0   2   4 48.4702 10.8060  -2
   0  -5   4 48.4702 10.8060   1
   1   1   4 791.453 39.5362  -2
   1  -5   4 791.453 39.5362   1
   2   0   4 1781.56 75.9017  -2
   2  -5   4 1781.56 75.9017   1
   3  -1   4 252.761 12.4739  -2
   3  -5   4 252.761 12.4739   1
   4  -2   4 134.535 11.4368  -2
   4  -5   4 134.535 11.4368   1
   5  -3   4 214.743 15.8395  -2
   5  -5   4 214.743 15.8395   1
   6  -4   4 501.501 17.8020  -2
   6  -5   4 501.501 17.8020   1
   7  -5   4 783.317 28.6417  -2
   7  -5   4 783.317 28.6417   1
   8  -6   4 62.6443 9.55176  -2
   8  -5   4 62.6443 9.55176   1
   9  -7   4 84.5256 14.1325  -2
   9  -5   4 84.5256 14.1325   1
  10  -8   4 85.0931 8.08591  -2
  10  -5   4 85.0931 8.08591   1
  11  -9   4 11.8640 8.12405  -2
  11  -5   4 11.8640 8.12405   1
  12 -10   4 100.828 10.4623  -2
  12  -5   4 100.828 10.4623   1
  13 -11   4 14.5341 26.1262  -2
  13  -5   4 14.5341 26.1262   1
  -8   9   4 -18.807 10.3570  -2
  -8  -4   4 -18.807 10.3570   1
  -7   8   4 25.4362 8.74241  -2
  -7  -4   4 25.4362 8.74241   1
  -5   6   4 535.231 25.5137  -2
  -5  -4   4 535.231 25.5137   1
  -4   5   4 805.155 26.3602  -2
  -4  -4   4 805.155 26.3602   1
  -3   4   4 44.5844 8.28985  -2
  -3  -4   4 44.5844 8.28985   1
  -2   3   4 515.733 27.9940  -2
  -2  -4   4 515.733 27.9940   1
  -1   2   4 4499.91 194.090  -2
  -1  -4   4 4499.91 194.090   1
   0   1   4 860.533 34.9375  -2
   0  -4   4 860.533 34.9375   1
   1   0   4 337.977 15.2853  -2
   1  -4   4 337.977 15.2853   1
   2  -1   4 497.483 17.9671  -2
   2  -4   4 497.483 17.9671   1
   3  -2   4 216.988 13.0233  -2
   3  -4   4 216.988 13.0233   1
   4  -3   4 760.887 28.6506  -2
   4  -4   4 760.887 28.6506   1
   5  -4   4 27.5962 7.43978  -2
   5  -4   4 27.5962 7.43978   1
   6  -5   4 520.730 16.3603  -2
   6  -4   4 520.730 16.3603   1
   7  -6   4 129.623 7.01576  -2
   7  -4   4 129.623 7.01576   1
   8  -7   4 194.111 8.77526  -2
   8  -4   4 194.111 8.77526   1
   9  -8   4 407.553 16.2113  -2
   9  -4   4 407.553 16.2113   1
  10  -9   4 231.655 11.8464  -2
  10  -4   4 231.655 11.8464   1
  11 -10   4 80.1974 10.0703  -2
  11  -4   4 80.1974 10.0703   1
  12 -11   4 9.03657 9.07205  -2
  12  -4   4 9.03657 9.07205   1
  -8   8   4 156.123 12.7926  -2
  -8  -3   4 156.123 12.7926   1
  -7   7   4 1153.84 63.4948  -2
  -7  -3   4 1153.84 63.4948   1
  -4   4   4 201.289 11.1985  -2
  -4  -3   4 201.289 11.1985   1
  -3   3   4 268.885 16.1744  -2
  -3  -3   4 268.885 16.1744   1
  -2   2   4 185.942 16.6890  -2
  -2  -3   4 185.942 16.6890   1
  -1   1   4 75.1134 24.8245  -2
  -1  -3   4 75.1134 24.8245   1
   0   0   4 619.009 22.2978  -2
   0  -3   4 619.009 22.2978   1
   1  -1   4 1365.83 43.1198  -2
   1  -3   4 1365.83 43.1198   1
   2  -2   4 1123.12 54.6130  -2
   2  -3   4 1123.12 54.6130   1
   3  -3   4 818.764 27.0529  -2
   3  -3   4 818.764 27.0529   1
   4  -4   4 687.639 26.1488  -2
   4  -3   4 687.639 26.1488   1
   5  -5   4 203.089 14.2200  -2
   5  -3   4 203.089 14.2200   1
   6  -6   4 24.4639 5.10135  -2
   6  -3   4 24.4639 5.10135   1
   7  -7   4 373.733 12.5677  -2
   7  -3   4 373.733 12.5677   1
   8  -8   4 228.337 11.1669  -2
   8  -3   4 228.337 11.1669   1
   9  -9   4 516.514 19.4949  -2
   9  -3   4 516.514 19.4949   1
  10 -10   4 24.9534 7.42556  -2
  10  -3   4 24.9534 7.42556   1
  11 -11   4 29.8870 8.86200  -2
  11  -3   4 29.8870 8.86200   1
  12 -12   4 94.5842 10.5341  -2
  12  -3   4 94.5842 10.5341   1
  -6   5   4 127.891 19.3904  -2
  -6  -2   4 127.891 19.3904   1
  -5   4   4 193.420 22.5825  -2
  -5  -2   4 193.420 22.5825   1
  -4   3   4 2001.84 123.172  -2
  -4  -2   4 2001.84 123.172   1
  -3   2   4 2451.90 87.2853  -2
  -3  -2   4 2451.90 87.2853   1
  -2   1   4 1876.83 67.7580  -2
  -2  -2   4 1876.83 67.7580   1
  -1   0   4 1682.87 61.7379  -2
  -1  -2   4 1682.87 61.7379   1
   0  -1   4 34.7929 10.5582  -2
   0  -2   4 34.7929 10.5582   1
   1  -2   4 2061.29 72.9049  -2
   1  -2   4 2061.29 72.9049   1
   2  -3   4 869.421 34.3176  -2
   2  -2   4 869.421 34.3176   1
   3  -4   4 261.509 14.0737  -2
   3  -2   4 261.509 14.0737   1
   4  -5   4 141.366 10.7428  -2
   4  -2   4 141.366 10.7428   1
   5  -6   4 84.9166 9.94361  -2
   5  -2   4 84.9166 9.94361   1
   6  -7   4 23.1901 4.96232  -2
   6  -2   4 23.1901 4.96232   1
   7  -8   4 650.861 19.7122  -2
   7  -2   4 650.861 19.7122   1
   8  -9   4 95.8705 8.16977  -2
   8  -2   4 95.8705 8.16977   1
   9 -10   4 23.1311 7.75102  -2
   9  -2   4 23.1311 7.75102   1
  10 -11   4 183.711 12.0455  -2
  10  -2   4 183.711 12.0455   1
  11 -12   4 65.3736 9.44088  -2
  11  -2   4 65.3736 9.44088   1
  12 -13   4 122.255 11.5794  -2
  12  -2   4 122.255 11.5794   1
  -6   4   4 1357.87 84.8061  -2
  -6  -1   4 1357.87 84.8061   1
  -5   3   4 505.079 24.4409  -2
  -5  -1   4 505.079 24.4409   1
  -3   1   4 319.641 16.8948  -2
  -3  -1   4 319.641 16.8948   1
  -2   0   4 836.309 42.5020  -2
  -2  -1   4 836.309 42.5020   1
  -1  -1   4 6661.01 287.139  -2
  -1  -1   4 6661.01 287.139   1
   0  -2   4 49.0344 11.0566  -2
   0  -1   4 49.0344 11.0566   1
   1  -3   4 1390.33 50.8576  -2
   1  -1   4 1390.33 50.8576   1
   2  -4   4 474.511 27.2919  -2
   2  -1   4 474.511 27.2919   1
   3  -5   4 237.317 12.9445  -2
   3  -1   4 237.317 12.9445   1
   4  -6   4 1275.13 44.7860  -2
   4  -1   4 1275.13 44.7860   1
   5  -7   4 810.668 27.6387  -2
   5  -1   4 810.668 27.6387   1
   6  -8   4 34.3771 4.80840  -2
   6  -1   4 34.3771 4.80840   1
   7  -9   4 51.9068 7.03534  -2
   7  -1   4 51.9068 7.03534   1
   8 -10   4 79.1220 8.07619  -2
   8  -1   4 79.1220 8.07619   1
   9 -11   4 241.672 13.5514  -2
   9  -1   4 241.672 13.5514   1
  10 -12   4 410.446 19.6462  -2
  10  -1   4 410.446 19.6462   1
  11 -13   4 14.0469 9.12503  -2
  11  -1   4 14.0469 9.12503   1
  12 -14   4 -1.4018 9.89638  -2
  12  -1   4 -1.4018 9.89638   1
  -6   3   4 442.337 32.2114  -2
  -6   0   4 442.337 32.2114   1
  -5   2   4 157.822 12.4066  -2
  -5   0   4 157.822 12.4066   1
  -4   1   4 1067.28 38.4859  -2
  -4   0   4 1067.28 38.4859   1
  -3   0   4 78.4447 12.2893  -2
  -3   0   4 78.4447 12.2893   1
  -2  -1   4 1201.14 45.4246  -2
  -2   0   4 1201.14 45.4246   1
  -1  -2   4 1442.90 52.4331  -2
  -1   0   4 1442.90 52.4331   1
   0  -3   4 577.233 26.6102  -2
   0   0   4 577.233 26.6102   1
   1  -4   4 304.249 19.8398  -2
   1   0   4 304.249 19.8398   1
   2  -5   4 1663.18 71.2798  -2
   2   0   4 1663.18 71.2798   1
   3  -6   4 430.314 18.5623  -2
   3   0   4 430.314 18.5623   1
   4  -7   4 131.041 8.56614  -2
   4   0   4 131.041 8.56614   1
   5  -8   4 282.130 11.1513  -2
   5   0   4 282.130 11.1513   1
   6  -9   4 5.67243 6.34523  -2
   6   0   4 5.67243 6.34523   1
   7 -10   4 1133.02 37.4488  -2
   7   0   4 1133.02 37.4488   1
   8 -11   4 16.5549 7.57056  -2
   8   0   4 16.5549 7.57056   1
   9 -12   4 62.0512 8.48452  -2
   9   0   4 62.0512 8.48452   1
  10 -13   4 3.03045 8.51612  -2
  10   0   4 3.03045 8.51612   1
  11 -14   4 65.5994 23.1757  -2
  11   0   4 65.5994 23.1757   1
  12 -15   4 22.4234 9.93591  -2
  12   0   4 22.4234 9.93591   1
  -9   5   4 86.0923 18.6925  -2
  -9   1   4 86.0923 18.6925   1
  -6   2   4 88.4252 10.9630  -2
  -6   1   4 88.4252 10.9630   1
  -5   1   4 103.893 10.8766  -2
  -5   1   4 103.893 10.8766   1
  -4   0   4 412.975 36.0619  -2
  -4   1   4 412.975 36.0619   1
  -3  -1   4 214.110 18.5684  -2
  -3   1   4 214.110 18.5684   1
  -2  -2   4 1438.59 63.0423  -2
  -2   1   4 1438.59 63.0423   1
  -1  -3   4 36.3735 9.80434  -2
  -1   1   4 36.3735 9.80434   1
   0  -4   4 802.474 27.5019  -2
   0   1   4 802.474 27.5019   1
   1  -5   4 741.264 30.7121  -2
   1   1   4 741.264 30.7121   1
   2  -6   4 412.959 25.0880  -2
   2   1   4 412.959 25.0880   1
   3  -7   4 1311.10 57.3125  -2
   3   1   4 1311.10 57.3125   1
   4  -8   4 822.343 32.2757  -2
   4   1   4 822.343 32.2757   1
   5  -9   4 1203.74 39.9966  -2
   5   1   4 1203.74 39.9966   1
   6 -10   4 366.591 16.6422  -2
   6   1   4 366.591 16.6422   1
   7 -11   4 212.670 12.3056  -2
   7   1   4 212.670 12.3056   1
   8 -12   4 125.292 10.5769  -2
   8   1   4 125.292 10.5769   1
   9 -13   4 48.0946 9.23131  -2
   9   1   4 48.0946 9.23131   1
  10 -14   4 219.014 13.4789  -2
  10   1   4 219.014 13.4789   1
  11 -15   4 13.1605 9.26926  -2
  11   1   4 13.1605 9.26926   1
  12 -16   4 2.32127 11.3256  -2
  12   1   4 2.32127 11.3256   1
  -9   4   4 319.056 27.7185  -2
  -9   2   4 319.056 27.7185   1
  -8   3   4 14.9186 16.7123  -2
  -8   2   4 14.9186 16.7123   1
  -6   1   4 85.4254 15.3909  -2
  -6   2   4 85.4254 15.3909   1
  -5   0   4 169.611 12.4475  -2
  -5   2   4 169.611 12.4475   1
  -4  -1   4 407.230 28.5560  -2
  -4   2   4 407.230 28.5560   1
  -3  -2   4 2296.19 135.412  -2
  -3   2   4 2296.19 135.412   1
  -2  -3   4 168.416 15.7079  -2
  -2   2   4 168.416 15.7079   1
  -1  -4   4 4845.14 163.429  -2
  -1   2   4 4845.14 163.429   1
   0  -5   4 51.2324 9.08357  -2
   0   2   4 51.2324 9.08357   1
   1  -6   4 21.2594 7.95946  -2
   1   2   4 21.2594 7.95946   1
   2  -7   4 1726.77 73.9115  -2
   2   2   4 1726.77 73.9115   1
   3  -8   4 294.593 21.5785  -2
   3   2   4 294.593 21.5785   1
   4  -9   4 836.422 28.7360  -2
   4   2   4 836.422 28.7360   1
   5 -10   4 180.412 10.0419  -2
   5   2   4 180.412 10.0419   1
   6 -11   4 57.8468 7.17278  -2
   6   2   4 57.8468 7.17278   1
   7 -12   4 45.5369 8.84140  -2
   7   2   4 45.5369 8.84140   1
   8 -13   4 22.7339 8.84040  -2
   8   2   4 22.7339 8.84040   1
   9 -14   4 149.616 11.2759  -2
   9   2   4 149.616 11.2759   1
  10 -15   4 17.2218 8.94189  -2
  10   2   4 17.2218 8.94189   1
  11 -16   4 22.2917 9.69422  -2
  11   2   4 22.2917 9.69422   1
 -10   4   4 297.666 27.6055  -2
 -10   3   4 297.666 27.6055   1
  -9   3   4 907.188 58.5180  -2
  -9   3   4 907.188 58.5180   1
  -8   2   4 -9.1812 16.0352  -2
  -8   3   4 -9.1812 16.0352   1
  -6   0   4 344.604 25.7881  -2
  -6   3   4 344.604 25.7881   1
  -5  -1   4 467.841 31.8345  -2
  -5   3   4 467.841 31.8345   1
  -4  -2   4 1946.63 115.365  -2
  -4   3   4 1946.63 115.365   1
  -3  -3   4 174.587 18.9925  -2
  -3   3   4 174.587 18.9925   1
  -2  -4   4 448.143 30.9972  -2
  -2   3   4 448.143 30.9972   1
  -1  -5   4 1736.96 71.2131  -2
  -1   3   4 1736.96 71.2131   1
   0  -6   4 243.587 14.4513  -2
   0   3   4 243.587 14.4513   1
   1  -7   4 729.822 27.7626  -2
   1   3   4 729.822 27.7626   1
   2  -8   4 1131.68 40.3603  -2
   2   3   4 1131.68 40.3603   1
   3  -9   4 4.82116 16.3452  -2
   3   3   4 4.82116 16.3452   1
   4 -10   4 78.9627 8.20973  -2
   4   3   4 78.9627 8.20973   1
   5 -11   4 102.850 8.53487  -2
   5   3   4 102.850 8.53487   1
   6 -12   4 23.6178 6.85206  -2
   6   3   4 23.6178 6.85206   1
   7 -13   4 783.583 31.6205  -2
   7   3   4 783.583 31.6205   1
   8 -14   4 115.984 10.7971  -2
   8   3   4 115.984 10.7971   1
   9 -15   4 2.10255 9.30833  -2
   9   3   4 2.10255 9.30833   1
  10 -16   4 38.7111 9.87175  -2
  10   3   4 38.7111 9.87175   1
  11 -17   4 8.70905 9.70265  -2
  11   3   4 8.70905 9.70265   1
 -11   4   4 72.6617 22.4292  -2
 -11   4   4 72.6617 22.4292   1
 -10   3   4 286.841 27.4332  -2
 -10   4   4 286.841 27.4332   1
  -9   2   4 312.235 27.4101  -2
  -9   4   4 312.235 27.4101   1
  -8   1   4 52.3424 17.2388  -2
  -8   4   4 52.3424 17.2388   1
  -7   0   4 221.093 14.8179  -2
  -7   4   4 221.093 14.8179   1
  -6  -1   4 1360.00 81.9187  -2
  -6   4   4 1360.00 81.9187   1
  -5  -2   4 174.295 19.8215  -2
  -5   4   4 174.295 19.8215   1
  -4  -3   4 233.909 21.9589  -2
  -4   4   4 233.909 21.9589   1
  -2  -5   4 1272.96 62.7337  -2
  -2   4   4 1272.96 62.7337   1
  -1  -6   4 5079.24 171.456  -2
  -1   4   4 5079.24 171.456   1
   0  -7   4 549.871 22.5400  -2
   0   4   4 549.871 22.5400   1
   1  -8   4 267.941 14.1536  -2
   1   4   4 267.941 14.1536   1
   2  -9   4 433.232 18.4303  -2
   2   4   4 433.232 18.4303   1
   3 -10   4 162.923 10.0719  -2
   3   4   4 162.923 10.0719   1
   4 -11   4 678.465 27.4748  -2
   4   4   4 678.465 27.4748   1
   5 -12   4 70.8516 8.42622  -2
   5   4   4 70.8516 8.42622   1
   6 -13   4 76.8957 8.22049  -2
   6   4   4 76.8957 8.22049   1
   7 -14   4 28.4898 8.65516  -2
   7   4   4 28.4898 8.65516   1
   8 -15   4 23.3732 9.09361  -2
   8   4   4 23.3732 9.09361   1
   9 -16   4 71.6589 9.57140  -2
   9   4   4 71.6589 9.57140   1
  10 -17   4 124.518 11.2194  -2
  10   4   4 124.518 11.2194   1
  11 -18   4 17.6090 9.84495  -2
  11   4   4 17.6090 9.84495   1
 -12   3   4 184.863 30.0135  -2
 -12   5   4 184.863 30.0135   1
 -11   3   4 -3.4696 21.6928  -2
 -11   5   4 -3.4696 21.6928   1
 -10   2   4 22.5736 20.5570  -2
 -10   5   4 22.5736 20.5570   1
  -9   1   4 98.0451 20.2032  -2
  -9   5   4 98.0451 20.2032   1
  -8   0   4 17.3797 11.5148  -2
  -8   5   4 17.3797 11.5148   1
  -7  -1   4 1102.97 48.4427  -2
  -7   5   4 1102.97 48.4427   1
  -6  -2   4 152.238 11.6926  -2
  -6   5   4 152.238 11.6926   1
  -5  -3   4 129.990 16.0491  -2
  -5   5   4 129.990 16.0491   1
  -4  -4   4 830.171 42.7574  -2
  -4   5   4 830.171 42.7574   1
  -3  -5   4 909.324 46.3151  -2
  -3   5   4 909.324 46.3151   1
  -1  -7   4 935.929 32.3600  -2
  -1   5   4 935.929 32.3600   1
   0  -8   4 171.467 12.9448  -2
   0   5   4 171.467 12.9448   1
   1  -9   4 297.534 16.3955  -2
   1   5   4 297.534 16.3955   1
   2 -10   4 633.830 28.1396  -2
   2   5   4 633.830 28.1396   1
   3 -11   4 356.824 16.7124  -2
   3   5   4 356.824 16.7124   1
   4 -12   4 61.3373 8.42021  -2
   4   5   4 61.3373 8.42021   1
   5 -13   4 151.905 10.0301  -2
   5   5   4 151.905 10.0301   1
   6 -14   4 90.3698 9.17182  -2
   6   5   4 90.3698 9.17182   1
   7 -15   4 237.415 13.4261  -2
   7   5   4 237.415 13.4261   1
   8 -16   4 6.98418 9.09364  -2
   8   5   4 6.98418 9.09364   1
   9 -17   4 -1.7338 8.84078  -2
   9   5   4 -1.7338 8.84078   1
  10 -18   4 11.2838 9.84959  -2
  10   5   4 11.2838 9.84959   1
  11 -19   4 9.37810 9.93073  -2
  11   5   4 9.37810 9.93073   1
 -12   2   4 356.201 32.7141  -2
 -12   6   4 356.201 32.7141   1
 -11   2   4 13.7805 20.2417  -2
 -11   6   4 13.7805 20.2417   1
 -10   1   4 194.546 17.9491  -2
 -10   6   4 194.546 17.9491   1
  -9   0   4 290.283 18.6800  -2
  -9   6   4 290.283 18.6800   1
  -8  -1   4 70.6544 13.5494  -2
  -8   6   4 70.6544 13.5494   1
  -7  -2   4 138.162 11.8263  -2
  -7   6   4 138.162 11.8263   1
  -6  -3   4 22.9648 10.7503  -2
  -6   6   4 22.9648 10.7503   1
  -5  -4   4 508.920 21.7599  -2
  -5   6   4 508.920 21.7599   1
  -4  -5   4 797.977 50.7490  -2
  -4   6   4 797.977 50.7490   1
  -3  -6   4 113.765 18.1988  -2
  -3   6   4 113.765 18.1988   1
  -2  -7   4 273.916 23.0150  -2
  -2   6   4 273.916 23.0150   1
  -1  -8   4 767.539 33.7628  -2
  -1   6   4 767.539 33.7628   1
   0  -9   4 188.504 13.1045  -2
   0   6   4 188.504 13.1045   1
   1 -10   4 1257.35 52.5085  -2
   1   6   4 1257.35 52.5085   1
   2 -11   4 258.621 11.0642  -2
   2   6   4 258.621 11.0642   1
   3 -12   4 170.086 8.47513  -2
   3   6   4 170.086 8.47513   1
   4 -13   4 539.369 22.7710  -2
   4   6   4 539.369 22.7710   1
   5 -14   4 433.990 19.5106  -2
   5   6   4 433.990 19.5106   1
   6 -15   4 693.174 22.6687  -2
   6   6   4 693.174 22.6687   1
   7 -16   4 107.096 10.1679  -2
   7   6   4 107.096 10.1679   1
   8 -17   4 24.3567 9.32961  -2
   8   6   4 24.3567 9.32961   1
   9 -18   4 10.0974 11.0594  -2
   9   6   4 10.0974 11.0594   1
  10 -19   4 60.3615 10.3974  -2
  10   6   4 60.3615 10.3974   1
 -12   1   4 154.331 25.3612  -2
 -12   7   4 154.331 25.3612   1
 -11   1   4 1.32621 20.5821  -2
 -11   7   4 1.32621 20.5821   1
 -10   0   4 170.269 25.6246  -2
 -10   7   4 170.269 25.6246   1
  -9  -1   4 65.5278 15.2458  -2
  -9   7   4 65.5278 15.2458   1
  -8  -2   4 139.036 14.5698  -2
  -8   7   4 139.036 14.5698   1
  -7  -3   4 1175.87 51.7655  -2
  -7   7   4 1175.87 51.7655   1
  -6  -4   4 402.240 14.8459  -2
  -6   7   4 402.240 14.8459   1
  -5  -5   4 193.539 13.4584  -2
  -5   7   4 193.539 13.4584   1
  -4  -6   4 425.418 25.6214  -2
  -4   7   4 425.418 25.6214   1
  -3  -7   4 100.011 18.0954  -2
  -3   7   4 100.011 18.0954   1
  -2  -8   4 228.884 21.7629  -2
  -2   7   4 228.884 21.7629   1
  -1  -9   4 1349.40 56.2990  -2
  -1   7   4 1349.40 56.2990   1
   0 -10   4 266.076 16.1838  -2
   0   7   4 266.076 16.1838   1
   1 -11   4 13.4206 7.23655  -2
   1   7   4 13.4206 7.23655   1
   2 -12   4 14.0490 6.78133  -2
   2   7   4 14.0490 6.78133   1
   3 -13   4 61.2588 6.67354  -2
   3   7   4 61.2588 6.67354   1
   4 -14   4 707.143 28.8226  -2
   4   7   4 707.143 28.8226   1
   5 -15   4 9.79877 8.97546  -2
   5   7   4 9.79877 8.97546   1
   6 -16   4 53.0002 9.00040  -2
   6   7   4 53.0002 9.00040   1
   7 -17   4 932.823 37.2389  -2
   7   7   4 932.823 37.2389   1
   8 -18   4 195.701 13.3374  -2
   8   7   4 195.701 13.3374   1
   9 -19   4 132.075 11.5086  -2
   9   7   4 132.075 11.5086   1
  10 -20   4 25.8317 9.73792  -2
  10   7   4 25.8317 9.73792   1
 -10  -1   4 148.161 23.0490  -2
 -10   8   4 148.161 23.0490   1
  -9  -2   4 399.444 23.3175  -2
  -9   8   4 399.444 23.3175   1
  -8  -3   4 149.926 15.5720  -2
  -8   8   4 149.926 15.5720   1
  -7  -4   4 28.0949 13.3630  -2
  -7   8   4 28.0949 13.3630   1
  -6  -5   4 354.353 14.7097  -2
  -6   8   4 354.353 14.7097   1
  -5  -6   4 451.019 16.4060  -2
  -5   8   4 451.019 16.4060   1
  -4  -7   4 1099.46 38.4186  -2
  -4   8   4 1099.46 38.4186   1
  -3  -8   4 147.330 16.3447  -2
  -3   8   4 147.330 16.3447   1
  -2  -9   4 0.48931 14.8295  -2
  -2   8   4 0.48931 14.8295   1
  -1 -10   4 42.7261 11.6909  -2
  -1   8   4 42.7261 11.6909   1
   0 -11   4 136.893 8.74402  -2
   0   8   4 136.893 8.74402   1
   1 -12   4 99.3215 8.62233  -2
   1   8   4 99.3215 8.62233   1
   2 -13   4 471.846 16.9377  -2
   2   8   4 471.846 16.9377   1
   3 -14   4 13.2179 7.15924  -2
   3   8   4 13.2179 7.15924   1
   4 -15   4 -0.5936 9.11217  -2
   4   8   4 -0.5936 9.11217   1
   5 -16   4 5.32680 8.70837  -2
   5   8   4 5.32680 8.70837   1
   6 -17   4 55.8413 10.1166  -2
   6   8   4 55.8413 10.1166   1
   7 -18   4 442.572 20.3175  -2
   7   8   4 442.572 20.3175   1
   8 -19   4 17.2194 9.51766  -2
   8   8   4 17.2194 9.51766   1
   9 -20   4 2.70044 10.0706  -2
   9   8   4 2.70044 10.0706   1
 -13   0   4 32.2617 28.9710  -2
 -13   9   4 32.2617 28.9710   1
 -10  -2   4 111.081 18.3586  -2
 -10   9   4 111.081 18.3586   1
  -9  -3   4 191.976 16.2286  -2
  -9   9   4 191.976 16.2286   1
  -8  -4   4 -0.5324 13.4250  -2
  -8   9   4 -0.5324 13.4250   1
  -7  -5   4 411.501 22.3930  -2
  -7   9   4 411.501 22.3930   1
  -6  -6   4 499.562 19.2737  -2
  -6   9   4 499.562 19.2737   1
  -5  -7   4 270.164 11.8575  -2
  -5   9   4 270.164 11.8575   1
  -4  -8   4 509.699 27.8567  -2
  -4   9   4 509.699 27.8567   1
  -3  -9   4 676.018 34.0082  -2
  -3   9   4 676.018 34.0082   1
  -2 -10   4 115.552 14.9896  -2
  -2   9   4 115.552 14.9896   1
  -1 -11   4 1887.79 54.1344  -2
  -1   9   4 1887.79 54.1344   1
   0 -12   4 86.1979 8.78875  -2
   0   9   4 86.1979 8.78875   1
   1 -13   4 148.893 9.08158  -2
   1   9   4 148.893 9.08158   1
   2 -14   4 14.3806 6.86980  -2
   2   9   4 14.3806 6.86980   1
   3 -15   4 66.8182 7.26476  -2
   3   9   4 66.8182 7.26476   1
   4 -16   4 307.058 15.6084  -2
   4   9   4 307.058 15.6084   1
   5 -17   4 112.759 10.5350  -2
   5   9   4 112.759 10.5350   1
   6 -18   4 86.5834 10.7102  -2
   6   9   4 86.5834 10.7102   1
   7 -19   4 13.7303 9.86915  -2
   7   9   4 13.7303 9.86915   1
   8 -20   4 36.1306 9.67680  -2
   8   9   4 36.1306 9.67680   1
   9 -21   4 16.3507 9.90321  -2
   9   9   4 16.3507 9.90321   1
 -10  -3   4 21.6976 16.2917  -2
 -10  10   4 21.6976 16.2917   1
  -9  -4   4 217.126 17.3447  -2
  -9  10   4 217.126 17.3447   1
  -8  -5   4 57.0917 14.6480  -2
  -8  10   4 57.0917 14.6480   1
  -7  -6   4 577.189 21.9870  -2
  -7  10   4 577.189 21.9870   1
  -6  -7   4 670.862 24.5487  -2
  -6  10   4 670.862 24.5487   1
  -5  -8   4 87.4577 9.74918  -2
  -5  10   4 87.4577 9.74918   1
  -4  -9   4 33.4023 14.9111  -2
  -4  10   4 33.4023 14.9111   1
  -3 -10   4 308.304 13.8662  -2
  -3  10   4 308.304 13.8662   1
  -2 -11   4 820.308 32.8492  -2
  -2  10   4 820.308 32.8492   1
  -1 -12   4 286.423 13.9118  -2
  -1  10   4 286.423 13.9118   1
   0 -13   4 167.233 10.6387  -2
   0  10   4 167.233 10.6387   1
   1 -14   4 94.2243 7.93768  -2
   1  10   4 94.2243 7.93768   1
   2 -15   4 99.8029 12.0990  -2
   2  10   4 99.8029 12.0990   1
   3 -16   4 213.491 11.9478  -2
   3  10   4 213.491 11.9478   1
   4 -17   4 163.436 23.9055  -2
   4  10   4 163.436 23.9055   1
   5 -18   4 17.4759 9.60267  -2
   5  10   4 17.4759 9.60267   1
   6 -19   4 86.8817 11.0897  -2
   6  10   4 86.8817 11.0897   1
   7 -20   4 112.622 11.3423  -2
   7  10   4 112.622 11.3423   1
   8 -21   4 3.73839 10.1406  -2
   8  10   4 3.73839 10.1406   1
   9 -22   4 22.4276 10.1060  -2
   9  10   4 22.4276 10.1060   1
 -10  -4   4 249.385 21.8913  -2
 -10  11   4 249.385 21.8913   1
  -9  -5   4 140.662 19.8113  -2
  -9  11   4 140.662 19.8113   1
  -8  -6   4 34.2233 15.7519  -2
  -8  11   4 34.2233 15.7519   1
  -7  -7   4 -12.075 8.98803  -2
  -7  11   4 -12.075 8.98803   1
  -6  -8   4 44.0410 8.92351  -2
  -6  11   4 44.0410 8.92351   1
  -5  -9   4 106.276 19.2647  -2
  -5  11   4 106.276 19.2647   1
  -4 -10   4 279.979 14.0742  -2
  -4  11   4 279.979 14.0742   1
  -3 -11   4 193.467 11.3690  -2
  -3  11   4 193.467 11.3690   1
  -2 -12   4 11.8228 7.70312  -2
  -2  11   4 11.8228 7.70312   1
  -1 -13   4 137.833 9.01044  -2
  -1  11   4 137.833 9.01044   1
   0 -14   4 468.295 20.1703  -2
   0  11   4 468.295 20.1703   1
   1 -15   4 585.273 20.8459  -2
   1  11   4 585.273 20.8459   1
   2 -16   4 156.005 14.1560  -2
   2  11   4 156.005 14.1560   1
   3 -17   4 38.3021 14.6878  -2
   3  11   4 38.3021 14.6878   1
   4 -18   4 21.9270 22.0518  -2
   4  11   4 21.9270 22.0518   1
   5 -19   4 176.505 12.5274  -2
   5  11   4 176.505 12.5274   1
   6 -20   4 90.2572 11.2393  -2
   6  11   4 90.2572 11.2393   1
   7 -21   4 43.0436 10.3544  -2
   7  11   4 43.0436 10.3544   1
   8 -22   4 -17.751 10.2333  -2
   8  11   4 -17.751 10.2333   1
 -10  -5   4 73.5655 26.4741  -2
 -10  12   4 73.5655 26.4741   1
  -9  -6   4 22.5175 18.7670  -2
  -9  12   4 22.5175 18.7670   1
  -8  -7   4 80.6945 12.3182  -2
  -8  12   4 80.6945 12.3182   1
  -7  -8   4 209.727 12.2325  -2
  -7  12   4 209.727 12.2325   1
  -6  -9   4 416.577 20.5387  -2
  -6  12   4 416.577 20.5387   1
  -5 -10   4 30.3808 18.4659  -2
  -5  12   4 30.3808 18.4659   1
  -4 -11   4 110.952 19.1464  -2
  -4  12   4 110.952 19.1464   1
  -3 -12   4 17.2297 7.99604  -2
  -3  12   4 17.2297 7.99604   1
  -2 -13   4 49.0028 8.65331  -2
  -2  12   4 49.0028 8.65331   1
  -1 -14   4 424.554 31.3568  -2
  -1  12   4 424.554 31.3568   1
   0 -15   4 143.917 19.9388  -2
   0  12   4 143.917 19.9388   1
   1 -16   4 130.718 11.3898  -2
   1  12   4 130.718 11.3898   1
   2 -17   4 34.9935 16.6744  -2
   2  12   4 34.9935 16.6744   1
   3 -18   4 -26.113 22.0206  -2
   3  12   4 -26.113 22.0206   1
   4 -19   4 233.268 26.8371  -2
   4  12   4 233.268 26.8371   1
   5 -20   4 135.827 12.2697  -2
   5  12   4 135.827 12.2697   1
   6 -21   4 44.8335 10.2455  -2
   6  12   4 44.8335 10.2455   1
   7 -22   4 11.0475 10.3771  -2
   7  12   4 11.0475 10.3771   1
   8 -23   4 37.4118 23.1007  -2
   8  12   4 37.4118 23.1007   1
 -13  13   4 16.0676 17.9015   1
 -10  -6   4 140.907 27.9251  -2
 -10  13   4 140.907 27.9251   1
  -9  -7   4 928.562 62.8841  -2
  -9  13   4 928.562 62.8841   1
  -8  -8   4 120.814 13.5613  -2
  -8  13   4 120.814 13.5613   1
  -7  -9   4 139.045 11.2566  -2
  -7  13   4 139.045 11.2566   1
  -6 -10   4 49.7641 10.9514  -2
  -6  13   4 49.7641 10.9514   1
  -4 -12   4 175.329 11.3661  -2
  -4  13   4 175.329 11.3661   1
  -3 -13   4 84.6613 9.50261  -2
  -3  13   4 84.6613 9.50261   1
  -2 -14   4 66.0109 19.7183  -2
  -2  13   4 66.0109 19.7183   1
   0 -16   4 11.9096 11.5800  -2
   0  13   4 11.9096 11.5800   1
   3 -19   4 11.6259 22.8306  -2
   3  13   4 11.6259 22.8306   1
   4 -20   4 -15.897 23.2089  -2
   4  13   4 -15.897 23.2089   1
   5 -21   4 -5.2046 10.0946  -2
   5  13   4 -5.2046 10.0946   1
   6 -22   4 6.34588 10.7350  -2
   6  13   4 6.34588 10.7350   1
   7 -23   4 53.7351 10.3505  -2
   7  13   4 53.7351 10.3505   1
  -9  -8   4 136.230 27.2445  -2
  -9  14   4 136.230 27.2445   1
  -8  -9   4 41.7453 13.0732  -2
  -8  14   4 41.7453 13.0732   1
  -7 -10   4 125.333 15.8446  -2
  -7  14   4 125.333 15.8446   1
  -6 -11   4 408.805 26.0659  -2
  -6  14   4 408.805 26.0659   1
  -4 -13   4 561.196 39.7891  -2
  -4  14   4 561.196 39.7891   1
  -3 -14   4 58.9667 20.0707  -2
  -3  14   4 58.9667 20.0707   1
  -2 -15   4 205.851 24.5837  -2
  -2  14   4 205.851 24.5837   1
   3 -20   4 -7.6236 22.9877  -2
   3  14   4 -7.6236 22.9877   1
   4 -21   4 16.4708 23.7779  -2
   4  14   4 16.4708 23.7779   1
   5 -22   4 58.1405 11.3171  -2
   5  14   4 58.1405 11.3171   1
   6 -23   4 4.79560 11.2712  -2
   6  14   4 4.79560 11.2712   1
  -8 -10   4 51.9578 15.7042  -2
  -8  15   4 51.9578 15.7042   1
  -7 -11   4 98.9944 16.4601  -2
  -7  15   4 98.9944 16.4601   1
  -6 -12   4 80.3713 12.1049  -2
  -6  15   4 80.3713 12.1049   1
   3 -21   4 101.520 25.0503  -2
   3  15   4 101.520 25.0503   1
   4 -22   4 62.3765 25.2901  -2
   4  15   4 62.3765 25.2901   1
   5 -23   4 -8.6682 11.3682  -2
   5  15   4 -8.6682 11.3682   1
   6 -24   4 10.6436 10.7385  -2
   6  15   4 10.6436 10.7385   1
  -8 -11   4 39.7548 17.5497  -2
  -8  16   4 39.7548 17.5497   1
  -7 -12   4 1.32773 15.7401  -2
  -7  16   4 1.32773 15.7401   1
   3 -22   4 -4.5395 25.3569  -2
   3  16   4 -4.5395 25.3569   1
   4 -23   4 -1.2935 25.7849  -2
   4  16   4 -1.2935 25.7849   1
   5 -24   4 123.753 13.0836  -2
   5  16   4 123.753 13.0836   1
  -9 -11   4 11.7404 18.0922  -2
  -9  17   4 11.7404 18.0922   1
  -7 -13   4 73.9417 16.7609  -2
  -7  17   4 73.9417 16.7609   1
   3 -23   4 54.6291 27.8712  -2
   3  17   4 54.6291 27.8712   1
   4 -24   4 89.8609 12.8856  -2
   4  17   4 89.8609 12.8856   1
  -9 -12   4 210.506 22.6294  -2
  -9  18   4 210.506 22.6294   1
  -8 -13   4 73.2366 20.1472  -2
  -8  18   4 73.2366 20.1472   1
  -7 -14   4 -12.380 16.0223  -2
  -7  18   4 -12.380 16.0223   1
   3 -24   4 18.4321 29.7452  -2
   3  18   4 18.4321 29.7452   1
  -9 -13   4 82.6846 20.3158  -2
  -9  19   4 82.6846 20.3158   1
  -8 -14   4 8.13559 18.9084  -2
  -8  19   4 8.13559 18.9084   1
  -7 -15   4 5.71650 16.7935  -2
  -7  19   4 5.71650 16.7935   1
  -8 -15   4 -4.0413 19.6770  -2
  -8  20   4 -4.0413 19.6770   1
  -7 -16   4 47.9416 15.1372  -2
  -7  20   4 47.9416 15.1372   1
  -8 -16   4 -7.5420 20.5353  -2
  -8  21   4 -7.5420 20.5353   1
  -7 -17   4 3.65582 16.5231  -2
  -7  21   4 3.65582 16.5231   1
   0  20   5 -10.173 11.9556  -2
   0 -24   5 -10.173 11.9556   1
   3  17   5 61.3382 19.1643  -2
   3 -24   5 61.3382 19.1643   1
   4  16   5 55.4475 21.4624  -2
   4 -24   5 55.4475 21.4624   1
   5  15   5 7.08607 22.6600  -2
   5 -24   5 7.08607 22.6600   1
   6  14   5 -17.810 23.4876  -2
   6 -24   5 -17.810 23.4876   1
  -2  21   5 -8.9986 12.6128  -2
  -2 -23   5 -8.9986 12.6128   1
  -1  20   5 50.6701 12.8933  -2
  -1 -23   5 50.6701 12.8933   1
   0  19   5 80.9458 11.4011  -2
   0 -23   5 80.9458 11.4011   1
   2  17   5 17.3648 16.7334  -2
   2 -23   5 17.3648 16.7334   1
   3  16   5 6.40726 17.5439  -2
   3 -23   5 6.40726 17.5439   1
   4  15   5 14.3985 20.2829  -2
   4 -23   5 14.3985 20.2829   1
   5  14   5 146.321 24.6345  -2
   5 -23   5 146.321 24.6345   1
   6  13   5 28.0773 23.4380  -2
   6 -23   5 28.0773 23.4380   1
   7  12   5 15.6141 25.4917  -2
   7 -23   5 15.6141 25.4917   1
   8  11   5 -0.9050 23.2269  -2
   8 -23   5 -0.9050 23.2269   1
  -3  21   5 -11.649 11.7392  -2
  -3 -22   5 -11.649 11.7392   1
  -2  20   5 12.4302 11.2392  -2
  -2 -22   5 12.4302 11.2392   1
  -1  19   5 105.953 13.6777  -2
  -1 -22   5 105.953 13.6777   1
   0  18   5 89.1937 12.1950  -2
   0 -22   5 89.1937 12.1950   1
   2  16   5 166.069 21.6048  -2
   2 -22   5 166.069 21.6048   1
   3  15   5 178.528 22.1502  -2
   3 -22   5 178.528 22.1502   1
   4  14   5 55.6629 17.8912  -2
   4 -22   5 55.6629 17.8912   1
   5  13   5 22.8689 18.8752  -2
   5 -22   5 22.8689 18.8752   1
   6  12   5 23.3572 23.0561  -2
   6 -22   5 23.3572 23.0561   1
   7  11   5 6.55312 16.8202  -2
   7 -22   5 6.55312 16.8202   1
   8  10   5 81.0026 25.6875  -2
   8 -22   5 81.0026 25.6875   1
   9   9   5 38.5964 24.1217  -2
   9 -22   5 38.5964 24.1217   1
  -4  21   5 28.2207 12.1599  -2
  -4 -21   5 28.2207 12.1599   1
  -3  20   5 44.0288 12.4969  -2
  -3 -21   5 44.0288 12.4969   1
  -2  19   5 32.0048 12.2063  -2
  -2 -21   5 32.0048 12.2063   1
  -1  18   5 6.24118 11.6604  -2
  -1 -21   5 6.24118 11.6604   1
   0  17   5 15.3249 10.7291  -2
   0 -21   5 15.3249 10.7291   1
   1  16   5 6.76548 14.6575  -2
   1 -21   5 6.76548 14.6575   1
   2  15   5 231.935 22.8543  -2
   2 -21   5 231.935 22.8543   1
   3  14   5 207.012 21.1986  -2
   3 -21   5 207.012 21.1986   1
   4  13   5 -17.125 19.2975  -2
   4 -21   5 -17.125 19.2975   1
   5  12   5 -16.948 20.1211  -2
   5 -21   5 -16.948 20.1211   1
   6  11   5 164.860 17.6356  -2
   6 -21   5 164.860 17.6356   1
   7  10   5 50.0200 16.8147  -2
   7 -21   5 50.0200 16.8147   1
   8   9   5 92.1919 17.1552  -2
   8 -21   5 92.1919 17.1552   1
   9   8   5 32.6895 16.8672  -2
   9 -21   5 32.6895 16.8672   1
  -5  21   5 36.4169 13.6930  -2
  -5 -20   5 36.4169 13.6930   1
  -4  20   5 15.7383 12.7763  -2
  -4 -20   5 15.7383 12.7763   1
  -3  19   5 19.4344 11.8699  -2
  -3 -20   5 19.4344 11.8699   1
  -2  18   5 1.94423 10.1504  -2
  -2 -20   5 1.94423 10.1504   1
  -1  17   5 74.1503 12.2769  -2
  -1 -20   5 74.1503 12.2769   1
   0  16   5 132.847 11.9925  -2
   0 -20   5 132.847 11.9925   1
   1  15   5 83.9868 8.91842  -2
   1 -20   5 83.9868 8.91842   1
   2  14   5 9.75043 15.3947  -2
   2 -20   5 9.75043 15.3947   1
   3  13   5 31.4852 7.97896  -2
   3 -20   5 31.4852 7.97896   1
   4  12   5 19.1409 19.1688  -2
   4 -20   5 19.1409 19.1688   1
   5  11   5 345.027 31.5680  -2
   5 -20   5 345.027 31.5680   1
   6  10   5 187.474 18.3517  -2
   6 -20   5 187.474 18.3517   1
   7   9   5 9.71059 16.0878  -2
   7 -20   5 9.71059 16.0878   1
   8   8   5 56.1144 17.1586  -2
   8 -20   5 56.1144 17.1586   1
   9   7   5 63.6945 17.8838  -2
   9 -20   5 63.6945 17.8838   1
  10   6   5 239.759 22.5346  -2
  10 -20   5 239.759 22.5346   1
  -6  21   5 29.8063 13.4205  -2
  -6 -19   5 29.8063 13.4205   1
  -5  20   5 8.82899 12.7753  -2
  -5 -19   5 8.82899 12.7753   1
  -4  19   5 9.99825 12.1843  -2
  -4 -19   5 9.99825 12.1843   1
  -3  18   5 161.723 14.5259  -2
  -3 -19   5 161.723 14.5259   1
  -2  17   5 15.3983 9.88384  -2
  -2 -19   5 15.3983 9.88384   1
  -1  16   5 126.099 13.1150  -2
  -1 -19   5 126.099 13.1150   1
   0  15   5 -4.8354 8.11208  -2
   0 -19   5 -4.8354 8.11208   1
   1  14   5 38.0756 7.88895  -2
   1 -19   5 38.0756 7.88895   1
   2  13   5 86.6001 16.7232  -2
   2 -19   5 86.6001 16.7232   1
   3  12   5 -1.0596 14.4170  -2
   3 -19   5 -1.0596 14.4170   1
   4  11   5 36.7909 19.3755  -2
   4 -19   5 36.7909 19.3755   1
   5  10   5 109.736 14.9623  -2
   5 -19   5 109.736 14.9623   1
   6   9   5 38.0201 14.1102  -2
   6 -19   5 38.0201 14.1102   1
   7   8   5 10.7207 15.5449  -2
   7 -19   5 10.7207 15.5449   1
   8   7   5 236.376 20.1496  -2
   8 -19   5 236.376 20.1496   1
   9   6   5 129.381 18.2450  -2
   9 -19   5 129.381 18.2450   1
  10   5   5 36.7391 17.5570  -2
  10 -19   5 36.7391 17.5570   1
  -7 -18   5 -7.3316 11.0154   1
  -6  20   5 22.0223 12.9791  -2
  -6 -18   5 22.0223 12.9791   1
  -5  19   5 84.0673 12.5525  -2
  -5 -18   5 84.0673 12.5525   1
  -4  18   5 122.856 13.6403  -2
  -4 -18   5 122.856 13.6403   1
  -3  17   5 147.818 13.7676  -2
  -3 -18   5 147.818 13.7676   1
  -2  16   5 135.990 12.5849  -2
  -2 -18   5 135.990 12.5849   1
  -1  15   5 87.5303 11.7172  -2
  -1 -18   5 87.5303 11.7172   1
   0  14   5 171.212 10.7692  -2
   0 -18   5 171.212 10.7692   1
   1  13   5 60.4024 7.89557  -2
   1 -18   5 60.4024 7.89557   1
   2  12   5 96.1952 16.6524  -2
   2 -18   5 96.1952 16.6524   1
   3  11   5 -2.8009 16.8349  -2
   3 -18   5 -2.8009 16.8349   1
   4  10   5 -4.3972 11.9688  -2
   4 -18   5 -4.3972 11.9688   1
   5   9   5 242.689 14.0225  -2
   5 -18   5 242.689 14.0225   1
   6   8   5 261.633 18.9722  -2
   6 -18   5 261.633 18.9722   1
   7   7   5 180.399 17.5894  -2
   7 -18   5 180.399 17.5894   1
   8   6   5 5.74217 15.5626  -2
   8 -18   5 5.74217 15.5626   1
   9   5   5 21.2503 15.3928  -2
   9 -18   5 21.2503 15.3928   1
  10   4   5 15.3076 17.8038  -2
  10 -18   5 15.3076 17.8038   1
  11   3   5 87.5099 19.8517  -2
  11 -18   5 87.5099 19.8517   1
  -7  20   5 22.9047 12.8315  -2
  -7 -17   5 22.9047 12.8315   1
  -6  19   5 17.0937 12.4100  -2
  -6 -17   5 17.0937 12.4100   1
  -5  18   5 202.137 13.3022  -2
  -5 -17   5 202.137 13.3022   1
  -4  17   5 36.0255 11.5483  -2
  -4 -17   5 36.0255 11.5483   1
  -3  16   5 47.7490 9.61995  -2
  -3 -17   5 47.7490 9.61995   1
  -2  15   5 212.798 15.3915  -2
  -2 -17   5 212.798 15.3915   1
  -1  14   5 179.312 13.8353  -2
  -1 -17   5 179.312 13.8353   1
   0  13   5 162.677 10.1619  -2
   0 -17   5 162.677 10.1619   1
   1  12   5 23.6468 6.98894  -2
   1 -17   5 23.6468 6.98894   1
   2  11   5 26.3345 11.5874  -2
   2 -17   5 26.3345 11.5874   1
   3  10   5 625.753 42.9970  -2
   3 -17   5 625.753 42.9970   1
   4   9   5 191.910 15.8951  -2
   4 -17   5 191.910 15.8951   1
   5   8   5 480.980 25.5865  -2
   5 -17   5 480.980 25.5865   1
   6   7   5 126.963 15.1458  -2
   6 -17   5 126.963 15.1458   1
   7   6   5 66.3245 15.4881  -2
   7 -17   5 66.3245 15.4881   1
   8   5   5 200.145 17.7619  -2
   8 -17   5 200.145 17.7619   1
   9   4   5 26.0431 14.9807  -2
   9 -17   5 26.0431 14.9807   1
  10   3   5 82.7816 17.1439  -2
  10 -17   5 82.7816 17.1439   1
  11   2   5 37.8544 17.5439  -2
  11 -17   5 37.8544 17.5439   1
  -8  20   5 22.0838 12.9417  -2
  -8 -16   5 22.0838 12.9417   1
  -7  19   5 22.2365 12.5547  -2
  -7 -16   5 22.2365 12.5547   1
  -6  18   5 60.4428 12.2142  -2
  -6 -16   5 60.4428 12.2142   1
  -5  17   5 -3.6588 18.5487  -2
  -5 -16   5 -3.6588 18.5487   1
  -4  16   5 27.1687 10.8678  -2
  -4 -16   5 27.1687 10.8678   1
  -3  15   5 122.624 10.4614  -2
  -3 -16   5 122.624 10.4614   1
  -2  14   5 364.713 21.4631  -2
  -2 -16   5 364.713 21.4631   1
  -1  13   5 213.110 14.2463  -2
  -1 -16   5 213.110 14.2463   1
   0  12   5 -3.0043 6.59675  -2
   0 -16   5 -3.0043 6.59675   1
   1  11   5 199.222 18.9728  -2
   1 -16   5 199.222 18.9728   1
   2  10   5 407.881 21.3116  -2
   2 -16   5 407.881 21.3116   1
   3   9   5 573.035 39.7158  -2
   3 -16   5 573.035 39.7158   1
   4   8   5 97.6838 11.7256  -2
   4 -16   5 97.6838 11.7256   1
   5   7   5 29.1233 18.1365  -2
   5 -16   5 29.1233 18.1365   1
   6   6   5 352.575 21.3968  -2
   6 -16   5 352.575 21.3968   1
   7   5   5 327.309 20.9339  -2
   7 -16   5 327.309 20.9339   1
   8   4   5 95.3423 15.2740  -2
   8 -16   5 95.3423 15.2740   1
   9   3   5 45.4901 16.2969  -2
   9 -16   5 45.4901 16.2969   1
  10   2   5 25.2836 17.0975  -2
  10 -16   5 25.2836 17.0975   1
  11   1   5 47.5871 17.9421  -2
  11 -16   5 47.5871 17.9421   1
  12   0   5 13.5723 23.9825  -2
  12 -16   5 13.5723 23.9825   1
  -8  19   5 -7.2045 12.1865  -2
  -8 -15   5 -7.2045 12.1865   1
  -7  18   5 4.01168 11.8717  -2
  -7 -15   5 4.01168 11.8717   1
  -6  17   5 108.926 12.8493  -2
  -6 -15   5 108.926 12.8493   1
  -5  16   5 -0.2374 9.36958  -2
  -5 -15   5 -0.2374 9.36958   1
  -4  15   5 108.680 9.76450  -2
  -4 -15   5 108.680 9.76450   1
  -3  14   5 52.8199 8.81186  -2
  -3 -15   5 52.8199 8.81186   1
  -2  13   5 126.674 10.9834  -2
  -2 -15   5 126.674 10.9834   1
  -1  12   5 140.677 9.69661  -2
  -1 -15   5 140.677 9.69661   1
   0  11   5 540.766 19.1688  -2
   0 -15   5 540.766 19.1688   1
   1  10   5 235.382 14.7875  -2
   1 -15   5 235.382 14.7875   1
   2   9   5 160.448 12.2489  -2
   2 -15   5 160.448 12.2489   1
   3   8   5 130.818 12.7648  -2
   3 -15   5 130.818 12.7648   1
   4   7   5 13.5832 8.47855  -2
   4 -15   5 13.5832 8.47855   1
   5   6   5 399.742 21.9950  -2
   5 -15   5 399.742 21.9950   1
   6   5   5 187.893 13.8260  -2
   6 -15   5 187.893 13.8260   1
   7   4   5 144.551 14.2148  -2
   7 -15   5 144.551 14.2148   1
   8   3   5 65.8642 13.0763  -2
   8 -15   5 65.8642 13.0763   1
   9   2   5 50.3054 14.7923  -2
   9 -15   5 50.3054 14.7923   1
  10   1   5 221.124 19.5696  -2
  10 -15   5 221.124 19.5696   1
  11   0   5 220.747 19.9552  -2
  11 -15   5 220.747 19.9552   1
  12  -1   5 22.2966 18.5850  -2
  12 -15   5 22.2966 18.5850   1
  -9  19   5 -2.9993 11.9967  -2
  -9 -14   5 -2.9993 11.9967   1
  -8  18   5 103.606 13.3367  -2
  -8 -14   5 103.606 13.3367   1
  -7  17   5 32.8820 11.7367  -2
  -7 -14   5 32.8820 11.7367   1
  -6  16   5 113.971 12.6278  -2
  -6 -14   5 113.971 12.6278   1
  -5  15   5 10.7993 8.82376  -2
  -5 -14   5 10.7993 8.82376   1
  -4  14   5 27.4846 8.51611  -2
  -4 -14   5 27.4846 8.51611   1
  -3  13   5 411.068 18.0234  -2
  -3 -14   5 411.068 18.0234   1
  -2  12   5 45.2694 9.00845  -2
  -2 -14   5 45.2694 9.00845   1
  -1  11   5 93.5476 8.59254  -2
  -1 -14   5 93.5476 8.59254   1
   0  10   5 209.476 11.2456  -2
   0 -14   5 209.476 11.2456   1
   1   9   5 361.105 18.6948  -2
   1 -14   5 361.105 18.6948   1
   2   8   5 90.7765 10.9020  -2
   2 -14   5 90.7765 10.9020   1
   3   7   5 102.473 10.9478  -2
   3 -14   5 102.473 10.9478   1
   4   6   5 21.8698 10.0968  -2
   4 -14   5 21.8698 10.0968   1
   5   5   5 168.400 13.8313  -2
   5 -14   5 168.400 13.8313   1
   6   4   5 43.8970 11.3757  -2
   6 -14   5 43.8970 11.3757   1
   7   3   5 146.209 13.8421  -2
   7 -14   5 146.209 13.8421   1
   8   2   5 558.232 24.5207  -2
   8 -14   5 558.232 24.5207   1
   9   1   5 92.3593 14.9319  -2
   9 -14   5 92.3593 14.9319   1
  10   0   5 61.6554 16.6576  -2
  10 -14   5 61.6554 16.6576   1
  11  -1   5 32.7051 16.3999  -2
  11 -14   5 32.7051 16.3999   1
  12  -2   5 50.1758 18.4721  -2
  12 -14   5 50.1758 18.4721   1
 -10 -13   5 13.2045 9.80201   1
  -9  18   5 58.2227 12.8850  -2
  -9 -13   5 58.2227 12.8850   1
  -8  17   5 144.729 14.5525  -2
  -8 -13   5 144.729 14.5525   1
  -7  16   5 35.1102 11.3766  -2
  -7 -13   5 35.1102 11.3766   1
  -6  15   5 3.66676 10.4752  -2
  -6 -13   5 3.66676 10.4752   1
  -5  14   5 90.9680 9.00508  -2
  -5 -13   5 90.9680 9.00508   1
  -4  13   5 297.146 14.3491  -2
  -4 -13   5 297.146 14.3491   1
  -3  12   5 703.012 23.8074  -2
  -3 -13   5 703.012 23.8074   1
  -2  11   5 8.35020 6.72198  -2
  -2 -13   5 8.35020 6.72198   1
  -1  10   5 16.6191 6.93261  -2
  -1 -13   5 16.6191 6.93261   1
   0   9   5 458.588 31.3872  -2
   0 -13   5 458.588 31.3872   1
   1   8   5 79.6420 15.0038  -2
   1 -13   5 79.6420 15.0038   1
   2   7   5 967.867 35.0854  -2
   2 -13   5 967.867 35.0854   1
   3   6   5 42.4349 7.74391  -2
   3 -13   5 42.4349 7.74391   1
   4   5   5 254.453 12.5214  -2
   4 -13   5 254.453 12.5214   1
   5   4   5 99.2960 12.7489  -2
   5 -13   5 99.2960 12.7489   1
   6   3   5 0.04546 10.7719  -2
   6 -13   5 0.04546 10.7719   1
   7   2   5 41.9184 12.0070  -2
   7 -13   5 41.9184 12.0070   1
   8   1   5 25.8425 11.6759  -2
   8 -13   5 25.8425 11.6759   1
   9   0   5 169.590 17.1560  -2
   9 -13   5 169.590 17.1560   1
  10  -1   5 78.9711 16.0978  -2
  10 -13   5 78.9711 16.0978   1
  11  -2   5 94.2790 17.5432  -2
  11 -13   5 94.2790 17.5432   1
  12  -3   5 -18.751 25.1620  -2
  12 -13   5 -18.751 25.1620   1
 -10  18   5 110.754 13.8161  -2
 -10 -12   5 110.754 13.8161   1
  -9  17   5 17.7656 11.3751  -2
  -9 -12   5 17.7656 11.3751   1
  -8  16   5 12.6739 10.9517  -2
  -8 -12   5 12.6739 10.9517   1
  -7  15   5 10.6626 11.3924  -2
  -7 -12   5 10.6626 11.3924   1
  -6  14   5 103.946 9.46022  -2
  -6 -12   5 103.946 9.46022   1
  -5  13   5 206.201 10.8451  -2
  -5 -12   5 206.201 10.8451   1
  -4  12   5 54.5440 6.90036  -2
  -4 -12   5 54.5440 6.90036   1
  -3  11   5 56.4371 6.90906  -2
  -3 -12   5 56.4371 6.90906   1
  -2  10   5 69.6939 7.44177  -2
  -2 -12   5 69.6939 7.44177   1
  -1   9   5 799.481 31.9277  -2
  -1 -12   5 799.481 31.9277   1
   0   8   5 759.030 47.7020  -2
   0 -12   5 759.030 47.7020   1
   1   7   5 224.645 16.2762  -2
   1 -12   5 224.645 16.2762   1
   2   6   5 165.805 9.63435  -2
   2 -12   5 165.805 9.63435   1
   3   5   5 415.656 16.8004  -2
   3 -12   5 415.656 16.8004   1
   4   4   5 121.638 11.7078  -2
   4 -12   5 121.638 11.7078   1
   5   3   5 475.718 20.4099  -2
   5 -12   5 475.718 20.4099   1
   6   2   5 43.5577 10.8809  -2
   6 -12   5 43.5577 10.8809   1
   7   1   5 63.3497 11.2348  -2
   7 -12   5 63.3497 11.2348   1
   8   0   5 -4.1070 12.0380  -2
   8 -12   5 -4.1070 12.0380   1
   9  -1   5 20.1985 12.5592  -2
   9 -12   5 20.1985 12.5592   1
  10  -2   5 179.247 18.2818  -2
  10 -12   5 179.247 18.2818   1
  11  -3   5 104.210 17.3188  -2
  11 -12   5 104.210 17.3188   1
  12  -4   5 22.1355 25.1350  -2
  12 -12   5 22.1355 25.1350   1
  -9  16   5 78.1080 11.7467  -2
  -9 -11   5 78.1080 11.7467   1
  -8  15   5 68.9100 11.9060  -2
  -8 -11   5 68.9100 11.9060   1
  -7  14   5 176.735 13.9752  -2
  -7 -11   5 176.735 13.9752   1
  -6  13   5 -3.9222 7.83028  -2
  -6 -11   5 -3.9222 7.83028   1
  -5  12   5 180.048 9.85041  -2
  -5 -11   5 180.048 9.85041   1
  -4  11   5 10.4048 6.61104  -2
  -4 -11   5 10.4048 6.61104   1
  -3  10   5 262.310 11.5508  -2
  -3 -11   5 262.310 11.5508   1
  -2   9   5 1010.67 34.5976  -2
  -2 -11   5 1010.67 34.5976   1
  -1   8   5 31.4753 6.42628  -2
  -1 -11   5 31.4753 6.42628   1
   0   7   5 152.112 12.4970  -2
   0 -11   5 152.112 12.4970   1
   1   6   5 98.7317 11.2369  -2
   1 -11   5 98.7317 11.2369   1
   2   5   5 1073.91 39.7537  -2
   2 -11   5 1073.91 39.7537   1
   3   4   5 757.392 27.9807  -2
   3 -11   5 757.392 27.9807   1
   4   3   5 14.0103 8.30958  -2
   4 -11   5 14.0103 8.30958   1
   5   2   5 51.6758 10.1776  -2
   5 -11   5 51.6758 10.1776   1
   6   1   5 158.597 12.4280  -2
   6 -11   5 158.597 12.4280   1
   7   0   5 234.580 12.5621  -2
   7 -11   5 234.580 12.5621   1
   8  -1   5 497.491 19.5040  -2
   8 -11   5 497.491 19.5040   1
   9  -2   5 209.211 15.0636  -2
   9 -11   5 209.211 15.0636   1
  10  -3   5 32.6596 14.4222  -2
  10 -11   5 32.6596 14.4222   1
  11  -4   5 53.4588 21.7018  -2
  11 -11   5 53.4588 21.7018   1
  12  -5   5 75.7660 25.6749  -2
  12 -11   5 75.7660 25.6749   1
  -9  15   5 133.207 13.4170  -2
  -9 -10   5 133.207 13.4170   1
  -8  14   5 -10.345 10.6007  -2
  -8 -10   5 -10.345 10.6007   1
  -7  13   5 21.6683 9.71315  -2
  -7 -10   5 21.6683 9.71315   1
  -6  12   5 210.599 11.0228  -2
  -6 -10   5 210.599 11.0228   1
  -5  11   5 257.120 11.3765  -2
  -5 -10   5 257.120 11.3765   1
  -4  10   5 47.8385 6.43870  -2
  -4 -10   5 47.8385 6.43870   1
  -3   9   5 277.357 14.6942  -2
  -3 -10   5 277.357 14.6942   1
  -2   8   5 373.421 18.2538  -2
  -2 -10   5 373.421 18.2538   1
  -1   7   5 3148.72 262.684  -2
  -1 -10   5 3148.72 262.684   1
   0   6   5 1729.21 61.9031  -2
   0 -10   5 1729.21 61.9031   1
   1   5   5 226.487 13.4583  -2
   1 -10   5 226.487 13.4583   1
   2   4   5 1161.32 42.6308  -2
   2 -10   5 1161.32 42.6308   1
   3   3   5 141.846 9.08094  -2
   3 -10   5 141.846 9.08094   1
   5   1   5 1215.96 38.6607  -2
   5 -10   5 1215.96 38.6607   1
   6   0   5 676.900 23.6142  -2
   6 -10   5 676.900 23.6142   1
   7  -1   5 24.6322 9.73028  -2
   7 -10   5 24.6322 9.73028   1
   8  -2   5 567.351 21.1802  -2
   8 -10   5 567.351 21.1802   1
   9  -3   5 53.5200 12.4152  -2
   9 -10   5 53.5200 12.4152   1
  10  -4   5 577.005 29.6262  -2
  10 -10   5 577.005 29.6262   1
  11  -5   5 413.158 34.5366  -2
  11 -10   5 413.158 34.5366   1
  -9  14   5 3.34755 10.8154  -2
  -9  -9   5 3.34755 10.8154   1
  -8  13   5 337.632 20.0996  -2
  -8  -9   5 337.632 20.0996   1
  -7  12   5 78.4087 10.1628  -2
  -7  -9   5 78.4087 10.1628   1
  -6  11   5 579.563 18.8208  -2
  -6  -9   5 579.563 18.8208   1
  -5  10   5 37.4012 6.61041  -2
  -5  -9   5 37.4012 6.61041   1
  -4   9   5 63.4052 6.56519  -2
  -4  -9   5 63.4052 6.56519   1
  -3   8   5 1248.46 82.4033  -2
  -3  -9   5 1248.46 82.4033   1
  -1   6   5 1023.17 40.2323  -2
  -1  -9   5 1023.17 40.2323   1
   2   3   5 2039.50 59.1093  -2
   2  -9   5 2039.50 59.1093   1
   3   2   5 1922.34 68.1234  -2
   3  -9   5 1922.34 68.1234   1
   4   1   5 126.440 11.3288  -2
   4  -9   5 126.440 11.3288   1
   5   0   5 633.170 19.3519  -2
   5  -9   5 633.170 19.3519   1
   6  -1   5 100.356 8.49496  -2
   6  -9   5 100.356 8.49496   1
   9  -4   5 882.316 40.3652  -2
   9  -9   5 882.316 40.3652   1
  10  -5   5 359.317 21.9218  -2
  10  -9   5 359.317 21.9218   1
  11  -6   5 80.7275 23.3903  -2
  11  -9   5 80.7275 23.3903   1
  12  -7   5 22.4904 24.4313  -2
  12  -9   5 22.4904 24.4313   1
  -9  13   5 38.9763 10.9382  -2
  -9  -8   5 38.9763 10.9382   1
  -8  12   5 416.400 23.6631  -2
  -8  -8   5 416.400 23.6631   1
  -7  11   5 31.4158 8.27924  -2
  -7  -8   5 31.4158 8.27924   1
  -6  10   5 102.085 8.65597  -2
  -6  -8   5 102.085 8.65597   1
  -5   9   5 811.986 27.3729  -2
  -5  -8   5 811.986 27.3729   1
  -4   8   5 175.017 11.0773  -2
  -4  -8   5 175.017 11.0773   1
  -3   7   5 1840.78 116.739  -2
  -3  -8   5 1840.78 116.739   1
   0   4   5 437.182 21.7605  -2
   0  -8   5 437.182 21.7605   1
   1   3   5 61.9052 9.37248  -2
   1  -8   5 61.9052 9.37248   1
   2   2   5 2060.97 63.6729  -2
   2  -8   5 2060.97 63.6729   1
   3   1   5 45.7674 6.69677  -2
   3  -8   5 45.7674 6.69677   1
   4   0   5 301.262 11.7637  -2
   4  -8   5 301.262 11.7637   1
   5  -1   5 305.844 11.6884  -2
   5  -8   5 305.844 11.6884   1
   6  -2   5 273.819 11.1853  -2
   6  -8   5 273.819 11.1853   1
   7  -3   5 92.0968 9.57019  -2
   7  -8   5 92.0968 9.57019   1
   9  -5   5 372.737 21.7941  -2
   9  -8   5 372.737 21.7941   1
  10  -6   5 6.18644 18.5013  -2
  10  -8   5 6.18644 18.5013   1
  11  -7   5 98.4276 23.8196  -2
  11  -8   5 98.4276 23.8196   1
  12  -8   5 16.6927 24.4578  -2
  12  -8   5 16.6927 24.4578   1
  -9  12   5 26.6160 10.2361  -2
  -9  -7   5 26.6160 10.2361   1
  -8  11   5 44.8531 9.83962  -2
  -8  -7   5 44.8531 9.83962   1
  -7  10   5 14.1902 7.62236  -2
  -7  -7   5 14.1902 7.62236   1
  -6   9   5 580.565 23.3458  -2
  -6  -7   5 580.565 23.3458   1
  -5   8   5 1391.41 59.0661  -2
  -5  -7   5 1391.41 59.0661   1
  -4   7   5 376.442 19.6749  -2
  -4  -7   5 376.442 19.6749   1
  -2   5   5 3035.38 108.111  -2
  -2  -7   5 3035.38 108.111   1
  -1   4   5 509.981 23.4334  -2
  -1  -7   5 509.981 23.4334   1
   0   3   5 3283.08 116.716  -2
   0  -7   5 3283.08 116.716   1
   1   2   5 215.906 15.0415  -2
   1  -7   5 215.906 15.0415   1
   2   1   5 421.541 14.2445  -2
   2  -7   5 421.541 14.2445   1
   3   0   5 651.888 19.7092  -2
   3  -7   5 651.888 19.7092   1
   4  -1   5 153.410 9.86117  -2
   4  -7   5 153.410 9.86117   1
   5  -2   5 1529.41 41.8393  -2
   5  -7   5 1529.41 41.8393   1
   6  -3   5 25.7981 8.33275  -2
   6  -7   5 25.7981 8.33275   1
   7  -4   5 18.7828 6.46223  -2
   7  -7   5 18.7828 6.46223   1
   8  -5   5 62.3169 11.6255  -2
   8  -7   5 62.3169 11.6255   1
   9  -6   5 213.819 16.0658  -2
   9  -7   5 213.819 16.0658   1
  10  -7   5 195.649 25.2574  -2
  10  -7   5 195.649 25.2574   1
  11  -8   5 63.7375 22.4525  -2
  11  -7   5 63.7375 22.4525   1
  12  -9   5 56.0024 24.2059  -2
  12  -7   5 56.0024 24.2059   1
  -8  10   5 106.023 11.0308  -2
  -8  -6   5 106.023 11.0308   1
  -7   9   5 336.783 15.0581  -2
  -7  -6   5 336.783 15.0581   1
  -6   8   5 107.869 14.7829  -2
  -6  -6   5 107.869 14.7829   1
  -5   7   5 179.812 8.27979  -2
  -5  -6   5 179.812 8.27979   1
  -4   6   5 185.723 11.9918  -2
  -4  -6   5 185.723 11.9918   1
  -3   5   5 858.837 33.8472  -2
  -3  -6   5 858.837 33.8472   1
  -2   4   5 1146.90 43.4911  -2
  -2  -6   5 1146.90 43.4911   1
  -1   3   5 155.702 13.9755  -2
  -1  -6   5 155.702 13.9755   1
   0   2   5 381.707 19.6722  -2
   0  -6   5 381.707 19.6722   1
   1   1   5 168.140 10.6743  -2
   1  -6   5 168.140 10.6743   1
   2   0   5 556.126 17.3556  -2
   2  -6   5 556.126 17.3556   1
   3  -1   5 3398.47 90.7197  -2
   3  -6   5 3398.47 90.7197   1
   4  -2   5 272.255 12.6092  -2
   4  -6   5 272.255 12.6092   1
   5  -3   5 114.205 5.62492  -2
   5  -6   5 114.205 5.62492   1
   6  -4   5 231.170 8.24617  -2
   6  -6   5 231.170 8.24617   1
   7  -5   5 179.650 10.3512  -2
   7  -6   5 179.650 10.3512   1
   8  -6   5 837.782 38.0956  -2
   8  -6   5 837.782 38.0956   1
   9  -7   5 167.759 24.5915  -2
   9  -6   5 167.759 24.5915   1
  10  -8   5 16.2574 22.1291  -2
  10  -6   5 16.2574 22.1291   1
  11  -9   5 67.9856 21.9966  -2
  11  -6   5 67.9856 21.9966   1
  -8   9   5 108.567 7.63388  -2
  -8  -5   5 108.567 7.63388   1
  -7   8   5 80.0492 7.76746  -2
  -7  -5   5 80.0492 7.76746   1
  -6   7   5 216.635 11.2325  -2
  -6  -5   5 216.635 11.2325   1
  -5   6   5 334.362 22.4871  -2
  -5  -5   5 334.362 22.4871   1
  -3   4   5 152.937 8.92976  -2
  -3  -5   5 152.937 8.92976   1
  -2   3   5 232.497 15.5345  -2
  -2  -5   5 232.497 15.5345   1
  -1   2   5 3.20011 11.5481  -2
  -1  -5   5 3.20011 11.5481   1
   0   1   5 760.455 30.8103  -2
   0  -5   5 760.455 30.8103   1
   1   0   5 347.753 14.3321  -2
   1  -5   5 347.753 14.3321   1
   2  -1   5 24.7325 6.56407  -2
   2  -5   5 24.7325 6.56407   1
   3  -2   5 334.225 13.8104  -2
   3  -5   5 334.225 13.8104   1
   4  -3   5 297.371 13.0130  -2
   4  -5   5 297.371 13.0130   1
   5  -4   5 839.869 21.0812  -2
   5  -5   5 839.869 21.0812   1
   6  -5   5 1404.81 37.2703  -2
   6  -5   5 1404.81 37.2703   1
   7  -6   5 189.609 11.3519  -2
   7  -5   5 189.609 11.3519   1
   8  -7   5 60.9979 11.2644  -2
   8  -5   5 60.9979 11.2644   1
   9  -8   5 408.977 32.8536  -2
   9  -5   5 408.977 32.8536   1
  10  -9   5 328.682 31.0998  -2
  10  -5   5 328.682 31.0998   1
  11 -10   5 430.680 35.1241  -2
  11  -5   5 430.680 35.1241   1
  -9   9   5 34.1476 9.11661  -2
  -9  -4   5 34.1476 9.11661   1
  -8   8   5 229.285 15.2405  -2
  -8  -4   5 229.285 15.2405   1
  -7   7   5 39.9839 7.90357  -2
  -7  -4   5 39.9839 7.90357   1
  -6   6   5 280.958 13.0660  -2
  -6  -4   5 280.958 13.0660   1
  -5   5   5 80.8408 9.54733  -2
  -5  -4   5 80.8408 9.54733   1
  -4   4   5 52.0183 11.8953  -2
  -4  -4   5 52.0183 11.8953   1
  -3   3   5 1918.87 69.0241  -2
  -3  -4   5 1918.87 69.0241   1
  -2   2   5 325.794 17.7736  -2
  -2  -4   5 325.794 17.7736   1
  -1   1   5 471.687 21.5212  -2
  -1  -4   5 471.687 21.5212   1
   0   0   5 883.373 28.6323  -2
   0  -4   5 883.373 28.6323   1
   1  -1   5 1167.29 36.7622  -2
   1  -4   5 1167.29 36.7622   1
   2  -2   5 63.7043 11.7835  -2
   2  -4   5 63.7043 11.7835   1
   3  -3   5 975.623 30.8962  -2
   3  -4   5 975.623 30.8962   1
   4  -4   5 67.7782 8.39925  -2
   4  -4   5 67.7782 8.39925   1
   5  -5   5 835.490 22.7237  -2
   5  -4   5 835.490 22.7237   1
   6  -6   5 219.634 8.34485  -2
   6  -4   5 219.634 8.34485   1
   7  -7   5 21.4768 4.97984  -2
   7  -4   5 21.4768 4.97984   1
   8  -8   5 66.4388 8.32798  -2
   8  -4   5 66.4388 8.32798   1
   9  -9   5 964.973 39.4395  -2
   9  -4   5 964.973 39.4395   1
  10 -10   5 532.480 23.9122  -2
  10  -4   5 532.480 23.9122   1
  -9   8   5 89.6037 10.5246  -2
  -9  -3   5 89.6037 10.5246   1
  -8   7   5 514.793 29.4298  -2
  -8  -3   5 514.793 29.4298   1
  -7   6   5 94.5224 9.41158  -2
  -7  -3   5 94.5224 9.41158   1
  -6   5   5 212.450 20.6261  -2
  -6  -3   5 212.450 20.6261   1
  -5   4   5 12.0954 15.8473  -2
  -5  -3   5 12.0954 15.8473   1
  -4   3   5 632.170 30.7413  -2
  -4  -3   5 632.170 30.7413   1
  -3   2   5 1481.55 53.9574  -2
  -3  -3   5 1481.55 53.9574   1
  -2   1   5 3213.73 113.830  -2
  -2  -3   5 3213.73 113.830   1
  -1   0   5 174.948 10.1669  -2
  -1  -3   5 174.948 10.1669   1
   0  -1   5 1033.48 33.0159  -2
   0  -3   5 1033.48 33.0159   1
   1  -2   5 300.353 17.1012  -2
   1  -3   5 300.353 17.1012   1
   2  -3   5 4172.25 142.909  -2
   2  -3   5 4172.25 142.909   1
   3  -4   5 786.527 25.4970  -2
   3  -3   5 786.527 25.4970   1
   4  -5   5 259.282 11.9420  -2
   4  -3   5 259.282 11.9420   1
   5  -6   5 71.8838 5.92638  -2
   5  -3   5 71.8838 5.92638   1
   6  -7   5 43.7550 4.96838  -2
   6  -3   5 43.7550 4.96838   1
   7  -8   5 99.0950 6.54029  -2
   7  -3   5 99.0950 6.54029   1
   8  -9   5 15.2246 7.41574  -2
   8  -3   5 15.2246 7.41574   1
   9 -10   5 64.5737 9.43649  -2
   9  -3   5 64.5737 9.43649   1
  10 -11   5 -1.8846 10.2939  -2
  10  -3   5 -1.8846 10.2939   1
  11 -12   5 105.985 12.6570  -2
  11  -3   5 105.985 12.6570   1
  12 -13   5 4.45730 11.5904  -2
  12  -3   5 4.45730 11.5904   1
  -9   7   5 139.048 11.6642  -2
  -9  -2   5 139.048 11.6642   1
  -8   6   5 53.1913 8.53132  -2
  -8  -2   5 53.1913 8.53132   1
  -7   5   5 221.338 11.5624  -2
  -7  -2   5 221.338 11.5624   1
  -6   4   5 277.880 23.1405  -2
  -6  -2   5 277.880 23.1405   1
  -5   3   5 1745.38 107.616  -2
  -5  -2   5 1745.38 107.616   1
  -4   2   5 59.2929 12.5042  -2
  -4  -2   5 59.2929 12.5042   1
  -3   1   5 5525.18 238.063  -2
  -3  -2   5 5525.18 238.063   1
  -2   0   5 75.1034 11.6580  -2
  -2  -2   5 75.1034 11.6580   1
  -1  -1   5 92.8205 9.32562  -2
  -1  -2   5 92.8205 9.32562   1
   0  -2   5 4388.93 190.342  -2
   0  -2   5 4388.93 190.342   1
   1  -3   5 341.445 17.9935  -2
   1  -2   5 341.445 17.9935   1
   2  -4   5 61.6694 11.3843  -2
   2  -2   5 61.6694 11.3843   1
   3  -5   5 259.174 12.0915  -2
   3  -2   5 259.174 12.0915   1
   4  -6   5 319.452 13.2839  -2
   4  -2   5 319.452 13.2839   1
   5  -7   5 1425.78 37.1589  -2
   5  -2   5 1425.78 37.1589   1
   6  -8   5 278.139 9.37537  -2
   6  -2   5 278.139 9.37537   1
   7  -9   5 39.3874 6.32937  -2
   7  -2   5 39.3874 6.32937   1
   8 -10   5 577.782 24.9418  -2
   8  -2   5 577.782 24.9418   1
   9 -11   5 236.457 13.6260  -2
   9  -2   5 236.457 13.6260   1
  10 -12   5 156.929 13.8350  -2
  10  -2   5 156.929 13.8350   1
  11 -13   5 59.3544 12.1607  -2
  11  -2   5 59.3544 12.1607   1
  12 -14   5 -0.2069 12.3118  -2
  12  -2   5 -0.2069 12.3118   1
  -9   6   5 89.3081 9.82757  -2
  -9  -1   5 89.3081 9.82757   1
  -8   5   5 228.853 14.9747  -2
  -8  -1   5 228.853 14.9747   1
  -6   3   5 60.2425 14.6006  -2
  -6  -1   5 60.2425 14.6006   1
  -5   2   5 682.831 44.4580  -2
  -5  -1   5 682.831 44.4580   1
  -4   1   5 1413.59 62.6258  -2
  -4  -1   5 1413.59 62.6258   1
  -3   0   5 642.590 26.3194  -2
  -3  -1   5 642.590 26.3194   1
  -1  -2   5 80.8119 12.4243  -2
  -1  -1   5 80.8119 12.4243   1
   0  -3   5 878.982 34.0756  -2
   0  -1   5 878.982 34.0756   1
   1  -4   5 1012.48 37.8803  -2
   1  -1   5 1012.48 37.8803   1
   2  -5   5 7.48989 10.9221  -2
   2  -1   5 7.48989 10.9221   1
   3  -6   5 3545.48 121.860  -2
   3  -1   5 3545.48 121.860   1
   4  -7   5 156.605 8.83721  -2
   4  -1   5 156.605 8.83721   1
   5  -8   5 268.362 9.08563  -2
   5  -1   5 268.362 9.08563   1
   6  -9   5 98.6229 5.43220  -2
   6  -1   5 98.6229 5.43220   1
   7 -10   5 14.4329 5.96419  -2
   7  -1   5 14.4329 5.96419   1
   8 -11   5 529.838 23.0214  -2
   8  -1   5 529.838 23.0214   1
   9 -12   5 24.2280 10.3879  -2
   9  -1   5 24.2280 10.3879   1
  10 -13   5 41.1988 11.1681  -2
  10  -1   5 41.1988 11.1681   1
  11 -14   5 6.91004 11.0744  -2
  11  -1   5 6.91004 11.0744   1
  12 -15   5 -4.7033 12.3725  -2
  12  -1   5 -4.7033 12.3725   1
  -9   5   5 121.177 10.8970  -2
  -9   0   5 121.177 10.8970   1
  -8   4   5 133.984 10.6767  -2
  -8   0   5 133.984 10.6767   1
  -7   3   5 -8.4714 12.9001  -2
  -7   0   5 -8.4714 12.9001   1
  -6   2   5 285.277 15.3767  -2
  -6   0   5 285.277 15.3767   1
  -5   1   5 820.816 36.2186  -2
  -5   0   5 820.816 36.2186   1
  -4   0   5 56.9107 8.51623  -2
  -4   0   5 56.9107 8.51623   1
  -3  -1   5 647.303 22.3201  -2
  -3   0   5 647.303 22.3201   1
  -2  -2   5 110.478 7.34216  -2
  -2   0   5 110.478 7.34216   1
  -1  -3   5 169.647 9.97902  -2
  -1   0   5 169.647 9.97902   1
   0  -4   5 835.389 27.2724  -2
   0   0   5 835.389 27.2724   1
   1  -5   5 314.828 17.5951  -2
   1   0   5 314.828 17.5951   1
   2  -6   5 457.896 20.9738  -2
   2   0   5 457.896 20.9738   1
   3  -7   5 547.812 23.3762  -2
   3   0   5 547.812 23.3762   1
   4  -8   5 238.137 10.1575  -2
   4   0   5 238.137 10.1575   1
   5  -9   5 589.076 18.7746  -2
   5   0   5 589.076 18.7746   1
   6 -10   5 703.737 22.0549  -2
   6   0   5 703.737 22.0549   1
   7 -11   5 231.777 10.9692  -2
   7   0   5 231.777 10.9692   1
   8 -12   5 2.29418 8.72457  -2
   8   0   5 2.29418 8.72457   1
   9 -13   5 149.341 13.2137  -2
   9   0   5 149.341 13.2137   1
  10 -14   5 45.3473 11.0198  -2
  10   0   5 45.3473 11.0198   1
  11 -15   5 182.141 15.5797  -2
  11   0   5 182.141 15.5797   1
  12 -16   5 13.4157 13.3127  -2
  12   0   5 13.4157 13.3127   1
  -9   4   5 57.6320 7.62257  -2
  -9   1   5 57.6320 7.62257   1
  -8   3   5 432.382 25.0034  -2
  -8   1   5 432.382 25.0034   1
  -7   2   5 31.8943 12.0246  -2
  -7   1   5 31.8943 12.0246   1
  -6   1   5 1123.28 48.6647  -2
  -6   1   5 1123.28 48.6647   1
  -5   0   5 745.577 33.0472  -2
  -5   1   5 745.577 33.0472   1
  -4  -1   5 1340.42 47.7547  -2
  -4   1   5 1340.42 47.7547   1
  -3  -2   5 1945.13 161.722  -2
  -3   1   5 1945.13 161.722   1
  -2  -3   5 2957.89 87.9982  -2
  -2   1   5 2957.89 87.9982   1
  -1  -4   5 457.074 16.9289  -2
  -1   1   5 457.074 16.9289   1
   0  -5   5 730.702 24.3723  -2
   0   1   5 730.702 24.3723   1
   1  -6   5 204.958 14.7048  -2
   1   1   5 204.958 14.7048   1
   2  -7   5 447.498 20.5794  -2
   2   1   5 447.498 20.5794   1
   3  -8   5 41.4363 12.2894  -2
   3   1   5 41.4363 12.2894   1
   4  -9   5 171.289 8.60793  -2
   4   1   5 171.289 8.60793   1
   5 -10   5 967.890 32.4127  -2
   5   1   5 967.890 32.4127   1
   6 -11   5 125.175 8.59061  -2
   6   1   5 125.175 8.59061   1
   7 -12   5 50.6344 7.15995  -2
   7   1   5 50.6344 7.15995   1
   8 -13   5 12.6091 8.27929  -2
   8   1   5 12.6091 8.27929   1
   9 -14   5 102.972 11.6199  -2
   9   1   5 102.972 11.6199   1
  10 -15   5 142.699 13.7927  -2
  10   1   5 142.699 13.7927   1
  11 -16   5 25.8338 12.3532  -2
  11   1   5 25.8338 12.3532   1
 -10   4   5 16.3402 16.2111  -2
 -10   2   5 16.3402 16.2111   1
  -9   3   5 155.361 8.55201  -2
  -9   2   5 155.361 8.55201   1
  -8   2   5 1737.54 58.3220  -2
  -8   2   5 1737.54 58.3220   1
  -7   1   5 25.6762 12.1222  -2
  -7   2   5 25.6762 12.1222   1
  -6   0   5 281.863 15.1493  -2
  -6   2   5 281.863 15.1493   1
  -5  -1   5 713.822 31.7174  -2
  -5   2   5 713.822 31.7174   1
  -4  -2   5 36.3666 7.83823  -2
  -4   2   5 36.3666 7.83823   1
  -3  -3   5 1382.21 60.5971  -2
  -3   2   5 1382.21 60.5971   1
  -2  -4   5 367.203 15.0189  -2
  -2   2   5 367.203 15.0189   1
  -1  -5   5 39.9033 13.4512  -2
  -1   2   5 39.9033 13.4512   1
   0  -6   5 369.139 15.0267  -2
   0   2   5 369.139 15.0267   1
   1  -7   5 143.896 8.73991  -2
   1   2   5 143.896 8.73991   1
   2  -8   5 1903.76 66.9768  -2
   2   2   5 1903.76 66.9768   1
   3  -9   5 1659.24 53.8762  -2
   3   2   5 1659.24 53.8762   1
   4 -10   5 43.4549 5.90426  -2
   4   2   5 43.4549 5.90426   1
   5 -11   5 56.5444 6.84558  -2
   5   2   5 56.5444 6.84558   1
   6 -12   5 37.7963 7.18880  -2
   6   2   5 37.7963 7.18880   1
   7 -13   5 49.1754 7.96355  -2
   7   2   5 49.1754 7.96355   1
   8 -14   5 497.085 22.1853  -2
   8   2   5 497.085 22.1853   1
   9 -15   5 41.8332 10.2382  -2
   9   2   5 41.8332 10.2382   1
  10 -16   5 7.81341 10.7484  -2
  10   2   5 7.81341 10.7484   1
  11 -17   5 27.2492 12.3331  -2
  11   2   5 27.2492 12.3331   1
 -10   3   5 106.097 12.8833  -2
 -10   3   5 106.097 12.8833   1
  -9   2   5 173.058 9.03295  -2
  -9   3   5 173.058 9.03295   1
  -8   1   5 450.213 16.7894  -2
  -8   3   5 450.213 16.7894   1
  -7   0   5 6.38176 8.26765  -2
  -7   3   5 6.38176 8.26765   1
  -6  -1   5 75.6142 14.1190  -2
  -6   3   5 75.6142 14.1190   1
  -5  -2   5 1785.16 76.0855  -2
  -5   3   5 1785.16 76.0855   1
  -4  -3   5 566.474 22.6256  -2
  -4   3   5 566.474 22.6256   1
  -3  -4   5 1592.97 77.3485  -2
  -3   3   5 1592.97 77.3485   1
  -2  -5   5 242.976 11.4865  -2
  -2   3   5 242.976 11.4865   1
  -1  -6   5 149.337 10.1239  -2
  -1   3   5 149.337 10.1239   1
   0  -7   5 3006.55 89.6152  -2
   0   3   5 3006.55 89.6152   1
   1  -8   5 59.2265 6.88870  -2
   1   3   5 59.2265 6.88870   1
   2  -9   5 1698.19 58.6677  -2
   2   3   5 1698.19 58.6677   1
   3 -10   5 107.451 7.65105  -2
   3   3   5 107.451 7.65105   1
   4 -11   5 14.8093 6.07230  -2
   4   3   5 14.8093 6.07230   1
   5 -12   5 471.983 17.5533  -2
   5   3   5 471.983 17.5533   1
   6 -13   5 6.70043 6.83257  -2
   6   3   5 6.70043 6.83257   1
   7 -14   5 134.323 10.4063  -2
   7   3   5 134.323 10.4063   1
   8 -15   5 66.2738 9.85113  -2
   8   3   5 66.2738 9.85113   1
   9 -16   5 16.6829 9.76926  -2
   9   3   5 16.6829 9.76926   1
  10 -17   5 42.4647 10.4959  -2
  10   3   5 42.4647 10.4959   1
  11 -18   5 68.5040 13.2320  -2
  11   3   5 68.5040 13.2320   1
 -11   3   5 375.962 30.5148  -2
 -11   4   5 375.962 30.5148   1
 -10   2   5 17.5412 11.7053  -2
 -10   4   5 17.5412 11.7053   1
  -9   1   5 79.1614 7.16826  -2
  -9   4   5 79.1614 7.16826   1
  -8   0   5 163.005 12.7132  -2
  -8   4   5 163.005 12.7132   1
  -7  -1   5 70.9436 6.61984  -2
  -7   4   5 70.9436 6.61984   1
  -6  -2   5 254.834 16.7157  -2
  -6   4   5 254.834 16.7157   1
  -5  -3   5 38.1818 7.60232  -2
  -5   4   5 38.1818 7.60232   1
  -4  -4   5 45.8770 33.2109  -2
  -4   4   5 45.8770 33.2109   1
  -3  -5   5 153.479 14.1742  -2
  -3   4   5 153.479 14.1742   1
  -2  -6   5 1282.27 50.8400  -2
  -2   4   5 1282.27 50.8400   1
  -1  -7   5 437.290 18.4398  -2
  -1   4   5 437.290 18.4398   1
   0  -8   5 464.147 19.1851  -2
   0   4   5 464.147 19.1851   1
   1  -9   5 52.1783 7.42044  -2
   1   4   5 52.1783 7.42044   1
   2 -10   5 984.162 31.9333  -2
   2   4   5 984.162 31.9333   1
   3 -11   5 746.493 29.4439  -2
   3   4   5 746.493 29.4439   1
   4 -12   5 88.6473 8.06441  -2
   4   4   5 88.6473 8.06441   1
   5 -13   5 91.5846 7.47595  -2
   5   4   5 91.5846 7.47595   1
   6 -14   5 29.5871 6.84408  -2
   6   4   5 29.5871 6.84408   1
   7 -15   5 149.835 10.9396  -2
   7   4   5 149.835 10.9396   1
   8 -16   5 84.9560 10.2760  -2
   8   4   5 84.9560 10.2760   1
   9 -17   5 0.17396 9.84171  -2
   9   4   5 0.17396 9.84171   1
  10 -18   5 -0.4887 10.3907  -2
  10   4   5 -0.4887 10.3907   1
  11 -19   5 18.3633 12.5447  -2
  11   4   5 18.3633 12.5447   1
 -12   3   5 14.2074 20.2972  -2
 -12   5   5 14.2074 20.2972   1
 -11   2   5 102.019 14.4793  -2
 -11   5   5 102.019 14.4793   1
 -10   1   5 16.0965 11.6110  -2
 -10   5   5 16.0965 11.6110   1
  -9   0   5 130.480 12.6111  -2
  -9   5   5 130.480 12.6111   1
  -8  -1   5 269.601 16.2250  -2
  -8   5   5 269.601 16.2250   1
  -7  -2   5 211.474 9.13473  -2
  -7   5   5 211.474 9.13473   1
  -6  -3   5 223.016 13.7998  -2
  -6   5   5 223.016 13.7998   1
  -5  -4   5 108.478 13.6598  -2
  -5   5   5 108.478 13.6598   1
  -4  -5   5 236.015 17.2081  -2
  -4   5   5 236.015 17.2081   1
  -3  -6   5 770.188 32.9452  -2
  -3   5   5 770.188 32.9452   1
  -2  -7   5 2711.25 103.357  -2
  -2   5   5 2711.25 103.357   1
  -1  -8   5 36.9483 37.5409  -2
  -1   5   5 36.9483 37.5409   1
   0  -9   5 669.567 29.2883  -2
   0   5   5 669.567 29.2883   1
   1 -10   5 203.791 12.1106  -2
   1   5   5 203.791 12.1106   1
   2 -11   5 992.817 32.2143  -2
   2   5   5 992.817 32.2143   1
   3 -12   5 376.444 13.3531  -2
   3   5   5 376.444 13.3531   1
   4 -13   5 240.695 11.9158  -2
   4   5   5 240.695 11.9158   1
   5 -14   5 151.127 8.84350  -2
   5   5   5 151.127 8.84350   1
   6 -15   5 204.496 10.0048  -2
   6   5   5 204.496 10.0048   1
   7 -16   5 200.598 12.7460  -2
   7   5   5 200.598 12.7460   1
   8 -17   5 151.564 12.0010  -2
   8   5   5 151.564 12.0010   1
   9 -18   5 -17.968 9.80522  -2
   9   5   5 -17.968 9.80522   1
  10 -19   5 6.21092 10.3927  -2
  10   5   5 6.21092 10.3927   1
 -12   2   5 7.97078 14.4718  -2
 -12   6   5 7.97078 14.4718   1
 -11   1   5 768.476 36.4253  -2
 -11   6   5 768.476 36.4253   1
 -10   0   5 48.5609 12.6680  -2
 -10   6   5 48.5609 12.6680   1
  -9  -1   5 82.7474 11.7616  -2
  -9   6   5 82.7474 11.7616   1
  -8  -2   5 81.4034 7.60003  -2
  -8   6   5 81.4034 7.60003   1
  -7  -3   5 102.887 6.66856  -2
  -7   6   5 102.887 6.66856   1
  -6  -4   5 258.811 11.3779  -2
  -6   6   5 258.811 11.3779   1
  -5  -5   5 395.680 16.2667  -2
  -5   6   5 395.680 16.2667   1
  -4  -6   5 200.736 18.8453  -2
  -4   6   5 200.736 18.8453   1
  -3  -7   5 228.455 19.7028  -2
  -3   6   5 228.455 19.7028   1
  -2  -8   5 168.502 16.6275  -2
  -2   6   5 168.502 16.6275   1
  -1  -9   5 882.456 37.7283  -2
  -1   6   5 882.456 37.7283   1
   0 -10   5 1573.50 64.7887  -2
   0   6   5 1573.50 64.7887   1
   1 -11   5 114.890 6.91183  -2
   1   6   5 114.890 6.91183   1
   2 -12   5 211.935 8.60429  -2
   2   6   5 211.935 8.60429   1
   3 -13   5 42.9179 4.75233  -2
   3   6   5 42.9179 4.75233   1
   4 -14   5 20.4147 7.31800  -2
   4   6   5 20.4147 7.31800   1
   5 -15   5 332.267 15.5709  -2
   5   6   5 332.267 15.5709   1
   6 -16   5 291.511 12.7986  -2
   6   6   5 291.511 12.7986   1
   7 -17   5 38.6436 9.33284  -2
   7   6   5 38.6436 9.33284   1
   8 -18   5 1.27880 9.35125  -2
   8   6   5 1.27880 9.35125   1
   9 -19   5 124.805 11.7069  -2
   9   6   5 124.805 11.7069   1
  10 -20   5 148.907 13.2054  -2
  10   6   5 148.907 13.2054   1
 -13   2   5 364.472 33.3566  -2
 -13   7   5 364.472 33.3566   1
 -12   1   5 28.9153 21.3897  -2
 -12   7   5 28.9153 21.3897   1
 -11   0   5 173.351 17.0397  -2
 -11   7   5 173.351 17.0397   1
 -10  -1   5 4.85844 18.1518  -2
 -10   7   5 4.85844 18.1518   1
  -9  -2   5 159.685 14.4994  -2
  -9   7   5 159.685 14.4994   1
  -8  -3   5 490.341 15.6407  -2
  -8   7   5 490.341 15.6407   1
  -7  -4   5 46.7484 6.50985  -2
  -7   7   5 46.7484 6.50985   1
  -6  -5   5 256.500 11.6144  -2
  -6   7   5 256.500 11.6144   1
  -5  -6   5 251.782 11.5560  -2
  -5   7   5 251.782 11.5560   1
  -4  -7   5 329.083 15.7983  -2
  -4   7   5 329.083 15.7983   1
  -2  -9   5 185.729 17.4951  -2
  -2   7   5 185.729 17.4951   1
  -1 -10   5 346.308 17.9960  -2
  -1   7   5 346.308 17.9960   1
   0 -11   5 141.638 7.79924  -2
   0   7   5 141.638 7.79924   1
   1 -12   5 178.821 8.26866  -2
   1   7   5 178.821 8.26866   1
   2 -13   5 911.119 29.8104  -2
   2   7   5 911.119 29.8104   1
   3 -14   5 115.512 6.64352  -2
   3   7   5 115.512 6.64352   1
   4 -15   5 19.4521 7.13704  -2
   4   7   5 19.4521 7.13704   1
   5 -16   5 29.9469 8.09041  -2
   5   7   5 29.9469 8.09041   1
   6 -17   5 61.0144 9.27705  -2
   6   7   5 61.0144 9.27705   1
   7 -18   5 173.719 12.3009  -2
   7   7   5 173.719 12.3009   1
   8 -19   5 146.372 12.1069  -2
   8   7   5 146.372 12.1069   1
   9 -20   5 55.2801 10.4417  -2
   9   7   5 55.2801 10.4417   1
  10   7   5 4.04986 20.8721   1
 -13   1   5 -2.5903 22.9800  -2
 -13   8   5 -2.5903 22.9800   1
 -12   0   5 -4.5246 21.7955  -2
 -12   8   5 -4.5246 21.7955   1
 -11  -1   5 273.274 27.7250  -2
 -11   8   5 273.274 27.7250   1
 -10  -2   5 87.5364 20.3406  -2
 -10   8   5 87.5364 20.3406   1
  -9  -3   5 84.9938 10.7853  -2
  -9   8   5 84.9938 10.7853   1
  -8  -4   5 242.540 11.1389  -2
  -8   8   5 242.540 11.1389   1
  -7  -5   5 106.583 7.89080  -2
  -7   8   5 106.583 7.89080   1
  -6  -6   5 147.900 9.51338  -2
  -6   8   5 147.900 9.51338   1
  -5  -7   5 1502.04 51.7354  -2
  -5   8   5 1502.04 51.7354   1
  -4  -8   5 178.011 9.88106  -2
  -4   8   5 178.011 9.88106   1
  -2 -10   5 343.763 24.7038  -2
  -2   8   5 343.763 24.7038   1
  -1 -11   5 16.0320 6.15026  -2
  -1   8   5 16.0320 6.15026   1
   0 -12   5 791.841 26.2248  -2
   0   8   5 791.841 26.2248   1
   1 -13   5 66.0439 6.17847  -2
   1   8   5 66.0439 6.17847   1
   2 -14   5 95.5839 6.48246  -2
   2   8   5 95.5839 6.48246   1
   3 -15   5 146.792 7.80296  -2
   3   8   5 146.792 7.80296   1
   4 -16   5 79.5547 8.93786  -2
   4   8   5 79.5547 8.93786   1
   5 -17   5 370.060 15.7549  -2
   5   8   5 370.060 15.7549   1
   6 -18   5 237.014 13.7816  -2
   6   8   5 237.014 13.7816   1
   7 -19   5 -7.1365 9.64570  -2
   7   8   5 -7.1365 9.64570   1
   8 -20   5 11.6905 10.4313  -2
   8   8   5 11.6905 10.4313   1
   9 -21   5 -14.000 10.0204  -2
   9   8   5 -14.000 10.0204   1
 -13   0   5 11.9683 23.8450  -2
 -13   9   5 11.9683 23.8450   1
 -12  -1   5 97.6492 24.0571  -2
 -12   9   5 97.6492 24.0571   1
 -11  -2   5 116.923 21.1181  -2
 -11   9   5 116.923 21.1181   1
 -10  -3   5 -10.213 18.0077  -2
 -10   9   5 -10.213 18.0077   1
  -9  -4   5 33.7653 7.72002  -2
  -9   9   5 33.7653 7.72002   1
  -8  -5   5 123.529 8.57218  -2
  -8   9   5 123.529 8.57218   1
  -7  -6   5 425.556 15.4682  -2
  -7   9   5 425.556 15.4682   1
  -6  -7   5 571.104 24.8763  -2
  -6   9   5 571.104 24.8763   1
  -5  -8   5 853.415 30.7548  -2
  -5   9   5 853.415 30.7548   1
  -4  -9   5 77.0736 13.0324  -2
  -4   9   5 77.0736 13.0324   1
  -3 -10   5 232.488 16.8231  -2
  -3   9   5 232.488 16.8231   1
  -2 -11   5 1019.85 39.9418  -2
  -2   9   5 1019.85 39.9418   1
  -1 -12   5 578.880 19.7508  -2
  -1   9   5 578.880 19.7508   1
   0 -13   5 437.408 15.7928  -2
   0   9   5 437.408 15.7928   1
   1 -14   5 319.279 12.3690  -2
   1   9   5 319.279 12.3690   1
   2 -15   5 164.487 8.35393  -2
   2   9   5 164.487 8.35393   1
   3 -16   5 564.678 19.6537  -2
   3   9   5 564.678 19.6537   1
   4 -17   5 127.645 10.2430  -2
   4   9   5 127.645 10.2430   1
   5 -18   5 214.580 11.7095  -2
   5   9   5 214.580 11.7095   1
   6 -19   5 29.7386 9.32141  -2
   6   9   5 29.7386 9.32141   1
   7 -20   5 -11.499 9.90475  -2
   7   9   5 -11.499 9.90475   1
   8 -21   5 57.3362 10.3145  -2
   8   9   5 57.3362 10.3145   1
   9 -22   5 2.17381 10.6429  -2
   9   9   5 2.17381 10.6429   1
 -12  -2   5 -19.211 20.1268  -2
 -12  10   5 -19.211 20.1268   1
 -11  -3   5 37.2614 22.1188  -2
 -11  10   5 37.2614 22.1188   1
 -10  -4   5 72.5373 11.0995  -2
 -10  10   5 72.5373 11.0995   1
  -9  -5   5 121.877 9.22860  -2
  -9  10   5 121.877 9.22860   1
  -8  -6   5 126.856 9.21139  -2
  -8  10   5 126.856 9.21139   1
  -7  -7   5 27.7143 8.84694  -2
  -7  10   5 27.7143 8.84694   1
  -6  -8   5 124.477 9.78833  -2
  -6  10   5 124.477 9.78833   1
  -5  -9   5 79.8831 8.38481  -2
  -5  10   5 79.8831 8.38481   1
  -4 -10   5 46.2813 6.42721  -2
  -4  10   5 46.2813 6.42721   1
  -3 -11   5 269.568 12.7413  -2
  -3  10   5 269.568 12.7413   1
  -2 -12   5 90.8212 6.90666  -2
  -2  10   5 90.8212 6.90666   1
  -1 -13   5 20.1455 6.32610  -2
  -1  10   5 20.1455 6.32610   1
   0 -14   5 216.471 9.69718  -2
   0  10   5 216.471 9.69718   1
   1 -15   5 318.400 12.3622  -2
   1  10   5 318.400 12.3622   1
   2 -16   5 330.449 12.8540  -2
   2  10   5 330.449 12.8540   1
   3 -17   5 527.246 18.6858  -2
   3  10   5 527.246 18.6858   1
   4 -18   5 22.5583 10.1160  -2
   4  10   5 22.5583 10.1160   1
   5 -19   5 83.7767 9.37533  -2
   5  10   5 83.7767 9.37533   1
   6 -20   5 158.091 11.8409  -2
   6  10   5 158.091 11.8409   1
   7 -21   5 1.89675 23.1293  -2
   7  10   5 1.89675 23.1293   1
   8 -22   5 43.1678 9.94601  -2
   8  10   5 43.1678 9.94601   1
 -12  -3   5 -14.492 23.2833  -2
 -12  11   5 -14.492 23.2833   1
 -11  -4   5 552.838 41.0190  -2
 -11  11   5 552.838 41.0190   1
 -10  -5   5 105.599 11.4864  -2
 -10  11   5 105.599 11.4864   1
  -9  -6   5 58.8698 9.02761  -2
  -9  11   5 58.8698 9.02761   1
  -8  -7   5 71.5890 9.00436  -2
  -8  11   5 71.5890 9.00436   1
  -7  -8   5 65.2687 9.39031  -2
  -7  11   5 65.2687 9.39031   1
  -6  -9   5 654.398 21.7610  -2
  -6  11   5 654.398 21.7610   1
  -5 -10   5 264.573 10.4408  -2
  -5  11   5 264.573 10.4408   1
  -4 -11   5 16.4512 6.76243  -2
  -4  11   5 16.4512 6.76243   1
  -3 -12   5 85.2498 7.54271  -2
  -3  11   5 85.2498 7.54271   1
  -2 -13   5 24.9627 6.31751  -2
  -2  11   5 24.9627 6.31751   1
  -1 -14   5 67.3948 7.88060  -2
  -1  11   5 67.3948 7.88060   1
   0 -15   5 480.647 17.2931  -2
   0  11   5 480.647 17.2931   1
   1 -16   5 233.731 12.5023  -2
   1  11   5 233.731 12.5023   1
   2 -17   5 40.3552 6.77940  -2
   2  11   5 40.3552 6.77940   1
   3 -18   5 -10.821 8.10216  -2
   3  11   5 -10.821 8.10216   1
   4 -19   5 3.42436 18.7975  -2
   4  11   5 3.42436 18.7975   1
   5 -20   5 193.780 11.9892  -2
   5  11   5 193.780 11.9892   1
   6 -21   5 123.269 11.0474  -2
   6  11   5 123.269 11.0474   1
   7 -22   5 -9.0857 10.0960  -2
   7  11   5 -9.0857 10.0960   1
   8 -23   5 5.05695 10.3771  -2
   8  11   5 5.05695 10.3771   1
 -12  -4   5 58.6959 22.3402  -2
 -12  12   5 58.6959 22.3402   1
 -11  -5   5 629.446 46.5463  -2
 -11  12   5 629.446 46.5463   1
 -10  -6   5 98.0551 12.3699  -2
 -10  12   5 98.0551 12.3699   1
  -9  -7   5 36.7752 9.08687  -2
  -9  12   5 36.7752 9.08687   1
  -8  -8   5 572.837 26.1677  -2
  -8  12   5 572.837 26.1677   1
  -7  -9   5 144.041 11.1939  -2
  -7  12   5 144.041 11.1939   1
  -6 -10   5 245.852 10.5409  -2
  -6  12   5 245.852 10.5409   1
  -5 -11   5 196.868 11.0679  -2
  -5  12   5 196.868 11.0679   1
  -4 -12   5 60.9938 7.68123  -2
  -4  12   5 60.9938 7.68123   1
  -3 -13   5 658.806 26.8471  -2
  -3  12   5 658.806 26.8471   1
  -2 -14   5 72.8682 8.00979  -2
  -2  12   5 72.8682 8.00979   1
  -1 -15   5 95.7861 8.67989  -2
  -1  12   5 95.7861 8.67989   1
   0 -16   5 3.14818 7.84580  -2
   0  12   5 3.14818 7.84580   1
   1 -17   5 18.0384 8.32563  -2
   1  12   5 18.0384 8.32563   1
   2 -18   5 73.5770 8.60961  -2
   2  12   5 73.5770 8.60961   1
   3 -19   5 -5.8423 8.88612  -2
   3  12   5 -5.8423 8.88612   1
   4 -20   5 33.4172 8.67440  -2
   4  12   5 33.4172 8.67440   1
   5 -21   5 -5.2495 9.24461  -2
   5  12   5 -5.2495 9.24461   1
   6 -22   5 4.50535 9.45683  -2
   6  12   5 4.50535 9.45683   1
   7 -23   5 -9.3766 10.4877  -2
   7  12   5 -9.3766 10.4877   1
 -12  -5   5 8.09511 25.0195  -2
 -12  13   5 8.09511 25.0195   1
 -11  -6   5 33.4606 21.0683  -2
 -11  13   5 33.4606 21.0683   1
 -10  -7   5 144.294 13.8733  -2
 -10  13   5 144.294 13.8733   1
  -9  -8   5 65.7685 11.5595  -2
  -9  13   5 65.7685 11.5595   1
  -8  -9   5 452.821 20.4419  -2
  -8  13   5 452.821 20.4419   1
  -7 -10   5 15.5687 10.3249  -2
  -7  13   5 15.5687 10.3249   1
  -6 -11   5 -2.6635 6.49902  -2
  -6  13   5 -2.6635 6.49902   1
  -5 -12   5 236.367 12.7144  -2
  -5  13   5 236.367 12.7144   1
  -4 -13   5 289.470 14.3029  -2
  -4  13   5 289.470 14.3029   1
  -3 -14   5 460.293 19.9971  -2
  -3  13   5 460.293 19.9971   1
  -2 -15   5 168.159 10.1398  -2
  -2  13   5 168.159 10.1398   1
  -1 -16   5 172.949 10.9264  -2
  -1  13   5 172.949 10.9264   1
   0 -17   5 225.045 10.8584  -2
   0  13   5 225.045 10.8584   1
   1 -18   5 51.9144 9.09319  -2
   1  13   5 51.9144 9.09319   1
   2 -19   5 108.804 9.42850  -2
   2  13   5 108.804 9.42850   1
   3 -20   5 2.88168 9.45773  -2
   3  13   5 2.88168 9.45773   1
   4 -21   5 10.0799 9.23561  -2
   4  13   5 10.0799 9.23561   1
   5 -22   5 33.6001 9.20897  -2
   5  13   5 33.6001 9.20897   1
   6 -23   5 13.1935 10.5788  -2
   6  13   5 13.1935 10.5788   1
   7  13   5 15.0735 19.4373   1
 -10  -8   5 50.0860 15.7056  -2
 -10  14   5 50.0860 15.7056   1
  -9  -9   5 -3.1812 12.7042  -2
  -9  14   5 -3.1812 12.7042   1
  -8 -10   5 -3.2803 11.3867  -2
  -8  14   5 -3.2803 11.3867   1
  -7 -11   5 222.502 14.5885  -2
  -7  14   5 222.502 14.5885   1
  -6 -12   5 110.763 11.4795  -2
  -6  14   5 110.763 11.4795   1
  -5 -13   5 136.400 18.9177  -2
  -5  14   5 136.400 18.9177   1
  -4 -14   5 20.0150 9.65627  -2
  -4  14   5 20.0150 9.65627   1
  -3 -15   5 61.5044 8.55442  -2
  -3  14   5 61.5044 8.55442   1
  -2 -16   5 369.290 17.1408  -2
  -2  14   5 369.290 17.1408   1
  -1 -17   5 101.288 11.7497  -2
  -1  14   5 101.288 11.7497   1
   0 -18   5 118.790 10.4426  -2
   0  14   5 118.790 10.4426   1
   1 -19   5 33.9080 9.19686  -2
   1  14   5 33.9080 9.19686   1
   2 -20   5 7.42286 8.37122  -2
   2  14   5 7.42286 8.37122   1
   3 -21   5 193.506 12.3864  -2
   3  14   5 193.506 12.3864   1
   4 -22   5 24.6148 9.82796  -2
   4  14   5 24.6148 9.82796   1
   5 -23   5 84.9615 10.6232  -2
   5  14   5 84.9615 10.6232   1
   6 -24   5 8.79237 10.7788  -2
   6  14   5 8.79237 10.7788   1
 -10  -9   5 43.1391 26.0533  -2
 -10  15   5 43.1391 26.0533   1
  -9 -10   5 179.084 15.5459  -2
  -9  15   5 179.084 15.5459   1
  -8 -11   5 92.2619 12.4195  -2
  -8  15   5 92.2619 12.4195   1
  -7 -12   5 25.5227 11.3711  -2
  -7  15   5 25.5227 11.3711   1
  -6 -13   5 -0.5259 20.2503  -2
  -6  15   5 -0.5259 20.2503   1
  -5 -14   5 12.5009 17.2137  -2
  -5  15   5 12.5009 17.2137   1
  -4 -15   5 119.382 18.7835  -2
  -4  15   5 119.382 18.7835   1
  -2 -17   5 221.098 15.6353  -2
  -2  15   5 221.098 15.6353   1
  -1 -18   5 63.5380 11.1632  -2
  -1  15   5 63.5380 11.1632   1
   0 -19   5 11.2229 8.38998  -2
   0  15   5 11.2229 8.38998   1
   1 -20   5 82.4911 11.5564  -2
   1  15   5 82.4911 11.5564   1
   2 -21   5 153.180 11.6090  -2
   2  15   5 153.180 11.6090   1
   3 -22   5 117.848 10.5351  -2
   3  15   5 117.848 10.5351   1
   4 -23   5 -0.1905 9.99252  -2
   4  15   5 -0.1905 9.99252   1
   5 -24   5 3.50291 11.2528  -2
   5  15   5 3.50291 11.2528   1
 -10 -10   5 3.46545 16.6470  -2
 -10  16   5 3.46545 16.6470   1
  -9 -11   5 75.5015 16.3474  -2
  -9  16   5 75.5015 16.3474   1
  -8 -12   5 -0.9916 12.2781  -2
  -8  16   5 -0.9916 12.2781   1
  -7 -13   5 44.5557 14.4756  -2
  -7  16   5 44.5557 14.4756   1
  -6 -14   5 53.2893 11.4534  -2
  -6  16   5 53.2893 11.4534   1
  -4 -16   5 20.5168 17.8294  -2
  -4  16   5 20.5168 17.8294   1
   1 -21   5 6.73813 10.5620  -2
   1  16   5 6.73813 10.5620   1
   2 -22   5 97.3853 10.0145  -2
   2  16   5 97.3853 10.0145   1
   3 -23   5 0.23016 10.1537  -2
   3  16   5 0.23016 10.1537   1
   4 -24   5 32.0879 10.5089  -2
   4  16   5 32.0879 10.5089   1
 -11 -10   5 251.714 24.0749  -2
 -11  17   5 251.714 24.0749   1
 -10 -11   5 34.2345 15.8209  -2
 -10  17   5 34.2345 15.8209   1
  -9 -12   5 -0.4653 16.4883  -2
  -9  17   5 -0.4653 16.4883   1
  -8 -13   5 216.614 16.0303  -2
  -8  17   5 216.614 16.0303   1
  -7 -14   5 37.7487 13.8100  -2
  -7  17   5 37.7487 13.8100   1
  -6 -15   5 30.5598 12.5117  -2
  -6  17   5 30.5598 12.5117   1
   0 -21   5 11.3018 10.4129  -2
   0  17   5 11.3018 10.4129   1
   2 -23   5 29.4216 10.7027  -2
   2  17   5 29.4216 10.7027   1
   3 -24   5 48.4717 10.8020  -2
   3  17   5 48.4717 10.8020   1
 -10 -12   5 94.8205 20.8817  -2
 -10  18   5 94.8205 20.8817   1
  -9 -13   5 40.8129 17.2747  -2
  -9  18   5 40.8129 17.2747   1
  -8 -14   5 131.899 18.2393  -2
  -8  18   5 131.899 18.2393   1
  -7 -15   5 0.82004 15.4950  -2
  -7  18   5 0.82004 15.4950   1
  -6 -16   5 -21.510 11.7716  -2
  -6  18   5 -21.510 11.7716   1
   0 -22   5 79.1357 12.0070  -2
   0  18   5 79.1357 12.0070   1
   2 -24   5 44.5424 10.4591  -2
   2  18   5 44.5424 10.4591   1
  -9 -14   5 -10.365 17.8289  -2
  -9  19   5 -10.365 17.8289   1
  -8 -15   5 7.77817 16.8979  -2
  -8  19   5 7.77817 16.8979   1
  -6 -17   5 2.13589 12.2413  -2
  -6  19   5 2.13589 12.2413   1
  -8 -16   5 37.3694 15.5202  -2
  -8  20   5 37.3694 15.5202   1
  -7 -18   5 -26.172 17.1332  -2
  -7  21   5 -26.172 17.1332   1
  -6 -19   5 13.9677 13.3095  -2
  -6  21   5 13.9677 13.3095   1
   3  17   6 15.8852 23.8253  -2
   3 -25   6 15.8852 23.8253   1
   0  19   6 -16.265 12.7981  -2
   0 -24   6 -16.265 12.7981   1
   2  17   6 121.889 24.8335  -2
   2 -24   6 121.889 24.8335   1
   3  16   6 16.9431 24.9930  -2
   3 -24   6 16.9431 24.9930   1
   4  15   6 -8.5583 24.2201  -2
   4 -24   6 -8.5583 24.2201   1
   5  14   6 16.8404 26.7831  -2
   5 -24   6 16.8404 26.7831   1
   6  13   6 82.7236 29.1916  -2
   6 -24   6 82.7236 29.1916   1
  -2  20   6 -14.755 23.1621  -2
  -2 -23   6 -14.755 23.1621   1
  -1  19   6 101.073 14.3307  -2
  -1 -23   6 101.073 14.3307   1
   0  18   6 156.340 15.8086  -2
   0 -23   6 156.340 15.8086   1
   2  16   6 9.97210 20.7526  -2
   2 -23   6 9.97210 20.7526   1
   3  15   6 -3.2958 21.9618  -2
   3 -23   6 -3.2958 21.9618   1
   4  14   6 212.401 28.6425  -2
   4 -23   6 212.401 28.6425   1
   5  13   6 67.3533 28.8257  -2
   5 -23   6 67.3533 28.8257   1
   6  12   6 93.3413 29.3104  -2
   6 -23   6 93.3413 29.3104   1
   7  11   6 -4.8685 29.3858  -2
   7 -23   6 -4.8685 29.3858   1
   8  10   6 21.8790 31.2185  -2
   8 -23   6 21.8790 31.2185   1
  -3  20   6 1.89525 10.6190  -2
  -3 -22   6 1.89525 10.6190   1
  -2  19   6 20.8827 11.1318  -2
  -2 -22   6 20.8827 11.1318   1
  -1  18   6 152.870 15.2669  -2
  -1 -22   6 152.870 15.2669   1
   0  17   6 9.41827 12.3091  -2
   0 -22   6 9.41827 12.3091   1
   2  15   6 45.7759 22.5370  -2
   2 -22   6 45.7759 22.5370   1
   3  14   6 103.833 23.6495  -2
   3 -22   6 103.833 23.6495   1
   4  13   6 184.624 27.6528  -2
   4 -22   6 184.624 27.6528   1
   5  12   6 8.64482 25.9176  -2
   5 -22   6 8.64482 25.9176   1
   6  11   6 -10.205 27.8427  -2
   6 -22   6 -10.205 27.8427   1
   7  10   6 50.0171 21.7922  -2
   7 -22   6 50.0171 21.7922   1
   8   9   6 191.727 24.1750  -2
   8 -22   6 191.727 24.1750   1
  -4  20   6 53.0011 12.6025  -2
  -4 -21   6 53.0011 12.6025   1
  -3  19   6 34.6085 10.5553  -2
  -3 -21   6 34.6085 10.5553   1
  -2  18   6 12.7609 10.6088  -2
  -2 -21   6 12.7609 10.6088   1
  -1  17   6 42.8472 12.6825  -2
  -1 -21   6 42.8472 12.6825   1
   0  16   6 28.4948 11.2670  -2
   0 -21   6 28.4948 11.2670   1
   1  15   6 58.3802 20.6048  -2
   1 -21   6 58.3802 20.6048   1
   2  14   6 79.8671 22.9282  -2
   2 -21   6 79.8671 22.9282   1
   3  13   6 65.9000 23.9530  -2
   3 -21   6 65.9000 23.9530   1
   4  12   6 -8.4296 22.9579  -2
   4 -21   6 -8.4296 22.9579   1
   5  11   6 26.9377 25.8204  -2
   5 -21   6 26.9377 25.8204   1
   6  10   6 168.223 21.7643  -2
   6 -21   6 168.223 21.7643   1
   7   9   6 83.1181 20.8515  -2
   7 -21   6 83.1181 20.8515   1
   8   8   6 103.466 22.0922  -2
   8 -21   6 103.466 22.0922   1
   9   7   6 83.8529 33.4904  -2
   9 -21   6 83.8529 33.4904   1
  -5  20   6 116.944 13.9497  -2
  -5 -20   6 116.944 13.9497   1
  -4  19   6 -2.4419 10.0519  -2
  -4 -20   6 -2.4419 10.0519   1
  -3  18   6 -1.8571 9.97697  -2
  -3 -20   6 -1.8571 9.97697   1
  -2  17   6 101.823 13.1558  -2
  -2 -20   6 101.823 13.1558   1
  -1  16   6 146.644 14.4683  -2
  -1 -20   6 146.644 14.4683   1
   0  15   6 73.5613 12.9153  -2
   0 -20   6 73.5613 12.9153   1
   1  14   6 0.03242 9.73755  -2
   1 -20   6 0.03242 9.73755   1
   2  13   6 40.4614 21.6305  -2
   2 -20   6 40.4614 21.6305   1
   3  12   6 50.8476 22.8578  -2
   3 -20   6 50.8476 22.8578   1
   4  11   6 17.2021 23.8575  -2
   4 -20   6 17.2021 23.8575   1
   5  10   6 37.3044 24.1422  -2
   5 -20   6 37.3044 24.1422   1
   6   9   6 3.57946 19.4824  -2
   6 -20   6 3.57946 19.4824   1
   7   8   6 76.2834 20.2547  -2
   7 -20   6 76.2834 20.2547   1
   8   7   6 54.7667 30.2324  -2
   8 -20   6 54.7667 30.2324   1
   9   6   6 102.912 34.7205  -2
   9 -20   6 102.912 34.7205   1
  10   5   6 156.097 36.4774  -2
  10 -20   6 156.097 36.4774   1
  -6  20   6 17.7493 12.3543  -2
  -6 -19   6 17.7493 12.3543   1
  -5  19   6 -8.8929 11.5645  -2
  -5 -19   6 -8.8929 11.5645   1
  -4  18   6 119.970 11.0686  -2
  -4 -19   6 119.970 11.0686   1
  -3  17   6 82.3920 10.5927  -2
  -3 -19   6 82.3920 10.5927   1
  -2  16   6 265.031 18.2817  -2
  -2 -19   6 265.031 18.2817   1
  -1  15   6 33.3500 11.6944  -2
  -1 -19   6 33.3500 11.6944   1
   0  14   6 29.9903 9.62432  -2
   0 -19   6 29.9903 9.62432   1
   1  13   6 46.8487 9.90099  -2
   1 -19   6 46.8487 9.90099   1
   2  12   6 101.714 21.4947  -2
   2 -19   6 101.714 21.4947   1
   3  11   6 94.3759 23.0940  -2
   3 -19   6 94.3759 23.0940   1
   4  10   6 -11.636 21.9877  -2
   4 -19   6 -11.636 21.9877   1
   5   9   6 15.4781 17.9806  -2
   5 -19   6 15.4781 17.9806   1
   6   8   6 131.107 19.9117  -2
   6 -19   6 131.107 19.9117   1
   7   7   6 49.5344 19.7977  -2
   7 -19   6 49.5344 19.7977   1
   8   6   6 36.1780 29.2550  -2
   8 -19   6 36.1780 29.2550   1
   9   5   6 41.8817 30.6851  -2
   9 -19   6 41.8817 30.6851   1
  10   4   6 40.6495 33.6462  -2
  10 -19   6 40.6495 33.6462   1
  -7  20   6 12.5176 11.0931  -2
  -7 -18   6 12.5176 11.0931   1
  -6  19   6 2.34708 11.2916  -2
  -6 -18   6 2.34708 11.2916   1
  -5  18   6 64.2246 11.8096  -2
  -5 -18   6 64.2246 11.8096   1
  -4  17   6 224.457 13.2376  -2
  -4 -18   6 224.457 13.2376   1
  -3  16   6 65.9754 9.27498  -2
  -3 -18   6 65.9754 9.27498   1
  -2  15   6 41.0434 10.5491  -2
  -2 -18   6 41.0434 10.5491   1
  -1  14   6 467.286 26.6110  -2
  -1 -18   6 467.286 26.6110   1
   0  13   6 16.1220 9.36806  -2
   0 -18   6 16.1220 9.36806   1
   1  12   6 527.983 23.3420  -2
   1 -18   6 527.983 23.3420   1
   2  11   6 18.1116 19.4622  -2
   2 -18   6 18.1116 19.4622   1
   3  10   6 -9.0555 20.1033  -2
   3 -18   6 -9.0555 20.1033   1
   4   9   6 631.906 46.5281  -2
   4 -18   6 631.906 46.5281   1
   5   8   6 362.737 19.8390  -2
   5 -18   6 362.737 19.8390   1
   6   7   6 714.822 36.9512  -2
   6 -18   6 714.822 36.9512   1
   7   6   6 16.3966 19.3743  -2
   7 -18   6 16.3966 19.3743   1
   8   5   6 23.0310 28.0601  -2
   8 -18   6 23.0310 28.0601   1
   9   4   6 209.329 33.1289  -2
   9 -18   6 209.329 33.1289   1
  10   3   6 60.3419 32.4955  -2
  10 -18   6 60.3419 32.4955   1
  11   2   6 139.893 33.8310  -2
  11 -18   6 139.893 33.8310   1
  -7  19   6 14.0472 10.5209  -2
  -7 -17   6 14.0472 10.5209   1
  -6  18   6 18.2278 10.7585  -2
  -6 -17   6 18.2278 10.7585   1
  -5  17   6 34.0824 8.74423  -2
  -5 -17   6 34.0824 8.74423   1
  -4  16   6 -3.9397 8.76702  -2
  -4 -17   6 -3.9397 8.76702   1
  -3  15   6 17.5304 8.83726  -2
  -3 -17   6 17.5304 8.83726   1
  -2  14   6 345.783 21.0016  -2
  -2 -17   6 345.783 21.0016   1
  -1  13   6 400.592 23.3164  -2
  -1 -17   6 400.592 23.3164   1
   0  12   6 349.814 16.7873  -2
   0 -17   6 349.814 16.7873   1
   1  11   6 19.1386 17.2354  -2
   1 -17   6 19.1386 17.2354   1
   2  10   6 69.8653 15.3432  -2
   2 -17   6 69.8653 15.3432   1
   3   9   6 498.486 39.2395  -2
   3 -17   6 498.486 39.2395   1
   4   8   6 727.131 35.8140  -2
   4 -17   6 727.131 35.8140   1
   5   7   6 195.839 15.8084  -2
   5 -17   6 195.839 15.8084   1
   6   6   6 146.399 19.3360  -2
   6 -17   6 146.399 19.3360   1
   7   5   6 65.7904 19.0255  -2
   7 -17   6 65.7904 19.0255   1
   8   4   6 132.300 28.6871  -2
   8 -17   6 132.300 28.6871   1
   9   3   6 226.314 32.6368  -2
   9 -17   6 226.314 32.6368   1
  10   2   6 78.8824 31.9671  -2
  10 -17   6 78.8824 31.9671   1
  11   1   6 51.4089 32.6761  -2
  11 -17   6 51.4089 32.6761   1
  -8  19   6 52.9751 10.8426  -2
  -8 -16   6 52.9751 10.8426   1
  -7  18   6 -2.2760 10.1174  -2
  -7 -16   6 -2.2760 10.1174   1
  -6  17   6 17.6946 10.4415  -2
  -6 -16   6 17.6946 10.4415   1
  -5  16   6 142.950 10.4539  -2
  -5 -16   6 142.950 10.4539   1
  -4  15   6 58.1865 8.53770  -2
  -4 -16   6 58.1865 8.53770   1
  -3  14   6 90.2244 9.40577  -2
  -3 -16   6 90.2244 9.40577   1
  -2  13   6 16.6963 10.0454  -2
  -2 -16   6 16.6963 10.0454   1
  -1  12   6 137.488 12.2941  -2
  -1 -16   6 137.488 12.2941   1
   0  11   6 98.6940 9.46397  -2
   0 -16   6 98.6940 9.46397   1
   1  10   6 320.935 27.6665  -2
   1 -16   6 320.935 27.6665   1
   2   9   6 256.414 18.7390  -2
   2 -16   6 256.414 18.7390   1
   3   8   6 89.0226 22.4919  -2
   3 -16   6 89.0226 22.4919   1
   4   7   6 160.093 14.3114  -2
   4 -16   6 160.093 14.3114   1
   5   6   6 25.8254 16.2627  -2
   5 -16   6 25.8254 16.2627   1
   6   5   6 512.321 28.2122  -2
   6 -16   6 512.321 28.2122   1
   7   4   6 179.844 20.1015  -2
   7 -16   6 179.844 20.1015   1
   8   3   6 227.533 30.3292  -2
   8 -16   6 227.533 30.3292   1
   9   2   6 122.863 29.0250  -2
   9 -16   6 122.863 29.0250   1
  10   1   6 101.477 31.2428  -2
  10 -16   6 101.477 31.2428   1
  11   0   6 159.201 33.9724  -2
  11 -16   6 159.201 33.9724   1
  -9  19   6 3.54996 10.0982  -2
  -9 -15   6 3.54996 10.0982   1
  -8  18   6 8.71407 10.0390  -2
  -8 -15   6 8.71407 10.0390   1
  -7  17   6 138.038 12.4350  -2
  -7 -15   6 138.038 12.4350   1
  -6  16   6 37.0756 10.4348  -2
  -6 -15   6 37.0756 10.4348   1
  -5  15   6 115.863 9.45144  -2
  -5 -15   6 115.863 9.45144   1
  -4  14   6 21.1462 8.22111  -2
  -4 -15   6 21.1462 8.22111   1
  -3  13   6 14.9014 7.94778  -2
  -3 -15   6 14.9014 7.94778   1
  -2  12   6 205.169 14.4513  -2
  -2 -15   6 205.169 14.4513   1
  -1  11   6 191.821 11.7275  -2
  -1 -15   6 191.821 11.7275   1
   0  10   6 150.763 13.9901  -2
   0 -15   6 150.763 13.9901   1
   1   9   6 74.7099 13.8661  -2
   1 -15   6 74.7099 13.8661   1
   2   8   6 95.3753 14.0660  -2
   2 -15   6 95.3753 14.0660   1
   3   7   6 57.8933 14.8387  -2
   3 -15   6 57.8933 14.8387   1
   4   6   6 436.889 24.4679  -2
   4 -15   6 436.889 24.4679   1
   5   5   6 28.5723 15.6945  -2
   5 -15   6 28.5723 15.6945   1
   6   4   6 -4.6681 15.1310  -2
   6 -15   6 -4.6681 15.1310   1
   7   3   6 23.8636 16.1614  -2
   7 -15   6 23.8636 16.1614   1
   8   2   6 21.7823 25.1213  -2
   8 -15   6 21.7823 25.1213   1
   9   1   6 276.972 32.1723  -2
   9 -15   6 276.972 32.1723   1
  10   0   6 183.816 30.7158  -2
  10 -15   6 183.816 30.7158   1
  11  -1   6 127.365 31.4605  -2
  11 -15   6 127.365 31.4605   1
  -9  18   6 31.9621 10.5391  -2
  -9 -14   6 31.9621 10.5391   1
  -8  17   6 32.4730 9.73082  -2
  -8 -14   6 32.4730 9.73082   1
  -7  16   6 88.3565 10.6620  -2
  -7 -14   6 88.3565 10.6620   1
  -6  15   6 19.7080 9.68949  -2
  -6 -14   6 19.7080 9.68949   1
  -5  14   6 -5.5544 12.6070  -2
  -5 -14   6 -5.5544 12.6070   1
  -4  13   6 381.668 16.9362  -2
  -4 -14   6 381.668 16.9362   1
  -3  12   6 144.637 12.0723  -2
  -3 -14   6 144.637 12.0723   1
  -2  11   6 1264.89 64.4782  -2
  -2 -14   6 1264.89 64.4782   1
  -1  10   6 33.2110 8.06613  -2
  -1 -14   6 33.2110 8.06613   1
   0   9   6 98.0237 20.3216  -2
   0 -14   6 98.0237 20.3216   1
   1   8   6 790.352 36.2220  -2
   1 -14   6 790.352 36.2220   1
   2   7   6 86.9437 14.1869  -2
   2 -14   6 86.9437 14.1869   1
   3   6   6 588.373 29.1041  -2
   3 -14   6 588.373 29.1041   1
   4   5   6 11.7727 14.0874  -2
   4 -14   6 11.7727 14.0874   1
   5   4   6 106.776 14.9119  -2
   5 -14   6 106.776 14.9119   1
   6   3   6 287.123 18.9034  -2
   6 -14   6 287.123 18.9034   1
   7   2   6 56.7292 15.2064  -2
   7 -14   6 56.7292 15.2064   1
   8   1   6 54.7273 20.8513  -2
   8 -14   6 54.7273 20.8513   1
   9   0   6 47.7057 20.8784  -2
   9 -14   6 47.7057 20.8784   1
  10  -1   6 121.147 29.9601  -2
  10 -14   6 121.147 29.9601   1
  11  -2   6 118.660 30.0794  -2
  11 -14   6 118.660 30.0794   1
 -10  18   6 43.1135 10.6987  -2
 -10 -13   6 43.1135 10.6987   1
  -9  17   6 40.9220 9.81649  -2
  -9 -13   6 40.9220 9.81649   1
  -8  16   6 21.7883 9.86193  -2
  -8 -13   6 21.7883 9.86193   1
  -7  15   6 11.5227 9.07191  -2
  -7 -13   6 11.5227 9.07191   1
  -6  14   6 31.6229 8.82506  -2
  -6 -13   6 31.6229 8.82506   1
  -5  13   6 76.7993 7.67685  -2
  -5 -13   6 76.7993 7.67685   1
  -4  12   6 362.065 15.9719  -2
  -4 -13   6 362.065 15.9719   1
  -3  11   6 7.08443 20.6600  -2
  -3 -13   6 7.08443 20.6600   1
  -2  10   6 13.6512 7.69337  -2
  -2 -13   6 13.6512 7.69337   1
  -1   9   6 178.101 10.8371  -2
  -1 -13   6 178.101 10.8371   1
   0   8   6 587.365 40.5771  -2
   0 -13   6 587.365 40.5771   1
   1   7   6 933.675 41.7822  -2
   1 -13   6 933.675 41.7822   1
   2   6   6 243.892 14.2624  -2
   2 -13   6 243.892 14.2624   1
   3   5   6 -7.6278 10.9053  -2
   3 -13   6 -7.6278 10.9053   1
   4   4   6 582.536 23.6794  -2
   4 -13   6 582.536 23.6794   1
   5   3   6 293.976 20.3733  -2
   5 -13   6 293.976 20.3733   1
   6   2   6 439.618 22.2627  -2
   6 -13   6 439.618 22.2627   1
   7   1   6 25.1407 14.4466  -2
   7 -13   6 25.1407 14.4466   1
   8   0   6 14.7032 19.9856  -2
   8 -13   6 14.7032 19.9856   1
   9  -1   6 59.8520 21.2542  -2
   9 -13   6 59.8520 21.2542   1
  10  -2   6 82.0501 27.6897  -2
  10 -13   6 82.0501 27.6897   1
  11  -3   6 133.272 30.2186  -2
  11 -13   6 133.272 30.2186   1
  -9  16   6 8.87966 9.65180  -2
  -9 -12   6 8.87966 9.65180   1
  -8  15   6 104.735 10.6410  -2
  -8 -12   6 104.735 10.6410   1
  -7  14   6 -8.8806 9.19043  -2
  -7 -12   6 -8.8806 9.19043   1
  -6  13   6 19.2533 6.52153  -2
  -6 -12   6 19.2533 6.52153   1
  -5  12   6 37.6798 6.80025  -2
  -5 -12   6 37.6798 6.80025   1
  -4  11   6 125.034 8.07520  -2
  -4 -12   6 125.034 8.07520   1
  -3  10   6 30.4759 8.06286  -2
  -3 -12   6 30.4759 8.06286   1
  -2   9   6 206.105 13.3986  -2
  -2 -12   6 206.105 13.3986   1
  -1   8   6 1020.98 63.5749  -2
  -1 -12   6 1020.98 63.5749   1
   0   7   6 498.665 34.9325  -2
   0 -12   6 498.665 34.9325   1
   1   6   6 177.737 20.8611  -2
   1 -12   6 177.737 20.8611   1
   2   5   6 68.6432 10.8958  -2
   2 -12   6 68.6432 10.8958   1
   3   4   6 270.829 14.6670  -2
   3 -12   6 270.829 14.6670   1
   4   3   6 1129.53 41.0321  -2
   4 -12   6 1129.53 41.0321   1
   5   2   6 81.3636 13.4483  -2
   5 -12   6 81.3636 13.4483   1
   6   1   6 109.129 14.7148  -2
   6 -12   6 109.129 14.7148   1
   7   0   6 74.2920 14.6788  -2
   7 -12   6 74.2920 14.6788   1
   8  -1   6 636.052 35.5881  -2
   8 -12   6 636.052 35.5881   1
   9  -2   6 945.371 62.4884  -2
   9 -12   6 945.371 62.4884   1
  10  -3   6 68.8424 27.6510  -2
  10 -12   6 68.8424 27.6510   1
  -9  15   6 38.5562 9.79686  -2
  -9 -11   6 38.5562 9.79686   1
  -8  14   6 69.6460 9.51591  -2
  -8 -11   6 69.6460 9.51591   1
  -7  13   6 13.6892 8.02517  -2
  -7 -11   6 13.6892 8.02517   1
  -6  12   6 22.0827 6.43025  -2
  -6 -11   6 22.0827 6.43025   1
  -5  11   6 465.064 16.8990  -2
  -5 -11   6 465.064 16.8990   1
  -4  10   6 167.593 9.19166  -2
  -4 -11   6 167.593 9.19166   1
  -3   9   6 20.1574 7.52440  -2
  -3 -11   6 20.1574 7.52440   1
  -2   8   6 85.6246 8.97481  -2
  -2 -11   6 85.6246 8.97481   1
   0   6   6 718.695 33.9766  -2
   0 -11   6 718.695 33.9766   1
   1   5   6 644.756 31.1300  -2
   1 -11   6 644.756 31.1300   1
   2   4   6 291.358 15.1334  -2
   2 -11   6 291.358 15.1334   1
   3   3   6 234.733 13.7464  -2
   3 -11   6 234.733 13.7464   1
   4   2   6 104.513 10.1727  -2
   4 -11   6 104.513 10.1727   1
   5   1   6 72.8560 12.9682  -2
   5 -11   6 72.8560 12.9682   1
   6   0   6 651.727 27.4477  -2
   6 -11   6 651.727 27.4477   1
   7  -1   6 462.330 24.0486  -2
   7 -11   6 462.330 24.0486   1
   8  -2   6 346.063 21.6781  -2
   8 -11   6 346.063 21.6781   1
   9  -3   6 112.406 20.0181  -2
   9 -11   6 112.406 20.0181   1
  10  -4   6 18.8264 26.3685  -2
  10 -11   6 18.8264 26.3685   1
  -9  14   6 2.52055 9.10143  -2
  -9 -10   6 2.52055 9.10143   1
  -8  13   6 -1.5768 8.21633  -2
  -8 -10   6 -1.5768 8.21633   1
  -7  12   6 182.938 8.51567  -2
  -7 -10   6 182.938 8.51567   1
  -6  11   6 152.270 6.44602  -2
  -6 -10   6 152.270 6.44602   1
  -5  10   6 843.649 24.0860  -2
  -5 -10   6 843.649 24.0860   1
  -4   9   6 44.7900 6.15864  -2
  -4 -10   6 44.7900 6.15864   1
  -3   8   6 68.2549 7.53255  -2
  -3 -10   6 68.2549 7.53255   1
  -2   7   6 353.217 16.5595  -2
  -2 -10   6 353.217 16.5595   1
   0   5   6 2115.43 130.893  -2
   0 -10   6 2115.43 130.893   1
   1   4   6 232.472 16.6467  -2
   1 -10   6 232.472 16.6467   1
   2   3   6 335.585 17.7539  -2
   2 -10   6 335.585 17.7539   1
   3   2   6 421.992 20.0126  -2
   3 -10   6 421.992 20.0126   1
   4   1   6 860.170 28.5690  -2
   4 -10   6 860.170 28.5690   1
   5   0   6 144.700 12.4530  -2
   5 -10   6 144.700 12.4530   1
   6  -1   6 160.585 12.9050  -2
   6 -10   6 160.585 12.9050   1
   9  -4   6 349.723 32.7364  -2
   9 -10   6 349.723 32.7364   1
  10  -5   6 151.338 26.4203  -2
  10 -10   6 151.338 26.4203   1
  -9  13   6 75.5722 9.91100  -2
  -9  -9   6 75.5722 9.91100   1
  -8  12   6 103.474 7.29648  -2
  -8  -9   6 103.474 7.29648   1
  -7  11   6 452.837 17.9930  -2
  -7  -9   6 452.837 17.9930   1
  -6  10   6 116.517 6.16181  -2
  -6  -9   6 116.517 6.16181   1
  -5   9   6 12.0686 4.15354  -2
  -5  -9   6 12.0686 4.15354   1
  -4   8   6 1018.56 33.7092  -2
  -4  -9   6 1018.56 33.7092   1
  -3   7   6 206.723 30.4203  -2
  -3  -9   6 206.723 30.4203   1
   0   4   6 47.4970 12.6331  -2
   0  -9   6 47.4970 12.6331   1
   1   3   6 929.884 35.8333  -2
   1  -9   6 929.884 35.8333   1
   2   2   6 315.393 17.2798  -2
   2  -9   6 315.393 17.2798   1
   3   1   6 261.670 13.1815  -2
   3  -9   6 261.670 13.1815   1
   4   0   6 135.559 12.3794  -2
   4  -9   6 135.559 12.3794   1
   5  -1   6 44.7410 9.22630  -2
   5  -9   6 44.7410 9.22630   1
   6  -2   6 283.408 16.3056  -2
   6  -9   6 283.408 16.3056   1
   7  -3   6 45.4188 14.2645  -2
   7  -9   6 45.4188 14.2645   1
   8  -4   6 129.658 18.6930  -2
   8  -9   6 129.658 18.6930   1
   9  -5   6 96.9818 23.3495  -2
   9  -9   6 96.9818 23.3495   1
  -9  12   6 125.518 11.5842  -2
  -9  -8   6 125.518 11.5842   1
  -8  11   6 7.71515 5.66371  -2
  -8  -8   6 7.71515 5.66371   1
  -7  10   6 130.292 7.38998  -2
  -7  -8   6 130.292 7.38998   1
  -6   9   6 16.3295 4.16953  -2
  -6  -8   6 16.3295 4.16953   1
  -5   8   6 781.146 23.9695  -2
  -5  -8   6 781.146 23.9695   1
  -4   7   6 1768.07 61.4532  -2
  -4  -8   6 1768.07 61.4532   1
  -3   6   6 118.829 28.2850  -2
  -3  -8   6 118.829 28.2850   1
  -2   5   6 766.229 32.4603  -2
  -2  -8   6 766.229 32.4603   1
  -1   4   6 1136.97 44.5150  -2
  -1  -8   6 1136.97 44.5150   1
   0   3   6 604.349 28.7047  -2
   0  -8   6 604.349 28.7047   1
   1   2   6 5351.29 230.928  -2
   1  -8   6 5351.29 230.928   1
   2   1   6 193.980 16.8788  -2
   2  -8   6 193.980 16.8788   1
   3   0   6 9.70234 10.6757  -2
   3  -8   6 9.70234 10.6757   1
   4  -1   6 64.2143 11.7468  -2
   4  -8   6 64.2143 11.7468   1
   5  -2   6 88.9333 11.0881  -2
   5  -8   6 88.9333 11.0881   1
   6  -3   6 1057.92 39.7369  -2
   6  -8   6 1057.92 39.7369   1
   7  -4   6 26.9781 10.8653  -2
   7  -8   6 26.9781 10.8653   1
   8  -5   6 8.77088 11.2936  -2
   8  -8   6 8.77088 11.2936   1
   9  -6   6 316.713 29.3311  -2
   9  -8   6 316.713 29.3311   1
 -10  12   6 36.3817 9.33963  -2
 -10  -7   6 36.3817 9.33963   1
  -9  11   6 10.9172 8.53218  -2
  -9  -7   6 10.9172 8.53218   1
  -8  10   6 68.8720 6.16350  -2
  -8  -7   6 68.8720 6.16350   1
  -7   9   6 87.2879 6.08115  -2
  -7  -7   6 87.2879 6.08115   1
  -6   8   6 101.765 7.09942  -2
  -6  -7   6 101.765 7.09942   1
  -5   7   6 297.344 10.5836  -2
  -5  -7   6 297.344 10.5836   1
  -4   6   6 229.050 9.41246  -2
  -4  -7   6 229.050 9.41246   1
  -3   5   6 16.4549 14.1192  -2
  -3  -7   6 16.4549 14.1192   1
  -2   4   6 851.299 34.5228  -2
  -2  -7   6 851.299 34.5228   1
  -1   3   6 3654.25 158.455  -2
  -1  -7   6 3654.25 158.455   1
   0   2   6 55.6775 11.4355  -2
   0  -7   6 55.6775 11.4355   1
   1   1   6 368.290 35.6897  -2
   1  -7   6 368.290 35.6897   1
   2   0   6 136.371 16.3282  -2
   2  -7   6 136.371 16.3282   1
   3  -1   6 483.198 21.3759  -2
   3  -7   6 483.198 21.3759   1
   4  -2   6 1336.66 48.6191  -2
   4  -7   6 1336.66 48.6191   1
   5  -3   6 107.524 11.7428  -2
   5  -7   6 107.524 11.7428   1
   6  -4   6 184.104 13.5031  -2
   6  -7   6 184.104 13.5031   1
   7  -5   6 23.8125 10.2139  -2
   7  -7   6 23.8125 10.2139   1
   8  -6   6 23.7320 11.3783  -2
   8  -7   6 23.7320 11.3783   1
 -10  11   6 251.414 16.7854  -2
 -10  -6   6 251.414 16.7854   1
  -9  10   6 62.9923 9.05704  -2
  -9  -6   6 62.9923 9.05704   1
  -8   9   6 232.107 10.3423  -2
  -8  -6   6 232.107 10.3423   1
  -7   8   6 18.9650 4.99679  -2
  -7  -6   6 18.9650 4.99679   1
  -6   7   6 13.7120 6.55010  -2
  -6  -6   6 13.7120 6.55010   1
  -5   6   6 500.502 16.8739  -2
  -5  -6   6 500.502 16.8739   1
  -4   5   6 431.962 20.1134  -2
  -4  -6   6 431.962 20.1134   1
  -3   4   6 165.747 14.7218  -2
  -3  -6   6 165.747 14.7218   1
  -2   3   6 31.5843 10.7217  -2
  -2  -6   6 31.5843 10.7217   1
  -1   2   6 112.498 11.8303  -2
  -1  -6   6 112.498 11.8303   1
   0   1   6 75.2659 11.4006  -2
   0  -6   6 75.2659 11.4006   1
   1   0   6 264.952 27.8575  -2
   1  -6   6 264.952 27.8575   1
   2  -1   6 914.139 42.8134  -2
   2  -6   6 914.139 42.8134   1
   3  -2   6 140.008 14.1195  -2
   3  -6   6 140.008 14.1195   1
   4  -3   6 115.567 13.5369  -2
   4  -6   6 115.567 13.5369   1
   5  -4   6 27.9519 8.57562  -2
   5  -6   6 27.9519 8.57562   1
   6  -5   6 428.081 19.6687  -2
   6  -6   6 428.081 19.6687   1
   7  -6   6 1094.44 49.9933  -2
   7  -6   6 1094.44 49.9933   1
   8  -7   6 46.7786 17.4984  -2
   8  -6   6 46.7786 17.4984   1
 -10  10   6 293.326 18.5389  -2
 -10  -5   6 293.326 18.5389   1
  -9   9   6 8.57349 7.70493  -2
  -9  -5   6 8.57349 7.70493   1
  -8   8   6 30.9104 7.37454  -2
  -8  -5   6 30.9104 7.37454   1
  -7   7   6 210.301 13.6036  -2
  -7  -5   6 210.301 13.6036   1
  -6   6   6 94.2984 7.24850  -2
  -6  -5   6 94.2984 7.24850   1
  -5   5   6 613.435 26.3222  -2
  -5  -5   6 613.435 26.3222   1
  -4   4   6 21.1916 8.90664  -2
  -4  -5   6 21.1916 8.90664   1
  -3   3   6 217.039 14.8509  -2
  -3  -5   6 217.039 14.8509   1
  -2   2   6 577.147 30.1452  -2
  -2  -5   6 577.147 30.1452   1
  -1   1   6 728.427 30.8423  -2
  -1  -5   6 728.427 30.8423   1
   0   0   6 764.068 26.2567  -2
   0  -5   6 764.068 26.2567   1
   1  -1   6 17.8020 11.1777  -2
   1  -5   6 17.8020 11.1777   1
   2  -2   6 85.0294 17.1119  -2
   2  -5   6 85.0294 17.1119   1
   3  -3   6 74.6164 12.8175  -2
   3  -5   6 74.6164 12.8175   1
   4  -4   6 102.231 17.0298  -2
   4  -5   6 102.231 17.0298   1
   5  -5   6 198.409 14.2086  -2
   5  -5   6 198.409 14.2086   1
   6  -6   6 409.918 23.1967  -2
   6  -5   6 409.918 23.1967   1
   7  -7   6 16.1214 12.4413  -2
   7  -5   6 16.1214 12.4413   1
 -10   9   6 12.1629 8.10994  -2
 -10  -4   6 12.1629 8.10994   1
  -9   8   6 40.0357 7.41476  -2
  -9  -4   6 40.0357 7.41476   1
  -8   7   6 154.809 11.2074  -2
  -8  -4   6 154.809 11.2074   1
  -7   6   6 1740.93 94.9672  -2
  -7  -4   6 1740.93 94.9672   1
  -6   5   6 47.3259 6.19883  -2
  -6  -4   6 47.3259 6.19883   1
  -5   4   6 151.883 17.4307  -2
  -5  -4   6 151.883 17.4307   1
  -4   3   6 834.463 32.2173  -2
  -4  -4   6 834.463 32.2173   1
  -3   2   6 110.127 9.98346  -2
  -3  -4   6 110.127 9.98346   1
  -2   1   6 138.815 14.6961  -2
  -2  -4   6 138.815 14.6961   1
  -1   0   6 1038.69 33.4867  -2
  -1  -4   6 1038.69 33.4867   1
   0  -1   6 110.229 11.4490  -2
   0  -4   6 110.229 11.4490   1
   1  -2   6 65.7259 11.8028  -2
   1  -4   6 65.7259 11.8028   1
   2  -3   6 216.890 24.0230  -2
   2  -4   6 216.890 24.0230   1
   3  -4   6 328.914 31.6724  -2
   3  -4   6 328.914 31.6724   1
   4  -5   6 86.9293 15.9426  -2
   4  -4   6 86.9293 15.9426   1
   5  -6   6 35.2131 5.77498  -2
   5  -4   6 35.2131 5.77498   1
   6  -7   6 202.385 10.4861  -2
   6  -4   6 202.385 10.4861   1
   7  -8   6 33.9366 9.29898  -2
   7  -4   6 33.9366 9.29898   1
 -10   8   6 141.815 11.6337  -2
 -10  -3   6 141.815 11.6337   1
  -9   7   6 55.5479 7.81002  -2
  -9  -3   6 55.5479 7.81002   1
  -8   6   6 725.324 40.4117  -2
  -8  -3   6 725.324 40.4117   1
  -7   5   6 278.648 16.7519  -2
  -7  -3   6 278.648 16.7519   1
  -6   4   6 65.8857 6.42694  -2
  -6  -3   6 65.8857 6.42694   1
  -5   3   6 559.566 48.4490  -2
  -5  -3   6 559.566 48.4490   1
  -4   2   6 673.066 26.7122  -2
  -4  -3   6 673.066 26.7122   1
  -3   1   6 64.4736 9.21489  -2
  -3  -3   6 64.4736 9.21489   1
  -2   0   6 532.846 19.2344  -2
  -2  -3   6 532.846 19.2344   1
  -1  -1   6 1101.15 35.4259  -2
  -1  -3   6 1101.15 35.4259   1
   0  -2   6 1509.82 47.4418  -2
   0  -3   6 1509.82 47.4418   1
   1  -3   6 2362.62 82.9520  -2
   1  -3   6 2362.62 82.9520   1
   2  -4   6 619.760 32.6088  -2
   2  -3   6 619.760 32.6088   1
   3  -5   6 63.3879 16.4875  -2
   3  -3   6 63.3879 16.4875   1
   4  -6   6 51.0893 15.5502  -2
   4  -3   6 51.0893 15.5502   1
   5  -7   6 98.9943 6.97070  -2
   5  -3   6 98.9943 6.97070   1
   6  -8   6 1001.74 34.0597  -2
   6  -3   6 1001.74 34.0597   1
   7  -9   6 38.9485 14.2300  -2
   7  -3   6 38.9485 14.2300   1
 -10   7   6 107.079 9.81214  -2
 -10  -2   6 107.079 9.81214   1
  -9   6   6 34.5283 6.76251  -2
  -9  -2   6 34.5283 6.76251   1
  -8   5   6 106.538 9.11659  -2
  -8  -2   6 106.538 9.11659   1
  -7   4   6 185.472 10.1448  -2
  -7  -2   6 185.472 10.1448   1
  -6   3   6 46.7484 12.5375  -2
  -6  -2   6 46.7484 12.5375   1
  -5   2   6 54.3787 9.00612  -2
  -5  -2   6 54.3787 9.00612   1
  -4   1   6 560.214 23.0475  -2
  -4  -2   6 560.214 23.0475   1
  -3   0   6 921.482 35.6325  -2
  -3  -2   6 921.482 35.6325   1
  -2  -1   6 4600.50 380.742  -2
  -2  -2   6 4600.50 380.742   1
  -1  -2   6 5820.46 251.433  -2
  -1  -2   6 5820.46 251.433   1
   0  -3   6 1424.32 51.9298  -2
   0  -2   6 1424.32 51.9298   1
   1  -4   6 125.077 17.2204  -2
   1  -2   6 125.077 17.2204   1
   2  -5   6 139.425 16.4833  -2
   2  -2   6 139.425 16.4833   1
   3  -6   6 61.8343 16.7927  -2
   3  -2   6 61.8343 16.7927   1
   4  -7   6 1356.87 52.4308  -2
   4  -2   6 1356.87 52.4308   1
   5  -8   6 85.2049 7.37953  -2
   5  -2   6 85.2049 7.37953   1
   6  -9   6 271.437 11.9736  -2
   6  -2   6 271.437 11.9736   1
   7 -10   6 -0.9360 7.64782  -2
   7  -2   6 -0.9360 7.64782   1
  10 -13   6 53.5699 12.9383  -2
  10  -2   6 53.5699 12.9383   1
 -10   6   6 285.176 17.7610  -2
 -10  -1   6 285.176 17.7610   1
  -9   5   6 120.940 8.35915  -2
  -9  -1   6 120.940 8.35915   1
  -8   4   6 602.045 25.3871  -2
  -8  -1   6 602.045 25.3871   1
  -7   3   6 88.0914 6.96519  -2
  -7  -1   6 88.0914 6.96519   1
  -6   2   6 1.45681 11.5714  -2
  -6  -1   6 1.45681 11.5714   1
  -5   1   6 163.087 16.4910  -2
  -5  -1   6 163.087 16.4910   1
  -4   0   6 413.593 18.9088  -2
  -4  -1   6 413.593 18.9088   1
  -3  -1   6 230.116 17.7171  -2
  -3  -1   6 230.116 17.7171   1
  -1  -3   6 1098.34 41.2929  -2
  -1  -1   6 1098.34 41.2929   1
   0  -4   6 89.1084 11.5619  -2
   0  -1   6 89.1084 11.5619   1
   1  -5   6 33.9830 11.8565  -2
   1  -1   6 33.9830 11.8565   1
   2  -6   6 836.016 40.0718  -2
   2  -1   6 836.016 40.0718   1
   3  -7   6 523.966 29.3307  -2
   3  -1   6 523.966 29.3307   1
   4  -8   6 29.8189 5.84592  -2
   4  -1   6 29.8189 5.84592   1
   5  -9   6 63.4261 6.41820  -2
   5  -1   6 63.4261 6.41820   1
   6 -10   6 150.980 11.4012  -2
   6  -1   6 150.980 11.4012   1
   7 -11   6 454.382 22.4543  -2
   7  -1   6 454.382 22.4543   1
   8 -12   6 630.046 34.2917  -2
   8  -1   6 630.046 34.2917   1
   9 -13   6 86.9505 13.3056  -2
   9  -1   6 86.9505 13.3056   1
  10 -14   6 87.3024 13.9469  -2
  10  -1   6 87.3024 13.9469   1
 -11   6   6 -6.1356 16.0043  -2
 -11   0   6 -6.1356 16.0043   1
 -10   5   6 466.400 20.5975  -2
 -10   0   6 466.400 20.5975   1
  -9   4   6 -6.7359 5.23157  -2
  -9   0   6 -6.7359 5.23157   1
  -8   3   6 123.244 8.11684  -2
  -8   0   6 123.244 8.11684   1
  -7   2   6 219.814 9.48148  -2
  -7   0   6 219.814 9.48148   1
  -6   1   6 77.1224 14.1511  -2
  -6   0   6 77.1224 14.1511   1
  -5   0   6 3149.73 109.661  -2
  -5   0   6 3149.73 109.661   1
  -4  -1   6 317.999 13.3583  -2
  -4   0   6 317.999 13.3583   1
  -3  -2   6 1032.53 31.9698  -2
  -3   0   6 1032.53 31.9698   1
  -2  -3   6 636.285 19.9600  -2
  -2   0   6 636.285 19.9600   1
  -1  -4   6 1055.69 40.2281  -2
  -1   0   6 1055.69 40.2281   1
   0  -5   6 767.974 36.9800  -2
   0   0   6 767.974 36.9800   1
   1  -6   6 559.261 29.6730  -2
   1   0   6 559.261 29.6730   1
   2  -7   6 109.094 18.2953  -2
   2   0   6 109.094 18.2953   1
   3  -8   6 -0.1649 12.1495  -2
   3   0   6 -0.1649 12.1495   1
   4  -9   6 114.389 9.97226  -2
   4   0   6 114.389 9.97226   1
   5 -10   6 158.473 10.6031  -2
   5   0   6 158.473 10.6031   1
   6 -11   6 595.610 23.1615  -2
   6   0   6 595.610 23.1615   1
   7 -12   6 30.2074 14.8730  -2
   7   0   6 30.2074 14.8730   1
   8 -13   6 34.7793 11.7054  -2
   8   0   6 34.7793 11.7054   1
   9 -14   6 69.3210 12.8653  -2
   9   0   6 69.3210 12.8653   1
  10 -15   6 145.825 15.5399  -2
  10   0   6 145.825 15.5399   1
  11 -16   6 70.1728 14.5777  -2
  11   0   6 70.1728 14.5777   1
 -11   5   6 24.8993 17.3586  -2
 -11   1   6 24.8993 17.3586   1
 -10   4   6 9.53201 6.87967  -2
 -10   1   6 9.53201 6.87967   1
  -9   3   6 56.3570 5.83592  -2
  -9   1   6 56.3570 5.83592   1
  -8   2   6 270.899 9.62492  -2
  -8   1   6 270.899 9.62492   1
  -7   1   6 741.793 25.7334  -2
  -7   1   6 741.793 25.7334   1
  -6   0   6 85.7267 9.25112  -2
  -6   1   6 85.7267 9.25112   1
  -5  -1   6 151.321 9.44318  -2
  -5   1   6 151.321 9.44318   1
  -4  -2   6 431.636 16.2104  -2
  -4   1   6 431.636 16.2104   1
  -3  -3   6 63.8446 6.88975  -2
  -3   1   6 63.8446 6.88975   1
  -2  -4   6 165.987 10.7083  -2
  -2   1   6 165.987 10.7083   1
  -1  -5   6 609.518 24.0894  -2
  -1   1   6 609.518 24.0894   1
   0  -6   6 52.1790 12.3521  -2
   0   1   6 52.1790 12.3521   1
   1  -7   6 840.374 39.6734  -2
   1   1   6 840.374 39.6734   1
   2  -8   6 159.933 18.6787  -2
   2   1   6 159.933 18.6787   1
   3  -9   6 247.921 12.0942  -2
   3   1   6 247.921 12.0942   1
   4 -10   6 819.539 25.7701  -2
   4   1   6 819.539 25.7701   1
   5 -11   6 62.8147 9.51852  -2
   5   1   6 62.8147 9.51852   1
   6 -12   6 117.284 11.3415  -2
   6   1   6 117.284 11.3415   1
   7 -13   6 19.6395 11.1396  -2
   7   1   6 19.6395 11.1396   1
   8 -14   6 65.0324 12.1718  -2
   8   1   6 65.0324 12.1718   1
   9 -15   6 172.425 15.7012  -2
   9   1   6 172.425 15.7012   1
  10 -16   6 55.5688 13.8513  -2
  10   1   6 55.5688 13.8513   1
  11 -17   6 1.66088 14.5977  -2
  11   1   6 1.66088 14.5977   1
 -11   4   6 32.5300 17.2176  -2
 -11   2   6 32.5300 17.2176   1
 -10   3   6 159.523 8.50062  -2
 -10   2   6 159.523 8.50062   1
  -9   2   6 444.888 16.3834  -2
  -9   2   6 444.888 16.3834   1
  -8   1   6 269.263 10.8626  -2
  -8   2   6 269.263 10.8626   1
  -7   0   6 210.511 8.08785  -2
  -7   2   6 210.511 8.08785   1
  -6  -1   6 13.9845 8.27945  -2
  -6   2   6 13.9845 8.27945   1
  -5  -2   6 107.002 9.31652  -2
  -5   2   6 107.002 9.31652   1
  -4  -3   6 811.215 27.0190  -2
  -4   2   6 811.215 27.0190   1
  -3  -4   6 113.041 13.2004  -2
  -3   2   6 113.041 13.2004   1
  -2  -5   6 636.595 27.9897  -2
  -2   2   6 636.595 27.9897   1
  -1  -6   6 163.970 12.5449  -2
  -1   2   6 163.970 12.5449   1
   0  -7   6 68.8907 10.1236  -2
   0   2   6 68.8907 10.1236   1
   1  -8   6 4789.61 198.102  -2
   1   2   6 4789.61 198.102   1
   2  -9   6 300.976 22.0095  -2
   2   2   6 300.976 22.0095   1
   3 -10   6 294.907 12.9020  -2
   3   2   6 294.907 12.9020   1
   4 -11   6 95.1249 7.86182  -2
   4   2   6 95.1249 7.86182   1
   5 -12   6 64.7273 8.08847  -2
   5   2   6 64.7273 8.08847   1
   6 -13   6 381.008 19.8667  -2
   6   2   6 381.008 19.8667   1
   7 -14   6 77.2558 12.2534  -2
   7   2   6 77.2558 12.2534   1
   8 -15   6 8.48708 12.2558  -2
   8   2   6 8.48708 12.2558   1
   9 -16   6 79.1094 13.4869  -2
   9   2   6 79.1094 13.4869   1
  10 -17   6 2.58052 13.6498  -2
  10   2   6 2.58052 13.6498   1
  11 -18   6 46.4936 14.6299  -2
  11   2   6 46.4936 14.6299   1
 -12   4   6 -14.529 17.2622  -2
 -12   3   6 -14.529 17.2622   1
 -11   3   6 69.7209 17.2517  -2
 -11   3   6 69.7209 17.2517   1
 -10   2   6 182.654 8.97758  -2
 -10   3   6 182.654 8.97758   1
  -9   1   6 54.1850 5.89363  -2
  -9   3   6 54.1850 5.89363   1
  -8   0   6 121.890 6.98548  -2
  -8   3   6 121.890 6.98548   1
  -7  -1   6 75.4981 5.89091  -2
  -7   3   6 75.4981 5.89091   1
  -6  -2   6 73.5527 6.81570  -2
  -6   3   6 73.5527 6.81570   1
  -5  -3   6 1133.64 41.2044  -2
  -5   3   6 1133.64 41.2044   1
  -4  -4   6 744.860 28.5875  -2
  -4   3   6 744.860 28.5875   1
  -3  -5   6 128.057 16.9154  -2
  -3   3   6 128.057 16.9154   1
  -2  -6   6 34.7531 10.5870  -2
  -2   3   6 34.7531 10.5870   1
  -1  -7   6 3714.54 126.024  -2
  -1   3   6 3714.54 126.024   1
   0  -8   6 596.671 23.4630  -2
   0   3   6 596.671 23.4630   1
   1  -9   6 913.101 39.0403  -2
   1   3   6 913.101 39.0403   1
   2 -10   6 270.957 13.9245  -2
   2   3   6 270.957 13.9245   1
   3 -11   6 164.035 10.7967  -2
   3   3   6 164.035 10.7967   1
   4 -12   6 959.386 37.7641  -2
   4   3   6 959.386 37.7641   1
   5 -13   6 169.561 12.0340  -2
   5   3   6 169.561 12.0340   1
   6 -14   6 273.967 16.5895  -2
   6   3   6 273.967 16.5895   1
   7 -15   6 -0.6072 11.9756  -2
   7   3   6 -0.6072 11.9756   1
   8 -16   6 157.887 14.7491  -2
   8   3   6 157.887 14.7491   1
   9 -17   6 203.854 17.3494  -2
   9   3   6 203.854 17.3494   1
  10 -18   6 -1.1010 13.8919  -2
  10   3   6 -1.1010 13.8919   1
 -12   3   6 -3.7790 17.1248  -2
 -12   4   6 -3.7790 17.1248   1
 -11   2   6 33.2852 16.7724  -2
 -11   4   6 33.2852 16.7724   1
 -10   1   6 32.0850 6.17325  -2
 -10   4   6 32.0850 6.17325   1
  -9   0   6 -2.7006 5.57290  -2
  -9   4   6 -2.7006 5.57290   1
  -8  -1   6 591.765 21.0099  -2
  -8   4   6 591.765 21.0099   1
  -7  -2   6 215.720 8.84944  -2
  -7   4   6 215.720 8.84944   1
  -6  -3   6 67.1807 4.89067  -2
  -6   4   6 67.1807 4.89067   1
  -5  -4   6 159.212 8.77725  -2
  -5   4   6 159.212 8.77725   1
  -4  -5   6 11.5617 13.7828  -2
  -4   4   6 11.5617 13.7828   1
  -3  -6   6 136.239 15.8615  -2
  -3   4   6 136.239 15.8615   1
  -2  -7   6 676.325 26.0737  -2
  -2   4   6 676.325 26.0737   1
  -1  -8   6 1057.24 38.5887  -2
  -1   4   6 1057.24 38.5887   1
   0  -9   6 38.5558 10.6468  -2
   0   4   6 38.5558 10.6468   1
   1 -10   6 254.801 15.2440  -2
   1   4   6 254.801 15.2440   1
   2 -11   6 288.881 11.4549  -2
   2   4   6 288.881 11.4549   1
   3 -12   6 236.523 12.9806  -2
   3   4   6 236.523 12.9806   1
   4 -13   6 452.610 20.3602  -2
   4   4   6 452.610 20.3602   1
   5 -14   6 93.5974 9.82315  -2
   5   4   6 93.5974 9.82315   1
   6 -15   6 0.52486 9.29394  -2
   6   4   6 0.52486 9.29394   1
   7 -16   6 198.318 15.5971  -2
   7   4   6 198.318 15.5971   1
   8 -17   6 91.9268 13.3663  -2
   8   4   6 91.9268 13.3663   1
   9 -18   6 148.940 15.8594  -2
   9   4   6 148.940 15.8594   1
  10 -19   6 7.98739 14.3762  -2
  10   4   6 7.98739 14.3762   1
 -12   2   6 163.762 21.2085  -2
 -12   5   6 163.762 21.2085   1
 -11   1   6 63.3682 17.2274  -2
 -11   5   6 63.3682 17.2274   1
 -10   0   6 434.904 16.6572  -2
 -10   5   6 434.904 16.6572   1
  -9  -1   6 122.660 7.59890  -2
  -9   5   6 122.660 7.59890   1
  -8  -2   6 129.189 6.78205  -2
  -8   5   6 129.189 6.78205   1
  -7  -3   6 297.420 10.3307  -2
  -7   5   6 297.420 10.3307   1
  -6  -4   6 67.4832 5.81334  -2
  -6   5   6 67.4832 5.81334   1
  -5  -5   6 677.470 21.6979  -2
  -5   5   6 677.470 21.6979   1
  -4  -6   6 548.482 29.1153  -2
  -4   5   6 548.482 29.1153   1
  -3  -7   6 -8.5879 13.7829  -2
  -3   5   6 -8.5879 13.7829   1
  -2  -8   6 662.411 29.5952  -2
  -2   5   6 662.411 29.5952   1
  -1  -9   6 101.810 12.3025  -2
  -1   5   6 101.810 12.3025   1
   0 -10   6 1659.19 68.4877  -2
   0   5   6 1659.19 68.4877   1
   1 -11   6 615.425 21.1636  -2
   1   5   6 615.425 21.1636   1
   2 -12   6 77.3414 6.90919  -2
   2   5   6 77.3414 6.90919   1
   3 -13   6 16.2937 8.43262  -2
   3   5   6 16.2937 8.43262   1
   4 -14   6 11.0929 9.16629  -2
   4   5   6 11.0929 9.16629   1
   5 -15   6 38.2093 10.1712  -2
   5   5   6 38.2093 10.1712   1
   6 -16   6 403.028 17.7006  -2
   6   5   6 403.028 17.7006   1
   7 -17   6 35.6614 11.9598  -2
   7   5   6 35.6614 11.9598   1
   8 -18   6 12.6023 12.2389  -2
   8   5   6 12.6023 12.2389   1
   9 -19   6 8.38793 12.9663  -2
   9   5   6 8.38793 12.9663   1
  10 -20   6 65.8895 14.3554  -2
  10   5   6 65.8895 14.3554   1
 -11   0   6 30.8049 17.7679  -2
 -11   6   6 30.8049 17.7679   1
 -10  -1   6 331.661 13.6671  -2
 -10   6   6 331.661 13.6671   1
  -9  -2   6 39.5561 6.03593  -2
  -9   6   6 39.5561 6.03593   1
  -8  -3   6 703.973 20.4387  -2
  -8   6   6 703.973 20.4387   1
  -7  -4   6 1651.02 44.5807  -2
  -7   6   6 1651.02 44.5807   1
  -6  -5   6 90.6293 6.37912  -2
  -6   6   6 90.6293 6.37912   1
  -5  -6   6 451.635 16.7104  -2
  -5   6   6 451.635 16.7104   1
  -4  -7   6 344.120 16.5674  -2
  -4   6   6 344.120 16.5674   1
  -3  -8   6 103.663 8.83493  -2
  -3   6   6 103.663 8.83493   1
  -2  -9   6 2035.67 83.5625  -2
  -2   6   6 2035.67 83.5625   1
  -1 -10   6 171.497 14.0865  -2
  -1   6   6 171.497 14.0865   1
   0 -11   6 672.122 22.9222  -2
   0   6   6 672.122 22.9222   1
   1 -12   6 191.035 9.52014  -2
   1   6   6 191.035 9.52014   1
   2 -13   6 152.023 9.18195  -2
   2   6   6 152.023 9.18195   1
   3 -14   6 502.976 17.9502  -2
   3   6   6 502.976 17.9502   1
   4 -15   6 422.766 19.7471  -2
   4   6   6 422.766 19.7471   1
   5 -16   6 -15.125 9.92289  -2
   5   6   6 -15.125 9.92289   1
   6 -17   6 115.866 12.4994  -2
   6   6   6 115.866 12.4994   1
   7 -18   6 13.9609 12.6346  -2
   7   6   6 13.9609 12.6346   1
   8 -19   6 16.6947 13.2893  -2
   8   6   6 16.6947 13.2893   1
   9 -20   6 55.2647 14.3182  -2
   9   6   6 55.2647 14.3182   1
  10   6   6 30.4174 10.5050   1
 -10  -2   6 124.693 9.29418  -2
 -10   7   6 124.693 9.29418   1
  -9  -3   6 70.5861 6.49038  -2
  -9   7   6 70.5861 6.49038   1
  -8  -4   6 150.832 7.54069  -2
  -8   7   6 150.832 7.54069   1
  -7  -5   6 243.551 9.70174  -2
  -7   7   6 243.551 9.70174   1
  -6  -6   6 17.7950 5.65868  -2
  -6   7   6 17.7950 5.65868   1
  -5  -7   6 295.187 12.0500  -2
  -5   7   6 295.187 12.0500   1
  -4  -8   6 1958.16 78.7076  -2
  -4   7   6 1958.16 78.7076   1
  -3  -9   6 242.982 12.4169  -2
  -3   7   6 242.982 12.4169   1
  -2 -10   6 288.489 16.7932  -2
  -2   7   6 288.489 16.7932   1
  -1 -11   6 938.078 30.9175  -2
  -1   7   6 938.078 30.9175   1
   0 -12   6 481.013 17.3060  -2
   0   7   6 481.013 17.3060   1
   1 -13   6 924.878 30.5444  -2
   1   7   6 924.878 30.5444   1
   2 -14   6 83.1669 7.86814  -2
   2   7   6 83.1669 7.86814   1
   3 -15   6 41.9216 6.97655  -2
   3   7   6 41.9216 6.97655   1
   4 -16   6 177.828 12.2389  -2
   4   7   6 177.828 12.2389   1
   5 -17   6 148.843 12.9737  -2
   5   7   6 148.843 12.9737   1
   6 -18   6 542.134 24.7951  -2
   6   7   6 542.134 24.7951   1
   7 -19   6 44.1534 12.8353  -2
   7   7   6 44.1534 12.8353   1
   8 -20   6 19.2188 12.7923  -2
   8   7   6 19.2188 12.7923   1
   9 -21   6 2.83805 13.1422  -2
   9   7   6 2.83805 13.1422   1
 -10  -3   6 143.161 9.90550  -2
 -10   8   6 143.161 9.90550   1
  -9  -4   6 38.8457 6.41020  -2
  -9   8   6 38.8457 6.41020   1
  -8  -5   6 31.8231 6.15008  -2
  -8   8   6 31.8231 6.15008   1
  -7  -6   6 21.6639 5.41346  -2
  -7   8   6 21.6639 5.41346   1
  -6  -7   6 156.244 7.86562  -2
  -6   8   6 156.244 7.86562   1
  -5  -8   6 686.997 24.4065  -2
  -5   8   6 686.997 24.4065   1
  -4  -9   6 1058.45 43.4203  -2
  -4   8   6 1058.45 43.4203   1
  -3 -10   6 48.5298 16.8011  -2
  -3   8   6 48.5298 16.8011   1
  -2 -11   6 88.3702 7.34001  -2
  -2   8   6 88.3702 7.34001   1
  -1 -12   6 1008.28 33.0817  -2
  -1   8   6 1008.28 33.0817   1
   0 -13   6 457.831 16.7330  -2
   0   8   6 457.831 16.7330   1
   1 -14   6 886.739 29.4932  -2
   1   8   6 886.739 29.4932   1
   2 -15   6 78.4385 8.13630  -2
   2   8   6 78.4385 8.13630   1
   3 -16   6 74.7209 7.92254  -2
   3   8   6 74.7209 7.92254   1
   4 -17   6 608.793 42.0598  -2
   4   8   6 608.793 42.0598   1
   5 -18   6 303.112 29.7448  -2
   5   8   6 303.112 29.7448   1
   6 -19   6 90.2515 12.6302  -2
   6   8   6 90.2515 12.6302   1
   7 -20   6 74.4436 13.2222  -2
   7   8   6 74.4436 13.2222   1
   8 -21   6 47.2710 13.5341  -2
   8   8   6 47.2710 13.5341   1
   9 -22   6 30.3828 12.8249  -2
   9   8   6 30.3828 12.8249   1
 -10  -4   6 2.99206 8.02690  -2
 -10   9   6 2.99206 8.02690   1
  -9  -5   6 5.91148 6.44315  -2
  -9   9   6 5.91148 6.44315   1
  -8  -6   6 199.198 9.22679  -2
  -8   9   6 199.198 9.22679   1
  -7  -7   6 96.2219 6.91531  -2
  -7   9   6 96.2219 6.91531   1
  -6  -8   6 35.9353 6.08686  -2
  -6   9   6 35.9353 6.08686   1
  -5  -9   6 12.5262 5.85462  -2
  -5   9   6 12.5262 5.85462   1
  -4 -10   6 77.8706 8.00935  -2
  -4   9   6 77.8706 8.00935   1
  -3 -11   6 29.3506 6.75798  -2
  -3   9   6 29.3506 6.75798   1
  -2 -12   6 208.149 10.2046  -2
  -2   9   6 208.149 10.2046   1
  -1 -13   6 203.504 10.1234  -2
  -1   9   6 203.504 10.1234   1
   0 -14   6 108.916 8.46502  -2
   0   9   6 108.916 8.46502   1
   1 -15   6 89.5366 8.10127  -2
   1   9   6 89.5366 8.10127   1
   2 -16   6 263.188 12.0877  -2
   2   9   6 263.188 12.0877   1
   3 -17   6 335.897 17.4978  -2
   3   9   6 335.897 17.4978   1
   4 -18   6 503.549 37.6972  -2
   4   9   6 503.549 37.6972   1
   5 -19   6 31.6580 24.0865  -2
   5   9   6 31.6580 24.0865   1
   6 -20   6 5.40894 11.7842  -2
   6   9   6 5.40894 11.7842   1
   7 -21   6 59.7360 13.3383  -2
   7   9   6 59.7360 13.3383   1
   8 -22   6 100.247 14.7729  -2
   8   9   6 100.247 14.7729   1
 -10  -5   6 253.749 17.3157  -2
 -10  10   6 253.749 17.3157   1
  -9  -6   6 61.8750 8.21566  -2
  -9  10   6 61.8750 8.21566   1
  -8  -7   6 84.6189 7.12798  -2
  -8  10   6 84.6189 7.12798   1
  -7  -8   6 140.952 8.25555  -2
  -7  10   6 140.952 8.25555   1
  -6  -9   6 183.725 9.17576  -2
  -6  10   6 183.725 9.17576   1
  -5 -10   6 891.506 30.9153  -2
  -5  10   6 891.506 30.9153   1
  -4 -11   6 200.144 10.3143  -2
  -4  10   6 200.144 10.3143   1
  -3 -12   6 37.9418 7.23434  -2
  -3  10   6 37.9418 7.23434   1
  -2 -13   6 31.2591 7.02490  -2
  -2  10   6 31.2591 7.02490   1
  -1 -14   6 46.4560 7.66380  -2
  -1  10   6 46.4560 7.66380   1
   0 -15   6 119.374 8.99191  -2
   0  10   6 119.374 8.99191   1
   1 -16   6 264.573 14.3529  -2
   1  10   6 264.573 14.3529   1
   2 -17   6 88.0079 13.2735  -2
   2  10   6 88.0079 13.2735   1
   4 -19   6 -31.443 23.4469  -2
   4  10   6 -31.443 23.4469   1
   5 -20   6 38.2662 11.8091  -2
   5  10   6 38.2662 11.8091   1
   6 -21   6 95.3867 12.6710  -2
   6  10   6 95.3867 12.6710   1
   7 -22   6 45.1106 12.8149  -2
   7  10   6 45.1106 12.8149   1
   8 -23   6 -16.824 13.7150  -2
   8  10   6 -16.824 13.7150   1
 -11  -5   6 104.969 12.2165  -2
 -11  11   6 104.969 12.2165   1
 -10  -6   6 203.519 15.4706  -2
 -10  11   6 203.519 15.4706   1
  -9  -7   6 -0.0969 8.02312  -2
  -9  11   6 -0.0969 8.02312   1
  -8  -8   6 15.3983 6.88809  -2
  -8  11   6 15.3983 6.88809   1
  -7  -9   6 467.253 13.3760  -2
  -7  11   6 467.253 13.3760   1
  -6 -10   6 183.576 7.90056  -2
  -6  11   6 183.576 7.90056   1
  -5 -11   6 557.804 16.8458  -2
  -5  11   6 557.804 16.8458   1
  -4 -12   6 134.527 9.06125  -2
  -4  11   6 134.527 9.06125   1
  -3 -13   6 48.3666 7.75752  -2
  -3  11   6 48.3666 7.75752   1
  -2 -14   6 1257.60 49.3387  -2
  -2  11   6 1257.60 49.3387   1
  -1 -15   6 226.378 12.7489  -2
  -1  11   6 226.378 12.7489   1
   0 -16   6 74.4100 9.12546  -2
   0  11   6 74.4100 9.12546   1
   1 -17   6 0.90026 18.8983  -2
   1  11   6 0.90026 18.8983   1
   5 -21   6 46.5157 25.0464  -2
   5  11   6 46.5157 25.0464   1
   6 -22   6 4.12984 12.0930  -2
   6  11   6 4.12984 12.0930   1
   7 -23   6 -15.821 12.8161  -2
   7  11   6 -15.821 12.8161   1
 -11  -6   6 78.5861 12.5149  -2
 -11  12   6 78.5861 12.5149   1
 -10  -7   6 -7.8241 11.7751  -2
 -10  12   6 -7.8241 11.7751   1
  -9  -8   6 79.2846 9.06281  -2
  -9  12   6 79.2846 9.06281   1
  -8  -9   6 87.8820 8.75505  -2
  -8  12   6 87.8820 8.75505   1
  -7 -10   6 210.212 8.38703  -2
  -7  12   6 210.212 8.38703   1
  -6 -11   6 26.2164 5.72983  -2
  -6  12   6 26.2164 5.72983   1
  -5 -12   6 38.3135 5.74164  -2
  -5  12   6 38.3135 5.74164   1
  -4 -13   6 104.338 9.88144  -2
  -4  12   6 104.338 9.88144   1
   0 -17   6 325.630 28.0037  -2
   0  12   6 325.630 28.0037   1
   5 -22   6 43.3837 25.6457  -2
   5  12   6 43.3837 25.6457   1
   6 -23   6 51.6745 12.6595  -2
   6  12   6 51.6745 12.6595   1
   7  12   6 -0.6204 9.57213   1
 -11  -7   6 13.3141 12.3514  -2
 -11  13   6 13.3141 12.3514   1
 -10  -8   6 -8.5769 11.4978  -2
 -10  13   6 -8.5769 11.4978   1
  -9  -9   6 69.2465 8.34662  -2
  -9  13   6 69.2465 8.34662   1
  -8 -10   6 5.33671 8.72005  -2
  -8  13   6 5.33671 8.72005   1
  -7 -11   6 -10.062 5.79639  -2
  -7  13   6 -10.062 5.79639   1
  -6 -12   6 20.1396 6.08881  -2
  -6  13   6 20.1396 6.08881   1
  -5 -13   6 91.0973 8.43454  -2
  -5  13   6 91.0973 8.43454   1
   0 -18   6 1.53948 20.9251  -2
   0  13   6 1.53948 20.9251   1
   5 -23   6 46.9738 12.5452  -2
   5  13   6 46.9738 12.5452   1
   6 -24   6 54.9801 28.1685  -2
   6  13   6 54.9801 28.1685   1
 -11  -8   6 11.2534 14.6979  -2
 -11  14   6 11.2534 14.6979   1
 -10  -9   6 70.9934 12.9786  -2
 -10  14   6 70.9934 12.9786   1
  -9 -10   6 23.0514 9.70382  -2
  -9  14   6 23.0514 9.70382   1
  -8 -11   6 98.4023 9.30858  -2
  -8  14   6 98.4023 9.30858   1
  -7 -12   6 3.06749 8.94789  -2
  -7  14   6 3.06749 8.94789   1
  -6 -13   6 27.3285 6.88949  -2
  -6  14   6 27.3285 6.88949   1
  -5 -14   6 -1.8834 7.68642  -2
  -5  14   6 -1.8834 7.68642   1
  -1 -18   6 422.345 33.2144  -2
  -1  14   6 422.345 33.2144   1
   5 -24   6 -1.3413 13.9171  -2
   5  14   6 -1.3413 13.9171   1
 -11  -9   6 14.0356 12.8351  -2
 -11  15   6 14.0356 12.8351   1
 -10 -10   6 420.295 21.2131  -2
 -10  15   6 420.295 21.2131   1
  -9 -11   6 16.0146 9.96161  -2
  -9  15   6 16.0146 9.96161   1
  -8 -12   6 126.551 11.2591  -2
  -8  15   6 126.551 11.2591   1
  -7 -13   6 8.96371 8.75152  -2
  -7  15   6 8.96371 8.75152   1
  -6 -14   6 25.3788 6.46120  -2
  -6  15   6 25.3788 6.46120   1
  -4 -16   6 97.8981 11.9446  -2
  -4  15   6 97.8981 11.9446   1
   5  15   6 33.5017 10.4474   1
 -11 -10   6 33.4988 16.2261  -2
 -11  16   6 33.4988 16.2261   1
 -10 -11   6 113.925 15.6049  -2
 -10  16   6 113.925 15.6049   1
  -9 -12   6 4.26573 10.4216  -2
  -9  16   6 4.26573 10.4216   1
  -8 -13   6 14.0541 9.17896  -2
  -8  16   6 14.0541 9.17896   1
  -7 -14   6 127.684 8.01747  -2
  -7  16   6 127.684 8.01747   1
  -6 -15   6 33.0541 9.41037  -2
  -6  16   6 33.0541 9.41037   1
  -5 -16   6 6.77701 8.66296  -2
  -5  16   6 6.77701 8.66296   1
   4 -25   6 42.8415 29.8564  -2
   4  16   6 42.8415 29.8564   1
   4 -25   7 70.7062 21.3288  -2
   4 -25   6 70.7062 21.3288  -2
   4  16   6 70.7062 21.3288   1
 -11 -11   6 30.3732 15.6391  -2
 -11  17   6 30.3732 15.6391   1
 -10 -12   6 -9.0945 14.4657  -2
 -10  17   6 -9.0945 14.4657   1
  -9 -13   6 55.5642 11.3787  -2
  -9  17   6 55.5642 11.3787   1
  -8 -14   6 46.8005 10.5365  -2
  -8  17   6 46.8005 10.5365   1
  -7 -15   6 196.500 13.4286  -2
  -7  17   6 196.500 13.4286   1
  -6 -16   6 16.1071 8.80117  -2
  -6  17   6 16.1071 8.80117   1
   3 -25   7 46.5239 20.5902  -2
   3 -25   6 46.5239 20.5902  -2
   3  17   6 46.5239 20.5902   1
   3 -25   6 -4.3448 31.5465  -2
   3  17   6 -4.3448 31.5465   1
 -10 -13   6 65.4249 13.0446  -2
 -10  18   6 65.4249 13.0446   1
  -9 -14   6 40.9116 11.5281  -2
  -9  18   6 40.9116 11.5281   1
  -8 -15   6 31.9601 10.8626  -2
  -8  18   6 31.9601 10.8626   1
  -7 -16   6 0.40719 10.4440  -2
  -7  18   6 0.40719 10.4440   1
  -6 -17   6 5.81901 9.66713  -2
  -6  18   6 5.81901 9.66713   1
   2 -25   7 76.9121 19.0349  -2
   2  18   6 76.9121 19.0349   1
  -9 -15   6 3.96987 11.5005  -2
  -9  19   6 3.96987 11.5005   1
  -8 -16   6 70.9926 11.6458  -2
  -8  19   6 70.9926 11.6458   1
  -7 -17   6 27.9778 10.9925  -2
  -7  19   6 27.9778 10.9925   1
  -8 -17   6 18.7654 15.0090  -2
  -8  20   6 18.7654 15.0090   1
  -7 -18   6 13.0772 10.3791  -2
  -7  20   6 13.0772 10.3791   1
  -6 -19   6 -15.347 11.1244  -2
  -6  20   6 -15.347 11.1244   1
  -5 -20   6 -12.830 10.6759  -2
  -5  20   6 -12.830 10.6759   1
   3  16   7 69.4956 29.4574  -2
   3 -25   7 69.4956 29.4574   1
   4  15   7 76.0939 31.8601  -2
   4 -25   7 76.0939 31.8601   1
   0  18   7 67.8592 15.6803  -2
   0 -24   7 67.8592 15.6803   1
   1  17   7 230.293 20.2958  -2
   1 -24   7 230.293 20.2958   1
   2  16   7 209.747 30.4252  -2
   2 -24   7 209.747 30.4252   1
   3  15   7 16.1687 28.3090  -2
   3 -24   7 16.1687 28.3090   1
   4  14   7 6.59415 30.3421  -2
   4 -24   7 6.59415 30.3421   1
  -2  19   7 47.3129 13.5495  -2
  -2 -23   7 47.3129 13.5495   1
  -1  18   7 60.7805 15.7407  -2
  -1 -23   7 60.7805 15.7407   1
   0  17   7 80.2689 15.5845  -2
   0 -23   7 80.2689 15.5845   1
   1  16   7 66.4440 15.8241  -2
   1 -23   7 66.4440 15.8241   1
   2  15   7 -31.512 26.4595  -2
   2 -23   7 -31.512 26.4595   1
   3  14   7 -34.561 27.0795  -2
   3 -23   7 -34.561 27.0795   1
   4  13   7 86.4095 30.2853  -2
   4 -23   7 86.4095 30.2853   1
  -4  20   7 12.7929 15.4130  -2
  -4 -22   7 12.7929 15.4130   1
  -3  19   7 20.0706 13.3438  -2
  -3 -22   7 20.0706 13.3438   1
  -2  18   7 34.8335 15.3792  -2
  -2 -22   7 34.8335 15.3792   1
  -1  17   7 83.5028 16.1208  -2
  -1 -22   7 83.5028 16.1208   1
   0  16   7 28.1703 15.4818  -2
   0 -22   7 28.1703 15.4818   1
   1  15   7 35.9718 12.6808  -2
   1 -22   7 35.9718 12.6808   1
   2  14   7 74.6637 25.8967  -2
   2 -22   7 74.6637 25.8967   1
   3  13   7 107.675 29.3123  -2
   3 -22   7 107.675 29.3123   1
  -5  20   7 78.1739 16.7856  -2
  -5 -21   7 78.1739 16.7856   1
  -4  19   7 34.4960 15.0927  -2
  -4 -21   7 34.4960 15.0927   1
  -3  18   7 -13.198 12.7099  -2
  -3 -21   7 -13.198 12.7099   1
  -2  17   7 2.48948 14.2858  -2
  -2 -21   7 2.48948 14.2858   1
  -1  16   7 210.565 18.3865  -2
  -1 -21   7 210.565 18.3865   1
   0  15   7 75.6032 14.5889  -2
   0 -21   7 75.6032 14.5889   1
   1  14   7 184.244 14.8088  -2
   1 -21   7 184.244 14.8088   1
   2  13   7 2.76870 25.7591  -2
   2 -21   7 2.76870 25.7591   1
   3  12   7 38.8059 28.1649  -2
   3 -21   7 38.8059 28.1649   1
  -4  18   7 -21.723 14.2451  -2
  -4 -20   7 -21.723 14.2451   1
  -3  17   7 43.4783 12.3746  -2
  -3 -20   7 43.4783 12.3746   1
  -2  16   7 97.1661 15.3429  -2
  -2 -20   7 97.1661 15.3429   1
  -1  15   7 26.5694 13.9757  -2
  -1 -20   7 26.5694 13.9757   1
   0  14   7 72.1730 14.1834  -2
   0 -20   7 72.1730 14.1834   1
   1  13   7 35.9259 11.9312  -2
   1 -20   7 35.9259 11.9312   1
   2  12   7 103.556 27.2048  -2
   2 -20   7 103.556 27.2048   1
   3  11   7 56.2970 27.6165  -2
   3 -20   7 56.2970 27.6165   1
  -6  19   7 12.1934 14.9820  -2
  -6 -19   7 12.1934 14.9820   1
  -5  18   7 3.72885 14.0484  -2
  -5 -19   7 3.72885 14.0484   1
  -4  17   7 71.8161 12.5773  -2
  -4 -19   7 71.8161 12.5773   1
  -3  16   7 110.523 12.8982  -2
  -3 -19   7 110.523 12.8982   1
  -2  15   7 42.1832 13.9731  -2
  -2 -19   7 42.1832 13.9731   1
  -1  14   7 19.5292 14.0091  -2
  -1 -19   7 19.5292 14.0091   1
   0  13   7 29.1241 11.0778  -2
   0 -19   7 29.1241 11.0778   1
   1  12   7 50.4637 23.6318  -2
   1 -19   7 50.4637 23.6318   1
   2  11   7 172.528 28.0331  -2
   2 -19   7 172.528 28.0331   1
   3  10   7 31.9627 25.2159  -2
   3 -19   7 31.9627 25.2159   1
   9   5   7 68.5462 38.8930  -2
   9 -19   7 68.5462 38.8930   1
  -7  19   7 58.5085 14.1924  -2
  -7 -18   7 58.5085 14.1924   1
  -6  18   7 88.3374 14.7878  -2
  -6 -18   7 88.3374 14.7878   1
  -5  17   7 39.9683 13.7341  -2
  -5 -18   7 39.9683 13.7341   1
  -4  16   7 33.4039 11.7407  -2
  -4 -18   7 33.4039 11.7407   1
  -3  15   7 10.1750 11.2841  -2
  -3 -18   7 10.1750 11.2841   1
  -2  14   7 41.2649 13.1938  -2
  -2 -18   7 41.2649 13.1938   1
  -1  13   7 97.0938 13.8970  -2
  -1 -18   7 97.0938 13.8970   1
   0  12   7 124.165 12.0858  -2
   0 -18   7 124.165 12.0858   1
   1  11   7 41.1734 24.2252  -2
   1 -18   7 41.1734 24.2252   1
   2  10   7 -9.1331 18.4882  -2
   2 -18   7 -9.1331 18.4882   1
   3   9   7 139.688 19.3493  -2
   3 -18   7 139.688 19.3493   1
   4   8   7 407.150 39.1362  -2
   4 -18   7 407.150 39.1362   1
  10   3   7 232.041 38.4930  -2
  10 -18   7 232.041 38.4930   1
  11 -18   7 19.5468 22.1089   1
  -8  19   7 66.2858 13.5938  -2
  -8 -17   7 66.2858 13.5938   1
  -7  18   7 115.385 14.5713  -2
  -7 -17   7 115.385 14.5713   1
  -6  17   7 9.00172 12.8998  -2
  -6 -17   7 9.00172 12.8998   1
  -5  16   7 6.66534 12.8471  -2
  -5 -17   7 6.66534 12.8471   1
  -4  15   7 160.705 13.3042  -2
  -4 -17   7 160.705 13.3042   1
  -3  14   7 103.554 14.6205  -2
  -3 -17   7 103.554 14.6205   1
  -2  13   7 129.688 14.4058  -2
  -2 -17   7 129.688 14.4058   1
  -1  12   7 76.0742 10.3058  -2
  -1 -17   7 76.0742 10.3058   1
   0  11   7 244.607 19.9382  -2
   0 -17   7 244.607 19.9382   1
   1  10   7 125.693 18.2096  -2
   1 -17   7 125.693 18.2096   1
   2   9   7 178.006 19.8065  -2
   2 -17   7 178.006 19.8065   1
   3   8   7 207.172 20.0672  -2
   3 -17   7 207.172 20.0672   1
   4   7   7 117.466 27.7213  -2
   4 -17   7 117.466 27.7213   1
  10   2   7 152.587 36.1564  -2
  10 -17   7 152.587 36.1564   1
  -8  18   7 4.54982 12.4202  -2
  -8 -16   7 4.54982 12.4202   1
  -7  17   7 43.1968 12.7297  -2
  -7 -16   7 43.1968 12.7297   1
  -6  16   7 60.0098 13.1796  -2
  -6 -16   7 60.0098 13.1796   1
  -5  15   7 41.6471 12.4330  -2
  -5 -16   7 41.6471 12.4330   1
  -4  14   7 666.390 27.9635  -2
  -4 -16   7 666.390 27.9635   1
  -3  13   7 54.9462 12.5157  -2
  -3 -16   7 54.9462 12.5157   1
  -2  12   7 2.19384 12.1356  -2
  -2 -16   7 2.19384 12.1356   1
  -1  11   7 232.952 16.6913  -2
  -1 -16   7 232.952 16.6913   1
   0  10   7 243.617 26.2668  -2
   0 -16   7 243.617 26.2668   1
   1   9   7 98.5375 17.5053  -2
   1 -16   7 98.5375 17.5053   1
   2   8   7 64.4492 17.2646  -2
   2 -16   7 64.4492 17.2646   1
   3   7   7 24.4776 25.4495  -2
   3 -16   7 24.4776 25.4495   1
   4   6   7 86.7465 27.0946  -2
   4 -16   7 86.7465 27.0946   1
   5   5   7 47.0383 26.9150  -2
   5 -16   7 47.0383 26.9150   1
   9   2   7 25.5592 32.1996  -2
   9 -16   7 25.5592 32.1996   1
  -9  18   7 21.4986 12.8962  -2
  -9 -15   7 21.4986 12.8962   1
  -8  17   7 50.1458 12.2271  -2
  -8 -15   7 50.1458 12.2271   1
  -7  16   7 9.46727 11.8867  -2
  -7 -15   7 9.46727 11.8867   1
  -6  15   7 305.029 19.9599  -2
  -6 -15   7 305.029 19.9599   1
  -5  14   7 13.3268 10.0707  -2
  -5 -15   7 13.3268 10.0707   1
  -4  13   7 29.7355 10.1441  -2
  -4 -15   7 29.7355 10.1441   1
  -3  12   7 156.958 14.0878  -2
  -3 -15   7 156.958 14.0878   1
  -2  11   7 158.445 13.9398  -2
  -2 -15   7 158.445 13.9398   1
  -1  10   7 1596.25 62.5846  -2
  -1 -15   7 1596.25 62.5846   1
   0   9   7 73.7123 15.8240  -2
   0 -15   7 73.7123 15.8240   1
   1   8   7 4.52990 15.9337  -2
   1 -15   7 4.52990 15.9337   1
   2   7   7 458.743 26.0715  -2
   2 -15   7 458.743 26.0715   1
   3   6   7 115.716 24.6070  -2
   3 -15   7 115.716 24.6070   1
   4   5   7 760.146 52.1789  -2
   4 -15   7 760.146 52.1789   1
   5   4   7 -39.995 25.0593  -2
   5 -15   7 -39.995 25.0593   1
   8   2   7 69.6753 31.7412  -2
   8 -15   7 69.6753 31.7412   1
  -9  17   7 17.6403 12.1063  -2
  -9 -14   7 17.6403 12.1063   1
  -8  16   7 -5.1250 12.2261  -2
  -8 -14   7 -5.1250 12.2261   1
  -7  15   7 39.0176 11.5652  -2
  -7 -14   7 39.0176 11.5652   1
  -6  14   7 99.6642 11.6847  -2
  -6 -14   7 99.6642 11.6847   1
  -5  13   7 -17.792 9.34554  -2
  -5 -14   7 -17.792 9.34554   1
  -4  12   7 88.7223 10.2211  -2
  -4 -14   7 88.7223 10.2211   1
  -3  11   7 636.636 34.1999  -2
  -3 -14   7 636.636 34.1999   1
  -2  10   7 191.875 14.5958  -2
  -2 -14   7 191.875 14.5958   1
  -1   9   7 66.7216 23.7758  -2
  -1 -14   7 66.7216 23.7758   1
   0   8   7 130.451 23.9075  -2
   0 -14   7 130.451 23.9075   1
   1   7   7 172.141 18.2298  -2
   1 -14   7 172.141 18.2298   1
   2   6   7 702.811 34.7861  -2
   2 -14   7 702.811 34.7861   1
   3   5   7 22.5587 22.2701  -2
   3 -14   7 22.5587 22.2701   1
   4   4   7 68.6178 23.4823  -2
   4 -14   7 68.6178 23.4823   1
   7   2   7 714.964 54.2663  -2
   7 -14   7 714.964 54.2663   1
   8   1   7 42.0275 31.5551  -2
   8 -14   7 42.0275 31.5551   1
  -9  16   7 -1.0393 11.8351  -2
  -9 -13   7 -1.0393 11.8351   1
  -8  15   7 -7.8991 11.4438  -2
  -8 -13   7 -7.8991 11.4438   1
  -7  14   7 216.178 15.8853  -2
  -7 -13   7 216.178 15.8853   1
  -6  13   7 173.643 12.1903  -2
  -6 -13   7 173.643 12.1903   1
  -5  12   7 36.9725 9.38520  -2
  -5 -13   7 36.9725 9.38520   1
  -4  11   7 56.6009 8.93476  -2
  -4 -13   7 56.6009 8.93476   1
  -3  10   7 51.7118 10.6460  -2
  -3 -13   7 51.7118 10.6460   1
  -2   9   7 94.4626 11.1229  -2
  -2 -13   7 94.4626 11.1229   1
  -1   8   7 159.522 24.8080  -2
  -1 -13   7 159.522 24.8080   1
   1   6   7 116.761 16.1311  -2
   1 -13   7 116.761 16.1311   1
   2   5   7 309.847 17.2834  -2
   2 -13   7 309.847 17.2834   1
   3   4   7 68.7038 23.0916  -2
   3 -13   7 68.7038 23.0916   1
   4   3   7 82.2315 24.0436  -2
   4 -13   7 82.2315 24.0436   1
   8   0   7 97.1204 30.8260  -2
   8 -13   7 97.1204 30.8260   1
   9  -1   7 253.757 35.5858  -2
   9 -13   7 253.757 35.5858   1
  -9  15   7 119.980 13.2042  -2
  -9 -12   7 119.980 13.2042   1
  -8  14   7 54.6671 11.8586  -2
  -8 -12   7 54.6671 11.8586   1
  -7  13   7 47.0415 10.9232  -2
  -7 -12   7 47.0415 10.9232   1
  -6  12   7 64.8611 9.77318  -2
  -6 -12   7 64.8611 9.77318   1
  -5  11   7 -1.0717 7.91476  -2
  -5 -12   7 -1.0717 7.91476   1
  -4  10   7 267.539 13.3262  -2
  -4 -12   7 267.539 13.3262   1
  -3   9   7 88.2394 11.0220  -2
  -3 -12   7 88.2394 11.0220   1
  -2   8   7 83.8753 10.3986  -2
  -2 -12   7 83.8753 10.3986   1
   2   4   7 519.004 27.7897  -2
   2 -12   7 519.004 27.7897   1
   3   3   7 154.475 23.8568  -2
   3 -12   7 154.475 23.8568   1
  -8  13   7 48.7086 11.1060  -2
  -8 -11   7 48.7086 11.1060   1
  -7  12   7 70.7714 10.6009  -2
  -7 -11   7 70.7714 10.6009   1
  -6  11   7 309.045 14.8605  -2
  -6 -11   7 309.045 14.8605   1
  -5  10   7 377.102 16.6742  -2
  -5 -11   7 377.102 16.6742   1
  -4   9   7 712.401 28.0948  -2
  -4 -11   7 712.401 28.0948   1
  -3   8   7 84.9959 10.2180  -2
  -3 -11   7 84.9959 10.2180   1
   2   3   7 46.1278 22.8259  -2
   2 -11   7 46.1278 22.8259   1
   6   0   7 86.6371 27.0395  -2
   6 -11   7 86.6371 27.0395   1
  -8  12   7 25.7882 10.5386  -2
  -8 -10   7 25.7882 10.5386   1
  -7  11   7 119.374 10.7235  -2
  -7 -10   7 119.374 10.7235   1
  -6  10   7 853.715 35.6042  -2
  -6 -10   7 853.715 35.6042   1
  -5   9   7 50.7881 7.65140  -2
  -5 -10   7 50.7881 7.65140   1
  -4   8   7 171.201 9.91003  -2
  -4 -10   7 171.201 9.91003   1
  -3   7   7 465.944 25.2580  -2
  -3 -10   7 465.944 25.2580   1
   3   1   7 117.830 23.0264  -2
   3 -10   7 117.830 23.0264   1
   6  -1   7 65.3843 25.4469  -2
   6 -10   7 65.3843 25.4469   1
  -8  11   7 70.0191 10.8854  -2
  -8  -9   7 70.0191 10.8854   1
  -7  10   7 61.6618 9.40860  -2
  -7  -9   7 61.6618 9.40860   1
  -6   9   7 29.0032 7.19714  -2
  -6  -9   7 29.0032 7.19714   1
  -5   8   7 142.711 8.49287  -2
  -5  -9   7 142.711 8.49287   1
  -4   7   7 226.400 15.3123  -2
  -4  -9   7 226.400 15.3123   1
  -3   6   7 947.822 47.3778  -2
  -3  -9   7 947.822 47.3778   1
  -2   5   7 161.569 37.2980  -2
  -2  -9   7 161.569 37.2980   1
   3   0   7 151.542 24.4259  -2
   3  -9   7 151.542 24.4259   1
   6  -2   7 8.98026 21.8026  -2
   6  -9   7 8.98026 21.8026   1
  -8  10   7 -1.7593 9.88616  -2
  -8  -8   7 -1.7593 9.88616   1
  -7   9   7 102.561 10.8897  -2
  -7  -8   7 102.561 10.8897   1
  -6   8   7 997.461 32.6601  -2
  -6  -8   7 997.461 32.6601   1
  -5   7   7 210.295 9.47890  -2
  -5  -8   7 210.295 9.47890   1
  -4   6   7 364.535 14.8019  -2
  -4  -8   7 364.535 14.8019   1
  -3   5   7 162.070 11.7231  -2
  -3  -8   7 162.070 11.7231   1
  -2   4   7 380.833 43.6538  -2
  -2  -8   7 380.833 43.6538   1
  -1   3   7 594.579 54.4560  -2
  -1  -8   7 594.579 54.4560   1
   3  -1   7 1574.80 97.9910  -2
   3  -8   7 1574.80 97.9910   1
   6  -3   7 103.846 23.1142  -2
   6  -8   7 103.846 23.1142   1
  -8   9   7 118.573 11.1918  -2
  -8  -7   7 118.573 11.1918   1
  -7   8   7 306.471 19.2124  -2
  -7  -7   7 306.471 19.2124   1
  -6   7   7 147.841 10.7898  -2
  -6  -7   7 147.841 10.7898   1
  -5   6   7 33.2152 7.56386  -2
  -5  -7   7 33.2152 7.56386   1
  -4   5   7 1482.39 51.6463  -2
  -4  -7   7 1482.39 51.6463   1
  -3   4   7 596.657 49.7667  -2
  -3  -7   7 596.657 49.7667   1
  -2   3   7 59.2573 35.4481  -2
  -2  -7   7 59.2573 35.4481   1
  -9   9   7 400.910 24.1858  -2
  -9  -6   7 400.910 24.1858   1
  -8   8   7 158.414 12.5370  -2
  -8  -6   7 158.414 12.5370   1
  -7   7   7 66.0949 9.13989  -2
  -7  -6   7 66.0949 9.13989   1
  -6   6   7 959.525 53.0662  -2
  -6  -6   7 959.525 53.0662   1
  -5   5   7 249.107 11.4886  -2
  -5  -6   7 249.107 11.4886   1
  -4   4   7 672.915 51.6510  -2
  -4  -6   7 672.915 51.6510   1
  -3   3   7 423.646 43.2285  -2
  -3  -6   7 423.646 43.2285   1
   0   0   7 530.706 35.9973  -2
   0  -6   7 530.706 35.9973   1
   5  -4   7 393.152 30.7357  -2
   5  -6   7 393.152 30.7357   1
 -10   9   7 65.9271 10.1739  -2
 -10  -5   7 65.9271 10.1739   1
  -9   8   7 147.729 12.5519  -2
  -9  -5   7 147.729 12.5519   1
  -8   7   7 22.4687 8.26026  -2
  -8  -5   7 22.4687 8.26026   1
  -7   6   7 81.2903 9.17476  -2
  -7  -5   7 81.2903 9.17476   1
  -6   5   7 1978.98 80.9913  -2
  -6  -5   7 1978.98 80.9913   1
  -5   4   7 54.6628 7.68876  -2
  -5  -5   7 54.6628 7.68876   1
  -4   3   7 221.639 33.4316  -2
  -4  -5   7 221.639 33.4316   1
  -3   2   7 327.928 39.6468  -2
  -3  -5   7 327.928 39.6468   1
  -1   0   7 870.529 51.7662  -2
  -1  -5   7 870.529 51.7662   1
   0  -1   7 366.430 29.3080  -2
   0  -5   7 366.430 29.3080   1
   5  -5   7 705.990 46.3330  -2
   5  -5   7 705.990 46.3330   1
 -10   8   7 27.4541 9.54299  -2
 -10  -4   7 27.4541 9.54299   1
  -9   7   7 124.127 11.0516  -2
  -9  -4   7 124.127 11.0516   1
  -8   6   7 119.054 10.6338  -2
  -8  -4   7 119.054 10.6338   1
  -7   5   7 94.1721 9.68635  -2
  -7  -4   7 94.1721 9.68635   1
  -6   4   7 305.356 15.4158  -2
  -6  -4   7 305.356 15.4158   1
  -5   3   7 -6.2974 14.8687  -2
  -5  -4   7 -6.2974 14.8687   1
  -4   2   7 648.947 50.8162  -2
  -4  -4   7 648.947 50.8162   1
  -3   1   7 149.970 34.4726  -2
  -3  -4   7 149.970 34.4726   1
  -2   0   7 639.521 37.7599  -2
  -2  -4   7 639.521 37.7599   1
  -1  -1   7 57.8419 17.1881  -2
  -1  -4   7 57.8419 17.1881   1
   0  -2   7 502.761 35.7594  -2
   0  -4   7 502.761 35.7594   1
   1  -3   7 482.643 36.6573  -2
   1  -4   7 482.643 36.6573   1
 -10   7   7 92.7165 10.1043  -2
 -10  -3   7 92.7165 10.1043   1
  -9   6   7 98.8946 10.3904  -2
  -9  -3   7 98.8946 10.3904   1
  -8   5   7 21.2812 7.92484  -2
  -8  -3   7 21.2812 7.92484   1
  -7   4   7 89.2992 9.48675  -2
  -7  -3   7 89.2992 9.48675   1
  -6   3   7 187.448 11.0782  -2
  -6  -3   7 187.448 11.0782   1
  -5   2   7 274.217 30.4027  -2
  -5  -3   7 274.217 30.4027   1
  -4   1   7 53.5018 28.6591  -2
  -4  -3   7 53.5018 28.6591   1
  -3   0   7 194.157 34.9330  -2
  -3  -3   7 194.157 34.9330   1
  -2  -1   7 93.3840 13.7294  -2
  -2  -3   7 93.3840 13.7294   1
  -1  -2   7 920.547 54.9576  -2
  -1  -3   7 920.547 54.9576   1
   0  -3   7 517.019 36.7904  -2
   0  -3   7 517.019 36.7904   1
   1  -4   7 865.362 55.1824  -2
   1  -3   7 865.362 55.1824   1
 -10   6   7 23.4670 8.67656  -2
 -10  -2   7 23.4670 8.67656   1
  -9   5   7 156.503 12.0575  -2
  -9  -2   7 156.503 12.0575   1
  -8   4   7 390.600 22.9629  -2
  -8  -2   7 390.600 22.9629   1
  -7   3   7 387.907 18.0823  -2
  -7  -2   7 387.907 18.0823   1
  -6   2   7 304.782 14.8070  -2
  -6  -2   7 304.782 14.8070   1
  -5   1   7 65.7088 24.7447  -2
  -5  -2   7 65.7088 24.7447   1
  -4   0   7 788.935 58.2050  -2
  -4  -2   7 788.935 58.2050   1
  -2  -2   7 221.562 15.9234  -2
  -2  -2   7 221.562 15.9234   1
  -1  -3   7 1145.17 67.2227  -2
  -1  -2   7 1145.17 67.2227   1
 -10   5   7 5.60356 8.52001  -2
 -10  -1   7 5.60356 8.52001   1
  -9   4   7 705.592 39.5715  -2
  -9  -1   7 705.592 39.5715   1
  -8   3   7 54.9835 8.53465  -2
  -8  -1   7 54.9835 8.53465   1
  -7   2   7 519.868 22.8369  -2
  -7  -1   7 519.868 22.8369   1
  -6   1   7 203.694 11.8846  -2
  -6  -1   7 203.694 11.8846   1
  -5   0   7 216.668 29.8880  -2
  -5  -1   7 216.668 29.8880   1
  -4  -1   7 3883.77 160.736  -2
  -4  -1   7 3883.77 160.736   1
  -1  -4   7 50.9878 18.9825  -2
  -1  -1   7 50.9878 18.9825   1
   3  -8   7 1374.78 70.1428  -2
   3  -1   7 1374.78 70.1428   1
 -10   4   7 6.35231 8.58448  -2
 -10   0   7 6.35231 8.58448   1
  -9   3   7 79.3201 9.15114  -2
  -9   0   7 79.3201 9.15114   1
  -8   2   7 32.4850 7.05091  -2
  -8   0   7 32.4850 7.05091   1
  -7   1   7 122.829 9.18661  -2
  -7   0   7 122.829 9.18661   1
  -6   0   7 1100.02 60.6311  -2
  -6   0   7 1100.02 60.6311   1
  -5  -1   7 112.027 28.1439  -2
  -5   0   7 112.027 28.1439   1
  -3  -3   7 154.274 18.3147  -2
  -3   0   7 154.274 18.3147   1
   3  -9   7 138.999 12.7084  -2
   3   0   7 138.999 12.7084   1
 -10   3   7 79.9799 9.82511  -2
 -10   1   7 79.9799 9.82511   1
  -9   2   7 201.780 13.9531  -2
  -9   1   7 201.780 13.9531   1
  -8   1   7 290.505 14.4893  -2
  -8   1   7 290.505 14.4893   1
  -7   0   7 147.146 9.79740  -2
  -7   1   7 147.146 9.79740   1
  -6  -1   7 213.838 14.6325  -2
  -6   1   7 213.838 14.6325   1
  -3  -4   7 210.220 21.1017  -2
  -3   1   7 210.220 21.1017   1
  -2  -5   7 292.786 23.8739  -2
  -2   1   7 292.786 23.8739   1
  -1  -6   7 995.121 60.7775  -2
  -1   1   7 995.121 60.7775   1
   3 -10   7 142.165 12.4797  -2
   3   1   7 142.165 12.4797   1
 -10   2   7 155.101 12.3044  -2
 -10   2   7 155.101 12.3044   1
  -9   1   7 242.182 16.0994  -2
  -9   2   7 242.182 16.0994   1
  -8   0   7 35.3574 7.12583  -2
  -8   2   7 35.3574 7.12583   1
  -7  -1   7 465.702 20.8792  -2
  -7   2   7 465.702 20.8792   1
  -6  -2   7 245.134 15.9515  -2
  -6   2   7 245.134 15.9515   1
  -4  -4   7 556.397 37.7575  -2
  -4   2   7 556.397 37.7575   1
  -3  -5   7 219.093 15.6379  -2
  -3   2   7 219.093 15.6379   1
  -2  -6   7 437.610 31.1742  -2
  -2   2   7 437.610 31.1742   1
  -1  -7   7 249.016 21.7610  -2
  -1   2   7 249.016 21.7610   1
   0  -8   7 1348.16 80.6501  -2
   0   2   7 1348.16 80.6501   1
   2 -10   7 1128.56 57.8944  -2
   2   2   7 1128.56 57.8944   1
   3 -11   7 64.6388 9.95563  -2
   3   2   7 64.6388 9.95563   1
   5 -13   7 757.843 60.8126  -2
   5   2   7 757.843 60.8126   1
   6 -14   7 131.205 39.6922  -2
   6   2   7 131.205 39.6922   1
 -10   1   7 88.0238 10.2846  -2
 -10   3   7 88.0238 10.2846   1
  -9   0   7 75.5897 10.0238  -2
  -9   3   7 75.5897 10.0238   1
  -8  -1   7 67.5310 9.50385  -2
  -8   3   7 67.5310 9.50385   1
  -7  -2   7 423.719 16.3202  -2
  -7   3   7 423.719 16.3202   1
  -6  -3   7 283.820 18.0806  -2
  -6   3   7 283.820 18.0806   1
  -5  -4   7 18.0204 8.52126  -2
  -5   3   7 18.0204 8.52126   1
  -4  -5   7 178.125 21.3899  -2
  -4   3   7 178.125 21.3899   1
  -3  -6   7 323.229 18.5555  -2
  -3   3   7 323.229 18.5555   1
  -2  -7   7 18.2440 16.7667  -2
  -2   3   7 18.2440 16.7667   1
  -1  -8   7 528.372 25.4671  -2
  -1   3   7 528.372 25.4671   1
   0  -9   7 17.2895 13.9767  -2
   0   3   7 17.2895 13.9767   1
   1 -10   7 276.777 21.5188  -2
   1   3   7 276.777 21.5188   1
   2 -11   7 28.6207 11.0421  -2
   2   3   7 28.6207 11.0421   1
   3 -12   7 174.143 12.4277  -2
   3   3   7 174.143 12.4277   1
   4 -13   7 101.484 12.2101  -2
   4   3   7 101.484 12.2101   1
   5 -14   7 146.760 13.9808  -2
   5   3   7 146.760 13.9808   1
   6 -15   7 19.0660 39.2537  -2
   6   3   7 19.0660 39.2537   1
 -11   1   7 58.0053 9.87673  -2
 -11   4   7 58.0053 9.87673   1
 -10   0   7 -0.2930 9.28583  -2
 -10   4   7 -0.2930 9.28583   1
  -9  -1   7 738.833 31.7086  -2
  -9   4   7 738.833 31.7086   1
  -8  -2   7 457.899 20.5810  -2
  -8   4   7 457.899 20.5810   1
  -7  -3   7 85.1878 8.29340  -2
  -7   4   7 85.1878 8.29340   1
  -6  -4   7 313.291 19.5209  -2
  -6   4   7 313.291 19.5209   1
  -5  -5   7 56.0960 7.37035  -2
  -5   4   7 56.0960 7.37035   1
  -4  -6   7 806.313 33.8359  -2
  -4   4   7 806.313 33.8359   1
  -3  -7   7 844.530 37.3337  -2
  -3   4   7 844.530 37.3337   1
  -2  -8   7 366.207 28.9977  -2
  -2   4   7 366.207 28.9977   1
  -1  -9   7 83.4635 14.0965  -2
  -1   4   7 83.4635 14.0965   1
   0 -10   7 266.949 21.9314  -2
   0   4   7 266.949 21.9314   1
   1 -11   7 385.950 17.0919  -2
   1   4   7 385.950 17.0919   1
   2 -12   7 501.570 22.4343  -2
   2   4   7 501.570 22.4343   1
   3 -13   7 95.0980 12.8038  -2
   3   4   7 95.0980 12.8038   1
   4 -14   7 69.1543 12.1188  -2
   4   4   7 69.1543 12.1188   1
   5 -15   7 -0.7366 36.6155  -2
   5   4   7 -0.7366 36.6155   1
   6 -16   7 0.11917 39.7726  -2
   6   4   7 0.11917 39.7726   1
 -11   0   7 406.460 33.8955  -2
 -11   5   7 406.460 33.8955   1
  -9  -2   7 222.957 13.1468  -2
  -9   5   7 222.957 13.1468   1
  -8  -3   7 56.4563 8.07806  -2
  -8   5   7 56.4563 8.07806   1
  -7  -4   7 89.8955 9.23948  -2
  -7   5   7 89.8955 9.23948   1
  -6  -5   7 1963.39 58.5570  -2
  -6   5   7 1963.39 58.5570   1
  -5  -6   7 322.942 15.8647  -2
  -5   5   7 322.942 15.8647   1
  -4  -7   7 1388.20 56.5310  -2
  -4   5   7 1388.20 56.5310   1
  -3  -8   7 189.942 10.9029  -2
  -3   5   7 189.942 10.9029   1
  -2  -9   7 188.236 12.7921  -2
  -2   5   7 188.236 12.7921   1
  -1 -10   7 2094.19 86.3035  -2
  -1   5   7 2094.19 86.3035   1
   0 -11   7 701.519 24.3697  -2
   0   5   7 701.519 24.3697   1
   1 -12   7 153.354 10.4960  -2
   1   5   7 153.354 10.4960   1
   2 -13   7 279.333 12.2490  -2
   2   5   7 279.333 12.2490   1
   3 -14   7 46.7854 11.9812  -2
   3   5   7 46.7854 11.9812   1
   4 -15   7 595.562 33.0335  -2
   4   5   7 595.562 33.0335   1
   5 -16   7 42.9028 39.5139  -2
   5   5   7 42.9028 39.5139   1
   9 -20   7 16.7445 14.7966  -2
   9   5   7 16.7445 14.7966   1
  -9  -3   7 94.0948 9.02797  -2
  -9   6   7 94.0948 9.02797   1
  -8  -4   7 151.066 10.0602  -2
  -8   6   7 151.066 10.0602   1
  -7  -5   7 97.3148 9.80361  -2
  -7   6   7 97.3148 9.80361   1
  -6  -6   7 1065.51 36.8313  -2
  -6   6   7 1065.51 36.8313   1
  -5  -7   7 33.2968 8.81500  -2
  -5   6   7 33.2968 8.81500   1
  -4  -8   7 358.637 17.1816  -2
  -4   6   7 358.637 17.1816   1
  -3  -9   7 913.606 31.2888  -2
  -3   6   7 913.606 31.2888   1
  -2 -10   7 533.302 23.4465  -2
  -2   6   7 533.302 23.4465   1
  -1 -11   7 2138.95 88.0439  -2
  -1   6   7 2138.95 88.0439   1
   0 -12   7 220.791 11.5038  -2
   0   6   7 220.791 11.5038   1
   1 -13   7 91.5817 8.92551  -2
   1   6   7 91.5817 8.92551   1
   2 -14   7 612.144 21.7134  -2
   2   6   7 612.144 21.7134   1
   3 -15   7 127.258 12.0891  -2
   3   6   7 127.258 12.0891   1
   4 -16   7 89.3297 13.9804  -2
   4   6   7 89.3297 13.9804   1
   5 -17   7 325.821 22.2582  -2
   5   6   7 325.821 22.2582   1
   6 -18   7 83.6779 14.5844  -2
   6   6   7 83.6779 14.5844   1
   9 -21   7 20.0889 16.3281  -2
   9   6   7 20.0889 16.3281   1
 -10  -3   7 99.5422 12.1540  -2
 -10   7   7 99.5422 12.1540   1
  -9  -4   7 122.752 10.1346  -2
  -9   7   7 122.752 10.1346   1
  -8  -5   7 28.3102 8.34934  -2
  -8   7   7 28.3102 8.34934   1
  -7  -6   7 56.3116 8.71767  -2
  -7   7   7 56.3116 8.71767   1
  -6  -7   7 172.933 11.7989  -2
  -6   7   7 172.933 11.7989   1
  -5  -8   7 210.095 12.8612  -2
  -5   7   7 210.095 12.8612   1
  -4  -9   7 226.489 13.3078  -2
  -4   7   7 226.489 13.3078   1
  -3 -10   7 479.797 21.9413  -2
  -3   7   7 479.797 21.9413   1
  -2 -11   7 168.909 22.1086  -2
  -2   7   7 168.909 22.1086   1
  -1 -12   7 39.2718 8.50260  -2
  -1   7   7 39.2718 8.50260   1
   0 -13   7 588.847 20.9770  -2
   0   7   7 588.847 20.9770   1
   1 -14   7 142.982 9.99609  -2
   1   7   7 142.982 9.99609   1
   2 -15   7 464.400 20.3823  -2
   2   7   7 464.400 20.3823   1
   3 -16   7 5.09609 11.8020  -2
   3   7   7 5.09609 11.8020   1
   6 -19   7 153.503 16.8035  -2
   6   7   7 153.503 16.8035   1
   7 -20   7 214.241 18.9961  -2
   7   7   7 214.241 18.9961   1
   9   7   7 -2.7795 10.2338   1
 -11  -3   7 21.9781 11.1801  -2
 -11   8   7 21.9781 11.1801   1
 -10  -4   7 10.1983 10.1524  -2
 -10   8   7 10.1983 10.1524   1
  -9  -5   7 121.263 11.9983  -2
  -9   8   7 121.263 11.9983   1
  -8  -6   7 159.628 11.1707  -2
  -8   8   7 159.628 11.1707   1
  -7  -7   7 275.880 13.5582  -2
  -7   8   7 275.880 13.5582   1
  -6  -8   7 1121.59 40.0014  -2
  -6   8   7 1121.59 40.0014   1
  -5  -9   7 219.182 13.2700  -2
  -5   8   7 219.182 13.2700   1
  -4 -10   7 207.732 12.6275  -2
  -4   8   7 207.732 12.6275   1
  -3 -11   7 103.628 9.03267  -2
  -3   8   7 103.628 9.03267   1
  -2 -12   7 91.6354 8.80975  -2
  -2   8   7 91.6354 8.80975   1
  -1 -13   7 155.440 11.9945  -2
  -1   8   7 155.440 11.9945   1
   0 -14   7 158.160 10.4712  -2
   0   8   7 158.160 10.4712   1
   1 -15   7 -1.4891 9.03023  -2
   1   8   7 -1.4891 9.03023   1
   2 -16   7 50.1161 10.5262  -2
   2   8   7 50.1161 10.5262   1
   3 -17   7 222.281 18.2140  -2
   3   8   7 222.281 18.2140   1
   6 -20   7 5.62621 15.2644  -2
   6   8   7 5.62621 15.2644   1
   7 -21   7 -6.0437 14.4562  -2
   7   8   7 -6.0437 14.4562   1
 -11  -4   7 6.92757 11.4699  -2
 -11   9   7 6.92757 11.4699   1
 -10  -5   7 29.5484 11.3586  -2
 -10   9   7 29.5484 11.3586   1
  -9  -6   7 369.670 18.7450  -2
  -9   9   7 369.670 18.7450   1
  -8  -7   7 134.453 11.9998  -2
  -8   9   7 134.453 11.9998   1
  -7  -8   7 128.099 10.6270  -2
  -7   9   7 128.099 10.6270   1
  -6  -9   7 56.9641 9.32140  -2
  -6   9   7 56.9641 9.32140   1
  -5 -10   7 94.9904 10.4814  -2
  -5   9   7 94.9904 10.4814   1
  -4 -11   7 725.565 31.0257  -2
  -4   9   7 725.565 31.0257   1
  -3 -12   7 95.7597 9.73301  -2
  -3   9   7 95.7597 9.73301   1
  -2 -13   7 83.7582 9.99578  -2
  -2   9   7 83.7582 9.99578   1
  -1 -14   7 84.2543 10.6519  -2
  -1   9   7 84.2543 10.6519   1
   0 -15   7 97.6124 13.5745  -2
   0   9   7 97.6124 13.5745   1
   1 -16   7 72.9754 13.6822  -2
   1   9   7 72.9754 13.6822   1
   2 -17   7 156.158 16.4325  -2
   2   9   7 156.158 16.4325   1
   6 -21   7 11.1115 15.4227  -2
   6   9   7 11.1115 15.4227   1
   7 -22   7 71.4655 15.3600  -2
   7   9   7 71.4655 15.3600   1
   8   9   7 55.5613 10.8837   1
 -11  -5   7 136.411 14.5319  -2
 -11  10   7 136.411 14.5319   1
 -10  -6   7 -13.741 11.7585  -2
 -10  10   7 -13.741 11.7585   1
  -9  -7   7 200.512 13.9995  -2
  -9  10   7 200.512 13.9995   1
  -8  -8   7 -13.843 9.46391  -2
  -8  10   7 -13.843 9.46391   1
  -7  -9   7 69.2181 9.93339  -2
  -7  10   7 69.2181 9.93339   1
  -6 -10   7 919.018 41.3040  -2
  -6  10   7 919.018 41.3040   1
  -5 -11   7 497.264 17.7640  -2
  -5  10   7 497.264 17.7640   1
  -4 -12   7 263.576 11.1011  -2
  -4  10   7 263.576 11.1011   1
  -3 -13   7 54.0145 10.0314  -2
  -3  10   7 54.0145 10.0314   1
  -2 -14   7 176.795 12.2288  -2
  -2  10   7 176.795 12.2288   1
  -1 -15   7 1373.66 53.1648  -2
  -1  10   7 1373.66 53.1648   1
   6 -22   7 -2.9257 15.5065  -2
   6  10   7 -2.9257 15.5065   1
 -11  -6   7 65.1820 13.4884  -2
 -11  11   7 65.1820 13.4884   1
 -10  -7   7 29.7694 12.3994  -2
 -10  11   7 29.7694 12.3994   1
  -9  -8   7 76.0354 11.5380  -2
  -9  11   7 76.0354 11.5380   1
  -8  -9   7 92.6661 12.3388  -2
  -8  11   7 92.6661 12.3388   1
  -7 -10   7 100.116 12.7486  -2
  -7  11   7 100.116 12.7486   1
  -6 -11   7 317.370 20.8619  -2
  -6  11   7 317.370 20.8619   1
  -5 -12   7 21.7850 11.9655  -2
  -5  11   7 21.7850 11.9655   1
  -4 -13   7 17.4910 11.3211  -2
  -4  11   7 17.4910 11.3211   1
  -3 -14   7 124.717 10.7257  -2
  -3  11   7 124.717 10.7257   1
   7  11   7 12.6856 10.4835   1
 -11  -7   7 74.7737 13.3471  -2
 -11  12   7 74.7737 13.3471   1
 -10  -8   7 210.630 18.5070  -2
 -10  12   7 210.630 18.5070   1
  -9  -9   7 42.1278 12.7208  -2
  -9  12   7 42.1278 12.7208   1
  -8 -10   7 30.2098 12.6861  -2
  -8  12   7 30.2098 12.6861   1
  -7 -11   7 71.7652 13.2672  -2
  -7  12   7 71.7652 13.2672   1
  -6 -12   7 60.0310 12.9922  -2
  -6  12   7 60.0310 12.9922   1
  -5 -13   7 84.1051 13.7473  -2
  -5  12   7 84.1051 13.7473   1
  -4 -14   7 -10.792 10.9217  -2
  -4  12   7 -10.792 10.9217   1
 -11  -8   7 53.6607 14.5171  -2
 -11  13   7 53.6607 14.5171   1
 -10  -9   7 215.118 18.4118  -2
 -10  13   7 215.118 18.4118   1
  -9 -10   7 78.8192 14.3700  -2
  -9  13   7 78.8192 14.3700   1
  -8 -11   7 57.7387 13.8607  -2
  -8  13   7 57.7387 13.8607   1
  -7 -12   7 87.7962 12.9547  -2
  -7  13   7 87.7962 12.9547   1
  -6 -13   7 159.071 15.1188  -2
  -6  13   7 159.071 15.1188   1
  -5 -14   7 21.7678 12.0184  -2
  -5  13   7 21.7678 12.0184   1
   6 -24   7 64.4277 37.3369  -2
   6  13   7 64.4277 37.3369   1
 -11  -9   7 -5.3118 14.0193  -2
 -11  14   7 -5.3118 14.0193   1
 -10 -10   7 41.3158 14.1583  -2
 -10  14   7 41.3158 14.1583   1
  -9 -11   7 345.517 24.2189  -2
  -9  14   7 345.517 24.2189   1
  -8 -12   7 61.2451 14.4842  -2
  -8  14   7 61.2451 14.4842   1
  -7 -13   7 221.026 18.6370  -2
  -7  14   7 221.026 18.6370   1
  -6 -14   7 84.7928 14.8193  -2
  -6  14   7 84.7928 14.8193   1
  -5 -15   7 17.4729 12.0250  -2
  -5  14   7 17.4729 12.0250   1
  -4 -16   7 148.930 13.3263  -2
  -4  14   7 148.930 13.3263   1
   5  14   7 4.73938 10.0624   1
 -11 -10   7 42.1987 16.3951  -2
 -11  15   7 42.1987 16.3951   1
 -10 -11   7 -3.0559 15.3457  -2
 -10  15   7 -3.0559 15.3457   1
  -9 -12   7 150.480 17.3692  -2
  -9  15   7 150.480 17.3692   1
  -8 -13   7 -15.157 14.2673  -2
  -8  15   7 -15.157 14.2673   1
  -7 -14   7 36.3749 14.3312  -2
  -7  15   7 36.3749 14.3312   1
  -6 -15   7 372.083 24.6866  -2
  -6  15   7 372.083 24.6866   1
  -5 -16   7 8.85357 13.7556  -2
  -5  15   7 8.85357 13.7556   1
 -11 -11   7 112.385 16.8859  -2
 -11  16   7 112.385 16.8859   1
 -10 -12   7 9.56642 15.8983  -2
 -10  16   7 9.56642 15.8983   1
  -9 -13   7 2.50660 15.6403  -2
  -9  16   7 2.50660 15.6403   1
  -8 -14   7 -9.1235 14.9074  -2
  -8  16   7 -9.1235 14.9074   1
  -7 -15   7 22.2191 15.1371  -2
  -7  16   7 22.2191 15.1371   1
  -6 -16   7 106.681 15.2184  -2
  -6  16   7 106.681 15.2184   1
 -10 -13   7 43.9997 16.9465  -2
 -10  17   7 43.9997 16.9465   1
  -9 -14   7 14.3535 16.1567  -2
  -9  17   7 14.3535 16.1567   1
  -8 -15   7 48.1544 16.1072  -2
  -8  17   7 48.1544 16.1072   1
  -7 -16   7 44.4541 14.3043  -2
  -7  17   7 44.4541 14.3043   1
  -6 -17   7 7.97895 15.6570  -2
  -6  17   7 7.97895 15.6570   1
  -9 -15   7 -23.579 16.4113  -2
  -9  18   7 -23.579 16.4113   1
  -8 -16   7 2.37742 16.2661  -2
  -8  18   7 2.37742 16.2661   1
  -7 -17   7 121.524 17.9582  -2
  -7  18   7 121.524 17.9582   1
  -6 -18   7 110.706 15.8833  -2
  -6  18   7 110.706 15.8833   1
  -8 -17   7 46.1993 15.2230  -2
  -8  19   7 46.1993 15.2230   1
  -8 -17   8 318.188 41.5474  -2
  -8  19   7 318.188 41.5474   1
  -7 -18   7 72.2122 15.8072  -2
  -7  19   7 72.2122 15.8072   1
  -6 -19   7 8.45617 14.6304  -2
  -6  19   7 8.45617 14.6304   1
  -6 -20   7 84.9517 17.9048  -2
  -6  20   7 84.9517 17.9048   1
  -5 -21   7 -2.0704 13.1053  -2
  -5  20   7 -2.0704 13.1053   1
   3 -25   8 46.8612 19.3079   1
   4 -25   8 4.68296 18.4817   1
   2  16   8 53.5859 28.7079  -2
   2 -24   8 53.5859 28.7079   1
   3  15   8 31.3164 30.0881  -2
   3 -24   8 31.3164 30.0881   1
   4  14   8 -35.577 28.7966  -2
   4 -24   8 -35.577 28.7966   1
   6 -24   8 77.9832 22.2162   1
   2  15   8 15.2891 27.4201  -2
   2 -23   8 15.2891 27.4201   1
   3  14   8 57.5784 29.2559  -2
   3 -23   8 57.5784 29.2559   1
   6  11   8 53.5710 34.5604  -2
   6 -23   8 53.5710 34.5604   1
   7  10   8 -53.755 34.5329  -2
   7 -23   8 -53.755 34.5329   1
   2  14   8 216.328 30.9107  -2
   2 -22   8 216.328 30.9107   1
   6  10   8 65.6842 36.7219  -2
   6 -22   8 65.6842 36.7219   1
   8   8   8 22.0728 36.8568  -2
   8 -22   8 22.0728 36.8568   1
  -5  19   8 49.4063 17.0612  -2
  -5 -21   8 49.4063 17.0612   1
   1  14   8 109.208 29.2750  -2
   1 -21   8 109.208 29.2750   1
   6   9   8 66.3838 35.6816  -2
   6 -21   8 66.3838 35.6816   1
   8   7   8 101.362 34.6280  -2
   8 -21   8 101.362 34.6280   1
   9   6   8 63.4608 34.6921  -2
   9 -21   8 63.4608 34.6921   1
  -6  19   8 24.2359 16.7881  -2
  -6 -20   8 24.2359 16.7881   1
  -5  18   8 11.9162 16.9919  -2
  -5 -20   8 11.9162 16.9919   1
   1  13   8 22.6267 26.5145  -2
   1 -20   8 22.6267 26.5145   1
   6   8   8 126.614 35.1072  -2
   6 -20   8 126.614 35.1072   1
   7   7   8 78.1143 33.2768  -2
   7 -20   8 78.1143 33.2768   1
  -6  18   8 107.378 18.0203  -2
  -6 -19   8 107.378 18.0203   1
  -5  17   8 105.740 17.5644  -2
  -5 -19   8 105.740 17.5644   1
   0  13   8 116.992 26.9409  -2
   0 -19   8 116.992 26.9409   1
   3  10   8 111.472 31.8462  -2
   3 -19   8 111.472 31.8462   1
  10   3   8 105.837 35.9969  -2
  10 -19   8 105.837 35.9969   1
  -7  18   8 68.1521 16.5848  -2
  -7 -18   8 68.1521 16.5848   1
  -6  17   8 190.611 19.4382  -2
  -6 -18   8 190.611 19.4382   1
  -5  16   8 34.5646 15.7870  -2
  -5 -18   8 34.5646 15.7870   1
   2  10   8 90.7379 29.8564  -2
   2 -18   8 90.7379 29.8564   1
   3   9   8 57.1600 28.2644  -2
   3 -18   8 57.1600 28.2644   1
   9   3   8 240.719 36.6252  -2
   9 -18   8 240.719 36.6252   1
  10   2   8 88.3623 32.4626  -2
  10 -18   8 88.3623 32.4626   1
  -8  18   8 158.981 18.2485  -2
  -8 -17   8 158.981 18.2485   1
  -7  17   8 69.5184 16.0348  -2
  -7 -17   8 69.5184 16.0348   1
  -6  16   8 -17.367 14.6701  -2
  -6 -17   8 -17.367 14.6701   1
  -5  15   8 35.1209 15.2624  -2
  -5 -17   8 35.1209 15.2624   1
  -4  14   8 120.826 15.7285  -2
  -4 -17   8 120.826 15.7285   1
   2   9   8 260.864 32.1317  -2
   2 -17   8 260.864 32.1317   1
   3   8   8 190.536 29.6549  -2
   3 -17   8 190.536 29.6549   1
   5   6   8 195.845 31.1876  -2
   5 -17   8 195.845 31.1876   1
   8   3   8 26.0429 32.2151  -2
   8 -17   8 26.0429 32.2151   1
   9   2   8 159.782 32.1633  -2
   9 -17   8 159.782 32.1633   1
  10   1   8 53.9214 31.3465  -2
  10 -17   8 53.9214 31.3465   1
  11   0   8 166.511 36.4243  -2
  11 -17   8 166.511 36.4243   1
  -8  17   8 34.8759 15.3279  -2
  -8 -16   8 34.8759 15.3279   1
  -7  16   8 18.9262 14.0997  -2
  -7 -16   8 18.9262 14.0997   1
  -6  15   8 34.5008 14.9845  -2
  -6 -16   8 34.5008 14.9845   1
  -5  14   8 108.451 14.9757  -2
  -5 -16   8 108.451 14.9757   1
  -4  13   8 145.808 13.1740  -2
  -4 -16   8 145.808 13.1740   1
  -2  12   8 97.4782 14.4217  -2
  -2 -16   8 97.4782 14.4217   1
   2   8   8 14.1235 26.3395  -2
   2 -16   8 14.1235 26.3395   1
   4   6   8 67.8275 22.8389  -2
   4 -16   8 67.8275 22.8389   1
   5   5   8 635.479 47.4759  -2
   5 -16   8 635.479 47.4759   1
   8   2   8 117.600 30.4247  -2
   8 -16   8 117.600 30.4247   1
  10   0   8 23.6907 32.2195  -2
  10 -16   8 23.6907 32.2195   1
  11  -1   8 135.322 34.8820  -2
  11 -16   8 135.322 34.8820   1
  -9  17   8 22.6676 14.2915  -2
  -9 -15   8 22.6676 14.2915   1
  -8  16   8 32.8573 14.6836  -2
  -8 -15   8 32.8573 14.6836   1
  -6  14   8 79.3512 14.1465  -2
  -6 -15   8 79.3512 14.1465   1
  -5  13   8 52.7668 13.5677  -2
  -5 -15   8 52.7668 13.5677   1
  -4  12   8 9.57074 10.9038  -2
  -4 -15   8 9.57074 10.9038   1
  -2  11   8 419.129 25.3620  -2
  -2 -15   8 419.129 25.3620   1
   5   4   8 94.3185 26.7006  -2
   5 -15   8 94.3185 26.7006   1
   8   1   8 448.339 39.9182  -2
   8 -15   8 448.339 39.9182   1
   9   0   8 125.150 29.2991  -2
   9 -15   8 125.150 29.2991   1
  10  -1   8 42.9563 31.1806  -2
  10 -15   8 42.9563 31.1806   1
  11  -2   8 117.150 32.9994  -2
  11 -15   8 117.150 32.9994   1
  -8  15   8 11.8915 14.0061  -2
  -8 -14   8 11.8915 14.0061   1
  -7  14   8 28.0844 13.6455  -2
  -7 -14   8 28.0844 13.6455   1
  -6  13   8 148.561 48.8102  -2
  -6 -14   8 148.561 48.8102   1
  -5  12   8 115.694 13.7941  -2
  -5 -14   8 115.694 13.7941   1
  -4  11   8 72.3592 13.3044  -2
  -4 -14   8 72.3592 13.3044   1
  -2  10   8 544.600 30.6489  -2
  -2 -14   8 544.600 30.6489   1
   4   4   8 141.725 16.5881  -2
   4 -14   8 141.725 16.5881   1
   5   3   8 53.9885 24.6339  -2
   5 -14   8 53.9885 24.6339   1
   8   0   8 158.453 30.5411  -2
   8 -14   8 158.453 30.5411   1
   9  -1   8 162.487 30.5409  -2
   9 -14   8 162.487 30.5409   1
  10  -2   8 36.0163 29.6290  -2
  10 -14   8 36.0163 29.6290   1
  -8  14   8 69.4166 13.8104  -2
  -8 -13   8 69.4166 13.8104   1
  -7  13   8 74.5801 13.6438  -2
  -7 -13   8 74.5801 13.6438   1
  -6  12   8 285.426 15.9250  -2
  -6 -13   8 285.426 15.9250   1
  -5  11   8 240.685 14.0640  -2
  -5 -13   8 240.685 14.0640   1
  -4  10   8 34.3742 11.9551  -2
  -4 -13   8 34.3742 11.9551   1
  -2   9   8 108.140 13.4246  -2
  -2 -13   8 108.140 13.4246   1
   4   3   8 23.4491 14.4843  -2
   4 -13   8 23.4491 14.4843   1
   5   2   8 268.701 30.0360  -2
   5 -13   8 268.701 30.0360   1
   8  -1   8 95.5577 28.3397  -2
   8 -13   8 95.5577 28.3397   1
   9  -2   8 673.578 50.0705  -2
   9 -13   8 673.578 50.0705   1
  10  -3   8 87.0979 29.3710  -2
  10 -13   8 87.0979 29.3710   1
  -8  13   8 173.049 16.0524  -2
  -8 -12   8 173.049 16.0524   1
  -7  12   8 84.4583 43.1108  -2
  -7 -12   8 84.4583 43.1108   1
  -6  11   8 43.2094 10.9860  -2
  -6 -12   8 43.2094 10.9860   1
  -5  10   8 209.926 12.6071  -2
  -5 -12   8 209.926 12.6071   1
  -4   9   8 166.271 14.2696  -2
  -4 -12   8 166.271 14.2696   1
   1   5   8 126.664 24.6814  -2
   1 -12   8 126.664 24.6814   1
   2   4   8 339.852 32.4276  -2
   2 -12   8 339.852 32.4276   1
   3   3   8 228.230 28.0097  -2
   3 -12   8 228.230 28.0097   1
   4   2   8 12.7799 21.8229  -2
   4 -12   8 12.7799 21.8229   1
   7  -1   8 55.8215 25.4633  -2
   7 -12   8 55.8215 25.4633   1
   8  -2   8 214.614 25.2493  -2
   8 -12   8 214.614 25.2493   1
  12  -6   8 13.7908 33.0947  -2
  12 -12   8 13.7908 33.0947   1
  -8  12   8 19.3966 12.8148  -2
  -8 -11   8 19.3966 12.8148   1
  -7  11   8 51.9798 11.4867  -2
  -7 -11   8 51.9798 11.4867   1
  -6  10   8 155.395 12.8459  -2
  -6 -11   8 155.395 12.8459   1
  -5   9   8 478.889 20.3720  -2
  -5 -11   8 478.889 20.3720   1
  -4   8   8 84.6060 11.1127  -2
  -4 -11   8 84.6060 11.1127   1
  -3   7   8 30.0504 10.8466  -2
  -3 -11   8 30.0504 10.8466   1
   2   3   8 244.788 28.6185  -2
   2 -11   8 244.788 28.6185   1
   3   2   8 220.736 26.9107  -2
   3 -11   8 220.736 26.9107   1
   4   1   8 225.073 26.0119  -2
   4 -11   8 225.073 26.0119   1
   7  -2   8 17.7173 23.3379  -2
   7 -11   8 17.7173 23.3379   1
   8  -3   8 144.860 43.7735  -2
   8 -11   8 144.860 43.7735   1
  12  -7   8 8.87555 31.8134  -2
  12 -11   8 8.87555 31.8134   1
  -8  11   8 74.3972 12.5622  -2
  -8 -10   8 74.3972 12.5622   1
  -7  10   8 175.183 12.7681  -2
  -7 -10   8 175.183 12.7681   1
  -6   9   8 148.105 12.1137  -2
  -6 -10   8 148.105 12.1137   1
  -5   8   8 4.08355 7.94362  -2
  -5 -10   8 4.08355 7.94362   1
  -3 -10   8 6.75973 6.32018   1
   2   2   8 157.439 24.1475  -2
   2 -10   8 157.439 24.1475   1
   3   1   8 1779.11 110.184  -2
   3 -10   8 1779.11 110.184   1
   4   0   8 286.865 29.6350  -2
   4 -10   8 286.865 29.6350   1
   6  -2   8 264.260 27.2221  -2
   6 -10   8 264.260 27.2221   1
   7  -3   8 44.8259 22.6092  -2
   7 -10   8 44.8259 22.6092   1
   9  -5   8 89.1915 26.0242  -2
   9 -10   8 89.1915 26.0242   1
  -7   9   8 25.6325 10.2762  -2
  -7  -9   8 25.6325 10.2762   1
  -6   8   8 318.753 17.0087  -2
  -6  -9   8 318.753 17.0087   1
  -5   7   8 276.832 17.2462  -2
  -5  -9   8 276.832 17.2462   1
  -4   6   8 61.3820 33.2794  -2
  -4  -9   8 61.3820 33.2794   1
   2   1   8 33.4036 23.8454  -2
   2  -9   8 33.4036 23.8454   1
   3   0   8 585.715 43.0899  -2
   3  -9   8 585.715 43.0899   1
   6  -3   8 786.929 51.5623  -2
   6  -9   8 786.929 51.5623   1
  12  -9   8 17.0075 31.8428  -2
  12  -9   8 17.0075 31.8428   1
  -7   8   8 198.610 12.3910  -2
  -7  -8   8 198.610 12.3910   1
  -6   7   8 465.682 41.8260  -2
  -6  -8   8 465.682 41.8260   1
  -5   6   8 142.994 14.0340  -2
  -5  -8   8 142.994 14.0340   1
   3  -1   8 -2.0079 22.2348  -2
   3  -8   8 -2.0079 22.2348   1
   6  -4   8 818.997 53.0223  -2
   6  -8   8 818.997 53.0223   1
  12 -10   8 0.05102 32.1794  -2
  12  -8   8 0.05102 32.1794   1
  -6   6   8 120.041 10.8473  -2
  -6  -7   8 120.041 10.8473   1
   3  -2   8 186.259 25.8329  -2
   3  -7   8 186.259 25.8329   1
   6  -5   8 219.304 23.3446  -2
   6  -7   8 219.304 23.3446   1
   8  -7   8 135.232 22.7320  -2
   8  -7   8 135.232 22.7320   1
  12 -11   8 26.4238 31.9997  -2
  12  -7   8 26.4238 31.9997   1
  -7   6   8 48.1192 10.0259  -2
  -7  -6   8 48.1192 10.0259   1
  -6   5   8 56.6095 26.0718  -2
  -6  -6   8 56.6095 26.0718   1
  -5   4   8 567.347 32.7029  -2
  -5  -6   8 567.347 32.7029   1
  -4   3   8 51.5925 10.5198  -2
  -4  -6   8 51.5925 10.5198   1
   3  -3   8 195.380 25.6497  -2
   3  -6   8 195.380 25.6497   1
  12 -12   8 61.1902 33.3325  -2
  12  -6   8 61.1902 33.3325   1
  -5   3   8 -0.2365 9.36008  -2
  -5  -5   8 -0.2365 9.36008   1
   3  -4   8 713.894 49.2807  -2
   3  -5   8 713.894 49.2807   1
   5  -6   8 483.237 33.5115  -2
   5  -5   8 483.237 33.5115   1
  12 -13   8 -48.777 31.9669  -2
  12  -5   8 -48.777 31.9669   1
  -5   2   8 118.882 11.6589  -2
  -5  -4   8 118.882 11.6589   1
   3  -5   8 781.307 32.2133  -2
   3  -4   8 781.307 32.2133   1
   5  -7   8 186.612 19.6101  -2
   5  -4   8 186.612 19.6101   1
  12 -14   8 -23.857 32.4540  -2
  12  -4   8 -23.857 32.4540   1
  -5   1   8 372.318 22.7271  -2
  -5  -3   8 372.318 22.7271   1
   3  -6   8 225.152 15.4014  -2
   3  -3   8 225.152 15.4014   1
   5  -8   8 145.250 17.7216  -2
   5  -3   8 145.250 17.7216   1
   6  -9   8 646.961 41.3074  -2
   6  -3   8 646.961 41.3074   1
  -5   0   8 663.705 37.7935  -2
  -5  -2   8 663.705 37.7935   1
   3  -7   8 203.305 14.9694  -2
   3  -2   8 203.305 14.9694   1
   5  -9   8 42.7154 13.8053  -2
   5  -2   8 42.7154 13.8053   1
   7 -11   8 30.4991 39.5237  -2
   7  -2   8 30.4991 39.5237   1
   9 -13   8 572.624 32.1980  -2
   9  -2   8 572.624 32.1980   1
  -5  -1   8 2580.65 140.525  -2
  -5  -1   8 2580.65 140.525   1
   5 -10   8 185.881 16.2074  -2
   5  -1   8 185.881 16.2074   1
   8 -13   8 75.3626 13.2821  -2
   8  -1   8 75.3626 13.2821   1
   9 -14   8 89.8155 13.7231  -2
   9  -1   8 89.8155 13.7231   1
  10 -15   8 4.85624 13.2964  -2
  10  -1   8 4.85624 13.2964   1
  11 -16   8 52.9427 13.9545  -2
  11  -1   8 52.9427 13.9545   1
  -5  -2   8 707.500 40.0988  -2
  -5   0   8 707.500 40.0988   1
   6 -12   8 58.4024 11.6014  -2
   6   0   8 58.4024 11.6014   1
   7 -13   8 -0.9330 11.7667  -2
   7   0   8 -0.9330 11.7667   1
   8 -14   8 137.124 14.7721  -2
   8   0   8 137.124 14.7721   1
   9 -15   8 94.9779 14.7340  -2
   9   0   8 94.9779 14.7340   1
  10 -16   8 0.32329 14.0025  -2
  10   0   8 0.32329 14.0025   1
  11 -17   8 69.4158 15.3795  -2
  11   0   8 69.4158 15.3795   1
   2  -9   8 46.0830 10.7069  -2
   2   1   8 46.0830 10.7069   1
   4 -11   8 215.991 15.3293  -2
   4   1   8 215.991 15.3293   1
   5 -12   8 43.3756 11.4563  -2
   5   1   8 43.3756 11.4563   1
   6 -13   8 519.532 24.9575  -2
   6   1   8 519.532 24.9575   1
   7 -14   8 116.027 13.9158  -2
   7   1   8 116.027 13.9158   1
   8 -15   8 354.793 22.7358  -2
   8   1   8 354.793 22.7358   1
   9 -16   8 24.4569 13.3670  -2
   9   1   8 24.4569 13.3670   1
  10 -17   8 1.88604 14.3306  -2
  10   1   8 1.88604 14.3306   1
   0  -8   8 477.092 46.8847  -2
   0   2   8 477.092 46.8847   1
   1  -9   8 102.390 23.2983  -2
   1   2   8 102.390 23.2983   1
   2 -10   8 177.199 14.0368  -2
   2   2   8 177.199 14.0368   1
   4 -12   8 4.96686 10.8642  -2
   4   2   8 4.96686 10.8642   1
   5 -13   8 221.307 16.5441  -2
   5   2   8 221.307 16.5441   1
   6 -14   8 704.183 33.3861  -2
   6   2   8 704.183 33.3861   1
   7 -15   8 8.70298 13.2236  -2
   7   2   8 8.70298 13.2236   1
   8 -16   8 59.7856 13.6167  -2
   8   2   8 59.7856 13.6167   1
   9 -17   8 111.187 14.5325  -2
   9   2   8 111.187 14.5325   1
  10 -18   8 -0.1842 14.3548  -2
  10   2   8 -0.1842 14.3548   1
   2 -11   8 181.482 14.0677  -2
   2   3   8 181.482 14.0677   1
   3 -12   8 112.643 23.6197  -2
   3   3   8 112.643 23.6197   1
   4 -13   8 19.9782 10.1559  -2
   4   3   8 19.9782 10.1559   1
   5 -14   8 37.4417 11.6968  -2
   5   3   8 37.4417 11.6968   1
   6 -15   8 6.08888 20.1042  -2
   6   3   8 6.08888 20.1042   1
   7 -16   8 -1.2046 13.4526  -2
   7   3   8 -1.2046 13.4526   1
   8 -17   8 12.7231 13.7060  -2
   8   3   8 12.7231 13.7060   1
   9 -18   8 174.044 16.3961  -2
   9   3   8 174.044 16.3961   1
  10 -19   8 21.4525 14.9150  -2
  10   3   8 21.4525 14.9150   1
   0   4   8 599.917 31.3863   1
   2 -12   8 340.569 21.0915  -2
   2   4   8 340.569 21.0915   1
   3 -13   8 174.251 14.5936  -2
   3   4   8 174.251 14.5936   1
   4 -14   8 89.8116 11.0165  -2
   4   4   8 89.8116 11.0165   1
   5 -15   8 80.1009 11.1110  -2
   5   4   8 80.1009 11.1110   1
   6 -16   8 30.5135 11.1679  -2
   6   4   8 30.5135 11.1679   1
   7 -17   8 12.3464 13.7848  -2
   7   4   8 12.3464 13.7848   1
   8 -18   8 41.7217 14.2257  -2
   8   4   8 41.7217 14.2257   1
   9 -19   8 34.3572 14.5386  -2
   9   4   8 34.3572 14.5386   1
   0 -11   8 1606.31 81.8768  -2
   0   5   8 1606.31 81.8768   1
   1 -12   8 92.9333 9.64691  -2
   1   5   8 92.9333 9.64691   1
   2 -13   8 16.1188 12.2401  -2
   2   5   8 16.1188 12.2401   1
   3 -14   8 177.066 16.0496  -2
   3   5   8 177.066 16.0496   1
   4 -15   8 433.970 25.6738  -2
   4   5   8 433.970 25.6738   1
   5 -16   8 456.616 24.3412  -2
   5   5   8 456.616 24.3412   1
   6 -17   8 29.5405 13.3101  -2
   6   5   8 29.5405 13.3101   1
   7 -18   8 19.8652 14.1305  -2
   7   5   8 19.8652 14.1305   1
   8 -19   8 44.9796 13.8634  -2
   8   5   8 44.9796 13.8634   1
   9 -20   8 50.5234 14.9829  -2
   9   5   8 50.5234 14.9829   1
  -9  -4   8 39.5853 34.8405  -2
  -9   6   8 39.5853 34.8405   1
  -8  -5   8 62.3243 34.9772  -2
  -8   6   8 62.3243 34.9772   1
  -1 -11   8 76.4364 13.2917  -2
  -1   6   8 76.4364 13.2917   1
   0 -12   8 459.878 20.6183  -2
   0   6   8 459.878 20.6183   1
   1 -13   8 176.477 12.1174  -2
   1   6   8 176.477 12.1174   1
   2 -14   8 26.3471 9.55359  -2
   2   6   8 26.3471 9.55359   1
   3 -15   8 817.693 43.6120  -2
   3   6   8 817.693 43.6120   1
   4 -16   8 73.5039 14.3372  -2
   4   6   8 73.5039 14.3372   1
   5 -17   8 147.915 14.8960  -2
   5   6   8 147.915 14.8960   1
   6 -18   8 440.318 26.4284  -2
   6   6   8 440.318 26.4284   1
   7 -19   8 65.7602 14.0982  -2
   7   6   8 65.7602 14.0982   1
   8 -20   8 145.710 16.6282  -2
   8   6   8 145.710 16.6282   1
  -9  -5   8 54.9731 36.9638  -2
  -9   7   8 54.9731 36.9638   1
  -8  -6   8 83.9127 38.7711  -2
  -8   7   8 83.9127 38.7711   1
   0 -13   8 153.701 12.2547  -2
   0   7   8 153.701 12.2547   1
   1 -14   8 357.779 17.4531  -2
   1   7   8 357.779 17.4531   1
   2 -15   8 35.8735 10.1363  -2
   2   7   8 35.8735 10.1363   1
   3 -16   8 122.030 15.6696  -2
   3   7   8 122.030 15.6696   1
   4 -17   8 151.079 16.3957  -2
   4   7   8 151.079 16.3957   1
   6 -19   8 422.772 26.3056  -2
   6   7   8 422.772 26.3056   1
   7 -20   8 64.9111 15.0668  -2
   7   7   8 64.9111 15.0668   1
   8 -21   8 28.3419 13.8639  -2
   8   7   8 28.3419 13.8639   1
  -9  -6   8 35.1751 38.8050  -2
  -9   8   8 35.1751 38.8050   1
  -8  -7   8 400.588 48.7039  -2
  -8   8   8 400.588 48.7039   1
  -7  -8   8 237.517 41.8397  -2
  -7   8   8 237.517 41.8397   1
   0 -14   8 29.9551 20.0595  -2
   0   8   8 29.9551 20.0595   1
   1 -15   8 13.7074 10.6669  -2
   1   8   8 13.7074 10.6669   1
   2 -16   8 16.6603 13.6749  -2
   2   8   8 16.6603 13.6749   1
   3 -17   8 149.712 16.2632  -2
   3   8   8 149.712 16.2632   1
   7 -21   8 -6.1159 13.6937  -2
   7   8   8 -6.1159 13.6937   1
   8 -22   8 -11.459 12.8962  -2
   8   8   8 -11.459 12.8962   1
  -9  -7   8 146.727 40.3099  -2
  -9   9   8 146.727 40.3099   1
  -8  -8   8 107.183 30.3800  -2
  -8   9   8 107.183 30.3800   1
  -7  -9   8 16.6635 40.0024  -2
  -7   9   8 16.6635 40.0024   1
  -4 -12   8 216.906 16.3075  -2
  -4   9   8 216.906 16.3075   1
  -3 -13   8 378.654 23.1311  -2
  -3   9   8 378.654 23.1311   1
  -2   9   8 -0.7424 6.14986   1
  -1 -14   8 314.076 21.2865  -2
  -1   9   8 314.076 21.2865   1
   0 -15   8 483.089 22.1480  -2
   0   9   8 483.089 22.1480   1
   1 -16   8 251.739 19.4723  -2
   1   9   8 251.739 19.4723   1
   2 -17   8 203.076 22.0973  -2
   2   9   8 203.076 22.0973   1
   7 -22   8 8.85659 12.8215  -2
   7   9   8 8.85659 12.8215   1
  -9  -8   8 29.0370 29.9585  -2
  -9  10   8 29.0370 29.9585   1
  -8  -9   8 79.5808 45.1993  -2
  -8  10   8 79.5808 45.1993   1
  -7 -10   8 204.032 49.3435  -2
  -7  10   8 204.032 49.3435   1
  -4 -13   8 36.4218 12.5910  -2
  -4  10   8 36.4218 12.5910   1
  -3 -14   8 21.7438 8.78924  -2
  -3  10   8 21.7438 8.78924   1
  -2  10   8 105.110 9.36650   1
  -1 -15   8 170.509 16.3261  -2
  -1  10   8 170.509 16.3261   1
 -11  -7   8 1.49943 14.3633  -2
 -11  11   8 1.49943 14.3633   1
 -10  -8   8 333.181 23.9994  -2
 -10  11   8 333.181 23.9994   1
  -2  11   8 27.5718 6.43509   1
   5 -22   8 23.1355 30.8498  -2
   5  11   8 23.1355 30.8498   1
   6 -23   8 33.6564 32.0828  -2
   6  11   8 33.6564 32.0828   1
 -12  -7   8 -0.2483 16.6327  -2
 -12  12   8 -0.2483 16.6327   1
 -11  -8   8 51.9016 16.6878  -2
 -11  12   8 51.9016 16.6878   1
 -10  -9   8 405.955 28.1924  -2
 -10  12   8 405.955 28.1924   1
  -9 -10   8 22.1769 15.2296  -2
  -9  12   8 22.1769 15.2296   1
  -8 -11   8 -2.3874 15.7028  -2
  -8  12   8 -2.3874 15.7028   1
  -7 -12   8 28.2272 14.8856  -2
  -7  12   8 28.2272 14.8856   1
  -6 -13   8 312.111 22.9350  -2
  -6  12   8 312.111 22.9350   1
  -5 -14   8 224.735 18.6625  -2
  -5  12   8 224.735 18.6625   1
   5 -23   8 20.0402 32.3720  -2
   5  12   8 20.0402 32.3720   1
   6 -24   8 115.122 33.7672  -2
   6  12   8 115.122 33.7672   1
 -12  -8   8 112.404 19.0477  -2
 -12  13   8 112.404 19.0477   1
 -11  -9   8 13.9675 17.1252  -2
 -11  13   8 13.9675 17.1252   1
 -10 -10   8 29.6619 17.2149  -2
 -10  13   8 29.6619 17.2149   1
  -9 -11   8 47.5306 16.6732  -2
  -9  13   8 47.5306 16.6732   1
  -8 -12   8 163.228 18.6253  -2
  -8  13   8 163.228 18.6253   1
  -7 -13   8 133.412 17.3525  -2
  -7  13   8 133.412 17.3525   1
  -6 -14   8 74.4581 16.2549  -2
  -6  13   8 74.4581 16.2549   1
  -5 -15   8 148.886 16.7207  -2
  -5  13   8 148.886 16.7207   1
  -4 -16   8 70.8465 15.6709  -2
  -4  13   8 70.8465 15.6709   1
   5 -24   8 77.8692 33.1236  -2
   5  13   8 77.8692 33.1236   1
 -12  14   8 36.6896 10.2311   1
 -11 -10   8 -32.924 18.3838  -2
 -11  14   8 -32.924 18.3838   1
 -10 -11   8 21.2179 16.7343  -2
 -10  14   8 21.2179 16.7343   1
  -9 -12   8 49.5689 18.3632  -2
  -9  14   8 49.5689 18.3632   1
  -8 -13   8 120.790 18.1237  -2
  -8  14   8 120.790 18.1237   1
  -7 -14   8 57.2555 16.2591  -2
  -7  14   8 57.2555 16.2591   1
  -6 -15   8 150.271 18.4758  -2
  -6  14   8 150.271 18.4758   1
  -5 -16   8 186.856 18.5178  -2
  -5  14   8 186.856 18.5178   1
  -4 -17   8 56.8156 13.9908  -2
  -4  14   8 56.8156 13.9908   1
 -11 -11   8 10.7427 19.0411  -2
 -11  15   8 10.7427 19.0411   1
  -8 -14   8 -7.6798 17.1217  -2
  -8  15   8 -7.6798 17.1217   1
  -7 -15   8 39.3578 16.8327  -2
  -7  15   8 39.3578 16.8327   1
  -6 -16   8 92.8319 17.9146  -2
  -6  15   8 92.8319 17.9146   1
  -5 -17   8 46.2428 17.0941  -2
  -5  15   8 46.2428 17.0941   1
 -11  16   8 -0.2652 11.5672   1
 -10 -13   8 59.4939 19.2591  -2
 -10  16   8 59.4939 19.2591   1
  -9 -14   8 24.6124 18.4624  -2
  -9  16   8 24.6124 18.4624   1
  -8 -15   8 57.6826 18.2866  -2
  -8  16   8 57.6826 18.2866   1
  -7 -16   8 75.8378 16.1884  -2
  -7  16   8 75.8378 16.1884   1
  -6 -17   8 17.0765 17.7472  -2
  -6  16   8 17.0765 17.7472   1
  -5 -18   8 13.2957 17.3271  -2
  -5  16   8 13.2957 17.3271   1
 -10  17   8 37.5129 10.6405   1
  -9 -15   8 -10.020 19.0595  -2
  -9  17   8 -10.020 19.0595   1
  -8 -16   8 29.5692 18.4987  -2
  -8  17   8 29.5692 18.4987   1
  -7 -17   8 67.4784 18.8189  -2
  -7  17   8 67.4784 18.8189   1
  -6 -18   8 162.396 19.1575  -2
  -6  17   8 162.396 19.1575   1
  -5 -19   8 159.866 19.9959  -2
  -5  17   8 159.866 19.9959   1
  -9  18   8 1.59766 10.4941   1
  -8 -17   8 157.311 19.4147  -2
  -8  18   8 157.311 19.4147   1
  -7 -18   8 137.780 20.7146  -2
  -7  18   8 137.780 20.7146   1
  -6 -19   8 142.784 19.0758  -2
  -6  18   8 142.784 19.0758   1
  -7  19   8 38.1695 13.5877   1
  -6 -20   8 66.8724 20.4024  -2
  -6  19   8 66.8724 20.4024   1
  -5 -21   8 17.3999 16.3572  -2
  -5  19   8 17.3999 16.3572   1
   1 -25   9 42.6802 10.5377   1
   2 -25   9 53.3307 23.4331   1
   3  15   9 73.9986 28.6208  -2
   3 -25   9 73.9986 28.6208   1
   4 -25   9 29.1233 19.9398   1
  -1  18   9 36.7341 15.5836  -2
  -1 -24   9 36.7341 15.5836   1
   0  17   9 83.6059 15.3152  -2
   0 -24   9 83.6059 15.3152   1
   1  16   9 82.1143 15.3806  -2
   1 -24   9 82.1143 15.3806   1
   2  15   9 20.7100 26.0106  -2
   2 -24   9 20.7100 26.0106   1
   3  14   9 61.1147 20.4895  -2
   3 -24   9 61.1147 20.4895   1
   4  13   9 58.1331 20.7353  -2
   4 -24   9 58.1331 20.7353   1
   5  12   9 27.9698 18.9880  -2
   5 -24   9 27.9698 18.9880   1
   6  11   9 9.50194 19.1748  -2
   6 -24   9 9.50194 19.1748   1
  -3 -23   9 20.7133 10.9763   1
  -2  18   9 117.271 16.7818  -2
  -2 -23   9 117.271 16.7818   1
  -1  17   9 37.0158 14.8520  -2
  -1 -23   9 37.0158 14.8520   1
   0  16   9 9.51172 13.8415  -2
   0 -23   9 9.51172 13.8415   1
   1  15   9 55.2309 13.3248  -2
   1 -23   9 55.2309 13.3248   1
   2  14   9 30.4348 11.6533  -2
   2 -23   9 30.4348 11.6533   1
   3  13   9 115.971 27.1659  -2
   3 -23   9 115.971 27.1659   1
   4  12   9 34.6483 20.1720  -2
   4 -23   9 34.6483 20.1720   1
   5  11   9 35.5755 20.6427  -2
   5 -23   9 35.5755 20.6427   1
   6  10   9 55.8477 19.1501  -2
   6 -23   9 55.8477 19.1501   1
   7   9   9 -31.020 27.7437  -2
   7 -23   9 -31.020 27.7437   1
  -4  19   9 172.400 18.6073  -2
  -4 -22   9 172.400 18.6073   1
  -3  18   9 58.3038 16.2409  -2
  -3 -22   9 58.3038 16.2409   1
  -2  17   9 66.6854 16.2918  -2
  -2 -22   9 66.6854 16.2918   1
  -1  16   9 -1.3051 13.8868  -2
  -1 -22   9 -1.3051 13.8868   1
   0  15   9 87.8333 14.2160  -2
   0 -22   9 87.8333 14.2160   1
   1  14   9 319.979 17.5467  -2
   1 -22   9 319.979 17.5467   1
   2  13   9 136.208 21.1408  -2
   2 -22   9 136.208 21.1408   1
   3  12   9 -24.290 24.1951  -2
   3 -22   9 -24.290 24.1951   1
   4  11   9 50.1017 19.5475  -2
   4 -22   9 50.1017 19.5475   1
   5  10   9 62.1012 18.3446  -2
   5 -22   9 62.1012 18.3446   1
   6   9   9 177.440 21.8228  -2
   6 -22   9 177.440 21.8228   1
   7   8   9 31.9020 23.9543  -2
   7 -22   9 31.9020 23.9543   1
   8   7   9 17.5821 20.4248  -2
   8 -22   9 17.5821 20.4248   1
  -5  19   9 -13.170 16.8751  -2
  -5 -21   9 -13.170 16.8751   1
  -4  18   9 45.6644 15.8838  -2
  -4 -21   9 45.6644 15.8838   1
  -3  17   9 6.74467 15.8631  -2
  -3 -21   9 6.74467 15.8631   1
  -2  16   9 76.8500 15.0952  -2
  -2 -21   9 76.8500 15.0952   1
  -1  15   9 184.717 17.5118  -2
  -1 -21   9 184.717 17.5118   1
   0  14   9 117.748 14.5273  -2
   0 -21   9 117.748 14.5273   1
   1  13   9 80.3192 25.3169  -2
   1 -21   9 80.3192 25.3169   1
   2  12   9 -5.5392 19.2014  -2
   2 -21   9 -5.5392 19.2014   1
   3  11   9 76.9099 25.1889  -2
   3 -21   9 76.9099 25.1889   1
   4  10   9 527.353 31.1303  -2
   4 -21   9 527.353 31.1303   1
   5   9   9 48.2182 19.4068  -2
   5 -21   9 48.2182 19.4068   1
   6   8   9 179.150 20.1269  -2
   6 -21   9 179.150 20.1269   1
   7   7   9 11.5914 17.8664  -2
   7 -21   9 11.5914 17.8664   1
   8   6   9 49.7872 20.0284  -2
   8 -21   9 49.7872 20.0284   1
   9   5   9 307.801 23.7969  -2
   9 -21   9 307.801 23.7969   1
  -6 -20   9 5.77258 10.4022   1
  -5  18   9 66.8143 16.8502  -2
  -5 -20   9 66.8143 16.8502   1
  -4  17   9 60.6741 15.5598  -2
  -4 -20   9 60.6741 15.5598   1
  -3  16   9 68.3684 15.1792  -2
  -3 -20   9 68.3684 15.1792   1
  -2  15   9 71.5256 14.2826  -2
  -2 -20   9 71.5256 14.2826   1
  -1  14   9 35.0390 13.3794  -2
  -1 -20   9 35.0390 13.3794   1
   0  13   9 89.9227 12.3503  -2
   0 -20   9 89.9227 12.3503   1
   1  12   9 137.763 24.5881  -2
   1 -20   9 137.763 24.5881   1
   2  11   9 54.6169 19.4842  -2
   2 -20   9 54.6169 19.4842   1
   3  10   9 5.51810 18.7535  -2
   3 -20   9 5.51810 18.7535   1
   4   9   9 136.128 19.6319  -2
   4 -20   9 136.128 19.6319   1
   5   8   9 13.2811 17.0591  -2
   5 -20   9 13.2811 17.0591   1
   6   7   9 15.7940 17.6513  -2
   6 -20   9 15.7940 17.6513   1
   7   6   9 213.323 21.0413  -2
   7 -20   9 213.323 21.0413   1
   8   5   9 48.9124 19.6285  -2
   8 -20   9 48.9124 19.6285   1
   9   4   9 93.4779 18.6871  -2
   9 -20   9 93.4779 18.6871   1
  -7 -19   9 22.9904 10.9410   1
  -6  18   9 65.7086 17.1372  -2
  -6 -19   9 65.7086 17.1372   1
  -5  17   9 102.536 16.7625  -2
  -5 -19   9 102.536 16.7625   1
  -4  16   9 92.7709 16.3206  -2
  -4 -19   9 92.7709 16.3206   1
  -3  15   9 14.4996 14.6745  -2
  -3 -19   9 14.4996 14.6745   1
  -2  14   9 144.267 16.0824  -2
  -2 -19   9 144.267 16.0824   1
  -1  13   9 42.6805 11.8017  -2
  -1 -19   9 42.6805 11.8017   1
   0  12   9 90.1530 18.1885  -2
   0 -19   9 90.1530 18.1885   1
   1  11   9 19.5971 18.4340  -2
   1 -19   9 19.5971 18.4340   1
   2  10   9 -12.613 17.1310  -2
   2 -19   9 -12.613 17.1310   1
   3   9   9 65.0318 18.6887  -2
   3 -19   9 65.0318 18.6887   1
   4   8   9 120.770 17.9681  -2
   4 -19   9 120.770 17.9681   1
   5   7   9 103.175 19.2734  -2
   5 -19   9 103.175 19.2734   1
   6   6   9 53.1709 18.6991  -2
   6 -19   9 53.1709 18.6991   1
   7   5   9 122.150 19.0473  -2
   7 -19   9 122.150 19.0473   1
   8   4   9 25.1482 19.0223  -2
   8 -19   9 25.1482 19.0223   1
   9   3   9 49.8298 17.8275  -2
   9 -19   9 49.8298 17.8275   1
  10   2   9 148.319 19.3565  -2
  10 -19   9 148.319 19.3565   1
  -7  18   9 121.936 17.0272  -2
  -7 -18   9 121.936 17.0272   1
  -6  17   9 110.326 16.4064  -2
  -6 -18   9 110.326 16.4064   1
  -5  16   9 8.38545 15.1263  -2
  -5 -18   9 8.38545 15.1263   1
  -4  15   9 16.6845 13.6940  -2
  -4 -18   9 16.6845 13.6940   1
  -3  14   9 143.229 15.6518  -2
  -3 -18   9 143.229 15.6518   1
  -2  13   9 217.444 17.4162  -2
  -2 -18   9 217.444 17.4162   1
  -1  12   9 137.506 12.9918  -2
  -1 -18   9 137.506 12.9918   1
   0  11   9 32.3177 17.7496  -2
   0 -18   9 32.3177 17.7496   1
   1  10   9 99.8419 18.2721  -2
   1 -18   9 99.8419 18.2721   1
   2   9   9 95.2582 17.8776  -2
   2 -18   9 95.2582 17.8776   1
   3   8   9 89.8838 17.7198  -2
   3 -18   9 89.8838 17.7198   1
   4   7   9 26.6800 17.7826  -2
   4 -18   9 26.6800 17.7826   1
   5   6   9 89.1279 17.4802  -2
   5 -18   9 89.1279 17.4802   1
   6   5   9 124.952 18.1470  -2
   6 -18   9 124.952 18.1470   1
   7   4   9 79.1528 18.4946  -2
   7 -18   9 79.1528 18.4946   1
   8   3   9 22.6048 16.3507  -2
   8 -18   9 22.6048 16.3507   1
   9   2   9 33.0604 16.6641  -2
   9 -18   9 33.0604 16.6641   1
  10   1   9 111.034 19.2281  -2
  10 -18   9 111.034 19.2281   1
  -8  18   9 47.0884 16.2593  -2
  -8 -17   9 47.0884 16.2593   1
  -7  17   9 66.2575 16.2446  -2
  -7 -17   9 66.2575 16.2446   1
  -6  16   9 12.6983 14.1454  -2
  -6 -17   9 12.6983 14.1454   1
  -5  15   9 75.1811 15.1325  -2
  -5 -17   9 75.1811 15.1325   1
  -4  14   9 158.584 15.9653  -2
  -4 -17   9 158.584 15.9653   1
  -3  13   9 227.435 18.3168  -2
  -3 -17   9 227.435 18.3168   1
  -2  12   9 33.4477 12.5208  -2
  -2 -17   9 33.4477 12.5208   1
  -1  11   9 87.3588 17.3397  -2
  -1 -17   9 87.3588 17.3397   1
   0  10   9 53.6604 16.6123  -2
   0 -17   9 53.6604 16.6123   1
   1   9   9 766.773 37.2672  -2
   1 -17   9 766.773 37.2672   1
   2   8   9 231.678 19.4819  -2
   2 -17   9 231.678 19.4819   1
   3   7   9 50.2262 16.3989  -2
   3 -17   9 50.2262 16.3989   1
   4   6   9 43.8634 17.1233  -2
   4 -17   9 43.8634 17.1233   1
   5   5   9 -9.3520 17.0157  -2
   5 -17   9 -9.3520 17.0157   1
   6   4   9 383.940 24.3037  -2
   6 -17   9 383.940 24.3037   1
   7   3   9 86.2963 18.3093  -2
   7 -17   9 86.2963 18.3093   1
   8   2   9 6.63366 17.7100  -2
   8 -17   9 6.63366 17.7100   1
   9   1   9 53.5314 18.7775  -2
   9 -17   9 53.5314 18.7775   1
  10   0   9 12.0094 17.6124  -2
  10 -17   9 12.0094 17.6124   1
  11 -17   9 71.7136 26.6650   1
  -9 -16   9 7.53227 9.94893   1
  -8  17   9 10.2867 15.3510  -2
  -8 -16   9 10.2867 15.3510   1
  -7  16   9 9.42757 14.3002  -2
  -7 -16   9 9.42757 14.3002   1
  -6  15   9 0.77537 14.2761  -2
  -6 -16   9 0.77537 14.2761   1
  -5  14   9 45.0514 14.2608  -2
  -5 -16   9 45.0514 14.2608   1
  -4  13   9 78.4510 11.5345  -2
  -4 -16   9 78.4510 11.5345   1
  -3  12   9 61.4522 13.0005  -2
  -3 -16   9 61.4522 13.0005   1
  -2  11   9 27.7434 11.8119  -2
  -2 -16   9 27.7434 11.8119   1
  -1  10   9 435.968 25.4790  -2
  -1 -16   9 435.968 25.4790   1
   0   9   9 352.669 22.9731  -2
   0 -16   9 352.669 22.9731   1
   1   8   9 505.810 28.1247  -2
   1 -16   9 505.810 28.1247   1
   2   7   9 13.7296 16.4141  -2
   2 -16   9 13.7296 16.4141   1
   3   6   9 199.529 18.7916  -2
   3 -16   9 199.529 18.7916   1
   4   5   9 277.695 16.6420  -2
   4 -16   9 277.695 16.6420   1
   5   4   9 68.0321 17.1941  -2
   5 -16   9 68.0321 17.1941   1
   6   3   9 106.713 18.1498  -2
   6 -16   9 106.713 18.1498   1
   7   2   9 89.7957 16.9524  -2
   7 -16   9 89.7957 16.9524   1
   8   1   9 59.8787 17.5951  -2
   8 -16   9 59.8787 17.5951   1
   9   0   9 402.067 25.3931  -2
   9 -16   9 402.067 25.3931   1
  10  -1   9 114.967 17.6225  -2
  10 -16   9 114.967 17.6225   1
  11  -2   9 60.7610 17.1554  -2
  11 -16   9 60.7610 17.1554   1
  -8  16   9 51.1762 15.0557  -2
  -8 -15   9 51.1762 15.0557   1
  -7  15   9 56.2584 14.5736  -2
  -7 -15   9 56.2584 14.5736   1
  -6  14   9 23.4559 13.0023  -2
  -6 -15   9 23.4559 13.0023   1
  -5  13   9 148.069 15.5936  -2
  -5 -15   9 148.069 15.5936   1
  -4  12   9 135.993 14.8677  -2
  -4 -15   9 135.993 14.8677   1
  -3  11   9 44.9995 11.9309  -2
  -3 -15   9 44.9995 11.9309   1
  -2  10   9 76.0186 12.0109  -2
  -2 -15   9 76.0186 12.0109   1
  -1   9   9 372.629 33.3542  -2
  -1 -15   9 372.629 33.3542   1
   0   8   9 297.419 20.6924  -2
   0 -15   9 297.419 20.6924   1
   1   7   9 147.204 17.6572  -2
   1 -15   9 147.204 17.6572   1
   2   6   9 156.871 17.4778  -2
   2 -15   9 156.871 17.4778   1
   3   5   9 181.560 18.3956  -2
   3 -15   9 181.560 18.3956   1
   4   4   9 384.026 18.6446  -2
   4 -15   9 384.026 18.6446   1
   5   3   9 26.7454 16.1576  -2
   5 -15   9 26.7454 16.1576   1
   6   2   9 -12.054 16.5282  -2
   6 -15   9 -12.054 16.5282   1
   7   1   9 832.058 40.3682  -2
   7 -15   9 832.058 40.3682   1
   8   0   9 61.5586 17.6827  -2
   8 -15   9 61.5586 17.6827   1
   9  -1   9 226.304 21.1385  -2
   9 -15   9 226.304 21.1385   1
  10  -2   9 51.4988 16.8744  -2
  10 -15   9 51.4988 16.8744   1
  11  -3   9 -1.2994 20.5618  -2
  11 -15   9 -1.2994 20.5618   1
  -8  15   9 37.2841 14.1081  -2
  -8 -14   9 37.2841 14.1081   1
  -7  14   9 19.3765 13.8003  -2
  -7 -14   9 19.3765 13.8003   1
  -6  13   9 60.1315 12.7654  -2
  -6 -14   9 60.1315 12.7654   1
  -5  12   9 186.006 16.0007  -2
  -5 -14   9 186.006 16.0007   1
  -4  11   9 231.828 16.7770  -2
  -4 -14   9 231.828 16.7770   1
  -3  10   9 -0.3023 11.5223  -2
  -3 -14   9 -0.3023 11.5223   1
   0   7   9 116.285 16.1596  -2
   0 -14   9 116.285 16.1596   1
   1   6   9 142.634 13.4231  -2
   1 -14   9 142.634 13.4231   1
   2   5   9 112.502 13.2139  -2
   2 -14   9 112.502 13.2139   1
   3   4   9 5.69321 14.6299  -2
   3 -14   9 5.69321 14.6299   1
   4   3   9 127.150 12.6324  -2
   4 -14   9 127.150 12.6324   1
   5   2   9 39.0020 14.5397  -2
   5 -14   9 39.0020 14.5397   1
   6   1   9 34.7910 16.6006  -2
   6 -14   9 34.7910 16.6006   1
   7   0   9 142.166 17.9680  -2
   7 -14   9 142.166 17.9680   1
   8  -1   9 0.13482 15.3368  -2
   8 -14   9 0.13482 15.3368   1
   9  -2   9 98.8926 16.8739  -2
   9 -14   9 98.8926 16.8739   1
  10  -3   9 145.393 17.6283  -2
  10 -14   9 145.393 17.6283   1
  11  -4   9 43.0085 20.3245  -2
  11 -14   9 43.0085 20.3245   1
  -8  14   9 3.89331 13.5022  -2
  -8 -13   9 3.89331 13.5022   1
  -7  13   9 377.754 23.5852  -2
  -7 -13   9 377.754 23.5852   1
  -6  12   9 186.006 15.1137  -2
  -6 -13   9 186.006 15.1137   1
  -5  11   9 51.7459 11.2046  -2
  -5 -13   9 51.7459 11.2046   1
  -4  10   9 89.1501 12.3442  -2
  -4 -13   9 89.1501 12.3442   1
  -3   9   9 26.0158 10.8903  -2
  -3 -13   9 26.0158 10.8903   1
   0   6   9 35.6293 21.3770  -2
   0 -13   9 35.6293 21.3770   1
   1   5   9 273.680 19.3803  -2
   1 -13   9 273.680 19.3803   1
   2   4   9 246.687 14.8466  -2
   2 -13   9 246.687 14.8466   1
   3   3   9 363.786 17.5384  -2
   3 -13   9 363.786 17.5384   1
   4   2   9 366.366 17.5424  -2
   4 -13   9 366.366 17.5424   1
   5   1   9 26.1303 10.1702  -2
   5 -13   9 26.1303 10.1702   1
   6   0   9 230.260 18.8816  -2
   6 -13   9 230.260 18.8816   1
   7  -1   9 23.7204 12.0507  -2
   7 -13   9 23.7204 12.0507   1
   8  -2   9 18.7908 13.7578  -2
   8 -13   9 18.7908 13.7578   1
   9  -3   9 228.480 20.2001  -2
   9 -13   9 228.480 20.2001   1
  10  -4   9 63.1959 16.9157  -2
  10 -13   9 63.1959 16.9157   1
  11  -5   9 -4.9649 20.5268  -2
  11 -13   9 -4.9649 20.5268   1
  -8  13   9 39.1216 13.2669  -2
  -8 -12   9 39.1216 13.2669   1
  -7  12   9 79.9992 12.6480  -2
  -7 -12   9 79.9992 12.6480   1
  -6  11   9 11.4760 11.1758  -2
  -6 -12   9 11.4760 11.1758   1
  -5  10   9 43.5779 10.7479  -2
  -5 -12   9 43.5779 10.7479   1
  -4   9   9 585.443 27.2652  -2
  -4 -12   9 585.443 27.2652   1
  -3   8   9 114.726 12.0988  -2
  -3 -12   9 114.726 12.0988   1
   0   5   9 47.0553 21.0255  -2
   0 -12   9 47.0553 21.0255   1
   1   4   9 256.490 30.6546  -2
   1 -12   9 256.490 30.6546   1
   2   3   9 226.528 17.6326  -2
   2 -12   9 226.528 17.6326   1
   3   2   9 98.1311 12.1101  -2
   3 -12   9 98.1311 12.1101   1
   4   1   9 106.606 11.5472  -2
   4 -12   9 106.606 11.5472   1
   5   0   9 11.1527 11.4678  -2
   5 -12   9 11.1527 11.4678   1
   6  -1   9 847.363 39.7543  -2
   6 -12   9 847.363 39.7543   1
   7  -2   9 179.737 14.9660  -2
   7 -12   9 179.737 14.9660   1
   8  -3   9 5.79224 14.3688  -2
   8 -12   9 5.79224 14.3688   1
   9  -4   9 146.841 18.2082  -2
   9 -12   9 146.841 18.2082   1
  10  -5   9 12.3342 22.5821  -2
  10 -12   9 12.3342 22.5821   1
  11  -6   9 29.5998 23.2727  -2
  11 -12   9 29.5998 23.2727   1
  -7  11   9 195.917 15.7637  -2
  -7 -11   9 195.917 15.7637   1
  -6  10   9 453.187 21.9508  -2
  -6 -11   9 453.187 21.9508   1
  -5   9   9 43.4789 10.1219  -2
  -5 -11   9 43.4789 10.1219   1
  -4   8   9 612.881 32.8838  -2
  -4 -11   9 612.881 32.8838   1
  -2   6   9 8.41463 19.5871  -2
  -2 -11   9 8.41463 19.5871   1
  -1   5   9 906.546 79.3945  -2
  -1 -11   9 906.546 79.3945   1
   0   4   9 163.971 24.5079  -2
   0 -11   9 163.971 24.5079   1
   1   3   9 520.005 49.1844  -2
   1 -11   9 520.005 49.1844   1
   2   2   9 76.5480 14.7887  -2
   2 -11   9 76.5480 14.7887   1
   3   1   9 20.4298 11.3693  -2
   3 -11   9 20.4298 11.3693   1
   4   0   9 1367.82 49.0183  -2
   4 -11   9 1367.82 49.0183   1
   5  -1   9 120.735 10.1723  -2
   5 -11   9 120.735 10.1723   1
   6  -2   9 169.346 15.4377  -2
   6 -11   9 169.346 15.4377   1
   7  -3   9 59.8928 12.1535  -2
   7 -11   9 59.8928 12.1535   1
   8  -4   9 2.96347 11.3121  -2
   8 -11   9 2.96347 11.3121   1
   9  -5   9 881.048 41.8627  -2
   9 -11   9 881.048 41.8627   1
  10  -6   9 101.198 23.5635  -2
  10 -11   9 101.198 23.5635   1
  11  -7   9 -2.6672 22.6908  -2
  11 -11   9 -2.6672 22.6908   1
  -7  10   9 112.075 13.0898  -2
  -7 -10   9 112.075 13.0898   1
  -6   9   9 102.658 11.0893  -2
  -6 -10   9 102.658 11.0893   1
  -5   8   9 42.2477 7.61611  -2
  -5 -10   9 42.2477 7.61611   1
  -4   7   9 115.953 11.3636  -2
  -4 -10   9 115.953 11.3636   1
  -2   5   9 25.1685 18.7280  -2
  -2 -10   9 25.1685 18.7280   1
  -1   4   9 131.337 22.7092  -2
  -1 -10   9 131.337 22.7092   1
   1   2   9 21.8287 13.7118  -2
   1 -10   9 21.8287 13.7118   1
   2   1   9 282.866 31.3305  -2
   2 -10   9 282.866 31.3305   1
   3   0   9 28.0724 10.6823  -2
   3 -10   9 28.0724 10.6823   1
   4  -1   9 1163.44 42.1005  -2
   4 -10   9 1163.44 42.1005   1
   5  -2   9 16.1643 8.32672  -2
   5 -10   9 16.1643 8.32672   1
   6  -3   9 8.29306 9.77426  -2
   6 -10   9 8.29306 9.77426   1
   7  -4   9 210.504 14.6987  -2
   7 -10   9 210.504 14.6987   1
   8  -5   9 28.3893 11.1470  -2
   8 -10   9 28.3893 11.1470   1
   9  -6   9 519.885 40.5395  -2
   9 -10   9 519.885 40.5395   1
  10  -7   9 27.1581 21.7649  -2
  10 -10   9 27.1581 21.7649   1
  11  -8   9 -1.5465 22.3063  -2
  11 -10   9 -1.5465 22.3063   1
  -7   9   9 15.5815 10.7455  -2
  -7  -9   9 15.5815 10.7455   1
  -6   8   9 69.2395 9.99616  -2
  -6  -9   9 69.2395 9.99616   1
  -5   7   9 439.918 22.6061  -2
  -5  -9   9 439.918 22.6061   1
  -4   6   9 416.233 24.9315  -2
  -4  -9   9 416.233 24.9315   1
  -3   5   9 152.494 12.7667  -2
  -3  -9   9 152.494 12.7667   1
  -2   4   9 31.2176 8.39809  -2
  -2  -9   9 31.2176 8.39809   1
  -1   3   9 254.812 16.8632  -2
  -1  -9   9 254.812 16.8632   1
   1   1   9 291.676 32.1707  -2
   1  -9   9 291.676 32.1707   1
   2   0   9 77.9266 19.4955  -2
   2  -9   9 77.9266 19.4955   1
   3  -1   9 207.244 16.2015  -2
   3  -9   9 207.244 16.2015   1
   4  -2   9 204.236 12.5496  -2
   4  -9   9 204.236 12.5496   1
   5  -3   9 393.672 22.0893  -2
   5  -9   9 393.672 22.0893   1
   6  -4   9 263.655 13.4899  -2
   6  -9   9 263.655 13.4899   1
   7  -5   9 69.7018 13.5443  -2
   7  -9   9 69.7018 13.5443   1
   8  -6   9 22.5142 11.7903  -2
   8  -9   9 22.5142 11.7903   1
   9  -7   9 53.7560 21.3782  -2
   9  -9   9 53.7560 21.3782   1
  10  -8   9 211.249 26.0185  -2
  10  -9   9 211.249 26.0185   1
  11  -9   9 6.32303 22.0267  -2
  11  -9   9 6.32303 22.0267   1
  -7   8   9 329.778 37.3912  -2
  -7  -8   9 329.778 37.3912   1
  -5   6   9 370.996 20.1582  -2
  -5  -8   9 370.996 20.1582   1
  -4   5   9 12.6758 8.23005  -2
  -4  -8   9 12.6758 8.23005   1
  -3   4   9 177.266 13.8488  -2
  -3  -8   9 177.266 13.8488   1
  -2   3   9 37.5846 18.8258  -2
  -2  -8   9 37.5846 18.8258   1
  -1   2   9 498.225 46.8715  -2
  -1  -8   9 498.225 46.8715   1
   2  -1   9 -13.835 20.8274  -2
   2  -8   9 -13.835 20.8274   1
   3  -2   9 535.723 39.8240  -2
   3  -8   9 535.723 39.8240   1
   4  -3   9 1077.86 39.3022  -2
   4  -8   9 1077.86 39.3022   1
   5  -4   9 97.3361 13.6170  -2
   5  -8   9 97.3361 13.6170   1
   6  -5   9 102.212 10.4258  -2
   6  -8   9 102.212 10.4258   1
   7  -6   9 32.2862 12.8673  -2
   7  -8   9 32.2862 12.8673   1
   8  -7   9 -1.7164 11.4013  -2
   8  -8   9 -1.7164 11.4013   1
   9  -8   9 198.722 24.8549  -2
   9  -8   9 198.722 24.8549   1
  10  -9   9 176.437 26.4531  -2
  10  -8   9 176.437 26.4531   1
  11 -10   9 3.38266 9.08314  -2
  11  -8   9 3.38266 9.08314   1
  12 -11   9 59.4703 31.3630  -2
  12  -8   9 59.4703 31.3630   1
  -7   7   9 208.764 32.5836  -2
  -7  -7   9 208.764 32.5836   1
  -5   5   9 6.34445 7.88496  -2
  -5  -7   9 6.34445 7.88496   1
  -4   4   9 1000.05 55.4279  -2
  -4  -7   9 1000.05 55.4279   1
  -3   3   9 183.934 13.9952  -2
  -3  -7   9 183.934 13.9952   1
  -1   1   9 57.9605 19.3851  -2
  -1  -7   9 57.9605 19.3851   1
   2  -2   9 913.569 59.2276  -2
   2  -7   9 913.569 59.2276   1
   3  -3   9 160.262 23.6042  -2
   3  -7   9 160.262 23.6042   1
   4  -4   9 218.987 12.8357  -2
   4  -7   9 218.987 12.8357   1
   5  -5   9 148.144 14.5889  -2
   5  -7   9 148.144 14.5889   1
   6  -6   9 315.739 17.4129  -2
   6  -7   9 315.739 17.4129   1
   7  -7   9 288.214 16.9266  -2
   7  -7   9 288.214 16.9266   1
   8  -8   9 19.9032 19.8163  -2
   8  -7   9 19.9032 19.8163   1
   9  -9   9 69.1355 21.7674  -2
   9  -7   9 69.1355 21.7674   1
  10 -10   9 33.8306 20.9831  -2
  10  -7   9 33.8306 20.9831   1
  11 -11   9 -17.268 8.93406  -2
  11  -7   9 -17.268 8.93406   1
  -6   5   9 164.035 20.5998  -2
  -6  -6   9 164.035 20.5998   1
  -5   4   9 10.5493 7.76134  -2
  -5  -6   9 10.5493 7.76134   1
  -4   3   9 790.381 44.4138  -2
  -4  -6   9 790.381 44.4138   1
  -3   2   9 777.965 43.6134  -2
  -3  -6   9 777.965 43.6134   1
   2  -3   9 145.051 23.1450  -2
   2  -6   9 145.051 23.1450   1
   3  -4   9 19.7218 18.8826  -2
   3  -6   9 19.7218 18.8826   1
   4  -5   9 1462.61 63.2669  -2
   4  -6   9 1462.61 63.2669   1
   5  -6   9 543.692 26.8493  -2
   5  -6   9 543.692 26.8493   1
   6  -7   9 322.149 19.3350  -2
   6  -6   9 322.149 19.3350   1
   7  -8   9 28.7178 9.14094  -2
   7  -6   9 28.7178 9.14094   1
   8  -9   9 34.7874 22.3096  -2
   8  -6   9 34.7874 22.3096   1
   9 -10   9 550.824 41.1483  -2
   9  -6   9 550.824 41.1483   1
  10 -11   9 127.750 22.8344  -2
  10  -6   9 127.750 22.8344   1
  11 -12   9 6.11708 8.83658  -2
  11  -6   9 6.11708 8.83658   1
  -6   4   9 0.23243 13.7059  -2
  -6  -5   9 0.23243 13.7059   1
  -5   3   9 -2.3499 7.94667  -2
  -5  -5   9 -2.3499 7.94667   1
  -4   2   9 50.1357 10.3024  -2
  -4  -5   9 50.1357 10.3024   1
   0  -2   9 489.140 35.4634  -2
   0  -5   9 489.140 35.4634   1
   1  -3   9 746.477 48.6542  -2
   1  -5   9 746.477 48.6542   1
   2  -4   9 54.0452 18.9088  -2
   2  -5   9 54.0452 18.9088   1
   3  -5   9 3.63537 18.2580  -2
   3  -5   9 3.63537 18.2580   1
   4  -6   9 1348.19 84.2526  -2
   4  -5   9 1348.19 84.2526   1
   5  -7   9 161.376 9.01198  -2
   5  -5   9 161.376 9.01198   1
   6  -8   9 97.6926 8.16112  -2
   6  -5   9 97.6926 8.16112   1
   7  -9   9 131.588 9.42209  -2
   7  -5   9 131.588 9.42209   1
   8 -10   9 80.5979 8.92723  -2
   8  -5   9 80.5979 8.92723   1
   9 -11   9 685.980 48.4002  -2
   9  -5   9 685.980 48.4002   1
  10 -12   9 12.9912 22.0406  -2
  10  -5   9 12.9912 22.0406   1
  11 -13   9 10.5644 8.56944  -2
  11  -5   9 10.5644 8.56944   1
  -7   4   9 29.2227 13.0930  -2
  -7  -4   9 29.2227 13.0930   1
  -6   3   9 215.269 23.1848  -2
  -6  -4   9 215.269 23.1848   1
  -5   2   9 936.155 52.1155  -2
  -5  -4   9 936.155 52.1155   1
  -4   1   9 1423.04 78.1665  -2
  -4  -4   9 1423.04 78.1665   1
  -1  -2   9 209.953 24.0209  -2
  -1  -4   9 209.953 24.0209   1
   3  -6   9 29.1706 7.93201  -2
   3  -4   9 29.1706 7.93201   1
   4  -7   9 180.741 11.1153  -2
   4  -4   9 180.741 11.1153   1
   5  -8   9 131.475 8.41739  -2
   5  -4   9 131.475 8.41739   1
   6  -9   9 203.454 10.2105  -2
   6  -4   9 203.454 10.2105   1
   7 -10   9 218.754 11.4126  -2
   7  -4   9 218.754 11.4126   1
   8 -11   9 5.00400 8.79232  -2
   8  -4   9 5.00400 8.79232   1
   9 -12   9 99.2602 10.8272  -2
   9  -4   9 99.2602 10.8272   1
  10 -13   9 49.0106 9.68583  -2
  10  -4   9 49.0106 9.68583   1
  11 -14   9 0.18804 10.2576  -2
  11  -4   9 0.18804 10.2576   1
  -5   1   9 1236.12 68.1451  -2
  -5  -3   9 1236.12 68.1451   1
  -4   0   9 418.385 25.1163  -2
  -4  -3   9 418.385 25.1163   1
  -3  -1   9 44.9165 12.3071  -2
  -3  -3   9 44.9165 12.3071   1
   3  -7   9 177.596 10.8203  -2
   3  -3   9 177.596 10.8203   1
   4  -8   9 1000.63 40.1641  -2
   4  -3   9 1000.63 40.1641   1
   5  -9   9 367.641 13.5104  -2
   5  -3   9 367.641 13.5104   1
   6 -10   9 23.5237 8.32744  -2
   6  -3   9 23.5237 8.32744   1
   7 -11   9 126.338 9.65768  -2
   7  -3   9 126.338 9.65768   1
   8 -12   9 6.55637 9.08764  -2
   8  -3   9 6.55637 9.08764   1
   9 -13   9 208.244 13.3299  -2
   9  -3   9 208.244 13.3299   1
  10 -14   9 97.3478 10.8030  -2
  10  -3   9 97.3478 10.8030   1
  11 -15   9 8.43773 9.42575  -2
  11  -3   9 8.43773 9.42575   1
  -5   0   9 35.9252 10.1292  -2
  -5  -2   9 35.9252 10.1292   1
   2  -7   9 964.214 38.3533  -2
   2  -2   9 964.214 38.3533   1
   3  -8   9 551.914 23.4743  -2
   3  -2   9 551.914 23.4743   1
   4  -9   9 203.163 11.5248  -2
   4  -2   9 203.163 11.5248   1
   5 -10   9 17.9820 7.09358  -2
   5  -2   9 17.9820 7.09358   1
   6 -11   9 200.706 11.4811  -2
   6  -2   9 200.706 11.4811   1
   7 -12   9 183.470 10.9062  -2
   7  -2   9 183.470 10.9062   1
   8 -13   9 6.12913 9.17652  -2
   8  -2   9 6.12913 9.17652   1
   9 -14   9 86.3817 9.82021  -2
   9  -2   9 86.3817 9.82021   1
  10 -15   9 36.8569 11.2613  -2
  10  -2   9 36.8569 11.2613   1
  11 -16   9 16.0620 10.2178  -2
  11  -2   9 16.0620 10.2178   1
  -5  -1   9 576.218 33.2862  -2
  -5  -1   9 576.218 33.2862   1
   0  -6   9 66.1744 19.7234  -2
   0  -1   9 66.1744 19.7234   1
   1  -7   9 745.067 66.0245  -2
   1  -1   9 745.067 66.0245   1
   2  -8   9 74.5332 19.8798  -2
   2  -1   9 74.5332 19.8798   1
   3  -9   9 190.866 11.3006  -2
   3  -1   9 190.866 11.3006   1
   4 -10   9 1072.15 37.0319  -2
   4  -1   9 1072.15 37.0319   1
   5 -11   9 122.658 9.73111  -2
   5  -1   9 122.658 9.73111   1
   6 -12   9 745.322 24.0743  -2
   6  -1   9 745.322 24.0743   1
   7 -13   9 19.6731 7.55406  -2
   7  -1   9 19.6731 7.55406   1
   8 -14   9 21.8078 9.35720  -2
   8  -1   9 21.8078 9.35720   1
   9 -15   9 178.746 14.1261  -2
   9  -1   9 178.746 14.1261   1
  10 -16   9 105.572 12.0093  -2
  10  -1   9 105.572 12.0093   1
  11 -17   9 48.0438 11.2577  -2
  11  -1   9 48.0438 11.2577   1
  -5  -2   9 37.9637 10.0096  -2
  -5   0   9 37.9637 10.0096   1
  -4  -3   9 382.324 23.3339  -2
  -4   0   9 382.324 23.3339   1
   0  -7   9 12.3965 18.6387  -2
   0   0   9 12.3965 18.6387   1
   1  -8   9 144.264 23.0756  -2
   1   0   9 144.264 23.0756   1
   2  -9   9 166.357 12.4589  -2
   2   0   9 166.357 12.4589   1
   3 -10   9 20.3571 7.15224  -2
   3   0   9 20.3571 7.15224   1
   4 -11   9 1179.95 40.6745  -2
   4   0   9 1179.95 40.6745   1
   5 -12   9 21.6671 7.76971  -2
   5   0   9 21.6671 7.76971   1
   6 -13   9 133.428 9.74662  -2
   6   0   9 133.428 9.74662   1
   7 -14   9 136.781 10.5620  -2
   7   0   9 136.781 10.5620   1
   8 -15   9 62.3211 9.49735  -2
   8   0   9 62.3211 9.49735   1
   9 -16   9 307.277 17.4106  -2
   9   0   9 307.277 17.4106   1
  10 -17   9 21.7565 10.8605  -2
  10   0   9 21.7565 10.8605   1
  -4  -4   9 1415.32 77.7559  -2
  -4   1   9 1415.32 77.7559   1
  -3  -5   9 142.672 19.1091  -2
  -3   1   9 142.672 19.1091   1
  -2  -6   9 15.2227 17.8023  -2
  -2   1   9 15.2227 17.8023   1
  -1  -7   9 57.6788 19.4028  -2
  -1   1   9 57.6788 19.4028   1
   0  -8   9 50.2102 19.6131  -2
   0   1   9 50.2102 19.6131   1
   1  -9   9 220.262 27.1359  -2
   1   1   9 220.262 27.1359   1
   2 -10   9 618.347 32.8567  -2
   2   1   9 618.347 32.8567   1
   3 -11   9 29.9113 7.27957  -2
   3   1   9 29.9113 7.27957   1
   4 -12   9 58.0430 7.47970  -2
   4   1   9 58.0430 7.47970   1
   5 -13   9 28.6593 7.63075  -2
   5   1   9 28.6593 7.63075   1
   6 -14   9 27.8482 8.76254  -2
   6   1   9 27.8482 8.76254   1
   7 -15   9 597.065 22.3211  -2
   7   1   9 597.065 22.3211   1
   8 -16   9 50.7213 10.5354  -2
   8   1   9 50.7213 10.5354   1
   9 -17   9 20.7045 10.5165  -2
   9   1   9 20.7045 10.5165   1
  10 -18   9 73.5307 12.3411  -2
  10   1   9 73.5307 12.3411   1
 -11   2   9 68.5048 14.1509   1
  -4  -5   9 35.2928 8.87164  -2
  -4   2   9 35.2928 8.87164   1
  -3  -6   9 920.199 38.3003  -2
  -3   2   9 920.199 38.3003   1
  -2  -7   9 334.987 35.0847  -2
  -2   2   9 334.987 35.0847   1
  -1  -8   9 439.692 42.8286  -2
  -1   2   9 439.692 42.8286   1
   0  -9   9 23.8351 19.1528  -2
   0   2   9 23.8351 19.1528   1
   1 -10   9 13.9211 8.16438  -2
   1   2   9 13.9211 8.16438   1
   2 -11   9 65.4264 8.14671  -2
   2   2   9 65.4264 8.14671   1
   3 -12   9 91.1501 7.95266  -2
   3   2   9 91.1501 7.95266   1
   4 -13   9 333.117 13.5869  -2
   4   2   9 333.117 13.5869   1
   5 -14   9 40.1201 8.38909  -2
   5   2   9 40.1201 8.38909   1
   6 -15   9 -7.5940 8.17716  -2
   6   2   9 -7.5940 8.17716   1
   7 -16   9 62.6935 11.2538  -2
   7   2   9 62.6935 11.2538   1
   8 -17   9 -8.2299 10.7413  -2
   8   2   9 -8.2299 10.7413   1
   9 -18   9 12.6774 10.6557  -2
   9   2   9 12.6774 10.6557   1
  10 -19   9 110.326 12.5281  -2
  10   2   9 110.326 12.5281   1
  -6  -4   9 150.163 21.1870  -2
  -6   3   9 150.163 21.1870   1
  -5  -5   9 4.31935 17.4294  -2
  -5   3   9 4.31935 17.4294   1
  -4  -6   9 886.198 49.5408  -2
  -4   3   9 886.198 49.5408   1
  -3  -7   9 184.653 11.7383  -2
  -3   3   9 184.653 11.7383   1
  -2  -8   9 107.378 9.82893  -2
  -2   3   9 107.378 9.82893   1
  -1  -9   9 231.054 21.2075  -2
  -1   3   9 231.054 21.2075   1
   1 -11   9 1067.71 54.8323  -2
   1   3   9 1067.71 54.8323   1
   2 -12   9 214.796 12.3779  -2
   2   3   9 214.796 12.3779   1
   3 -13   9 288.698 13.7292  -2
   3   3   9 288.698 13.7292   1
   4 -14   9 119.766 8.34540  -2
   4   3   9 119.766 8.34540   1
   5 -15   9 6.79692 11.4041  -2
   5   3   9 6.79692 11.4041   1
   6 -16   9 84.2942 8.75968  -2
   6   3   9 84.2942 8.75968   1
   7 -17   9 69.7843 11.3199  -2
   7   3   9 69.7843 11.3199   1
   8 -18   9 17.2932 11.1508  -2
   8   3   9 17.2932 11.1508   1
   9 -19   9 17.7999 10.8826  -2
   9   3   9 17.7999 10.8826   1
  -5  -6   9 33.5031 17.8684  -2
  -5   4   9 33.5031 17.8684   1
  -4  -7   9 1026.76 42.4638  -2
  -4   4   9 1026.76 42.4638   1
  -3  -8   9 182.949 11.6703  -2
  -3   4   9 182.949 11.6703   1
  -2  -9   9 60.8584 9.31664  -2
  -2   4   9 60.8584 9.31664   1
  -1 -10   9 331.875 14.0919  -2
  -1   4   9 331.875 14.0919   1
   0 -11   9 378.089 12.4773  -2
   0   4   9 378.089 12.4773   1
   1 -12   9 515.267 17.9984  -2
   1   4   9 515.267 17.9984   1
   2 -13   9 215.957 9.70084  -2
   2   4   9 215.957 9.70084   1
   3 -14   9 8.97231 21.3132  -2
   3   4   9 8.97231 21.3132   1
   4 -15   9 298.180 13.1986  -2
   4   4   9 298.180 13.1986   1
   5 -16   9 59.1407 9.06370  -2
   5   4   9 59.1407 9.06370   1
   6 -17   9 324.922 17.8583  -2
   6   4   9 324.922 17.8583   1
   7 -18   9 26.8526 27.1823  -2
   7   4   9 26.8526 27.1823   1
   8 -19   9 -7.1808 10.6172  -2
   8   4   9 -7.1808 10.6172   1
   9 -20   9 52.3265 11.5058  -2
   9   4   9 52.3265 11.5058   1
  -9  -3   9 67.3778 35.7541  -2
  -9   5   9 67.3778 35.7541   1
  -5  -7   9 -3.9327 18.5359  -2
  -5   5   9 -3.9327 18.5359   1
  -4  -8   9 38.3524 9.34029  -2
  -4   5   9 38.3524 9.34029   1
  -3  -9   9 165.334 11.3552  -2
  -3   5   9 165.334 11.3552   1
  -2 -10   9 71.0321 8.45285  -2
  -2   5   9 71.0321 8.45285   1
  -1 -11   9 2016.79 55.5887  -2
  -1   5   9 2016.79 55.5887   1
   0 -12   9 180.400 8.29900  -2
   0   5   9 180.400 8.29900   1
   1 -13   9 198.917 8.48745  -2
   1   5   9 198.917 8.48745   1
   2 -14   9 133.719 7.99998  -2
   2   5   9 133.719 7.99998   1
   3 -15   9 160.296 11.6948  -2
   3   5   9 160.296 11.6948   1
   4 -16   9 204.539 11.6968  -2
   4   5   9 204.539 11.6968   1
   5 -17   9 15.6019 9.14806  -2
   5   5   9 15.6019 9.14806   1
   6 -18   9 93.4856 26.2624  -2
   6   5   9 93.4856 26.2624   1
   7 -19   9 116.119 11.9374  -2
   7   5   9 116.119 11.9374   1
   8 -20   9 36.9077 11.0355  -2
   8   5   9 36.9077 11.0355   1
   9 -21   9 223.200 15.1563  -2
   9   5   9 223.200 15.1563   1
  -9  -4   9 232.069 40.6813  -2
  -9   6   9 232.069 40.6813   1
  -7  -6   9 36.3238 20.6781  -2
  -7   6   9 36.3238 20.6781   1
  -6  -7   9 104.839 21.0363  -2
  -6   6   9 104.839 21.0363   1
  -5  -8   9 433.392 33.2384  -2
  -5   6   9 433.392 33.2384   1
  -4  -9   9 548.212 24.6039  -2
  -4   6   9 548.212 24.6039   1
  -3 -10   9 108.929 10.3298  -2
  -3   6   9 108.929 10.3298   1
  -2 -11   9 29.6655 8.79667  -2
  -2   6   9 29.6655 8.79667   1
  -1 -12   9 127.367 8.04223  -2
  -1   6   9 127.367 8.04223   1
   0 -13   9 -11.134 6.54175  -2
   0   6   9 -11.134 6.54175   1
   1 -14   9 128.455 7.23291  -2
   1   6   9 128.455 7.23291   1
   2 -15   9 133.858 13.6017  -2
   2   6   9 133.858 13.6017   1
   3 -16   9 183.000 15.5495  -2
   3   6   9 183.000 15.5495   1
   4 -17   9 61.8485 10.9931  -2
   4   6   9 61.8485 10.9931   1
   5 -18   9 95.5730 25.6671  -2
   5   6   9 95.5730 25.6671   1
   6 -19   9 34.9400 25.2446  -2
   6   6   9 34.9400 25.2446   1
   7 -20   9 169.953 13.9536  -2
   7   6   9 169.953 13.9536   1
   8 -21   9 11.0499 11.1014  -2
   8   6   9 11.0499 11.1014   1
  -9  -5   9 183.371 42.0725  -2
  -9   7   9 183.371 42.0725   1
  -7  -7   9 246.053 27.0185  -2
  -7   7   9 246.053 27.0185   1
  -6  -8   9 567.617 40.4778  -2
  -6   7   9 567.617 40.4778   1
  -5  -9   9 472.042 35.3363  -2
  -5   7   9 472.042 35.3363   1
  -4 -10   9 113.835 10.6413  -2
  -4   7   9 113.835 10.6413   1
  -3 -11   9 316.129 16.2745  -2
  -3   7   9 316.129 16.2745   1
  -2 -12   9 123.552 8.29425  -2
  -2   7   9 123.552 8.29425   1
  -1 -13   9 858.517 28.0512  -2
  -1   7   9 858.517 28.0512   1
   0 -14   9 97.9808 10.2264  -2
   0   7   9 97.9808 10.2264   1
   1 -15   9 95.5463 6.41272  -2
   1   7   9 95.5463 6.41272   1
   2 -16   9 14.0263 9.23146  -2
   2   7   9 14.0263 9.23146   1
   4 -18   9 14.3009 23.9145  -2
   4   7   9 14.3009 23.9145   1
   5 -19   9 51.3756 26.6047  -2
   5   7   9 51.3756 26.6047   1
   6 -20   9 6.57393 25.6996  -2
   6   7   9 6.57393 25.6996   1
   7 -21   9 -1.7444 11.0966  -2
   7   7   9 -1.7444 11.0966   1
   8 -22   9 -7.0843 11.7139  -2
   8   7   9 -7.0843 11.7139   1
  -9  -6   9 43.4005 41.8012  -2
  -9   8   9 43.4005 41.8012   1
  -7  -8   9 331.116 30.9106  -2
  -7   8   9 331.116 30.9106   1
  -6  -9   9 152.165 22.8277  -2
  -6   8   9 152.165 22.8277   1
  -5 -10   9 56.2682 21.1202  -2
  -5   8   9 56.2682 21.1202   1
  -4 -11   9 688.629 30.0586  -2
  -4   8   9 688.629 30.0586   1
  -3 -12   9 119.905 8.78653  -2
  -3   8   9 119.905 8.78653   1
  -2 -13   9 813.651 27.0299  -2
  -2   8   9 813.651 27.0299   1
  -1 -14   9 65.1838 7.70426  -2
  -1   8   9 65.1838 7.70426   1
   0 -15   9 322.511 16.1691  -2
   0   8   9 322.511 16.1691   1
   1 -16   9 496.149 21.8457  -2
   1   8   9 496.149 21.8457   1
   2 -17   9 266.110 22.6240  -2
   2   8   9 266.110 22.6240   1
   4 -19   9 145.212 26.4162  -2
   4   8   9 145.212 26.4162   1
   5 -20   9 12.7854 25.8100  -2
   5   8   9 12.7854 25.8100   1
   6 -21   9 154.999 28.4029  -2
   6   8   9 154.999 28.4029   1
   7 -22   9 25.2339 11.1004  -2
   7   8   9 25.2339 11.1004   1
  -9  -7   9 75.5846 44.0388  -2
  -9   9   9 75.5846 44.0388   1
  -8  -8   9 25.9708 41.1937  -2
  -8   9   9 25.9708 41.1937   1
  -7  -9   9 23.9127 22.0574  -2
  -7   9   9 23.9127 22.0574   1
  -6 -10   9 203.435 26.4829  -2
  -6   9   9 203.435 26.4829   1
  -5 -11   9 69.5685 11.0432  -2
  -5   9   9 69.5685 11.0432   1
  -4 -12   9 552.990 19.4512  -2
  -4   9   9 552.990 19.4512   1
  -3 -13   9 39.8564 7.97780  -2
  -3   9   9 39.8564 7.97780   1
  -2 -14   9 53.5176 8.11357  -2
  -2   9   9 53.5176 8.11357   1
  -1 -15   9 389.549 18.6218  -2
  -1   9   9 389.549 18.6218   1
   1 -17   9 731.882 47.1718  -2
   1   9   9 731.882 47.1718   1
   4 -20   9 166.529 28.6087  -2
   4   9   9 166.529 28.6087   1
   6 -22   9 87.7182 27.6530  -2
   6   9   9 87.7182 27.6530   1
   7 -23   9 6.67959 11.1823  -2
   7   9   9 6.67959 11.1823   1
  -9  -8   9 31.7653 45.1972  -2
  -9  10   9 31.7653 45.1972   1
  -8  -9   9 6.24758 44.5711  -2
  -8  10   9 6.24758 44.5711   1
  -5 -12   9 63.0642 11.7137  -2
  -5  10   9 63.0642 11.7137   1
  -4 -13   9 92.8185 9.42297  -2
  -4  10   9 92.8185 9.42297   1
  -3 -14   9 23.5496 8.30969  -2
  -3  10   9 23.5496 8.30969   1
  -2 -15   9 30.7882 10.4440  -2
  -2  10   9 30.7882 10.4440   1
  -1 -16   9 90.4575 11.1387  -2
  -1  10   9 90.4575 11.1387   1
   1 -18   9 90.8761 20.3663  -2
   1  10   9 90.8761 20.3663   1
   4 -21   9 347.727 34.4296  -2
   4  10   9 347.727 34.4296   1
   5 -22   9 64.7990 27.3642  -2
   5  10   9 64.7990 27.3642   1
   6 -23   9 -0.7006 28.0586  -2
   6  10   9 -0.7006 28.0586   1
  -9  -9   9 114.734 46.5351  -2
  -9  11   9 114.734 46.5351   1
  -6 -12   9 47.6112 14.2666  -2
  -6  11   9 47.6112 14.2666   1
  -5 -13   9 99.8798 14.9519  -2
  -5  11   9 99.8798 14.9519   1
  -4 -14   9 259.160 19.8792  -2
  -4  11   9 259.160 19.8792   1
  -3 -15   9 66.8477 12.7271  -2
  -3  11   9 66.8477 12.7271   1
   5 -23   9 27.8273 28.5788  -2
   5  11   9 27.8273 28.5788   1
   6 -24   9 6.22894 28.8828  -2
   6  11   9 6.22894 28.8828   1
  -6 -13   9 347.461 24.4871  -2
  -6  12   9 347.461 24.4871   1
  -5 -14   9 217.669 19.1213  -2
  -5  12   9 217.669 19.1213   1
  -4 -15   9 177.335 16.9248  -2
  -4  12   9 177.335 16.9248   1
  -3 -16   9 12.4378 12.4335  -2
  -3  12   9 12.4378 12.4335   1
   5 -24   9 66.8282 29.8569  -2
   5  12   9 66.8282 29.8569   1
  -7 -13   9 424.914 28.5807  -2
  -7  13   9 424.914 28.5807   1
  -6 -14   9 117.844 17.0347  -2
  -6  13   9 117.844 17.0347   1
  -5 -15   9 197.779 17.9743  -2
  -5  13   9 197.779 17.9743   1
  -4 -16   9 158.755 16.8044  -2
  -4  13   9 158.755 16.8044   1
  -3 -17   9 114.320 15.8074  -2
  -3  13   9 114.320 15.8074   1
  -7 -14   9 32.3051 16.5350  -2
  -7  14   9 32.3051 16.5350   1
  -6 -15   9 59.6002 16.5433  -2
  -6  14   9 59.6002 16.5433   1
  -5 -16   9 115.284 15.8843  -2
  -5  14   9 115.284 15.8843   1
  -4 -17   9 168.466 18.5211  -2
  -4  14   9 168.466 18.5211   1
  -3 -18   9 16.0362 13.8222  -2
  -3  14   9 16.0362 13.8222   1
  -7 -15   9 91.0784 18.0193  -2
  -7  15   9 91.0784 18.0193   1
  -6 -16   9 27.1063 17.0106  -2
  -6  15   9 27.1063 17.0106   1
  -5 -17   9 109.956 18.0056  -2
  -5  15   9 109.956 18.0056   1
  -4 -18   9 15.8930 16.1128  -2
  -4  15   9 15.8930 16.1128   1
  -8 -15   9 71.4965 19.1344  -2
  -8  16   9 71.4965 19.1344   1
  -7 -16   9 52.4790 18.3798  -2
  -7  16   9 52.4790 18.3798   1
  -6 -17   9 36.3946 17.7273  -2
  -6  16   9 36.3946 17.7273   1
  -5 -18   9 46.6186 17.6767  -2
  -5  16   9 46.6186 17.6767   1
  -4 -19   9 66.5955 15.5435  -2
  -4  16   9 66.5955 15.5435   1
  -8 -16   9 11.7263 19.2381  -2
  -8  17   9 11.7263 19.2381   1
  -7 -17   9 93.6635 17.6773  -2
  -7  17   9 93.6635 17.6773   1
  -6 -18   9 167.935 19.1689  -2
  -6  17   9 167.935 19.1689   1
  -5 -19   9 194.127 21.3534  -2
  -5  17   9 194.127 21.3534   1
  -4 -20   9 43.9520 15.1344  -2
  -4  17   9 43.9520 15.1344   1
  -8 -17   9 104.689 21.0132  -2
  -8  18   9 104.689 21.0132   1
  -7 -18   9 157.632 21.6123  -2
  -7  18   9 157.632 21.6123   1
  -6 -19   9 144.849 20.8579  -2
  -6  18   9 144.849 20.8579   1
  -5 -20   9 76.6710 17.3610  -2
  -5  18   9 76.6710 17.3610   1
  -4 -21   9 22.3215 17.1691  -2
  -4  18   9 22.3215 17.1691   1
  -6 -20   9 20.9908 19.7990  -2
  -6  19   9 20.9908 19.7990   1
  -5 -21   9 68.1657 17.7682  -2
  -5  19   9 68.1657 17.7682   1
  -4 -22   9 127.958 19.5205  -2
  -4  19   9 127.958 19.5205   1
   1  16  10 91.1977 13.0506  -2
   1 -25  10 91.1977 13.0506   1
   2  15  10 41.9713 11.2067  -2
   2 -25  10 41.9713 11.2067   1
   3  14  10 20.9107 16.3505  -2
   3 -25  10 20.9107 16.3505   1
   4  13  10 22.8065 20.1510  -2
   4 -25  10 22.8065 20.1510   1
  -1  17  10 73.6083 13.7470  -2
  -1 -24  10 73.6083 13.7470   1
   0  16  10 104.351 13.3987  -2
   0 -24  10 104.351 13.3987   1
   1  15  10 14.1648 11.4786  -2
   1 -24  10 14.1648 11.4786   1
   2  14  10 50.6709 9.11648  -2
   2 -24  10 50.6709 9.11648   1
   3  13  10 31.3545 20.7092  -2
   3 -24  10 31.3545 20.7092   1
   4  12  10 156.409 25.8546  -2
   4 -24  10 156.409 25.8546   1
   5  11  10 49.7441 15.3775  -2
   5 -24  10 49.7441 15.3775   1
   6  10  10 15.8564 17.3349  -2
   6 -24  10 15.8564 17.3349   1
  -3  18  10 34.1581 13.6592  -2
  -3 -23  10 34.1581 13.6592   1
  -2  17  10 70.6293 13.7121  -2
  -2 -23  10 70.6293 13.7121   1
  -1  16  10 73.6659 13.3623  -2
  -1 -23  10 73.6659 13.3623   1
   0  15  10 0.56599 11.3171  -2
   0 -23  10 0.56599 11.3171   1
   1  14  10 47.6547 11.5471  -2
   1 -23  10 47.6547 11.5471   1
   2  13  10 193.645 24.8666  -2
   2 -23  10 193.645 24.8666   1
   3  12  10 104.609 20.1500  -2
   3 -23  10 104.609 20.1500   1
   4  11  10 12.2914 16.4075  -2
   4 -23  10 12.2914 16.4075   1
   5  10  10 55.7110 15.6331  -2
   5 -23  10 55.7110 15.6331   1
   6   9  10 49.2271 15.8092  -2
   6 -23  10 49.2271 15.8092   1
   7   8  10 160.604 18.8421  -2
   7 -23  10 160.604 18.8421   1
  -4  18  10 44.0128 13.9358  -2
  -4 -22  10 44.0128 13.9358   1
  -3  17  10 -7.1686 13.0255  -2
  -3 -22  10 -7.1686 13.0255   1
  -2  16  10 54.5206 12.7528  -2
  -2 -22  10 54.5206 12.7528   1
  -1  15  10 36.8795 11.9389  -2
  -1 -22  10 36.8795 11.9389   1
   0  14  10 85.8080 12.1863  -2
   0 -22  10 85.8080 12.1863   1
   1  13  10 76.4948 15.8424  -2
   1 -22  10 76.4948 15.8424   1
   2  12  10 32.8939 19.7376  -2
   2 -22  10 32.8939 19.7376   1
   3  11  10 -3.0895 20.9322  -2
   3 -22  10 -3.0895 20.9322   1
   4  10  10 32.3477 15.2190  -2
   4 -22  10 32.3477 15.2190   1
   5   9  10 280.787 20.6786  -2
   5 -22  10 280.787 20.6786   1
   6   8  10 83.4224 16.4271  -2
   6 -22  10 83.4224 16.4271   1
   7   7  10 55.5687 17.8661  -2
   7 -22  10 55.5687 17.8661   1
   8   6  10 12.1592 17.0790  -2
   8 -22  10 12.1592 17.0790   1
  -5  18  10 -5.5374 14.2431  -2
  -5 -21  10 -5.5374 14.2431   1
  -4  17  10 48.7118 13.5265  -2
  -4 -21  10 48.7118 13.5265   1
  -3  16  10 59.1744 13.2300  -2
  -3 -21  10 59.1744 13.2300   1
  -2  15  10 107.808 12.6142  -2
  -2 -21  10 107.808 12.6142   1
  -1  14  10 118.092 13.1582  -2
  -1 -21  10 118.092 13.1582   1
   0  13  10 130.861 13.2756  -2
   0 -21  10 130.861 13.2756   1
   1  12  10 70.8678 15.5020  -2
   1 -21  10 70.8678 15.5020   1
   2  11  10 98.6544 14.7283  -2
   2 -21  10 98.6544 14.7283   1
   3  10  10 105.211 16.8017  -2
   3 -21  10 105.211 16.8017   1
   4   9  10 63.8244 15.0921  -2
   4 -21  10 63.8244 15.0921   1
   5   8  10 44.1931 15.2025  -2
   5 -21  10 44.1931 15.2025   1
   6   7  10 134.320 17.2343  -2
   6 -21  10 134.320 17.2343   1
   7   6  10 44.2569 17.4569  -2
   7 -21  10 44.2569 17.4569   1
   8   5  10 158.758 18.8690  -2
   8 -21  10 158.758 18.8690   1
   9   4  10 80.6597 26.6145  -2
   9 -21  10 80.6597 26.6145   1
  -6  18  10 -5.5593 14.3666  -2
  -6 -20  10 -5.5593 14.3666   1
  -5  17  10 22.4694 13.8694  -2
  -5 -20  10 22.4694 13.8694   1
  -4  16  10 82.5242 14.2445  -2
  -4 -20  10 82.5242 14.2445   1
  -3  15  10 150.287 14.8002  -2
  -3 -20  10 150.287 14.8002   1
  -2  14  10 24.5095 11.8302  -2
  -2 -20  10 24.5095 11.8302   1
  -1  13  10 21.8126 10.1372  -2
  -1 -20  10 21.8126 10.1372   1
   0  12  10 93.1860 16.1818  -2
   0 -20  10 93.1860 16.1818   1
   1  11  10 62.4769 15.8843  -2
   1 -20  10 62.4769 15.8843   1
   2  10  10 34.3869 14.6226  -2
   2 -20  10 34.3869 14.6226   1
   3   9  10 21.0696 15.3972  -2
   3 -20  10 21.0696 15.3972   1
   4   8  10 137.449 17.1986  -2
   4 -20  10 137.449 17.1986   1
   5   7  10 109.764 14.9598  -2
   5 -20  10 109.764 14.9598   1
   6   6  10 20.2620 14.3592  -2
   6 -20  10 20.2620 14.3592   1
   7   5  10 33.4626 15.6125  -2
   7 -20  10 33.4626 15.6125   1
   8   4  10 115.895 18.0138  -2
   8 -20  10 115.895 18.0138   1
   9   3  10 45.0399 17.4139  -2
   9 -20  10 45.0399 17.4139   1
  -7  18  10 36.7404 14.7873  -2
  -7 -19  10 36.7404 14.7873   1
  -6  17  10 147.468 16.1670  -2
  -6 -19  10 147.468 16.1670   1
  -5  16  10 99.6933 13.8928  -2
  -5 -19  10 99.6933 13.8928   1
  -4  15  10 21.9113 12.1694  -2
  -4 -19  10 21.9113 12.1694   1
  -3  14  10 60.8583 12.2619  -2
  -3 -19  10 60.8583 12.2619   1
  -2  13  10 160.784 14.3699  -2
  -2 -19  10 160.784 14.3699   1
  -1  12  10 294.226 16.3147  -2
  -1 -19  10 294.226 16.3147   1
   0  11  10 147.474 16.3718  -2
   0 -19  10 147.474 16.3718   1
   1  10  10 -0.6020 14.3941  -2
   1 -19  10 -0.6020 14.3941   1
   2   9  10 65.4472 15.0016  -2
   2 -19  10 65.4472 15.0016   1
   3   8  10 119.834 14.9569  -2
   3 -19  10 119.834 14.9569   1
   4   7  10 263.389 15.6421  -2
   4 -19  10 263.389 15.6421   1
   5   6  10 562.557 29.7241  -2
   5 -19  10 562.557 29.7241   1
   6   5  10 94.2464 15.8841  -2
   6 -19  10 94.2464 15.8841   1
   7   4  10 71.9921 15.9343  -2
   7 -19  10 71.9921 15.9343   1
   8   3  10 42.5945 16.4997  -2
   8 -19  10 42.5945 16.4997   1
   9   2  10 19.0862 16.9719  -2
   9 -19  10 19.0862 16.9719   1
  10   1  10 15.5655 23.0880  -2
  10 -19  10 15.5655 23.0880   1
  -7  17  10 43.1858 13.4640  -2
  -7 -18  10 43.1858 13.4640   1
  -6  16  10 60.2696 13.6296  -2
  -6 -18  10 60.2696 13.6296   1
  -5  15  10 -2.7224 12.0380  -2
  -5 -18  10 -2.7224 12.0380   1
  -4  14  10 34.9644 11.9595  -2
  -4 -18  10 34.9644 11.9595   1
  -3  13  10 254.343 15.5339  -2
  -3 -18  10 254.343 15.5339   1
  -2  12  10 266.620 15.6203  -2
  -2 -18  10 266.620 15.6203   1
  -1  11  10 19.2884 21.7611  -2
  -1 -18  10 19.2884 21.7611   1
   0  10  10 43.3391 14.5727  -2
   0 -18  10 43.3391 14.5727   1
   1   9  10 132.710 15.4936  -2
   1 -18  10 132.710 15.4936   1
   2   8  10 237.095 17.1424  -2
   2 -18  10 237.095 17.1424   1
   3   7  10 113.011 14.4835  -2
   3 -18  10 113.011 14.4835   1
   4   6  10 -0.2100 11.5532  -2
   4 -18  10 -0.2100 11.5532   1
   5   5  10 97.9881 11.9295  -2
   5 -18  10 97.9881 11.9295   1
   6   4  10 2.84961 13.0208  -2
   6 -18  10 2.84961 13.0208   1
   7   3  10 221.773 18.8074  -2
   7 -18  10 221.773 18.8074   1
   8   2  10 153.285 18.1568  -2
   8 -18  10 153.285 18.1568   1
   9   1  10 7.93967 16.1013  -2
   9 -18  10 7.93967 16.1013   1
  10   0  10 51.7959 18.4502  -2
  10 -18  10 51.7959 18.4502   1
  -8  17  10 17.4398 12.8232  -2
  -8 -17  10 17.4398 12.8232   1
  -7  16  10 -1.1089 13.1390  -2
  -7 -17  10 -1.1089 13.1390   1
  -6  15  10 38.9315 12.1108  -2
  -6 -17  10 38.9315 12.1108   1
  -5  14  10 74.7072 12.5147  -2
  -5 -17  10 74.7072 12.5147   1
  -4  13  10 60.2618 11.6527  -2
  -4 -17  10 60.2618 11.6527   1
  -3  12  10 18.2477 10.2303  -2
  -3 -17  10 18.2477 10.2303   1
  -2  11  10 15.3410 9.67532  -2
  -2 -17  10 15.3410 9.67532   1
  -1  10  10 107.152 14.8833  -2
  -1 -17  10 107.152 14.8833   1
   0   9  10 230.779 17.6577  -2
   0 -17  10 230.779 17.6577   1
   1   8  10 84.7957 14.3531  -2
   1 -17  10 84.7957 14.3531   1
   2   7  10 182.723 16.1071  -2
   2 -17  10 182.723 16.1071   1
   3   6  10 220.413 17.6991  -2
   3 -17  10 220.413 17.6991   1
   4   5  10 0.81369 11.3275  -2
   4 -17  10 0.81369 11.3275   1
   5   4  10 461.409 20.4490  -2
   5 -17  10 461.409 20.4490   1
   6   3  10 216.616 18.6626  -2
   6 -17  10 216.616 18.6626   1
   7   2  10 35.3733 16.0793  -2
   7 -17  10 35.3733 16.0793   1
   8   1  10 19.4792 16.7962  -2
   8 -17  10 19.4792 16.7962   1
   9   0  10 14.7782 15.6621  -2
   9 -17  10 14.7782 15.6621   1
  10  -1  10 267.570 21.6256  -2
  10 -17  10 267.570 21.6256   1
  -8  16  10 44.7545 13.2204  -2
  -8 -16  10 44.7545 13.2204   1
  -7  15  10 35.9693 12.1326  -2
  -7 -16  10 35.9693 12.1326   1
  -6  14  10 42.9967 11.5570  -2
  -6 -16  10 42.9967 11.5570   1
  -5  13  10 -13.779 11.0888  -2
  -5 -16  10 -13.779 11.0888   1
  -4  12  10 26.5525 10.8435  -2
  -4 -16  10 26.5525 10.8435   1
  -3  11  10 180.932 14.2017  -2
  -3 -16  10 180.932 14.2017   1
  -2  10  10 59.5495 10.4877  -2
  -2 -16  10 59.5495 10.4877   1
  -1   9  10 55.7149 14.0264  -2
  -1 -16  10 55.7149 14.0264   1
   0   8  10 42.1286 13.5357  -2
   0 -16  10 42.1286 13.5357   1
   1   7  10 2.34428 12.9966  -2
   1 -16  10 2.34428 12.9966   1
   2   6  10 -7.0772 12.7788  -2
   2 -16  10 -7.0772 12.7788   1
   3   5  10 395.591 22.4660  -2
   3 -16  10 395.591 22.4660   1
   4   4  10 44.3206 12.6162  -2
   4 -16  10 44.3206 12.6162   1
   5   3  10 37.9506 10.3647  -2
   5 -16  10 37.9506 10.3647   1
   6   2  10 5.24062 13.2348  -2
   6 -16  10 5.24062 13.2348   1
   8   0  10 378.823 24.1949  -2
   8 -16  10 378.823 24.1949   1
   9  -1  10 172.251 19.0147  -2
   9 -16  10 172.251 19.0147   1
  10  -2  10 42.9402 16.4465  -2
  10 -16  10 42.9402 16.4465   1
  -8  15  10 88.8728 13.4341  -2
  -8 -15  10 88.8728 13.4341   1
  -7  14  10 39.4024 12.2422  -2
  -7 -15  10 39.4024 12.2422   1
  -6  13  10 7.32609 11.4254  -2
  -6 -15  10 7.32609 11.4254   1
  -5  12  10 98.6578 11.9852  -2
  -5 -15  10 98.6578 11.9852   1
  -4  11  10 22.1041 10.9269  -2
  -4 -15  10 22.1041 10.9269   1
  -3  10  10 201.244 14.4573  -2
  -3 -15  10 201.244 14.4573   1
  -1   8  10 340.411 29.2360  -2
  -1 -15  10 340.411 29.2360   1
   0   7  10 256.584 17.6481  -2
   0 -15  10 256.584 17.6481   1
   1   6  10 54.0170 12.4347  -2
   1 -15  10 54.0170 12.4347   1
   2   5  10 24.2771 12.6586  -2
   2 -15  10 24.2771 12.6586   1
   3   4  10 271.587 17.8061  -2
   3 -15  10 271.587 17.8061   1
   4   3  10 321.214 15.8957  -2
   4 -15  10 321.214 15.8957   1
   9  -2  10 35.3570 16.9112  -2
   9 -15  10 35.3570 16.9112   1
  10  -3  10 67.4580 17.7793  -2
  10 -15  10 67.4580 17.7793   1
  11  -4  10 140.029 28.6870  -2
  11 -15  10 140.029 28.6870   1
  -8  14  10 24.3729 11.9021  -2
  -8 -14  10 24.3729 11.9021   1
  -7  13  10 25.1253 11.5552  -2
  -7 -14  10 25.1253 11.5552   1
  -6  12  10 182.882 13.3624  -2
  -6 -14  10 182.882 13.3624   1
  -5  11  10 114.285 11.6355  -2
  -5 -14  10 114.285 11.6355   1
  -4  10  10 189.695 13.9648  -2
  -4 -14  10 189.695 13.9648   1
  -3   9  10 41.4604 9.58829  -2
  -3 -14  10 41.4604 9.58829   1
   0   6  10 467.552 24.9573  -2
   0 -14  10 467.552 24.9573   1
   1   5  10 79.9158 10.2682  -2
   1 -14  10 79.9158 10.2682   1
   2   4  10 18.7402 8.55974  -2
   2 -14  10 18.7402 8.55974   1
   3   3  10 189.555 12.1360  -2
   3 -14  10 189.555 12.1360   1
   4   2  10 30.4054 8.14962  -2
   4 -14  10 30.4054 8.14962   1
   5   1  10 497.177 20.7227  -2
   5 -14  10 497.177 20.7227   1
   6   0  10 32.2317 10.5335  -2
   6 -14  10 32.2317 10.5335   1
   7  -1  10 44.0256 13.3499  -2
   7 -14  10 44.0256 13.3499   1
   9  -3  10 41.0353 16.4501  -2
   9 -14  10 41.0353 16.4501   1
  10  -4  10 129.089 18.1430  -2
  10 -14  10 129.089 18.1430   1
  11  -5  10 57.6541 22.4193  -2
  11 -14  10 57.6541 22.4193   1
  -7  12  10 38.4688 10.5120  -2
  -7 -13  10 38.4688 10.5120   1
  -6  11  10 78.3242 9.94902  -2
  -6 -13  10 78.3242 9.94902   1
  -5  10  10 -6.9975 9.40627  -2
  -5 -13  10 -6.9975 9.40627   1
  -4   9  10 13.7065 9.70029  -2
  -4 -13  10 13.7065 9.70029   1
  -3   8  10 96.7262 10.3067  -2
  -3 -13  10 96.7262 10.3067   1
  -1   6  10 75.5773 19.6787  -2
  -1 -13  10 75.5773 19.6787   1
   0   5  10 55.1134 10.5174  -2
   0 -13  10 55.1134 10.5174   1
   1   4  10 101.813 13.3777  -2
   1 -13  10 101.813 13.3777   1
   2   3  10 816.324 30.5546  -2
   2 -13  10 816.324 30.5546   1
   3   2  10 308.015 15.0316  -2
   3 -13  10 308.015 15.0316   1
   4   1  10 192.882 11.6208  -2
   4 -13  10 192.882 11.6208   1
   5   0  10 74.7925 7.10149  -2
   5 -13  10 74.7925 7.10149   1
   6  -1  10 209.708 15.4723  -2
   6 -13  10 209.708 15.4723   1
   7  -2  10 276.098 15.7849  -2
   7 -13  10 276.098 15.7849   1
   8  -3  10 260.633 19.7263  -2
   8 -13  10 260.633 19.7263   1
   9  -4  10 -7.6987 15.4811  -2
   9 -13  10 -7.6987 15.4811   1
  10  -5  10 41.2277 25.2574  -2
  10 -13  10 41.2277 25.2574   1
  11  -6  10 20.7413 26.7356  -2
  11 -13  10 20.7413 26.7356   1
  -7  11  10 7.66547 10.0279  -2
  -7 -12  10 7.66547 10.0279   1
  -6  10  10 142.857 11.5003  -2
  -6 -12  10 142.857 11.5003   1
  -5   9  10 34.3692 9.47939  -2
  -5 -12  10 34.3692 9.47939   1
  -4   8  10 65.5416 9.04533  -2
  -4 -12  10 65.5416 9.04533   1
  -2   6  10 66.3946 40.4813  -2
  -2 -12  10 66.3946 40.4813   1
  -1   5  10 69.2390 12.9195  -2
  -1 -12  10 69.2390 12.9195   1
   0   4  10 155.054 14.7030  -2
   0 -12  10 155.054 14.7030   1
   1   3  10 78.6664 6.99124  -2
   1 -12  10 78.6664 6.99124   1
   2   2  10 84.0479 9.70691  -2
   2 -12  10 84.0479 9.70691   1
   3   1  10 62.1807 8.07009  -2
   3 -12  10 62.1807 8.07009   1
   4   0  10 17.2923 7.11918  -2
   4 -12  10 17.2923 7.11918   1
   5  -1  10 1037.32 33.2471  -2
   5 -12  10 1037.32 33.2471   1
   6  -2  10 200.877 13.5068  -2
   6 -12  10 200.877 13.5068   1
   7  -3  10 968.936 37.7488  -2
   7 -12  10 968.936 37.7488   1
   8  -4  10 28.0905 10.0235  -2
   8 -12  10 28.0905 10.0235   1
   9  -5  10 28.5332 15.3218  -2
   9 -12  10 28.5332 15.3218   1
  10  -6  10 371.385 35.7581  -2
  10 -12  10 371.385 35.7581   1
  11  -7  10 35.1334 26.2908  -2
  11 -12  10 35.1334 26.2908   1
  -7  10  10 87.3719 10.4304  -2
  -7 -11  10 87.3719 10.4304   1
  -6   9  10 247.475 14.4979  -2
  -6 -11  10 247.475 14.4979   1
  -5   8  10 2.56707 30.0975  -2
  -5 -11  10 2.56707 30.0975   1
  -4   7  10 73.5815 9.04941  -2
  -4 -11  10 73.5815 9.04941   1
  -3   6  10 52.2060 17.1948  -2
  -3 -11  10 52.2060 17.1948   1
  -2   5  10 30.9374 12.2227  -2
  -2 -11  10 30.9374 12.2227   1
  -1   4  10 16.5711 15.5980  -2
  -1 -11  10 16.5711 15.5980   1
   0   3  10 37.5375 11.2958  -2
   0 -11  10 37.5375 11.2958   1
   1   2  10 122.176 7.81156  -2
   1 -11  10 122.176 7.81156   1
   2   1  10 19.0331 7.55378  -2
   2 -11  10 19.0331 7.55378   1
   3   0  10 821.077 29.9374  -2
   3 -11  10 821.077 29.9374   1
   4  -1  10 22.5460 6.96655  -2
   4 -11  10 22.5460 6.96655   1
   5  -2  10 933.381 31.5960  -2
   5 -11  10 933.381 31.5960   1
   6  -3  10 40.5540 8.59972  -2
   6 -11  10 40.5540 8.59972   1
   7  -4  10 92.6912 11.6817  -2
   7 -11  10 92.6912 11.6817   1
   8  -5  10 84.4082 14.9253  -2
   8 -11  10 84.4082 14.9253   1
   9  -6  10 55.1365 24.1985  -2
   9 -11  10 55.1365 24.1985   1
  10  -7  10 177.257 27.8778  -2
  10 -11  10 177.257 27.8778   1
  11  -8  10 11.7391 27.9664  -2
  11 -11  10 11.7391 27.9664   1
  -7   9  10 13.0216 8.76064  -2
  -7 -10  10 13.0216 8.76064   1
  -6   8  10 49.6130 6.25678  -2
  -6 -10  10 49.6130 6.25678   1
  -5   7  10 130.508 7.62114  -2
  -5 -10  10 130.508 7.62114   1
  -4   6  10 525.471 18.9502  -2
  -4 -10  10 525.471 18.9502   1
  -3   5  10 323.859 14.7432  -2
  -3 -10  10 323.859 14.7432   1
  -2   4  10 94.6777 9.39942  -2
  -2 -10  10 94.6777 9.39942   1
  -1   3  10 335.755 20.0094  -2
  -1 -10  10 335.755 20.0094   1
   1   1  10 24.4628 11.5094  -2
   1 -10  10 24.4628 11.5094   1
   2   0  10 394.631 20.6854  -2
   2 -10  10 394.631 20.6854   1
   3  -1  10 112.857 10.2139  -2
   3 -10  10 112.857 10.2139   1
   4  -2  10 138.891 13.5012  -2
   4 -10  10 138.891 13.5012   1
   5  -3  10 141.822 11.5117  -2
   5 -10  10 141.822 11.5117   1
   6  -4  10 225.730 13.3816  -2
   6 -10  10 225.730 13.3816   1
   7  -5  10 440.289 23.9068  -2
   7 -10  10 440.289 23.9068   1
   8  -6  10 97.6889 14.9599  -2
   8 -10  10 97.6889 14.9599   1
   9  -7  10 33.1087 23.5340  -2
   9 -10  10 33.1087 23.5340   1
  10  -8  10 60.7568 24.9532  -2
  10 -10  10 60.7568 24.9532   1
  11  -9  10 206.490 30.1715  -2
  11 -10  10 206.490 30.1715   1
  -8   9  10 42.3226 11.3877  -2
  -8  -9  10 42.3226 11.3877   1
  -7   8  10 -5.6862 9.29350  -2
  -7  -9  10 -5.6862 9.29350   1
  -6   7  10 454.702 15.4403  -2
  -6  -9  10 454.702 15.4403   1
  -5   6  10 457.973 22.6531  -2
  -5  -9  10 457.973 22.6531   1
  -4   5  10 44.1542 6.85503  -2
  -4  -9  10 44.1542 6.85503   1
  -3   4  10 195.705 13.2150  -2
  -3  -9  10 195.705 13.2150   1
  -2   3  10 340.735 20.4755  -2
  -2  -9  10 340.735 20.4755   1
  -1   2  10 512.014 29.3037  -2
  -1  -9  10 512.014 29.3037   1
   0   1  10 520.927 47.6322  -2
   0  -9  10 520.927 47.6322   1
   1   0  10 170.555 14.2330  -2
   1  -9  10 170.555 14.2330   1
   2  -1  10 104.417 12.6141  -2
   2  -9  10 104.417 12.6141   1
   3  -2  10 10.0784 9.41257  -2
   3  -9  10 10.0784 9.41257   1
   4  -3  10 180.714 11.6549  -2
   4  -9  10 180.714 11.6549   1
   5  -4  10 668.594 23.8104  -2
   5  -9  10 668.594 23.8104   1
   6  -5  10 52.4050 8.65837  -2
   6  -9  10 52.4050 8.65837   1
   7  -6  10 105.867 12.0501  -2
   7  -9  10 105.867 12.0501   1
   8  -7  10 15.5780 10.3594  -2
   8  -9  10 15.5780 10.3594   1
   9  -8  10 24.4269 23.0038  -2
   9  -9  10 24.4269 23.0038   1
  10  -9  10 77.1055 9.62775  -2
  10  -9  10 77.1055 9.62775   1
  11 -10  10 183.459 29.0865  -2
  11  -9  10 183.459 29.0865   1
  -8   8  10 76.3845 11.5186  -2
  -8  -8  10 76.3845 11.5186   1
  -7   7  10 30.5436 9.14623  -2
  -7  -8  10 30.5436 9.14623   1
  -6   6  10 224.684 14.0338  -2
  -6  -8  10 224.684 14.0338   1
  -5   5  10 297.117 16.9661  -2
  -5  -8  10 297.117 16.9661   1
  -4   4  10 179.892 10.8904  -2
  -4  -8  10 179.892 10.8904   1
  -3   3  10 323.998 17.7959  -2
  -3  -8  10 323.998 17.7959   1
  -2   2  10 134.938 9.59080  -2
  -2  -8  10 134.938 9.59080   1
  -1   1  10 794.723 69.4190  -2
  -1  -8  10 794.723 69.4190   1
   0   0  10 160.215 21.9079  -2
   0  -8  10 160.215 21.9079   1
   1  -1  10 54.8080 12.2220  -2
   1  -8  10 54.8080 12.2220   1
   2  -2  10 1147.58 41.7750  -2
   2  -8  10 1147.58 41.7750   1
   3  -3  10 965.600 36.1988  -2
   3  -8  10 965.600 36.1988   1
   4  -4  10 235.073 12.8022  -2
   4  -8  10 235.073 12.8022   1
   5  -5  10 18.9771 5.28335  -2
   5  -8  10 18.9771 5.28335   1
   6  -6  10 26.7255 5.56161  -2
   6  -8  10 26.7255 5.56161   1
   7  -7  10 184.979 9.67975  -2
   7  -8  10 184.979 9.67975   1
   8  -8  10 68.7643 17.0528  -2
   8  -8  10 68.7643 17.0528   1
   9  -9  10 -10.859 21.3824  -2
   9  -8  10 -10.859 21.3824   1
  10 -10  10 49.1531 9.16500  -2
  10  -8  10 49.1531 9.16500   1
  11 -11  10 28.1753 25.1142  -2
  11  -8  10 28.1753 25.1142   1
  -8   7  10 40.5094 9.88946  -2
  -8  -7  10 40.5094 9.88946   1
  -7   6  10 61.0591 9.56433  -2
  -7  -7  10 61.0591 9.56433   1
  -6   5  10 33.0093 12.0098  -2
  -6  -7  10 33.0093 12.0098   1
  -5   4  10 123.734 9.15000  -2
  -5  -7  10 123.734 9.15000   1
  -4   3  10 47.1468 6.95612  -2
  -4  -7  10 47.1468 6.95612   1
  -3   2  10 385.640 19.7634  -2
  -3  -7  10 385.640 19.7634   1
  -2   1  10 250.482 12.2732  -2
  -2  -7  10 250.482 12.2732   1
   0  -1  10 129.509 20.3313  -2
   0  -7  10 129.509 20.3313   1
   1  -2  10 89.5537 13.5298  -2
   1  -7  10 89.5537 13.5298   1
   2  -3  10 1173.05 42.5169  -2
   2  -7  10 1173.05 42.5169   1
   3  -4  10 101.148 6.69058  -2
   3  -7  10 101.148 6.69058   1
   4  -5  10 99.7768 6.50411  -2
   4  -7  10 99.7768 6.50411   1
   5  -6  10 758.118 23.7417  -2
   5  -7  10 758.118 23.7417   1
   6  -7  10 398.142 14.6346  -2
   6  -7  10 398.142 14.6346   1
   7  -8  10 199.630 9.86001  -2
   7  -7  10 199.630 9.86001   1
   8  -9  10 20.6411 7.93472  -2
   8  -7  10 20.6411 7.93472   1
   9 -10  10 45.9621 9.38481  -2
   9  -7  10 45.9621 9.38481   1
  10 -11  10 170.059 12.0145  -2
  10  -7  10 170.059 12.0145   1
  11 -12  10 98.0944 10.4332  -2
  11  -7  10 98.0944 10.4332   1
  -8   6  10 171.697 14.0152  -2
  -8  -6  10 171.697 14.0152   1
  -7   5  10 6.76229 10.3664  -2
  -7  -6  10 6.76229 10.3664   1
  -6   4  10 253.343 12.7413  -2
  -6  -6  10 253.343 12.7413   1
  -5   3  10 107.008 8.56392  -2
  -5  -6  10 107.008 8.56392   1
  -4   2  10 531.534 20.8343  -2
  -4  -6  10 531.534 20.8343   1
  -3   1  10 362.686 16.0003  -2
  -3  -6  10 362.686 16.0003   1
  -2   0  10 168.629 13.2119  -2
  -2  -6  10 168.629 13.2119   1
  -1  -1  10 243.873 26.9140  -2
  -1  -6  10 243.873 26.9140   1
   0  -2  10 265.588 28.5496  -2
   0  -6  10 265.588 28.5496   1
   1  -3  10 26.0116 13.4124  -2
   1  -6  10 26.0116 13.4124   1
   2  -4  10 209.312 13.6396  -2
   2  -6  10 209.312 13.6396   1
   3  -5  10 94.5423 6.92308  -2
   3  -6  10 94.5423 6.92308   1
   4  -6  10 8.70127 6.13242  -2
   4  -6  10 8.70127 6.13242   1
   5  -7  10 689.383 21.8627  -2
   5  -6  10 689.383 21.8627   1
   6  -8  10 18.7005 5.52214  -2
   6  -6  10 18.7005 5.52214   1
   7  -9  10 142.526 10.0656  -2
   7  -6  10 142.526 10.0656   1
   8 -10  10 86.4733 9.08034  -2
   8  -6  10 86.4733 9.08034   1
   9 -11  10 69.5699 9.28760  -2
   9  -6  10 69.5699 9.28760   1
  10 -12  10 299.767 16.0597  -2
  10  -6  10 299.767 16.0597   1
  11 -13  10 8.80508 9.36575  -2
  11  -6  10 8.80508 9.36575   1
  -8   5  10 1003.58 55.9136  -2
  -8  -5  10 1003.58 55.9136   1
  -7   4  10 103.993 9.44352  -2
  -7  -5  10 103.993 9.44352   1
  -6   3  10 45.4157 6.72847  -2
  -6  -5  10 45.4157 6.72847   1
  -5   2  10 114.917 8.36918  -2
  -5  -5  10 114.917 8.36918   1
  -4   1  10 1007.27 36.3136  -2
  -4  -5  10 1007.27 36.3136   1
  -3   0  10 449.349 16.4184  -2
  -3  -5  10 449.349 16.4184   1
  -2  -1  10 122.805 12.8223  -2
  -2  -5  10 122.805 12.8223   1
  -1  -2  10 106.212 18.5067  -2
  -1  -5  10 106.212 18.5067   1
   0  -3  10 189.246 23.1626  -2
   0  -5  10 189.246 23.1626   1
   1  -4  10 851.847 37.8917  -2
   1  -5  10 851.847 37.8917   1
   2  -5  10 1331.22 47.9923  -2
   2  -5  10 1331.22 47.9923   1
   3  -6  10 106.999 6.83254  -2
   3  -5  10 106.999 6.83254   1
   4  -7  10 109.394 8.12178  -2
   4  -5  10 109.394 8.12178   1
   5  -8  10 17.9756 4.96546  -2
   5  -5  10 17.9756 4.96546   1
   6  -9  10 54.5621 6.13776  -2
   6  -5  10 54.5621 6.13776   1
   7 -10  10 361.652 16.0010  -2
   7  -5  10 361.652 16.0010   1
   8 -11  10 235.347 13.5170  -2
   8  -5  10 235.347 13.5170   1
   9 -12  10 43.9026 9.11906  -2
   9  -5  10 43.9026 9.11906   1
  10 -13  10 25.2415 9.11370  -2
  10  -5  10 25.2415 9.11370   1
  11 -14  10 63.9685 11.1383  -2
  11  -5  10 63.9685 11.1383   1
  -8   4  10 231.159 24.9760  -2
  -8  -4  10 231.159 24.9760   1
  -7   3  10 94.0984 8.75914  -2
  -7  -4  10 94.0984 8.75914   1
  -6   2  10 561.737 21.5884  -2
  -6  -4  10 561.737 21.5884   1
  -5   1  10 1911.46 79.3165  -2
  -5  -4  10 1911.46 79.3165   1
  -4   0  10 68.0137 6.68500  -2
  -4  -4  10 68.0137 6.68500   1
  -3  -1  10 70.9610 7.02621  -2
  -3  -4  10 70.9610 7.02621   1
  -2  -2  10 217.953 15.1021  -2
  -2  -4  10 217.953 15.1021   1
  -1  -3  10 341.807 33.9094  -2
  -1  -4  10 341.807 33.9094   1
   0  -4  10 608.273 54.6130  -2
   0  -4  10 608.273 54.6130   1
   1  -5  10 977.343 42.9915  -2
   1  -4  10 977.343 42.9915   1
   2  -6  10 119.641 8.56944  -2
   2  -4  10 119.641 8.56944   1
   3  -7  10 97.4492 6.71926  -2
   3  -4  10 97.4492 6.71926   1
   4  -8  10 210.162 10.0650  -2
   4  -4  10 210.162 10.0650   1
   5  -9  10 708.501 22.4823  -2
   5  -4  10 708.501 22.4823   1
   6 -10  10 227.203 12.3503  -2
   6  -4  10 227.203 12.3503   1
   7 -11  10 114.479 9.53537  -2
   7  -4  10 114.479 9.53537   1
   8 -12  10 47.5658 8.93542  -2
   8  -4  10 47.5658 8.93542   1
   9 -13  10 28.5568 8.86045  -2
   9  -4  10 28.5568 8.86045   1
  10 -14  10 109.216 10.6233  -2
  10  -4  10 109.216 10.6233   1
  11 -15  10 140.964 13.1061  -2
  11  -4  10 140.964 13.1061   1
  -8   3  10 193.277 22.7558  -2
  -8  -3  10 193.277 22.7558   1
  -7   2  10 89.1771 9.00856  -2
  -7  -3  10 89.1771 9.00856   1
  -6   1  10 644.343 24.3121  -2
  -6  -3  10 644.343 24.3121   1
  -5   0  10 1451.98 122.144  -2
  -5  -3  10 1451.98 122.144   1
  -4  -1  10 76.4008 8.18863  -2
  -4  -3  10 76.4008 8.18863   1
  -3  -2  10 687.390 60.5211  -2
  -3  -3  10 687.390 60.5211   1
  -2  -3  10 1847.81 77.4099  -2
  -2  -3  10 1847.81 77.4099   1
  -1  -4  10 327.886 33.0821  -2
  -1  -3  10 327.886 33.0821   1
   0  -5  10 155.203 23.3419  -2
   0  -3  10 155.203 23.3419   1
   1  -6  10 53.7097 12.7409  -2
   1  -3  10 53.7097 12.7409   1
   2  -7  10 1072.95 31.9584  -2
   2  -3  10 1072.95 31.9584   1
   3  -8  10 845.416 25.9202  -2
   3  -3  10 845.416 25.9202   1
   4  -9  10 163.783 8.63980  -2
   4  -3  10 163.783 8.63980   1
   5 -10  10 104.376 7.67757  -2
   5  -3  10 104.376 7.67757   1
   6 -11  10 41.8598 6.61970  -2
   6  -3  10 41.8598 6.61970   1
   7 -12  10 952.578 39.0053  -2
   7  -3  10 952.578 39.0053   1
   8 -13  10 273.729 15.1813  -2
   8  -3  10 273.729 15.1813   1
   9 -14  10 21.9081 8.59941  -2
   9  -3  10 21.9081 8.59941   1
  10 -15  10 33.2604 10.3481  -2
  10  -3  10 33.2604 10.3481   1
  11 -16  10 16.5477 9.58424  -2
  11  -3  10 16.5477 9.58424   1
  -9   3  10 114.492 21.6888  -2
  -9  -2  10 114.492 21.6888   1
  -8   2  10 263.979 24.9643  -2
  -8  -2  10 263.979 24.9643   1
  -7   1  10 41.4228 6.57119  -2
  -7  -2  10 41.4228 6.57119   1
  -6   0  10 49.5082 6.89445  -2
  -6  -2  10 49.5082 6.89445   1
  -5  -1  10 252.142 13.1838  -2
  -5  -2  10 252.142 13.1838   1
  -4  -2  10 227.153 11.7649  -2
  -4  -2  10 227.153 11.7649   1
  -3  -3  10 685.166 60.3201  -2
  -3  -2  10 685.166 60.3201   1
  -2  -4  10 214.065 22.4946  -2
  -2  -2  10 214.065 22.4946   1
  -1  -5  10 115.853 19.1404  -2
  -1  -2  10 115.853 19.1404   1
   0  -6  10 242.032 26.9729  -2
   0  -2  10 242.032 26.9729   1
   1  -7  10 100.514 20.4924  -2
   1  -2  10 100.514 20.4924   1
   2  -8  10 1005.72 29.9118  -2
   2  -2  10 1005.72 29.9118   1
   3  -9  10 5.30029 5.75547  -2
   3  -2  10 5.30029 5.75547   1
   4 -10  10 161.707 8.63290  -2
   4  -2  10 161.707 8.63290   1
   5 -11  10 898.173 27.7023  -2
   5  -2  10 898.173 27.7023   1
   6 -12  10 243.770 13.2614  -2
   6  -2  10 243.770 13.2614   1
   7 -13  10 266.270 13.4026  -2
   7  -2  10 266.270 13.4026   1
   8 -14  10 41.7718 8.74030  -2
   8  -2  10 41.7718 8.74030   1
   9 -15  10 56.5426 9.62689  -2
   9  -2  10 56.5426 9.62689   1
  10 -16  10 17.7498 9.99604  -2
  10  -2  10 17.7498 9.99604   1
  -9   2  10 -2.6860 18.9667  -2
  -9  -1  10 -2.6860 18.9667   1
  -8   1  10 64.3794 18.2916  -2
  -8  -1  10 64.3794 18.2916   1
  -7   0  10 332.518 14.9660  -2
  -7  -1  10 332.518 14.9660   1
  -6  -1  10 1810.25 62.3199  -2
  -6  -1  10 1810.25 62.3199   1
  -5  -2  10 284.557 14.5174  -2
  -5  -1  10 284.557 14.5174   1
  -4  -3  10 77.3019 8.20565  -2
  -4  -1  10 77.3019 8.20565   1
  -3  -4  10 95.2386 8.80760  -2
  -3  -1  10 95.2386 8.80760   1
  -2  -5  10 160.925 20.8840  -2
  -2  -1  10 160.925 20.8840   1
  -1  -6  10 191.281 23.2508  -2
  -1  -1  10 191.281 23.2508   1
   0  -7  10 85.4298 17.6089  -2
   0  -1  10 85.4298 17.6089   1
   1  -8  10 44.5989 7.44015  -2
   1  -1  10 44.5989 7.44015   1
   2  -9  10 123.431 7.17582  -2
   2  -1  10 123.431 7.17582   1
   3 -10  10 111.381 7.34027  -2
   3  -1  10 111.381 7.34027   1
   4 -11  10 41.2558 5.77992  -2
   4  -1  10 41.2558 5.77992   1
   5 -12  10 937.655 28.6157  -2
   5  -1  10 937.655 28.6157   1
   6 -13  10 167.149 9.38443  -2
   6  -1  10 167.149 9.38443   1
   7 -14  10 21.8206 7.36561  -2
   7  -1  10 21.8206 7.36561   1
   8 -15  10 153.885 11.6225  -2
   8  -1  10 153.885 11.6225   1
   9 -16  10 161.129 13.2709  -2
   9  -1  10 161.129 13.2709   1
  10 -17  10 216.201 16.3036  -2
  10  -1  10 216.201 16.3036   1
 -10   2  10 23.9180 20.6464  -2
 -10   0  10 23.9180 20.6464   1
  -9   1  10 277.386 26.1049  -2
  -9   0  10 277.386 26.1049   1
  -8   0  10 127.670 17.3487  -2
  -8   0  10 127.670 17.3487   1
  -7  -1  10 344.119 15.4875  -2
  -7   0  10 344.119 15.4875   1
  -6  -2  10 53.3503 6.73974  -2
  -6   0  10 53.3503 6.73974   1
  -5  -3  10 3568.72 144.763  -2
  -5   0  10 3568.72 144.763   1
  -4  -4  10 81.4365 8.55569  -2
  -4   0  10 81.4365 8.55569   1
  -3  -5  10 435.448 19.7966  -2
  -3   0  10 435.448 19.7966   1
  -2  -6  10 184.667 18.0446  -2
  -2   0  10 184.667 18.0446   1
  -1  -7  10 16.2873 13.0356  -2
  -1   0  10 16.2873 13.0356   1
   0  -8  10 144.824 20.3317  -2
   0   0  10 144.824 20.3317   1
   1  -9  10 172.362 10.1084  -2
   1   0  10 172.362 10.1084   1
   2 -10  10 328.483 13.5436  -2
   2   0  10 328.483 13.5436   1
   3 -11  10 694.324 22.0826  -2
   3   0  10 694.324 22.0826   1
   4 -12  10 11.2871 5.78396  -2
   4   0  10 11.2871 5.78396   1
   5 -13  10 96.4472 7.51017  -2
   5   0  10 96.4472 7.51017   1
   6 -14  10 25.8240 9.65525  -2
   6   0  10 25.8240 9.65525   1
   7 -15  10 35.0072 7.64047  -2
   7   0  10 35.0072 7.64047   1
   8 -16  10 270.864 17.4093  -2
   8   0  10 270.864 17.4093   1
   9 -17  10 24.8744 10.6834  -2
   9   0  10 24.8744 10.6834   1
  10 -18  10 4.19297 11.1022  -2
  10   0  10 4.19297 11.1022   1
  -9   0  10 290.211 26.1526  -2
  -9   1  10 290.211 26.1526   1
  -8  -1  10 54.0284 12.9018  -2
  -8   1  10 54.0284 12.9018   1
  -7  -2  10 56.5741 6.63238  -2
  -7   1  10 56.5741 6.63238   1
  -6  -3  10 612.414 22.1792  -2
  -6   1  10 612.414 22.1792   1
  -5  -4  10 1957.80 56.6615  -2
  -5   1  10 1957.80 56.6615   1
  -4  -5  10 914.093 31.7794  -2
  -4   1  10 914.093 31.7794   1
  -3  -6  10 321.163 15.2081  -2
  -3   1  10 321.163 15.2081   1
  -2  -7  10 286.469 12.1176  -2
  -2   1  10 286.469 12.1176   1
  -1  -8  10 1811.06 74.6784  -2
  -1   1  10 1811.06 74.6784   1
   0  -9  10 412.016 39.0558  -2
   0   1  10 412.016 39.0558   1
   1 -10  10 62.8738 6.54219  -2
   1   1  10 62.8738 6.54219   1
   2 -11  10 20.2946 6.22513  -2
   2   1  10 20.2946 6.22513   1
   3 -12  10 82.2970 6.87558  -2
   3   1  10 82.2970 6.87558   1
   4 -13  10 145.227 8.29224  -2
   4   1  10 145.227 8.29224   1
   5 -14  10 429.528 14.7823  -2
   5   1  10 429.528 14.7823   1
   6 -15  10 117.875 8.86343  -2
   6   1  10 117.875 8.86343   1
   7 -16  10 39.1153 8.29086  -2
   7   1  10 39.1153 8.29086   1
   8 -17  10 14.9614 9.46176  -2
   8   1  10 14.9614 9.46176   1
   9 -18  10 8.10177 10.4576  -2
   9   1  10 8.10177 10.4576   1
  10 -19  10 10.1650 11.7751  -2
  10   1  10 10.1650 11.7751   1
 -10   0  10 32.8156 20.8493  -2
 -10   2  10 32.8156 20.8493   1
  -9  -1  10 71.8817 18.5635  -2
  -9   2  10 71.8817 18.5635   1
  -8  -2  10 238.112 15.9507  -2
  -8   2  10 238.112 15.9507   1
  -7  -3  10 86.7627 7.65683  -2
  -7   2  10 86.7627 7.65683   1
  -6  -4  10 545.162 20.1248  -2
  -6   2  10 545.162 20.1248   1
  -5  -5  10 119.935 7.30801  -2
  -5   2  10 119.935 7.30801   1
  -4  -6  10 607.341 21.7703  -2
  -4   2  10 607.341 21.7703   1
  -3  -7  10 401.604 15.3956  -2
  -3   2  10 401.604 15.3956   1
  -2  -8  10 176.485 9.46852  -2
  -2   2  10 176.485 9.46852   1
  -1  -9  10 457.769 16.8937  -2
  -1   2  10 457.769 16.8937   1
   0 -10  10 9.32431 5.78149  -2
   0   2  10 9.32431 5.78149   1
   1 -11  10 105.664 7.84704  -2
   1   2  10 105.664 7.84704   1
   2 -12  10 75.9326 7.85242  -2
   2   2  10 75.9326 7.85242   1
   3 -13  10 294.235 13.3091  -2
   3   2  10 294.235 13.3091   1
   4 -14  10 9.42546 6.50149  -2
   4   2  10 9.42546 6.50149   1
   5 -15  10 9.82774 6.44426  -2
   5   2  10 9.82774 6.44426   1
   6 -16  10 -9.1472 6.93584  -2
   6   2  10 -9.1472 6.93584   1
   7 -17  10 3.59015 9.40323  -2
   7   2  10 3.59015 9.40323   1
   8 -18  10 137.131 11.8446  -2
   8   2  10 137.131 11.8446   1
   9 -19  10 19.1715 10.2096  -2
   9   2  10 19.1715 10.2096   1
  -9  -2  10 101.785 14.4533  -2
  -9   3  10 101.785 14.4533   1
  -8  -3  10 198.454 14.6455  -2
  -8   3  10 198.454 14.6455   1
  -7  -4  10 110.199 8.34299  -2
  -7   3  10 110.199 8.34299   1
  -6  -5  10 74.5460 8.00478  -2
  -6   3  10 74.5460 8.00478   1
  -5  -6  10 85.5799 7.51683  -2
  -5   3  10 85.5799 7.51683   1
  -4  -7  10 87.7667 7.58768  -2
  -4   3  10 87.7667 7.58768   1
  -3  -8  10 325.829 13.3855  -2
  -3   3  10 325.829 13.3855   1
  -2  -9  10 356.180 13.9423  -2
  -2   3  10 356.180 13.9423   1
  -1 -10  10 340.395 13.6569  -2
  -1   3  10 340.395 13.6569   1
   0 -11  10 19.4321 4.68194  -2
   0   3  10 19.4321 4.68194   1
   1 -12  10 69.5559 4.96605  -2
   1   3  10 69.5559 4.96605   1
   2 -13  10 684.172 22.3587  -2
   2   3  10 684.172 22.3587   1
   3 -14  10 139.560 7.39991  -2
   3   3  10 139.560 7.39991   1
   4 -15  10 294.116 10.2387  -2
   4   3  10 294.116 10.2387   1
   5 -16  10 64.1302 7.73672  -2
   5   3  10 64.1302 7.73672   1
   6 -17  10 203.247 11.5732  -2
   6   3  10 203.247 11.5732   1
   7 -18  10 172.292 12.6731  -2
   7   3  10 172.292 12.6731   1
   8 -19  10 20.4418 9.73621  -2
   8   3  10 20.4418 9.73621   1
   9 -20  10 24.1143 9.94173  -2
   9   3  10 24.1143 9.94173   1
  -9  -3  10 52.4420 16.0462  -2
  -9   4  10 52.4420 16.0462   1
  -8  -4  10 133.317 12.6123  -2
  -8   4  10 133.317 12.6123   1
  -7  -5  10 85.9214 8.17991  -2
  -7   4  10 85.9214 8.17991   1
  -6  -6  10 227.696 10.9557  -2
  -6   4  10 227.696 10.9557   1
  -5  -7  10 132.065 9.72805  -2
  -5   4  10 132.065 9.72805   1
  -4  -8  10 178.702 10.8749  -2
  -4   4  10 178.702 10.8749   1
  -3  -9  10 255.518 13.2672  -2
  -3   4  10 255.518 13.2672   1
  -2 -10  10 86.5032 7.67114  -2
  -2   4  10 86.5032 7.67114   1
  -1 -11  10 18.9922 4.97538  -2
  -1   4  10 18.9922 4.97538   1
   0 -12  10 125.293 6.35555  -2
   0   4  10 125.293 6.35555   1
   1 -13  10 86.9052 5.32147  -2
   1   4  10 86.9052 5.32147   1
   2 -14  10 5.92047 5.58182  -2
   2   4  10 5.92047 5.58182   1
   3 -15  10 265.532 10.8066  -2
   3   4  10 265.532 10.8066   1
   4 -16  10 17.0016 6.96312  -2
   4   4  10 17.0016 6.96312   1
   5 -17  10 385.678 14.9764  -2
   5   4  10 385.678 14.9764   1
   6 -18  10 8.83408 13.8627  -2
   6   4  10 8.83408 13.8627   1
   7 -19  10 26.5375 9.41581  -2
   7   4  10 26.5375 9.41581   1
   8 -20  10 99.1018 11.2020  -2
   8   4  10 99.1018 11.2020   1
   9 -21  10 72.7381 10.9422  -2
   9   4  10 72.7381 10.9422   1
  -9  -4  10 518.779 38.7141  -2
  -9   5  10 518.779 38.7141   1
  -8  -5  10 880.739 39.9092  -2
  -8   5  10 880.739 39.9092   1
  -7  -6  10 14.8456 7.10662  -2
  -7   5  10 14.8456 7.10662   1
  -6  -7  10 48.6116 7.56028  -2
  -6   5  10 48.6116 7.56028   1
  -5  -8  10 370.800 17.5138  -2
  -5   5  10 370.800 17.5138   1
  -4  -9  10 55.5856 7.74633  -2
  -4   5  10 55.5856 7.74633   1
  -3 -10  10 321.441 15.3301  -2
  -3   5  10 321.441 15.3301   1
  -2 -11  10 60.9839 7.99467  -2
  -2   5  10 60.9839 7.99467   1
  -1 -12  10 85.8743 5.72689  -2
  -1   5  10 85.8743 5.72689   1
   0 -13  10 58.7583 5.65562  -2
   0   5  10 58.7583 5.65562   1
   1 -14  10 64.7403 5.68678  -2
   1   5  10 64.7403 5.68678   1
   2 -15  10 27.1220 5.99426  -2
   2   5  10 27.1220 5.99426   1
   3 -16  10 290.875 11.4880  -2
   3   5  10 290.875 11.4880   1
   4 -17  10 3.19542 15.2921  -2
   4   5  10 3.19542 15.2921   1
   5 -18  10 91.7189 14.3020  -2
   5   5  10 91.7189 14.3020   1
   6 -19  10 78.8396 23.5687  -2
   6   5  10 78.8396 23.5687   1
   7 -20  10 2.96698 9.83280  -2
   7   5  10 2.96698 9.83280   1
   8 -21  10 148.278 12.6471  -2
   8   5  10 148.278 12.6471   1
  -9  -5  10 244.556 36.7964  -2
  -9   6  10 244.556 36.7964   1
  -8  -6  10 155.213 14.3684  -2
  -8   6  10 155.213 14.3684   1
  -7  -7  10 49.6586 7.83479  -2
  -7   6  10 49.6586 7.83479   1
  -6  -8  10 262.910 14.1958  -2
  -6   6  10 262.910 14.1958   1
  -5  -9  10 414.177 18.9594  -2
  -5   6  10 414.177 18.9594   1
  -4 -10  10 494.303 21.8165  -2
  -4   6  10 494.303 21.8165   1
  -3 -11  10 102.368 8.76196  -2
  -3   6  10 102.368 8.76196   1
  -2 -12  10 76.8026 6.60580  -2
  -2   6  10 76.8026 6.60580   1
  -1 -13  10 159.335 8.13611  -2
  -1   6  10 159.335 8.13611   1
   0 -14  10 524.387 17.8314  -2
   0   6  10 524.387 17.8314   1
   1 -15  10 47.7668 6.04503  -2
   1   6  10 47.7668 6.04503   1
   2 -16  10 4.79506 9.67741  -2
   2   6  10 4.79506 9.67741   1
   3 -17  10 267.269 16.5391  -2
   3   6  10 267.269 16.5391   1
   5 -19  10 694.986 38.4427  -2
   5   6  10 694.986 38.4427   1
   6 -20  10 19.4595 23.4071  -2
   6   6  10 19.4595 23.4071   1
   7 -21  10 18.0320 9.52877  -2
   7   6  10 18.0320 9.52877   1
   8 -22  10 5.61386 10.1256  -2
   8   6  10 5.61386 10.1256   1
  -9  -6  10 63.7369 34.6870  -2
  -9   7  10 63.7369 34.6870   1
  -8  -7  10 17.7094 9.98235  -2
  -8   7  10 17.7094 9.98235   1
  -7  -8  10 35.1251 9.08841  -2
  -7   7  10 35.1251 9.08841   1
  -6  -9  10 428.949 20.0261  -2
  -6   7  10 428.949 20.0261   1
  -5 -10  10 169.705 11.0103  -2
  -5   7  10 169.705 11.0103   1
  -4 -11  10 76.7175 9.13832  -2
  -4   7  10 76.7175 9.13832   1
  -3 -12  10 457.654 16.1642  -2
  -3   7  10 457.654 16.1642   1
  -2 -13  10 184.141 8.70747  -2
  -2   7  10 184.141 8.70747   1
  -1 -14  10 557.159 18.9239  -2
  -1   7  10 557.159 18.9239   1
   0 -15  10 264.239 10.8021  -2
   0   7  10 264.239 10.8021   1
   1 -16  10 8.94677 5.42237  -2
   1   7  10 8.94677 5.42237   1
   2 -17  10 158.962 9.70550  -2
   2   7  10 158.962 9.70550   1
   3 -18  10 213.600 13.2898  -2
   3   7  10 213.600 13.2898   1
   4 -19  10 201.914 24.3236  -2
   4   7  10 201.914 24.3236   1
   5 -20  10 60.6913 23.4055  -2
   5   7  10 60.6913 23.4055   1
   6 -21  10 90.6527 24.4723  -2
   6   7  10 90.6527 24.4723   1
   7 -22  10 1.84932 24.6824  -2
   7   7  10 1.84932 24.6824   1
  -9  -7  10 541.741 24.9427  -2
  -9   8  10 541.741 24.9427   1
  -8  -8  10 76.2789 13.6705  -2
  -8   8  10 76.2789 13.6705   1
  -7  -9  10 -3.2729 9.93791  -2
  -7   8  10 -3.2729 9.93791   1
  -6 -10  10 26.1235 9.65516  -2
  -6   8  10 26.1235 9.65516   1
  -5 -11  10 91.1496 9.95345  -2
  -5   8  10 91.1496 9.95345   1
  -4 -12  10 60.8527 6.80154  -2
  -4   8  10 60.8527 6.80154   1
  -3 -13  10 108.487 7.81938  -2
  -3   8  10 108.487 7.81938   1
  -2 -14  10 74.7522 7.01364  -2
  -2   8  10 74.7522 7.01364   1
  -1 -15  10 325.901 12.6411  -2
  -1   8  10 325.901 12.6411   1
   0 -16  10 58.4757 6.82264  -2
   0   8  10 58.4757 6.82264   1
   1 -17  10 106.006 8.17847  -2
   1   8  10 106.006 8.17847   1
   2 -18  10 179.943 8.79133  -2
   2   8  10 179.943 8.79133   1
   3 -19  10 164.041 23.4120  -2
   3   8  10 164.041 23.4120   1
   4 -20  10 90.6995 19.1436  -2
   4   8  10 90.6995 19.1436   1
   5 -21  10 38.0746 22.9067  -2
   5   8  10 38.0746 22.9067   1
   6 -22  10 65.8076 24.3758  -2
   6   8  10 65.8076 24.3758   1
   7 -23  10 97.5970 11.0856  -2
   7   8  10 97.5970 11.0856   1
 -10  -7  10 42.2195 13.9444  -2
 -10   9  10 42.2195 13.9444   1
  -9  -8  10 155.713 14.2588  -2
  -9   9  10 155.713 14.2588   1
  -8  -9  10 24.2991 12.2404  -2
  -8   9  10 24.2991 12.2404   1
  -7 -10  10 10.2264 12.2874  -2
  -7   9  10 10.2264 12.2874   1
  -6 -11  10 322.559 21.6716  -2
  -6   9  10 322.559 21.6716   1
  -5 -12  10 45.7017 7.18569  -2
  -5   9  10 45.7017 7.18569   1
  -4 -13  10 27.8671 6.72950  -2
  -4   9  10 27.8671 6.72950   1
  -3 -14  10 58.7261 6.94915  -2
  -3   9  10 58.7261 6.94915   1
  -2 -15  10 25.7878 6.65750  -2
  -2   9  10 25.7878 6.65750   1
  -1 -16  10 41.6778 9.30514  -2
  -1   9  10 41.6778 9.30514   1
   0 -17  10 114.609 10.7052  -2
   0   9  10 114.609 10.7052   1
   1 -18  10 77.6810 7.54869  -2
   1   9  10 77.6810 7.54869   1
   3 -20  10 22.4685 20.4210  -2
   3   9  10 22.4685 20.4210   1
   4 -21  10 69.3973 19.9035  -2
   4   9  10 69.3973 19.9035   1
   5 -22  10 203.461 27.0719  -2
   5   9  10 203.461 27.0719   1
   6 -23  10 32.5692 24.5926  -2
   6   9  10 32.5692 24.5926   1
 -11  -7  10 121.542 17.6292  -2
 -11  10  10 121.542 17.6292   1
 -10  -8  10 43.2907 15.4842  -2
 -10  10  10 43.2907 15.4842   1
  -9  -9  10 217.908 18.1950  -2
  -9  10  10 217.908 18.1950   1
  -8 -10  10 133.611 14.8551  -2
  -8  10  10 133.611 14.8551   1
  -7 -11  10 120.252 14.8071  -2
  -7  10  10 120.252 14.8071   1
  -6 -12  10 156.003 15.4046  -2
  -6  10  10 156.003 15.4046   1
  -5 -13  10 12.4578 12.0203  -2
  -5  10  10 12.4578 12.0203   1
  -4 -14  10 162.785 12.0650  -2
  -4  10  10 162.785 12.0650   1
  -3 -15  10 207.709 13.4525  -2
  -3  10  10 207.709 13.4525   1
  -2 -16  10 88.7401 12.8741  -2
  -2  10  10 88.7401 12.8741   1
  -1 -17  10 26.5401 9.70458  -2
  -1  10  10 26.5401 9.70458   1
   0 -18  10 36.0586 16.3044  -2
   0  10  10 36.0586 16.3044   1
   1 -19  10 6.60145 6.48987  -2
   1  10  10 6.60145 6.48987   1
   4 -22  10 21.0487 19.5897  -2
   4  10  10 21.0487 19.5897   1
   5 -23  10 23.3662 25.0595  -2
   5  10  10 23.3662 25.0595   1
   6 -24  10 -3.4190 24.9440  -2
   6  10  10 -3.4190 24.9440   1
 -11  -8  10 80.3992 17.4099  -2
 -11  11  10 80.3992 17.4099   1
 -10  -9  10 45.1753 15.1734  -2
 -10  11  10 45.1753 15.1734   1
  -9 -10  10 652.825 39.0887  -2
  -9  11  10 652.825 39.0887   1
  -8 -11  10 227.648 19.1304  -2
  -8  11  10 227.648 19.1304   1
  -7 -12  10 23.2948 13.4994  -2
  -7  11  10 23.2948 13.4994   1
  -6 -13  10 147.592 15.6038  -2
  -6  11  10 147.592 15.6038   1
  -5 -14  10 196.033 16.0458  -2
  -5  11  10 196.033 16.0458   1
  -4 -15  10 39.6369 11.4765  -2
  -4  11  10 39.6369 11.4765   1
  -3 -16  10 242.725 17.8217  -2
  -3  11  10 242.725 17.8217   1
  -2 -17  10 21.4486 12.2213  -2
  -2  11  10 21.4486 12.2213   1
   1 -20  10 27.2870 6.89460  -2
   1  11  10 27.2870 6.89460   1
   4 -23  10 -24.056 19.7629  -2
   4  11  10 -24.056 19.7629   1
   5 -24  10 24.2550 26.3350  -2
   5  11  10 24.2550 26.3350   1
 -12  -8  10 -3.5437 18.5281  -2
 -12  12  10 -3.5437 18.5281   1
 -11  -9  10 42.7788 17.7133  -2
 -11  12  10 42.7788 17.7133   1
 -10 -10  10 -4.9768 15.7107  -2
 -10  12  10 -4.9768 15.7107   1
  -9 -11  10 45.2034 15.4197  -2
  -9  12  10 45.2034 15.4197   1
  -8 -12  10 -11.310 14.4658  -2
  -8  12  10 -11.310 14.4658   1
  -7 -13  10 55.8523 14.3611  -2
  -7  12  10 55.8523 14.3611   1
  -6 -14  10 173.322 15.8339  -2
  -6  12  10 173.322 15.8339   1
  -5 -15  10 127.615 14.1276  -2
  -5  12  10 127.615 14.1276   1
  -4 -16  10 64.3061 12.3171  -2
  -4  12  10 64.3061 12.3171   1
  -3 -17  10 37.1003 11.8695  -2
  -3  12  10 37.1003 11.8695   1
   4 -24  10 86.5551 24.7378  -2
   4  12  10 86.5551 24.7378   1
 -11 -10  10 1.47714 17.9761  -2
 -11  13  10 1.47714 17.9761   1
 -10 -11  10 -17.618 17.4601  -2
 -10  13  10 -17.618 17.4601   1
  -9 -12  10 129.581 17.5297  -2
  -9  13  10 129.581 17.5297   1
  -8 -13  10 87.7946 15.9734  -2
  -8  13  10 87.7946 15.9734   1
  -7 -14  10 54.4367 15.0803  -2
  -7  13  10 54.4367 15.0803   1
  -6 -15  10 56.2632 13.1681  -2
  -6  13  10 56.2632 13.1681   1
  -5 -16  10 31.1302 13.8940  -2
  -5  13  10 31.1302 13.8940   1
  -4 -17  10 100.281 13.5427  -2
  -4  13  10 100.281 13.5427   1
  -3 -18  10 303.203 21.8816  -2
  -3  13  10 303.203 21.8816   1
   0 -21  10 104.406 20.2354  -2
   0  13  10 104.406 20.2354   1
   4 -25  10 32.9885 23.0211  -2
   4  13  10 32.9885 23.0211   1
 -11 -11  10 85.2383 18.9408  -2
 -11  14  10 85.2383 18.9408   1
 -10 -12  10 21.5940 17.1134  -2
 -10  14  10 21.5940 17.1134   1
  -9 -13  10 -9.3964 16.6946  -2
  -9  14  10 -9.3964 16.6946   1
  -8 -14  10 6.72481 15.8115  -2
  -8  14  10 6.72481 15.8115   1
  -7 -15  10 64.3151 14.1582  -2
  -7  14  10 64.3151 14.1582   1
  -6 -16  10 104.337 16.1578  -2
  -6  14  10 104.337 16.1578   1
  -5 -17  10 127.929 14.9373  -2
  -5  14  10 127.929 14.9373   1
  -4 -18  10 51.0203 13.0330  -2
  -4  14  10 51.0203 13.0330   1
  -3 -19  10 23.0220 13.6695  -2
  -3  14  10 23.0220 13.6695   1
 -10 -13  10 8.22243 17.6300  -2
 -10  15  10 8.22243 17.6300   1
  -9 -14  10 33.4846 17.3525  -2
  -9  15  10 33.4846 17.3525   1
  -8 -15  10 135.136 18.5112  -2
  -8  15  10 135.136 18.5112   1
  -7 -16  10 45.5372 14.2473  -2
  -7  15  10 45.5372 14.2473   1
  -6 -17  10 89.8083 14.7296  -2
  -6  15  10 89.8083 14.7296   1
  -5 -18  10 -3.0517 13.2867  -2
  -5  15  10 -3.0517 13.2867   1
  -4 -19  10 46.3219 15.0105  -2
  -4  15  10 46.3219 15.0105   1
  -3 -20  10 124.413 14.3539  -2
  -3  15  10 124.413 14.3539   1
  -9 -15  10 50.9737 18.2177  -2
  -9  16  10 50.9737 18.2177   1
  -8 -16  10 53.4077 17.4520  -2
  -8  16  10 53.4077 17.4520   1
  -7 -17  10 38.5012 14.7387  -2
  -7  16  10 38.5012 14.7387   1
  -6 -18  10 88.9034 15.0394  -2
  -6  16  10 88.9034 15.0394   1
  -5 -19  10 143.404 17.6879  -2
  -5  16  10 143.404 17.6879   1
  -4 -20  10 100.545 14.9090  -2
  -4  16  10 100.545 14.9090   1
  -3 -21  10 34.1543 12.7575  -2
  -3  16  10 34.1543 12.7575   1
  -8 -17  10 18.1595 17.7494  -2
  -8  17  10 18.1595 17.7494   1
  -7 -18  10 67.4769 17.5070  -2
  -7  17  10 67.4769 17.5070   1
  -6 -19  10 175.205 19.3831  -2
  -6  17  10 175.205 19.3831   1
  -5 -20  10 86.9747 14.9132  -2
  -5  17  10 86.9747 14.9132   1
  -4 -21  10 70.7931 14.7139  -2
  -4  17  10 70.7931 14.7139   1
  -3 -22  10 -16.868 12.6054  -2
  -3  17  10 -16.868 12.6054   1
  -7 -19  10 49.9118 15.9464  -2
  -7  18  10 49.9118 15.9464   1
  -6 -20  10 39.4629 15.3702  -2
  -6  18  10 39.4629 15.3702   1
  -5 -21  10 38.0846 16.4197  -2
  -5  18  10 38.0846 16.4197   1
  -4 -22  10 59.6161 16.3291  -2
  -4  18  10 59.6161 16.3291   1
  -3 -23  10 5.20064 14.5961  -2
  -3  18  10 5.20064 14.5961   1
   1  15  11 113.628 13.6785  -2
   1 -25  11 113.628 13.6785   1
   2  14  11 27.6150 23.2348  -2
   2 -25  11 27.6150 23.2348   1
   3  13  11 47.0363 26.1041  -2
   3 -25  11 47.0363 26.1041   1
   4  12  11 45.0529 26.2311  -2
   4 -25  11 45.0529 26.2311   1
  -1  16  11 102.157 13.5814  -2
  -1 -24  11 102.157 13.5814   1
   0  15  11 53.2166 12.3002  -2
   0 -24  11 53.2166 12.3002   1
   1  14  11 6.30724 11.9201  -2
   1 -24  11 6.30724 11.9201   1
   2  13  11 22.9392 23.5040  -2
   2 -24  11 22.9392 23.5040   1
   3  12  11 145.091 27.3771  -2
   3 -24  11 145.091 27.3771   1
   4  11  11 184.423 31.9844  -2
   4 -24  11 184.423 31.9844   1
   5  10  11 48.6399 20.9539  -2
   5 -24  11 48.6399 20.9539   1
   6   9  11 -8.4325 27.9657  -2
   6 -24  11 -8.4325 27.9657   1
  -3  17  11 50.5483 12.7960  -2
  -3 -23  11 50.5483 12.7960   1
  -2  16  11 52.9174 12.5775  -2
  -2 -23  11 52.9174 12.5775   1
  -1  15  11 65.3796 12.1380  -2
  -1 -23  11 65.3796 12.1380   1
   0  14  11 74.1158 12.4174  -2
   0 -23  11 74.1158 12.4174   1
   1  13  11 98.8958 24.4326  -2
   1 -23  11 98.8958 24.4326   1
   2  12  11 47.9901 24.0440  -2
   2 -23  11 47.9901 24.0440   1
   3  11  11 -9.5680 24.6351  -2
   3 -23  11 -9.5680 24.6351   1
   4  10  11 9.35021 19.7248  -2
   4 -23  11 9.35021 19.7248   1
   5   9  11 11.9973 20.7704  -2
   5 -23  11 11.9973 20.7704   1
   6   8  11 71.4735 21.3824  -2
   6 -23  11 71.4735 21.3824   1
   7   7  11 103.793 35.2645  -2
   7 -23  11 103.793 35.2645   1
  -4  17  11 -11.287 11.9569  -2
  -4 -22  11 -11.287 11.9569   1
  -3  16  11 -0.5590 11.3544  -2
  -3 -22  11 -0.5590 11.3544   1
  -2  15  11 113.478 13.3328  -2
  -2 -22  11 113.478 13.3328   1
  -1  14  11 34.2611 10.5094  -2
  -1 -22  11 34.2611 10.5094   1
   0  13  11 18.4693 11.2129  -2
   0 -22  11 18.4693 11.2129   1
   1  12  11 29.8836 17.9127  -2
   1 -22  11 29.8836 17.9127   1
   2  11  11 120.583 25.1606  -2
   2 -22  11 120.583 25.1606   1
   3  10  11 46.6726 24.1725  -2
   3 -22  11 46.6726 24.1725   1
   4   9  11 103.152 19.9636  -2
   4 -22  11 103.152 19.9636   1
   5   8  11 23.5855 20.1386  -2
   5 -22  11 23.5855 20.1386   1
   6   7  11 23.6513 31.0868  -2
   6 -22  11 23.6513 31.0868   1
   7   6  11 105.288 34.6862  -2
   7 -22  11 105.288 34.6862   1
   8   5  11 64.1881 36.2172  -2
   8 -22  11 64.1881 36.2172   1
  -5  17  11 5.81964 10.8876  -2
  -5 -21  11 5.81964 10.8876   1
  -4  16  11 16.5900 11.5310  -2
  -4 -21  11 16.5900 11.5310   1
  -3  15  11 297.731 19.5195  -2
  -3 -21  11 297.731 19.5195   1
  -2  14  11 275.375 18.4955  -2
  -2 -21  11 275.375 18.4955   1
  -1  13  11 56.3207 11.3557  -2
  -1 -21  11 56.3207 11.3557   1
   1  11  11 114.085 18.5270  -2
   1 -21  11 114.085 18.5270   1
   2  10  11 42.6820 18.4222  -2
   2 -21  11 42.6820 18.4222   1
   3   9  11 82.6892 18.9118  -2
   3 -21  11 82.6892 18.9118   1
   4   8  11 26.5677 18.7493  -2
   4 -21  11 26.5677 18.7493   1
   5   7  11 -3.1930 19.5314  -2
   5 -21  11 -3.1930 19.5314   1
   6   6  11 88.9257 30.4733  -2
   6 -21  11 88.9257 30.4733   1
   7   5  11 96.5953 31.9479  -2
   7 -21  11 96.5953 31.9479   1
   8   4  11 27.2704 32.4061  -2
   8 -21  11 27.2704 32.4061   1
  -6  17  11 3.90870 10.7443  -2
  -6 -20  11 3.90870 10.7443   1
  -5  16  11 98.1000 11.9416  -2
  -5 -20  11 98.1000 11.9416   1
  -4  15  11 24.5299 11.1647  -2
  -4 -20  11 24.5299 11.1647   1
  -3  14  11 88.1723 12.0147  -2
  -3 -20  11 88.1723 12.0147   1
  -2  13  11 14.3404 10.0622  -2
  -2 -20  11 14.3404 10.0622   1
  -1  12  11 121.763 11.8533  -2
  -1 -20  11 121.763 11.8533   1
   0  11  11 173.588 18.3506  -2
   0 -20  11 173.588 18.3506   1
   1  10  11 104.207 17.4110  -2
   1 -20  11 104.207 17.4110   1
   2   9  11 -13.699 16.9807  -2
   2 -20  11 -13.699 16.9807   1
   3   8  11 106.185 18.5759  -2
   3 -20  11 106.185 18.5759   1
   4   7  11 279.049 22.9679  -2
   4 -20  11 279.049 22.9679   1
   5   6  11 62.3608 18.1063  -2
   5 -20  11 62.3608 18.1063   1
   6   5  11 47.0466 30.9807  -2
   6 -20  11 47.0466 30.9807   1
   7   4  11 -19.754 29.7685  -2
   7 -20  11 -19.754 29.7685   1
   8   3  11 59.3662 31.5286  -2
   8 -20  11 59.3662 31.5286   1
   9   2  11 128.891 35.8470  -2
   9 -20  11 128.891 35.8470   1
  -7  17  11 51.6064 11.0997  -2
  -7 -19  11 51.6064 11.0997   1
  -6  16  11 43.4599 10.6348  -2
  -6 -19  11 43.4599 10.6348   1
  -5  15  11 2.12175 10.2820  -2
  -5 -19  11 2.12175 10.2820   1
  -4  14  11 -12.348 10.4414  -2
  -4 -19  11 -12.348 10.4414   1
  -3  13  11 107.077 11.9206  -2
  -3 -19  11 107.077 11.9206   1
  -2  12  11 166.691 12.7686  -2
  -2 -19  11 166.691 12.7686   1
  -1  11  11 166.020 27.4028  -2
  -1 -19  11 166.020 27.4028   1
   0  10  11 31.8446 16.8063  -2
   0 -19  11 31.8446 16.8063   1
   1   9  11 -11.586 17.2397  -2
   1 -19  11 -11.586 17.2397   1
   2   8  11 31.8358 16.8770  -2
   2 -19  11 31.8358 16.8770   1
   3   7  11 234.229 21.8896  -2
   3 -19  11 234.229 21.8896   1
   4   6  11 174.726 17.0428  -2
   4 -19  11 174.726 17.0428   1
   5   5  11 96.3274 20.7749  -2
   5 -19  11 96.3274 20.7749   1
   6   4  11 98.9910 19.3756  -2
   6 -19  11 98.9910 19.3756   1
   7   3  11 56.2846 29.5092  -2
   7 -19  11 56.2846 29.5092   1
   8   2  11 220.310 35.2788  -2
   8 -19  11 220.310 35.2788   1
   9   1  11 150.808 33.4449  -2
   9 -19  11 150.808 33.4449   1
  -7  16  11 15.3974 10.0347  -2
  -7 -18  11 15.3974 10.0347   1
  -6  15  11 59.0632 11.2026  -2
  -6 -18  11 59.0632 11.2026   1
  -5  14  11 64.8148 10.6316  -2
  -5 -18  11 64.8148 10.6316   1
  -4  13  11 41.2157 10.3914  -2
  -4 -18  11 41.2157 10.3914   1
  -3  12  11 87.0790 11.5184  -2
  -3 -18  11 87.0790 11.5184   1
  -2  11  11 -5.4984 27.4746  -2
  -2 -18  11 -5.4984 27.4746   1
  -1  10  11 47.9636 15.4302  -2
  -1 -18  11 47.9636 15.4302   1
   0   9  11 68.5999 16.7728  -2
   0 -18  11 68.5999 16.7728   1
   1   8  11 420.729 25.5372  -2
   1 -18  11 420.729 25.5372   1
   2   7  11 57.9002 17.5551  -2
   2 -18  11 57.9002 17.5551   1
   3   6  11 48.1113 17.9973  -2
   3 -18  11 48.1113 17.9973   1
   4   5  11 39.3769 15.0044  -2
   4 -18  11 39.3769 15.0044   1
   5   4  11 17.5860 18.4653  -2
   5 -18  11 17.5860 18.4653   1
   6   3  11 444.388 28.5289  -2
   6 -18  11 444.388 28.5289   1
   7   2  11 361.031 36.3206  -2
   7 -18  11 361.031 36.3206   1
   8   1  11 37.8417 29.4198  -2
   8 -18  11 37.8417 29.4198   1
   9   0  11 40.9801 31.8739  -2
   9 -18  11 40.9801 31.8739   1
  10  -1  11 101.133 32.1962  -2
  10 -18  11 101.133 32.1962   1
  -8  16  11 4.76190 10.1095  -2
  -8 -17  11 4.76190 10.1095   1
  -7  15  11 12.6463 9.69488  -2
  -7 -17  11 12.6463 9.69488   1
  -6  14  11 25.6939 10.3609  -2
  -6 -17  11 25.6939 10.3609   1
  -5  13  11 201.829 14.7089  -2
  -5 -17  11 201.829 14.7089   1
  -4  12  11 54.4544 10.3764  -2
  -4 -17  11 54.4544 10.3764   1
  -3  11  11 140.138 12.4548  -2
  -3 -17  11 140.138 12.4548   1
  -1   9  11 85.4109 15.8518  -2
  -1 -17  11 85.4109 15.8518   1
   0   8  11 236.913 20.0184  -2
   0 -17  11 236.913 20.0184   1
   1   7  11 36.9569 16.5577  -2
   1 -17  11 36.9569 16.5577   1
   2   6  11 75.7055 17.3162  -2
   2 -17  11 75.7055 17.3162   1
   3   5  11 55.7446 17.6530  -2
   3 -17  11 55.7446 17.6530   1
   4   4  11 20.8012 13.9211  -2
   4 -17  11 20.8012 13.9211   1
   5   3  11 27.2279 14.8485  -2
   5 -17  11 27.2279 14.8485   1
   6   2  11 62.4016 26.4753  -2
   6 -17  11 62.4016 26.4753   1
   7   1  11 34.9910 27.0565  -2
   7 -17  11 34.9910 27.0565   1
   8   0  11 9.74181 27.8251  -2
   8 -17  11 9.74181 27.8251   1
   9  -1  11 280.946 36.6183  -2
   9 -17  11 280.946 36.6183   1
  10  -2  11 149.906 32.9430  -2
  10 -17  11 149.906 32.9430   1
  -7  14  11 109.086 11.5958  -2
  -7 -16  11 109.086 11.5958   1
  -6  13  11 23.7198 9.77857  -2
  -6 -16  11 23.7198 9.77857   1
  -5  12  11 1.54070 9.49501  -2
  -5 -16  11 1.54070 9.49501   1
  -4  11  11 149.552 12.0833  -2
  -4 -16  11 149.552 12.0833   1
  -3  10  11 59.7789 9.95951  -2
  -3 -16  11 59.7789 9.95951   1
  -1   8  11 36.1003 18.6987  -2
  -1 -16  11 36.1003 18.6987   1
   0   7  11 53.1065 15.1970  -2
   0 -16  11 53.1065 15.1970   1
   1   6  11 146.727 17.1218  -2
   1 -16  11 146.727 17.1218   1
   2   5  11 39.9849 16.5793  -2
   2 -16  11 39.9849 16.5793   1
   3   4  11 105.473 17.9210  -2
   3 -16  11 105.473 17.9210   1
   4   3  11 10.8667 17.2011  -2
   4 -16  11 10.8667 17.2011   1
   5   2  11 337.966 32.9508  -2
   5 -16  11 337.966 32.9508   1
   6   1  11 190.699 28.6226  -2
   6 -16  11 190.699 28.6226   1
   7   0  11 119.216 28.8557  -2
   7 -16  11 119.216 28.8557   1
   9  -2  11 96.2561 30.9925  -2
   9 -16  11 96.2561 30.9925   1
  10  -3  11 107.939 30.7614  -2
  10 -16  11 107.939 30.7614   1
  -7  13  11 6.49170 8.84840  -2
  -7 -15  11 6.49170 8.84840   1
  -6  12  11 29.5138 6.52458  -2
  -6 -15  11 29.5138 6.52458   1
  -5  11  11 97.7665 7.11860  -2
  -5 -15  11 97.7665 7.11860   1
  -4  10  11 75.0462 6.91485  -2
  -4 -15  11 75.0462 6.91485   1
  -3   9  11 30.8713 9.12956  -2
  -3 -15  11 30.8713 9.12956   1
  -1   7  11 87.1001 19.2109  -2
  -1 -15  11 87.1001 19.2109   1
   0   6  11 492.223 38.0620  -2
   0 -15  11 492.223 38.0620   1
   1   5  11 434.799 24.6839  -2
   1 -15  11 434.799 24.6839   1
   2   4  11 -4.8250 15.9260  -2
   2 -15  11 -4.8250 15.9260   1
   3   3  11 62.4632 16.0021  -2
   3 -15  11 62.4632 16.0021   1
   4   2  11 136.058 17.5500  -2
   4 -15  11 136.058 17.5500   1
   5   1  11 25.6506 16.3482  -2
   5 -15  11 25.6506 16.3482   1
   6   0  11 102.669 25.8056  -2
   6 -15  11 102.669 25.8056   1
   7  -1  11 10.6094 26.0876  -2
   7 -15  11 10.6094 26.0876   1
   9  -3  11 38.0464 29.0862  -2
   9 -15  11 38.0464 29.0862   1
  -8  13  11 79.7261 11.7842  -2
  -8 -14  11 79.7261 11.7842   1
  -7  12  11 49.2667 8.99870  -2
  -7 -14  11 49.2667 8.99870   1
  -6  11  11 17.0054 7.86991  -2
  -6 -14  11 17.0054 7.86991   1
  -5  10  11 78.9403 6.56563  -2
  -5 -14  11 78.9403 6.56563   1
  -4   9  11 53.7337 6.36255  -2
  -4 -14  11 53.7337 6.36255   1
  -1   6  11 450.454 34.6381  -2
  -1 -14  11 450.454 34.6381   1
   0   5  11 230.161 18.4018  -2
   0 -14  11 230.161 18.4018   1
   1   4  11 87.3534 15.6311  -2
   1 -14  11 87.3534 15.6311   1
   2   3  11 16.1109 19.9833  -2
   2 -14  11 16.1109 19.9833   1
   3   2  11 441.195 24.9498  -2
   3 -14  11 441.195 24.9498   1
   4   1  11 491.469 27.1667  -2
   4 -14  11 491.469 27.1667   1
   5   0  11 58.4440 14.0084  -2
   5 -14  11 58.4440 14.0084   1
   6  -1  11 98.9445 17.2080  -2
   6 -14  11 98.9445 17.2080   1
   7  -2  11 103.881 19.5877  -2
   7 -14  11 103.881 19.5877   1
   8  -3  11 131.921 27.7125  -2
   8 -14  11 131.921 27.7125   1
   9  -4  11 336.858 35.7092  -2
   9 -14  11 336.858 35.7092   1
  -8  12  11 45.9787 10.8689  -2
  -8 -13  11 45.9787 10.8689   1
  -7  11  11 16.7332 6.26027  -2
  -7 -13  11 16.7332 6.26027   1
  -6  10  11 14.1190 5.79674  -2
  -6 -13  11 14.1190 5.79674   1
  -5   9  11 102.313 7.36958  -2
  -5 -13  11 102.313 7.36958   1
  -4   8  11 23.0230 5.79964  -2
  -4 -13  11 23.0230 5.79964   1
  -3   7  11 106.781 10.3744  -2
  -3 -13  11 106.781 10.3744   1
  -1   5  11 94.9688 18.9819  -2
  -1 -13  11 94.9688 18.9819   1
   0   4  11 7.03329 13.7306  -2
   0 -13  11 7.03329 13.7306   1
   1   3  11 126.561 23.4530  -2
   1 -13  11 126.561 23.4530   1
   2   2  11 147.492 15.8295  -2
   2 -13  11 147.492 15.8295   1
   3   1  11 131.701 16.5813  -2
   3 -13  11 131.701 16.5813   1
   4   0  11 140.737 17.1511  -2
   4 -13  11 140.737 17.1511   1
   5  -1  11 87.6127 15.5661  -2
   5 -13  11 87.6127 15.5661   1
   6  -2  11 100.148 15.1528  -2
   6 -13  11 100.148 15.1528   1
   7  -3  11 200.903 22.3898  -2
   7 -13  11 200.903 22.3898   1
   8  -4  11 94.2932 15.4210  -2
   8 -13  11 94.2932 15.4210   1
   9  -5  11 93.5134 27.6819  -2
   9 -13  11 93.5134 27.6819   1
  -8  11  11 109.269 11.9058  -2
  -8 -12  11 109.269 11.9058   1
  -7  10  11 74.7352 6.34932  -2
  -7 -12  11 74.7352 6.34932   1
  -6   9  11 69.7207 6.20607  -2
  -6 -12  11 69.7207 6.20607   1
  -5   8  11 348.317 12.2952  -2
  -5 -12  11 348.317 12.2952   1
  -4   7  11 65.4526 5.90434  -2
  -4 -12  11 65.4526 5.90434   1
  -3   6  11 118.081 10.5350  -2
  -3 -12  11 118.081 10.5350   1
  -1   4  11 102.303 20.3151  -2
  -1 -12  11 102.303 20.3151   1
   0   3  11 54.4188 19.0745  -2
   0 -12  11 54.4188 19.0745   1
   1   2  11 42.6068 19.8928  -2
   1 -12  11 42.6068 19.8928   1
   2   1  11 125.326 20.9403  -2
   2 -12  11 125.326 20.9403   1
   3   0  11 35.9478 14.4157  -2
   3 -12  11 35.9478 14.4157   1
   4  -1  11 349.419 21.9100  -2
   4 -12  11 349.419 21.9100   1
   5  -2  11 30.4342 14.3558  -2
   5 -12  11 30.4342 14.3558   1
   6  -3  11 171.844 20.2919  -2
   6 -12  11 171.844 20.2919   1
   7  -4  11 202.513 19.3711  -2
   7 -12  11 202.513 19.3711   1
   8  -5  11 22.5433 15.9055  -2
   8 -12  11 22.5433 15.9055   1
  -9  11  11 210.521 15.6485  -2
  -9 -11  11 210.521 15.6485   1
  -8  10  11 124.166 11.9844  -2
  -8 -11  11 124.166 11.9844   1
  -7   9  11 328.295 18.3696  -2
  -7 -11  11 328.295 18.3696   1
  -6   8  11 52.9251 5.69719  -2
  -6 -11  11 52.9251 5.69719   1
  -5   7  11 40.2594 5.42492  -2
  -5 -11  11 40.2594 5.42492   1
  -4   6  11 79.2767 5.15797  -2
  -4 -11  11 79.2767 5.15797   1
  -3   5  11 255.385 16.3394  -2
  -3 -11  11 255.385 16.3394   1
  -2   4  11 400.171 23.5918  -2
  -2 -11  11 400.171 23.5918   1
  -1   3  11 39.1620 8.63627  -2
  -1 -11  11 39.1620 8.63627   1
   0   2  11 28.5292 18.5740  -2
   0 -11  11 28.5292 18.5740   1
   1   1  11 426.475 33.7329  -2
   1 -11  11 426.475 33.7329   1
   2   0  11 83.6957 22.2115  -2
   2 -11  11 83.6957 22.2115   1
   3  -1  11 319.289 20.6648  -2
   3 -11  11 319.289 20.6648   1
   4  -2  11 40.3096 15.0442  -2
   4 -11  11 40.3096 15.0442   1
   5  -3  11 -18.419 12.5418  -2
   5 -11  11 -18.419 12.5418   1
   6  -4  11 70.9639 16.3164  -2
   6 -11  11 70.9639 16.3164   1
   7  -5  11 12.2803 16.4065  -2
   7 -11  11 12.2803 16.4065   1
   8  -6  11 53.5382 23.8280  -2
   8 -11  11 53.5382 23.8280   1
  -9  10  11 218.506 15.8423  -2
  -9 -10  11 218.506 15.8423   1
  -8   9  11 96.2692 10.9222  -2
  -8 -10  11 96.2692 10.9222   1
  -7   8  11 14.4585 7.59779  -2
  -7 -10  11 14.4585 7.59779   1
  -6   7  11 7.66878 4.68103  -2
  -6 -10  11 7.66878 4.68103   1
  -5   6  11 669.794 18.9654  -2
  -5 -10  11 669.794 18.9654   1
  -4   5  11 206.892 10.4554  -2
  -4 -10  11 206.892 10.4554   1
  -3   4  11 764.243 33.8858  -2
  -3 -10  11 764.243 33.8858   1
  -2   3  11 34.6785 8.22207  -2
  -2 -10  11 34.6785 8.22207   1
  -1   2  11 276.977 17.2771  -2
  -1 -10  11 276.977 17.2771   1
   0   1  11 610.035 22.0465  -2
   0 -10  11 610.035 22.0465   1
   1   0  11 1889.38 115.887  -2
   1 -10  11 1889.38 115.887   1
   2  -1  11 159.598 23.5463  -2
   2 -10  11 159.598 23.5463   1
   3  -2  11 -1.3142 19.1578  -2
   3 -10  11 -1.3142 19.1578   1
   4  -3  11 69.6639 14.7865  -2
   4 -10  11 69.6639 14.7865   1
   5  -4  11 112.252 15.2398  -2
   5 -10  11 112.252 15.2398   1
   6  -5  11 110.393 18.5868  -2
   6 -10  11 110.393 18.5868   1
   7  -6  11 -4.8592 13.5434  -2
   7 -10  11 -4.8592 13.5434   1
   8  -7  11 25.4249 13.5844  -2
   8 -10  11 25.4249 13.5844   1
 -10  10  11 32.3493 10.7034  -2
 -10  -9  11 32.3493 10.7034   1
  -9   9  11 69.7667 10.4127  -2
  -9  -9  11 69.7667 10.4127   1
  -8   8  11 90.9740 10.4708  -2
  -8  -9  11 90.9740 10.4708   1
  -7   7  11 76.1094 8.69974  -2
  -7  -9  11 76.1094 8.69974   1
  -6   6  11 56.4971 8.12588  -2
  -6  -9  11 56.4971 8.12588   1
  -5   5  11 192.027 10.2753  -2
  -5  -9  11 192.027 10.2753   1
  -4   4  11 82.7826 7.63143  -2
  -4  -9  11 82.7826 7.63143   1
  -3   3  11 101.717 8.31592  -2
  -3  -9  11 101.717 8.31592   1
  -2   2  11 301.589 18.5341  -2
  -2  -9  11 301.589 18.5341   1
  -1   1  11 273.185 17.2601  -2
  -1  -9  11 273.185 17.2601   1
   0   0  11 1130.32 71.6462  -2
   0  -9  11 1130.32 71.6462   1
   1  -1  11 495.982 37.0632  -2
   1  -9  11 495.982 37.0632   1
   2  -2  11 490.370 37.1284  -2
   2  -9  11 490.370 37.1284   1
   3  -3  11 913.490 59.7598  -2
   3  -9  11 913.490 59.7598   1
   4  -4  11 1071.21 48.1283  -2
   4  -9  11 1071.21 48.1283   1
   5  -5  11 345.222 19.1210  -2
   5  -9  11 345.222 19.1210   1
   6  -6  11 43.5711 17.5104  -2
   6  -9  11 43.5711 17.5104   1
   7  -7  11 13.9107 12.9916  -2
   7  -9  11 13.9107 12.9916   1
   8  -8  11 8.96919 16.2598  -2
   8  -9  11 8.96919 16.2598   1
 -11  10  11 12.4600 11.6851  -2
 -11  -8  11 12.4600 11.6851   1
 -10   9  11 173.660 14.9932  -2
 -10  -8  11 173.660 14.9932   1
  -9   8  11 44.1025 9.70971  -2
  -9  -8  11 44.1025 9.70971   1
  -8   7  11 236.907 16.2169  -2
  -8  -8  11 236.907 16.2169   1
  -7   6  11 177.676 10.9557  -2
  -7  -8  11 177.676 10.9557   1
  -6   5  11 30.5584 7.02045  -2
  -6  -8  11 30.5584 7.02045   1
  -5   4  11 82.8207 7.66714  -2
  -5  -8  11 82.8207 7.66714   1
  -4   3  11 156.985 9.44015  -2
  -4  -8  11 156.985 9.44015   1
  -3   2  11 25.2918 7.39203  -2
  -3  -8  11 25.2918 7.39203   1
  -2   1  11 721.428 32.5801  -2
  -2  -8  11 721.428 32.5801   1
  -1   0  11 196.844 10.8379  -2
  -1  -8  11 196.844 10.8379   1
   0  -1  11 81.7906 13.6521  -2
   0  -8  11 81.7906 13.6521   1
   1  -2  11 899.417 58.2695  -2
   1  -8  11 899.417 58.2695   1
   2  -3  11 489.523 36.1890  -2
   2  -8  11 489.523 36.1890   1
   3  -4  11 400.010 32.1844  -2
   3  -8  11 400.010 32.1844   1
   4  -5  11 50.3128 20.7338  -2
   4  -8  11 50.3128 20.7338   1
   5  -6  11 38.0532 16.5556  -2
   5  -8  11 38.0532 16.5556   1
   6  -7  11 727.435 37.8965  -2
   6  -8  11 727.435 37.8965   1
   7  -8  11 73.6953 17.4435  -2
   7  -8  11 73.6953 17.4435   1
 -10   8  11 318.284 20.7220  -2
 -10  -7  11 318.284 20.7220   1
  -9   7  11 54.5487 10.7553  -2
  -9  -7  11 54.5487 10.7553   1
  -8   6  11 12.8149 8.73111  -2
  -8  -7  11 12.8149 8.73111   1
  -7   5  11 147.633 9.01464  -2
  -7  -7  11 147.633 9.01464   1
  -6   4  11 5.35383 6.08037  -2
  -6  -7  11 5.35383 6.08037   1
  -5   3  11 442.653 17.9463  -2
  -5  -7  11 442.653 17.9463   1
  -4   2  11 30.4664 6.57523  -2
  -4  -7  11 30.4664 6.57523   1
  -3   1  11 126.563 9.50932  -2
  -3  -7  11 126.563 9.50932   1
  -2   0  11 63.9333 6.92142  -2
  -2  -7  11 63.9333 6.92142   1
  -1  -1  11 19.2396 15.6113  -2
  -1  -7  11 19.2396 15.6113   1
   0  -2  11 496.880 25.0150  -2
   0  -7  11 496.880 25.0150   1
   1  -3  11 915.164 40.7749  -2
   1  -7  11 915.164 40.7749   1
   2  -4  11 202.487 23.0775  -2
   2  -7  11 202.487 23.0775   1
   3  -5  11 61.6236 19.6732  -2
   3  -7  11 61.6236 19.6732   1
   4  -6  11 276.355 22.6694  -2
   4  -7  11 276.355 22.6694   1
   5  -7  11 -21.455 15.9053  -2
   5  -7  11 -21.455 15.9053   1
   6  -8  11 681.061 35.3804  -2
   6  -7  11 681.061 35.3804   1
   7  -9  11 -19.941 16.2699  -2
   7  -7  11 -19.941 16.2699   1
 -10   7  11 35.5750 10.5820  -2
 -10  -6  11 35.5750 10.5820   1
  -9   6  11 27.3946 9.99469  -2
  -9  -6  11 27.3946 9.99469   1
  -8   5  11 34.6981 8.94296  -2
  -8  -6  11 34.6981 8.94296   1
  -7   4  11 457.092 16.2639  -2
  -7  -6  11 457.092 16.2639   1
  -6   3  11 68.3785 7.39521  -2
  -6  -6  11 68.3785 7.39521   1
  -5   2  11 242.558 11.8768  -2
  -5  -6  11 242.558 11.8768   1
  -4   1  11 610.616 23.2597  -2
  -4  -6  11 610.616 23.2597   1
  -3   0  11 264.396 10.9744  -2
  -3  -6  11 264.396 10.9744   1
  -2  -1  11 1039.81 35.9794  -2
  -2  -6  11 1039.81 35.9794   1
  -1  -2  11 11.2324 17.5136  -2
  -1  -6  11 11.2324 17.5136   1
   0  -3  11 152.766 14.9704  -2
   0  -6  11 152.766 14.9704   1
   1  -4  11 485.674 25.1160  -2
   1  -6  11 485.674 25.1160   1
   2  -5  11 361.445 29.7557  -2
   2  -6  11 361.445 29.7557   1
   3  -6  11 352.443 29.7435  -2
   3  -6  11 352.443 29.7435   1
   4  -7  11 224.088 21.5248  -2
   4  -6  11 224.088 21.5248   1
   5  -8  11 63.2999 15.7407  -2
   5  -6  11 63.2999 15.7407   1
   6  -9  11 3.38689 15.2430  -2
   6  -6  11 3.38689 15.2430   1
   7 -10  11 -13.424 16.5786  -2
   7  -6  11 -13.424 16.5786   1
 -10   6  11 42.6234 10.5408  -2
 -10  -5  11 42.6234 10.5408   1
  -9   5  11 47.6754 9.70506  -2
  -9  -5  11 47.6754 9.70506   1
  -8   4  11 28.0310 7.59316  -2
  -8  -5  11 28.0310 7.59316   1
  -7   3  11 357.525 15.2983  -2
  -7  -5  11 357.525 15.2983   1
  -6   2  11 128.711 8.19926  -2
  -6  -5  11 128.711 8.19926   1
  -5   1  11 886.411 31.8672  -2
  -5  -5  11 886.411 31.8672   1
  -4   0  11 1755.86 73.0482  -2
  -4  -5  11 1755.86 73.0482   1
  -3  -1  11 584.347 21.3700  -2
  -3  -5  11 584.347 21.3700   1
  -2  -2  11 757.660 27.3808  -2
  -2  -5  11 757.660 27.3808   1
  -1  -3  11 14.0231 17.1332  -2
  -1  -5  11 14.0231 17.1332   1
   0  -4  11 826.307 37.2763  -2
   0  -5  11 826.307 37.2763   1
   1  -5  11 2106.51 128.473  -2
   1  -5  11 2106.51 128.473   1
   2  -6  11 352.779 29.4919  -2
   2  -5  11 352.779 29.4919   1
   3  -7  11 49.5149 20.9627  -2
   3  -5  11 49.5149 20.9627   1
   4  -8  11 75.9493 8.54420  -2
   4  -5  11 75.9493 8.54420   1
   5  -9  11 283.595 13.5348  -2
   5  -5  11 283.595 13.5348   1
   6 -10  11 70.1654 32.2450  -2
   6  -5  11 70.1654 32.2450   1
   7 -11  11 -1.9592 17.0448  -2
   7  -5  11 -1.9592 17.0448   1
 -10   5  11 38.1101 9.76849  -2
 -10  -4  11 38.1101 9.76849   1
  -9   4  11 83.3282 10.3212  -2
  -9  -4  11 83.3282 10.3212   1
  -8   3  11 127.512 9.60796  -2
  -8  -4  11 127.512 9.60796   1
  -7   2  11 111.011 8.10041  -2
  -7  -4  11 111.011 8.10041   1
  -6   1  11 359.864 14.9551  -2
  -6  -4  11 359.864 14.9551   1
  -5   0  11 195.433 10.1444  -2
  -5  -4  11 195.433 10.1444   1
  -4  -1  11 65.5201 7.89685  -2
  -4  -4  11 65.5201 7.89685   1
  -3  -2  11 115.548 8.50551  -2
  -3  -4  11 115.548 8.50551   1
  -2  -3  11 714.806 43.9402  -2
  -2  -4  11 714.806 43.9402   1
  -1  -4  11 1037.85 61.7338  -2
  -1  -4  11 1037.85 61.7338   1
   0  -5  11 934.730 57.0586  -2
   0  -4  11 934.730 57.0586   1
   1  -6  11 426.584 32.0121  -2
   1  -4  11 426.584 32.0121   1
   2  -7  11 190.766 11.0442  -2
   2  -4  11 190.766 11.0442   1
   3  -8  11 367.628 16.6894  -2
   3  -4  11 367.628 16.6894   1
   4  -9  11 1015.68 36.0386  -2
   4  -4  11 1015.68 36.0386   1
   5 -10  11 101.266 9.78650  -2
   5  -4  11 101.266 9.78650   1
   6 -11  11 98.7342 11.4273  -2
   6  -4  11 98.7342 11.4273   1
   7 -12  11 86.7291 18.7199  -2
   7  -4  11 86.7291 18.7199   1
   8 -13  11 107.048 12.7505  -2
   8  -4  11 107.048 12.7505   1
  -9   3  11 19.8768 8.26170  -2
  -9  -3  11 19.8768 8.26170   1
  -8   2  11 103.645 7.98904  -2
  -8  -3  11 103.645 7.98904   1
  -7   1  11 368.746 15.3583  -2
  -7  -3  11 368.746 15.3583   1
  -6   0  11 635.804 23.7073  -2
  -6  -3  11 635.804 23.7073   1
  -5  -1  11 1356.15 47.3545  -2
  -5  -3  11 1356.15 47.3545   1
  -4  -2  11 34.7261 26.2324  -2
  -4  -3  11 34.7261 26.2324   1
  -3  -3  11 35.0065 6.80869  -2
  -3  -3  11 35.0065 6.80869   1
  -2  -4  11 561.559 36.1609  -2
  -2  -3  11 561.559 36.1609   1
  -1  -5  11 42.9736 18.4965  -2
  -1  -3  11 42.9736 18.4965   1
   0  -6  11 171.654 22.7613  -2
   0  -3  11 171.654 22.7613   1
   1  -7  11 905.633 36.1578  -2
   1  -3  11 905.633 36.1578   1
   2  -8  11 480.543 19.2224  -2
   2  -3  11 480.543 19.2224   1
   3  -9  11 910.841 36.7840  -2
   3  -3  11 910.841 36.7840   1
   4 -10  11 50.1141 8.19130  -2
   4  -3  11 50.1141 8.19130   1
   5 -11  11 -3.1262 8.19081  -2
   5  -3  11 -3.1262 8.19081   1
   6 -12  11 253.485 17.1586  -2
   6  -3  11 253.485 17.1586   1
   7 -13  11 107.611 23.9235  -2
   7  -3  11 107.611 23.9235   1
   8 -14  11 111.217 13.5910  -2
   8  -3  11 111.217 13.5910   1
   9 -15  11 42.5328 13.0310  -2
   9  -3  11 42.5328 13.0310   1
  10 -16  11 16.4084 12.6913  -2
  10  -3  11 16.4084 12.6913   1
  -9   2  11 12.2105 7.19705  -2
  -9  -2  11 12.2105 7.19705   1
  -8   1  11 6.47181 6.31660  -2
  -8  -2  11 6.47181 6.31660   1
  -7   0  11 355.176 12.9751  -2
  -7  -2  11 355.176 12.9751   1
  -6  -1  11 444.156 17.7738  -2
  -6  -2  11 444.156 17.7738   1
  -5  -2  11 812.305 29.4530  -2
  -5  -2  11 812.305 29.4530   1
  -4  -3  11 23.2908 5.80457  -2
  -4  -2  11 23.2908 5.80457   1
  -3  -4  11 104.498 7.97595  -2
  -3  -2  11 104.498 7.97595   1
  -2  -5  11 732.712 30.2003  -2
  -2  -2  11 732.712 30.2003   1
  -1  -6  11 28.0609 16.6459  -2
  -1  -2  11 28.0609 16.6459   1
   0  -7  11 362.864 28.2555  -2
   0  -2  11 362.864 28.2555   1
   1  -8  11 750.881 38.8413  -2
   1  -2  11 750.881 38.8413   1
   2  -9  11 443.820 18.0677  -2
   2  -2  11 443.820 18.0677   1
   3 -10  11 16.0885 7.25509  -2
   3  -2  11 16.0885 7.25509   1
   4 -11  11 55.5536 7.62170  -2
   4  -2  11 55.5536 7.62170   1
   5 -12  11 18.4918 9.05359  -2
   5  -2  11 18.4918 9.05359   1
   6 -13  11 122.433 10.9339  -2
   6  -2  11 122.433 10.9339   1
   7 -14  11 201.295 16.0225  -2
   7  -2  11 201.295 16.0225   1
   8 -15  11 22.8087 12.5090  -2
   8  -2  11 22.8087 12.5090   1
   9 -16  11 90.1430 14.0084  -2
   9  -2  11 90.1430 14.0084   1
  10 -17  11 53.9240 14.3959  -2
  10  -2  11 53.9240 14.3959   1
 -11   3  11 9.30686 15.8950  -2
 -11  -1  11 9.30686 15.8950   1
 -10   2  11 110.152 13.6809  -2
 -10  -1  11 110.152 13.6809   1
  -9   1  11 40.2340 7.55962  -2
  -9  -1  11 40.2340 7.55962   1
  -8   0  11 179.854 9.78052  -2
  -8  -1  11 179.854 9.78052   1
  -7  -1  11 937.092 29.1112  -2
  -7  -1  11 937.092 29.1112   1
  -6  -2  11 417.621 16.9181  -2
  -6  -1  11 417.621 16.9181   1
  -5  -3  11 1261.71 44.1771  -2
  -5  -1  11 1261.71 44.1771   1
  -4  -4  11 140.668 9.11094  -2
  -4  -1  11 140.668 9.11094   1
  -3  -5  11 645.595 23.5797  -2
  -3  -1  11 645.595 23.5797   1
  -2  -6  11 1101.32 37.3773  -2
  -2  -1  11 1101.32 37.3773   1
  -1  -7  11 4.45707 16.9518  -2
  -1  -1  11 4.45707 16.9518   1
   0  -8  11 72.1006 17.9957  -2
   0  -1  11 72.1006 17.9957   1
   1  -9  11 564.558 23.4297  -2
   1  -1  11 564.558 23.4297   1
   2 -10  11 128.277 8.78086  -2
   2  -1  11 128.277 8.78086   1
   3 -11  11 305.755 14.3908  -2
   3  -1  11 305.755 14.3908   1
   4 -12  11 267.101 13.8581  -2
   4  -1  11 267.101 13.8581   1
   5 -13  11 71.8862 9.78928  -2
   5  -1  11 71.8862 9.78928   1
   6 -14  11 49.4611 14.3631  -2
   6  -1  11 49.4611 14.3631   1
   7 -15  11 -1.2120 10.1188  -2
   7  -1  11 -1.2120 10.1188   1
   8 -16  11 32.4785 12.7876  -2
   8  -1  11 32.4785 12.7876   1
   9 -17  11 246.888 18.5291  -2
   9  -1  11 246.888 18.5291   1
  10 -18  11 -5.0672 14.4772  -2
  10  -1  11 -5.0672 14.4772   1
 -12   3  11 81.1340 18.1101  -2
 -12   0  11 81.1340 18.1101   1
 -11   2  11 0.91793 16.1269  -2
 -11   0  11 0.91793 16.1269   1
 -10   1  11 70.9311 12.4994  -2
 -10   0  11 70.9311 12.4994   1
  -9   0  11 689.488 24.9627  -2
  -9   0  11 689.488 24.9627   1
  -8  -1  11 211.229 9.12274  -2
  -8   0  11 211.229 9.12274   1
  -7  -2  11 359.760 13.2338  -2
  -7   0  11 359.760 13.2338   1
  -6  -3  11 696.993 22.2472  -2
  -6   0  11 696.993 22.2472   1
  -5  -4  11 199.176 9.03731  -2
  -5   0  11 199.176 9.03731   1
  -4  -5  11 1812.38 53.4507  -2
  -4   0  11 1812.38 53.4507   1
  -3  -6  11 258.496 13.0045  -2
  -3   0  11 258.496 13.0045   1
  -2  -7  11 53.2927 7.69175  -2
  -2   0  11 53.2927 7.69175   1
  -1  -8  11 207.132 20.9676  -2
  -1   0  11 207.132 20.9676   1
   0  -9  11 961.482 37.3920  -2
   0   0  11 961.482 37.3920   1
   1 -10  11 1617.32 53.2160  -2
   1   0  11 1617.32 53.2160   1
   2 -11  11 68.5399 7.42975  -2
   2   0  11 68.5399 7.42975   1
   3 -12  11 9.08954 7.49459  -2
   3   0  11 9.08954 7.49459   1
   4 -13  11 156.998 11.2820  -2
   4   0  11 156.998 11.2820   1
   5 -14  11 56.7964 8.95203  -2
   5   0  11 56.7964 8.95203   1
   6 -15  11 222.265 13.7700  -2
   6   0  11 222.265 13.7700   1
   7 -16  11 110.201 12.1774  -2
   7   0  11 110.201 12.1774   1
   8 -17  11 -11.227 12.2412  -2
   8   0  11 -11.227 12.2412   1
   9 -18  11 20.1038 13.0868  -2
   9   0  11 20.1038 13.0868   1
 -13   3  11 100.570 20.5361  -2
 -13   1  11 100.570 20.5361   1
 -12   2  11 41.5129 17.3119  -2
 -12   1  11 41.5129 17.3119   1
 -11   1  11 30.4922 16.0985  -2
 -11   1  11 30.4922 16.0985   1
 -10   0  11 133.776 20.0676  -2
 -10   1  11 133.776 20.0676   1
  -9  -1  11 47.4786 7.58598  -2
  -9   1  11 47.4786 7.58598   1
  -8  -2  11 2.45739 6.47678  -2
  -8   1  11 2.45739 6.47678   1
  -7  -3  11 366.738 12.6075  -2
  -7   1  11 366.738 12.6075   1
  -6  -4  11 357.527 13.1767  -2
  -6   1  11 357.527 13.1767   1
  -5  -5  11 911.542 25.1123  -2
  -5   1  11 911.542 25.1123   1
  -4  -6  11 662.478 23.2849  -2
  -4   1  11 662.478 23.2849   1
  -3  -7  11 116.409 8.75486  -2
  -3   1  11 116.409 8.75486   1
  -2  -8  11 674.212 28.2339  -2
  -2   1  11 674.212 28.2339   1
  -1  -9  11 282.788 14.3528  -2
  -1   1  11 282.788 14.3528   1
   0 -10  11 478.254 16.0805  -2
   0   1  11 478.254 16.0805   1
   1 -11  11 379.280 17.0662  -2
   1   1  11 379.280 17.0662   1
   2 -12  11 122.677 9.52771  -2
   2   1  11 122.677 9.52771   1
   3 -13  11 75.9663 7.70306  -2
   3   1  11 75.9663 7.70306   1
   4 -14  11 424.815 18.4340  -2
   4   1  11 424.815 18.4340   1
   5 -15  11 24.2405 8.75017  -2
   5   1  11 24.2405 8.75017   1
   6 -16  11 146.801 12.9219  -2
   6   1  11 146.801 12.9219   1
   7 -17  11 26.0846 11.0725  -2
   7   1  11 26.0846 11.0725   1
   8 -18  11 25.2623 12.7005  -2
   8   1  11 25.2623 12.7005   1
   9 -19  11 102.550 14.6227  -2
   9   1  11 102.550 14.6227   1
 -13   2  11 182.646 25.8113  -2
 -13   2  11 182.646 25.8113   1
 -11   0  11 -6.5416 16.9275  -2
 -11   2  11 -6.5416 16.9275   1
 -10  -1  11 163.164 14.0080  -2
 -10   2  11 163.164 14.0080   1
  -9  -2  11 15.6904 7.41880  -2
  -9   2  11 15.6904 7.41880   1
  -8  -3  11 104.847 7.81451  -2
  -8   2  11 104.847 7.81451   1
  -7  -4  11 142.945 7.97909  -2
  -7   2  11 142.945 7.97909   1
  -6  -5  11 150.133 8.55482  -2
  -6   2  11 150.133 8.55482   1
  -5  -6  11 278.970 9.97736  -2
  -5   2  11 278.970 9.97736   1
  -4  -7  11 26.3578 5.39220  -2
  -4   2  11 26.3578 5.39220   1
  -3  -8  11 18.4734 5.86713  -2
  -3   2  11 18.4734 5.86713   1
  -2  -9  11 330.963 16.0154  -2
  -2   2  11 330.963 16.0154   1
  -1 -10  11 271.045 14.0564  -2
  -1   2  11 271.045 14.0564   1
   0 -11  11 26.6524 5.52824  -2
   0   2  11 26.6524 5.52824   1
   1 -12  11 44.4840 5.89626  -2
   1   2  11 44.4840 5.89626   1
   2 -13  11 148.683 8.16150  -2
   2   2  11 148.683 8.16150   1
   3 -14  11 370.837 17.9243  -2
   3   2  11 370.837 17.9243   1
   4 -15  11 99.0401 9.73059  -2
   4   2  11 99.0401 9.73059   1
   5 -16  11 256.030 14.6361  -2
   5   2  11 256.030 14.6361   1
   6 -17  11 33.8072 9.94207  -2
   6   2  11 33.8072 9.94207   1
   7 -18  11 379.503 23.5719  -2
   7   2  11 379.503 23.5719   1
   8 -19  11 97.2898 14.0528  -2
   8   2  11 97.2898 14.0528   1
   9 -20  11 47.5203 13.7242  -2
   9   2  11 47.5203 13.7242   1
  -9  -3  11 27.1089 7.68992  -2
  -9   3  11 27.1089 7.68992   1
  -8  -4  11 155.538 8.62522  -2
  -8   3  11 155.538 8.62522   1
  -7  -5  11 455.016 14.3251  -2
  -7   3  11 455.016 14.3251   1
  -6  -6  11 56.8817 6.36971  -2
  -6   3  11 56.8817 6.36971   1
  -5  -7  11 438.038 15.8086  -2
  -5   3  11 438.038 15.8086   1
  -4  -8  11 222.344 9.65600  -2
  -4   3  11 222.344 9.65600   1
  -3  -9  11 57.5294 6.29888  -2
  -3   3  11 57.5294 6.29888   1
  -2 -10  11 37.6412 6.67790  -2
  -2   3  11 37.6412 6.67790   1
  -1 -11  11 26.9778 5.63720  -2
  -1   3  11 26.9778 5.63720   1
   0 -12  11 49.1106 5.85006  -2
   0   3  11 49.1106 5.85006   1
   1 -13  11 247.066 10.5082  -2
   1   3  11 247.066 10.5082   1
   2 -14  11 7.08381 8.95221  -2
   2   3  11 7.08381 8.95221   1
   3 -15  11 51.0748 7.05972  -2
   3   3  11 51.0748 7.05972   1
   4 -16  11 18.9910 6.77590  -2
   4   3  11 18.9910 6.77590   1
   5 -17  11 16.0540 9.73576  -2
   5   3  11 16.0540 9.73576   1
   6 -18  11 255.749 29.4252  -2
   6   3  11 255.749 29.4252   1
   8 -20  11 21.1040 14.0594  -2
   8   3  11 21.1040 14.0594   1
   9   3  11 98.5619 13.2575   1
  -9  -4  11 99.8861 8.91995  -2
  -9   4  11 99.8861 8.91995   1
  -8  -5  11 38.3089 7.14713  -2
  -8   4  11 38.3089 7.14713   1
  -7  -6  11 474.638 16.6181  -2
  -7   4  11 474.638 16.6181   1
  -6  -7  11 10.7887 5.91165  -2
  -6   4  11 10.7887 5.91165   1
  -5  -8  11 95.4808 8.27243  -2
  -5   4  11 95.4808 8.27243   1
  -4  -9  11 109.316 8.69528  -2
  -4   4  11 109.316 8.69528   1
  -3 -10  11 730.910 30.7744  -2
  -3   4  11 730.910 30.7744   1
  -2 -11  11 466.220 17.3601  -2
  -2   4  11 466.220 17.3601   1
  -1 -12  11 118.295 6.36710  -2
  -1   4  11 118.295 6.36710   1
   0 -13  11 0.13106 6.04560  -2
   0   4  11 0.13106 6.04560   1
   1 -14  11 99.6171 7.21492  -2
   1   4  11 99.6171 7.21492   1
   2 -15  11 -15.100 8.87426  -2
   2   4  11 -15.100 8.87426   1
   3 -16  11 54.0768 10.7654  -2
   3   4  11 54.0768 10.7654   1
   4 -17  11 20.6227 9.64527  -2
   4   4  11 20.6227 9.64527   1
   5 -18  11 33.4737 16.8361  -2
   5   4  11 33.4737 16.8361   1
   6 -19  11 105.222 30.0998  -2
   6   4  11 105.222 30.0998   1
   8 -21  11 25.3009 13.9340  -2
   8   4  11 25.3009 13.9340   1
 -10  -4  11 45.1576 11.5257  -2
 -10   5  11 45.1576 11.5257   1
  -9  -5  11 39.9190 7.94381  -2
  -9   5  11 39.9190 7.94381   1
  -8  -6  11 31.9530 6.88170  -2
  -8   5  11 31.9530 6.88170   1
  -7  -7  11 141.947 8.70984  -2
  -7   5  11 141.947 8.70984   1
  -6  -8  11 63.1990 7.17789  -2
  -6   5  11 63.1990 7.17789   1
  -5  -9  11 221.003 12.1200  -2
  -5   5  11 221.003 12.1200   1
  -4 -10  11 209.465 11.5503  -2
  -4   5  11 209.465 11.5503   1
  -3 -11  11 278.786 14.2229  -2
  -3   5  11 278.786 14.2229   1
  -2 -12  11 332.441 12.3031  -2
  -2   5  11 332.441 12.3031   1
  -1 -13  11 153.887 7.23581  -2
  -1   5  11 153.887 7.23581   1
   0 -14  11 196.358 9.12378  -2
   0   5  11 196.358 9.12378   1
   1 -15  11 436.477 17.9416  -2
   1   5  11 436.477 17.9416   1
   2 -16  11 20.4279 7.11752  -2
   2   5  11 20.4279 7.11752   1
   3 -17  11 29.8451 7.94962  -2
   3   5  11 29.8451 7.94962   1
   4 -18  11 5.33699 15.7262  -2
   4   5  11 5.33699 15.7262   1
   5 -19  11 51.8087 14.8188  -2
   5   5  11 51.8087 14.8188   1
   6 -20  11 59.3544 28.8683  -2
   6   5  11 59.3544 28.8683   1
   7 -21  11 40.5594 31.2413  -2
   7   5  11 40.5594 31.2413   1
   8 -22  11 28.4624 14.7587  -2
   8   5  11 28.4624 14.7587   1
 -10  -5  11 23.6655 11.8015  -2
 -10   6  11 23.6655 11.8015   1
  -9  -6  11 18.1725 9.54486  -2
  -9   6  11 18.1725 9.54486   1
  -8  -7  11 19.4753 6.64902  -2
  -8   6  11 19.4753 6.64902   1
  -7  -8  11 156.915 9.71593  -2
  -7   6  11 156.915 9.71593   1
  -6  -9  11 52.9627 8.54039  -2
  -6   6  11 52.9627 8.54039   1
  -5 -10  11 605.770 26.0583  -2
  -5   6  11 605.770 26.0583   1
  -4 -11  11 88.0422 8.18793  -2
  -4   6  11 88.0422 8.18793   1
  -3 -12  11 103.499 6.91023  -2
  -3   6  11 103.499 6.91023   1
  -2 -13  11 12.5564 6.76159  -2
  -2   6  11 12.5564 6.76159   1
  -1 -14  11 492.478 17.0794  -2
  -1   6  11 492.478 17.0794   1
   0 -15  11 398.428 14.6170  -2
   0   6  11 398.428 14.6170   1
   1 -16  11 140.122 9.60738  -2
   1   6  11 140.122 9.60738   1
   2 -17  11 54.0269 7.70090  -2
   2   6  11 54.0269 7.70090   1
   3 -18  11 37.5142 22.4073  -2
   3   6  11 37.5142 22.4073   1
   4 -19  11 157.161 15.3438  -2
   4   6  11 157.161 15.3438   1
   5 -20  11 -1.4427 27.1662  -2
   5   6  11 -1.4427 27.1662   1
   6 -21  11 78.9899 29.3421  -2
   6   6  11 78.9899 29.3421   1
   7 -22  11 46.2267 31.2248  -2
   7   6  11 46.2267 31.2248   1
 -11  -5  11 39.8316 12.8108  -2
 -11   7  11 39.8316 12.8108   1
 -10  -6  11 36.0420 11.7935  -2
 -10   7  11 36.0420 11.7935   1
  -9  -7  11 73.2624 9.87421  -2
  -9   7  11 73.2624 9.87421   1
  -8  -8  11 244.123 12.0082  -2
  -8   7  11 244.123 12.0082   1
  -7  -9  11 78.5564 7.94471  -2
  -7   7  11 78.5564 7.94471   1
  -6 -10  11 16.8066 8.00613  -2
  -6   7  11 16.8066 8.00613   1
  -5 -11  11 50.5514 8.12723  -2
  -5   7  11 50.5514 8.12723   1
  -4 -12  11 89.8621 6.77036  -2
  -4   7  11 89.8621 6.77036   1
  -3 -13  11 107.199 7.34289  -2
  -3   7  11 107.199 7.34289   1
  -2 -14  11 50.8754 6.93771  -2
  -2   7  11 50.8754 6.93771   1
  -1 -15  11 113.346 7.90825  -2
  -1   7  11 113.346 7.90825   1
   0 -16  11 41.9304 7.31452  -2
   0   7  11 41.9304 7.31452   1
   1 -17  11 42.7007 12.0091  -2
   1   7  11 42.7007 12.0091   1
   2 -18  11 51.4610 22.7466  -2
   2   7  11 51.4610 22.7466   1
   3 -19  11 147.984 25.4628  -2
   3   7  11 147.984 25.4628   1
   4 -20  11 237.282 30.3276  -2
   4   7  11 237.282 30.3276   1
   5 -21  11 -10.251 27.4895  -2
   5   7  11 -10.251 27.4895   1
   6 -22  11 -19.612 28.0918  -2
   6   7  11 -19.612 28.0918   1
   7 -23  11 76.1494 32.0215  -2
   7   7  11 76.1494 32.0215   1
 -12  -5  11 130.417 16.9422  -2
 -12   8  11 130.417 16.9422   1
 -11  -6  11 32.4821 13.4123  -2
 -11   8  11 32.4821 13.4123   1
 -10  -7  11 298.657 20.8771  -2
 -10   8  11 298.657 20.8771   1
  -9  -8  11 46.4706 9.95201  -2
  -9   8  11 46.4706 9.95201   1
  -8  -9  11 77.2019 10.4384  -2
  -8   8  11 77.2019 10.4384   1
  -7 -10  11 6.59182 9.95443  -2
  -7   8  11 6.59182 9.95443   1
  -6 -11  11 74.0715 9.03458  -2
  -6   8  11 74.0715 9.03458   1
  -5 -12  11 377.866 13.2838  -2
  -5   8  11 377.866 13.2838   1
  -4 -13  11 24.4901 7.13127  -2
  -4   8  11 24.4901 7.13127   1
  -3 -14  11 19.1623 7.11787  -2
  -3   8  11 19.1623 7.11787   1
  -2 -15  11 25.0833 7.66314  -2
  -2   8  11 25.0833 7.66314   1
  -1 -16  11 39.3684 7.83056  -2
  -1   8  11 39.3684 7.83056   1
   0 -17  11 194.799 12.7782  -2
   0   8  11 194.799 12.7782   1
   1 -18  11 387.374 29.9601  -2
   1   8  11 387.374 29.9601   1
   2 -19  11 40.8770 24.4656  -2
   2   8  11 40.8770 24.4656   1
   3 -20  11 36.0546 25.8926  -2
   3   8  11 36.0546 25.8926   1
   4 -21  11 19.3293 26.5708  -2
   4   8  11 19.3293 26.5708   1
   5 -22  11 29.1619 28.1362  -2
   5   8  11 29.1619 28.1362   1
   6 -23  11 -4.8640 29.4387  -2
   6   8  11 -4.8640 29.4387   1
 -12  -6  11 244.389 20.2517  -2
 -12   9  11 244.389 20.2517   1
 -11  -7  11 44.6951 13.6450  -2
 -11   9  11 44.6951 13.6450   1
 -10  -8  11 157.129 15.6553  -2
 -10   9  11 157.129 15.6553   1
  -9  -9  11 64.3045 11.2540  -2
  -9   9  11 64.3045 11.2540   1
  -8 -10  11 88.3262 11.4477  -2
  -8   9  11 88.3262 11.4477   1
  -7 -11  11 325.014 18.8661  -2
  -7   9  11 325.014 18.8661   1
  -6 -12  11 89.6383 12.0273  -2
  -6   9  11 89.6383 12.0273   1
  -5 -13  11 105.153 7.90760  -2
  -5   9  11 105.153 7.90760   1
  -4 -14  11 64.1982 7.26283  -2
  -4   9  11 64.1982 7.26283   1
  -3 -15  11 22.3042 6.94338  -2
  -3   9  11 22.3042 6.94338   1
  -2 -16  11 258.003 17.7459  -2
  -2   9  11 258.003 17.7459   1
   0 -18  11 21.1649 19.0660  -2
   0   9  11 21.1649 19.0660   1
   2 -20  11 -3.2657 24.5424  -2
   2   9  11 -3.2657 24.5424   1
   3 -21  11 48.8753 27.1307  -2
   3   9  11 48.8753 27.1307   1
   4 -22  11 102.664 28.1263  -2
   4   9  11 102.664 28.1263   1
   6 -24  11 -37.845 29.3171  -2
   6   9  11 -37.845 29.3171   1
 -12  -7  11 22.8775 16.1610  -2
 -12  10  11 22.8775 16.1610   1
 -11  -8  11 -7.2981 13.4677  -2
 -11  10  11 -7.2981 13.4677   1
 -10  -9  11 24.9487 11.9467  -2
 -10  10  11 24.9487 11.9467   1
  -9 -10  11 220.106 16.6794  -2
  -9  10  11 220.106 16.6794   1
  -8 -11  11 123.317 12.8249  -2
  -8  10  11 123.317 12.8249   1
  -7 -12  11 86.5140 11.6762  -2
  -7  10  11 86.5140 11.6762   1
  -6 -13  11 24.8070 11.1327  -2
  -6  10  11 24.8070 11.1327   1
  -5 -14  11 99.7100 11.5920  -2
  -5  10  11 99.7100 11.5920   1
  -4 -15  11 111.638 11.8920  -2
  -4  10  11 111.638 11.8920   1
  -3 -16  11 38.1262 10.4068  -2
  -3  10  11 38.1262 10.4068   1
  -2 -17  11 315.222 20.7478  -2
  -2  10  11 315.222 20.7478   1
   4 -23  11 0.17226 28.0581  -2
   4  10  11 0.17226 28.0581   1
   5 -24  11 20.7270 29.9678  -2
   5  10  11 20.7270 29.9678   1
 -12  -8  11 57.4661 15.8197  -2
 -12  11  11 57.4661 15.8197   1
 -11  -9  11 38.8666 14.4852  -2
 -11  11  11 38.8666 14.4852   1
 -10 -10  11 48.6669 13.4282  -2
 -10  11  11 48.6669 13.4282   1
  -9 -11  11 214.649 16.7041  -2
  -9  11  11 214.649 16.7041   1
  -8 -12  11 64.6829 11.5475  -2
  -8  11  11 64.6829 11.5475   1
  -7 -13  11 24.2099 11.7804  -2
  -7  11  11 24.2099 11.7804   1
  -6 -14  11 56.0680 10.9928  -2
  -6  11  11 56.0680 10.9928   1
  -5 -15  11 104.714 12.0075  -2
  -5  11  11 104.714 12.0075   1
  -4 -16  11 144.422 13.2822  -2
  -4  11  11 144.422 13.2822   1
  -3 -17  11 105.730 12.4053  -2
  -3  11  11 105.730 12.4053   1
  -2 -18  11 50.2138 11.4689  -2
  -2  11  11 50.2138 11.4689   1
   5  11  11 27.4527 23.1255   1
 -11 -10  11 -2.9082 14.6246  -2
 -11  12  11 -2.9082 14.6246   1
 -10 -11  11 8.72215 14.1540  -2
 -10  12  11 8.72215 14.1540   1
  -9 -12  11 17.7402 11.3462  -2
  -9  12  11 17.7402 11.3462   1
  -8 -13  11 36.4981 12.9268  -2
  -8  12  11 36.4981 12.9268   1
  -7 -14  11 49.2548 11.4498  -2
  -7  12  11 49.2548 11.4498   1
  -6 -15  11 35.9090 12.2362  -2
  -6  12  11 35.9090 12.2362   1
  -5 -16  11 61.4668 12.4713  -2
  -5  12  11 61.4668 12.4713   1
  -4 -17  11 81.4538 12.7374  -2
  -4  12  11 81.4538 12.7374   1
   4 -25  11 24.7073 30.9848  -2
   4  12  11 24.7073 30.9848   1
 -11 -11  11 -2.7490 15.1247  -2
 -11  13  11 -2.7490 15.1247   1
 -10 -12  11 153.594 17.4530  -2
 -10  13  11 153.594 17.4530   1
  -9 -13  11 29.8767 13.1494  -2
  -9  13  11 29.8767 13.1494   1
  -8 -14  11 56.5219 12.0984  -2
  -8  13  11 56.5219 12.0984   1
  -7 -15  11 14.6369 12.6154  -2
  -7  13  11 14.6369 12.6154   1
  -6 -16  11 41.9938 12.6398  -2
  -6  13  11 41.9938 12.6398   1
  -5 -17  11 254.516 19.0122  -2
  -5  13  11 254.516 19.0122   1
  -4 -18  11 70.1987 11.6883  -2
  -4  13  11 70.1987 11.6883   1
   3 -25  11 -8.7822 35.5961  -2
   3  13  11 -8.7822 35.5961   1
 -10 -13  11 69.1732 15.8840  -2
 -10  14  11 69.1732 15.8840   1
  -9 -14  11 50.8992 13.4683  -2
  -9  14  11 50.8992 13.4683   1
  -8 -15  11 12.0519 13.3383  -2
  -8  14  11 12.0519 13.3383   1
  -7 -16  11 177.002 16.7824  -2
  -7  14  11 177.002 16.7824   1
  -6 -17  11 46.4113 11.7165  -2
  -6  14  11 46.4113 11.7165   1
  -5 -18  11 83.2191 13.5367  -2
  -5  14  11 83.2191 13.5367   1
  -4 -19  11 11.7444 11.0277  -2
  -4  14  11 11.7444 11.0277   1
  -2 -21  11 255.239 19.0259  -2
  -2  14  11 255.239 19.0259   1
   1 -24  11 -49.118 31.7199  -2
   1  14  11 -49.118 31.7199   1
   2 -25  11 205.257 19.1729  -2
   2 -25  12 205.257 19.1729  -2
   2  14  11 205.257 19.1729   1
 -10 -14  11 46.9210 15.9873  -2
 -10  15  11 46.9210 15.9873   1
  -9 -15  11 94.2763 16.4857  -2
  -9  15  11 94.2763 16.4857   1
  -8 -16  11 59.3457 14.4292  -2
  -8  15  11 59.3457 14.4292   1
  -7 -17  11 21.0184 13.7045  -2
  -7  15  11 21.0184 13.7045   1
  -6 -18  11 81.8507 14.1418  -2
  -6  15  11 81.8507 14.1418   1
  -5 -19  11 26.7804 11.5227  -2
  -5  15  11 26.7804 11.5227   1
  -4 -20  11 80.3698 13.7447  -2
  -4  15  11 80.3698 13.7447   1
   1 -25  11 196.462 20.0173  -2
   1 -25  12 196.462 20.0173  -2
   1  15  11 196.462 20.0173   1
  -9 -16  11 1.10300 15.7357  -2
  -9  16  11 1.10300 15.7357   1
  -8 -17  11 18.3291 14.6522  -2
  -8  16  11 18.3291 14.6522   1
  -7 -18  11 32.5424 14.4919  -2
  -7  16  11 32.5424 14.4919   1
  -6 -19  11 61.2913 12.6280  -2
  -6  16  11 61.2913 12.6280   1
  -5 -20  11 102.625 13.5127  -2
  -5  16  11 102.625 13.5127   1
  -4 -21  11 77.7791 12.8184  -2
  -4  16  11 77.7791 12.8184   1
  -1 -24  12 103.813 19.4717  -2
  -1 -24  11 103.813 19.4717  -2
  -1  16  11 103.813 19.4717   1
  -7 -19  11 66.6716 13.2779  -2
  -7  17  11 66.6716 13.2779   1
  -6 -20  11 26.5689 12.2565  -2
  -6  17  11 26.5689 12.2565   1
  -5 -21  11 36.9292 12.2637  -2
  -5  17  11 36.9292 12.2637   1
  -4 -22  11 27.3322 13.7692  -2
  -4  17  11 27.3322 13.7692   1
   1  14  12 59.9039 15.3913  -2
   1 -25  12 59.9039 15.3913   1
   2  13  12 -12.649 29.6193  -2
   2 -25  12 -12.649 29.6193   1
   0  14  12 66.5023 14.4557  -2
   0 -24  12 66.5023 14.4557   1
  -3  16  12 36.4910 14.7747  -2
  -3 -23  12 36.4910 14.7747   1
  -2  15  12 48.7506 14.1961  -2
  -2 -23  12 48.7506 14.1961   1
  -1  14  12 74.6334 14.3956  -2
  -1 -23  12 74.6334 14.3956   1
   0  13  12 42.3741 13.7960  -2
   0 -23  12 42.3741 13.7960   1
   1  12  12 56.7157 28.4017  -2
   1 -23  12 56.7157 28.4017   1
  -4  16  12 -3.6742 14.3119  -2
  -4 -22  12 -3.6742 14.3119   1
  -3  15  12 59.8048 14.5989  -2
  -3 -22  12 59.8048 14.5989   1
  -2  14  12 172.688 17.3527  -2
  -2 -22  12 172.688 17.3527   1
  -1  13  12 108.929 14.8480  -2
  -1 -22  12 108.929 14.8480   1
   1  11  12 26.5673 28.7835  -2
   1 -22  12 26.5673 28.7835   1
  -5  16  12 10.9291 13.9372  -2
  -5 -21  12 10.9291 13.9372   1
  -4  15  12 75.8494 14.4321  -2
  -4 -21  12 75.8494 14.4321   1
  -3  14  12 393.628 25.2407  -2
  -3 -21  12 393.628 25.2407   1
  -2  13  12 41.0113 14.2049  -2
  -2 -21  12 41.0113 14.2049   1
  -1  12  12 8.39989 12.9955  -2
  -1 -21  12 8.39989 12.9955   1
   0  11  12 24.8286 20.7189  -2
   0 -21  12 24.8286 20.7189   1
   1  10  12 196.956 31.0675  -2
   1 -21  12 196.956 31.0675   1
  -6  16  12 39.1513 14.3784  -2
  -6 -20  12 39.1513 14.3784   1
  -5  15  12 43.9254 13.8073  -2
  -5 -20  12 43.9254 13.8073   1
  -4  14  12 19.8574 13.3344  -2
  -4 -20  12 19.8574 13.3344   1
  -3  13  12 40.9404 14.1805  -2
  -3 -20  12 40.9404 14.1805   1
  -2  12  12 42.9850 13.7658  -2
  -2 -20  12 42.9850 13.7658   1
   0  10  12 101.137 21.4632  -2
   0 -20  12 101.137 21.4632   1
   1   9  12 21.3724 29.0464  -2
   1 -20  12 21.3724 29.0464   1
  -7  16  12 15.3977 13.6841  -2
  -7 -19  12 15.3977 13.6841   1
  -6  15  12 14.0226 12.8980  -2
  -6 -19  12 14.0226 12.8980   1
  -5  14  12 19.5194 13.2913  -2
  -5 -19  12 19.5194 13.2913   1
  -4  13  12 233.299 17.7744  -2
  -4 -19  12 233.299 17.7744   1
  -3  12  12 125.637 14.5816  -2
  -3 -19  12 125.637 14.5816   1
  -2  11  12 37.4885 13.3314  -2
  -2 -19  12 37.4885 13.3314   1
   0   9  12 16.4694 27.6660  -2
   0 -19  12 16.4694 27.6660   1
   1   8  12 24.5533 31.6285  -2
   1 -19  12 24.5533 31.6285   1
   9   1  12 145.317 39.7690  -2
   9 -19  12 145.317 39.7690   1
  -7  15  12 0.48540 12.1996  -2
  -7 -18  12 0.48540 12.1996   1
  -6  14  12 70.0666 13.6385  -2
  -6 -18  12 70.0666 13.6385   1
  -5  13  12 44.2544 13.3131  -2
  -5 -18  12 44.2544 13.3131   1
  -4  12  12 287.369 20.0503  -2
  -4 -18  12 287.369 20.0503   1
  -3  11  12 52.1751 12.6893  -2
  -3 -18  12 52.1751 12.6893   1
  -1   9  12 393.722 36.7167  -2
  -1 -18  12 393.722 36.7167   1
   0   8  12 98.9382 28.9462  -2
   0 -18  12 98.9382 28.9462   1
   1   7  12 328.552 35.6251  -2
   1 -18  12 328.552 35.6251   1
   9   0  12 115.349 40.3029  -2
   9 -18  12 115.349 40.3029   1
  -7  14  12 48.1997 12.9280  -2
  -7 -17  12 48.1997 12.9280   1
  -6  13  12 113.938 14.0998  -2
  -6 -17  12 113.938 14.0998   1
  -5  12  12 48.8689 12.2871  -2
  -5 -17  12 48.8689 12.2871   1
  -4  11  12 126.886 14.0369  -2
  -4 -17  12 126.886 14.0369   1
  -3  10  12 592.063 32.6553  -2
  -3 -17  12 592.063 32.6553   1
  -1   8  12 571.717 43.8934  -2
  -1 -17  12 571.717 43.8934   1
   0   7  12 34.6447 26.6935  -2
   0 -17  12 34.6447 26.6935   1
   1   6  12 30.1758 28.3767  -2
   1 -17  12 30.1758 28.3767   1
  10 -17  12 83.6131 23.1045   1
  -7  13  12 13.9710 11.8595  -2
  -7 -16  12 13.9710 11.8595   1
  -6  12  12 -5.6888 11.9314  -2
  -6 -16  12 -5.6888 11.9314   1
  -5  11  12 14.7892 11.8804  -2
  -5 -16  12 14.7892 11.8804   1
  -4  10  12 193.274 16.1657  -2
  -4 -16  12 193.274 16.1657   1
  -3   9  12 118.370 13.1511  -2
  -3 -16  12 118.370 13.1511   1
  -2   8  12 62.1157 23.5978  -2
  -2 -16  12 62.1157 23.5978   1
  -1   7  12 9.73692 23.7790  -2
  -1 -16  12 9.73692 23.7790   1
   0   6  12 133.005 27.6405  -2
   0 -16  12 133.005 27.6405   1
   1   5  12 132.292 19.6494  -2
   1 -16  12 132.292 19.6494   1
  10  -3  12 194.147 39.8814  -2
  10 -16  12 194.147 39.8814   1
  -7  12  12 8.55661 11.4274  -2
  -7 -15  12 8.55661 11.4274   1
  -6  11  12 101.771 12.8753  -2
  -6 -15  12 101.771 12.8753   1
  -5  10  12 43.8337 11.8462  -2
  -5 -15  12 43.8337 11.8462   1
  -4   9  12 97.8260 12.7354  -2
  -4 -15  12 97.8260 12.7354   1
  -2   7  12 30.7700 22.9309  -2
  -2 -15  12 30.7700 22.9309   1
  -1   6  12 263.950 29.0739  -2
  -1 -15  12 263.950 29.0739   1
   0   5  12 222.059 27.4251  -2
   0 -15  12 222.059 27.4251   1
   1   4  12 52.6990 24.6836  -2
   1 -15  12 52.6990 24.6836   1
   2   3  12 -7.8665 25.1854  -2
   2 -15  12 -7.8665 25.1854   1
   9  -3  12 200.723 37.3801  -2
   9 -15  12 200.723 37.3801   1
  -7  11  12 108.415 12.3949  -2
  -7 -14  12 108.415 12.3949   1
  -6  10  12 15.8162 10.1048  -2
  -6 -14  12 15.8162 10.1048   1
  -5   9  12 9.36999 10.0102  -2
  -5 -14  12 9.36999 10.0102   1
  -4   8  12 145.685 13.4720  -2
  -4 -14  12 145.685 13.4720   1
  -2   6  12 61.9581 22.4747  -2
  -2 -14  12 61.9581 22.4747   1
  -1   5  12 54.3055 23.0250  -2
  -1 -14  12 54.3055 23.0250   1
   0   4  12 32.7876 24.3065  -2
   0 -14  12 32.7876 24.3065   1
   1   3  12 5.62367 23.4766  -2
   1 -14  12 5.62367 23.4766   1
   2   2  12 26.8124 24.7737  -2
   2 -14  12 26.8124 24.7737   1
   8  -3  12 123.370 34.1638  -2
   8 -14  12 123.370 34.1638   1
  -6   9  12 95.2218 10.2872  -2
  -6 -13  12 95.2218 10.2872   1
  -5   8  12 38.2985 10.0696  -2
  -5 -13  12 38.2985 10.0696   1
  -4   7  12 199.786 14.7985  -2
  -4 -13  12 199.786 14.7985   1
  -1   4  12 231.556 27.2488  -2
  -1 -13  12 231.556 27.2488   1
   0   3  12 14.6922 23.4769  -2
   0 -13  12 14.6922 23.4769   1
   1   2  12 4.52938 23.1421  -2
   1 -13  12 4.52938 23.1421   1
   8  -4  12 140.727 33.0635  -2
   8 -13  12 140.727 33.0635   1
  -7   9  12 140.395 39.2986  -2
  -7 -12  12 140.395 39.2986   1
  -6   8  12 355.935 16.7715  -2
  -6 -12  12 355.935 16.7715   1
  -5   7  12 37.8224 7.46177  -2
  -5 -12  12 37.8224 7.46177   1
  -4   6  12 106.337 11.7038  -2
  -4 -12  12 106.337 11.7038   1
  -3   5  12 55.5005 10.2129  -2
  -3 -12  12 55.5005 10.2129   1
  -2   4  12 109.505 12.2389  -2
  -2 -12  12 109.505 12.2389   1
  -1   3  12 582.455 26.5702  -2
  -1 -12  12 582.455 26.5702   1
   0   2  12 -7.4394 21.2054  -2
   0 -12  12 -7.4394 21.2054   1
   1   1  12 74.2137 24.8764  -2
   1 -12  12 74.2137 24.8764   1
   7  -4  12 213.631 34.9005  -2
   7 -12  12 213.631 34.9005   1
   8  -5  12 47.0657 31.1325  -2
   8 -12  12 47.0657 31.1325   1
  -8   9  12 65.6600 11.1822  -2
  -8 -11  12 65.6600 11.1822   1
  -7   8  12 94.9007 11.0772  -2
  -7 -11  12 94.9007 11.0772   1
  -6   7  12 7.82454 6.49750  -2
  -6 -11  12 7.82454 6.49750   1
  -5   6  12 7.32157 6.51552  -2
  -5 -11  12 7.32157 6.51552   1
  -4   5  12 594.664 28.7319  -2
  -4 -11  12 594.664 28.7319   1
  -3   4  12 348.393 21.5966  -2
  -3 -11  12 348.393 21.5966   1
  -2   3  12 142.952 12.9807  -2
  -2 -11  12 142.952 12.9807   1
  -1   2  12 28.9844 9.03454  -2
  -1 -11  12 28.9844 9.03454   1
   0   1  12 169.576 12.1311  -2
   0 -11  12 169.576 12.1311   1
   1   0  12 332.221 17.5411  -2
   1 -11  12 332.221 17.5411   1
   8  -6  12 36.1300 29.7729  -2
   8 -11  12 36.1300 29.7729   1
  -9   9  12 68.7755 11.1826  -2
  -9 -10  12 68.7755 11.1826   1
  -8   8  12 140.265 13.6855  -2
  -8 -10  12 140.265 13.6855   1
  -7   7  12 127.990 12.3907  -2
  -7 -10  12 127.990 12.3907   1
  -6   6  12 43.8824 9.67164  -2
  -6 -10  12 43.8824 9.67164   1
  -5   5  12 59.0148 6.73060  -2
  -5 -10  12 59.0148 6.73060   1
  -4   4  12 517.648 25.7512  -2
  -4 -10  12 517.648 25.7512   1
  -3   3  12 284.503 17.4313  -2
  -3 -10  12 284.503 17.4313   1
  -2   2  12 13.5149 9.76001  -2
  -2 -10  12 13.5149 9.76001   1
  -1   1  12 919.111 39.1122  -2
  -1 -10  12 919.111 39.1122   1
   0   0  12 1258.72 52.5006  -2
   0 -10  12 1258.72 52.5006   1
   1  -1  12 369.492 31.9247  -2
   1 -10  12 369.492 31.9247   1
   2  -2  12 485.150 38.6069  -2
   2 -10  12 485.150 38.6069   1
 -10   9  12 30.0509 10.6272  -2
 -10  -9  12 30.0509 10.6272   1
  -9   8  12 308.911 20.3150  -2
  -9  -9  12 308.911 20.3150   1
  -8   7  12 154.571 13.4938  -2
  -8  -9  12 154.571 13.4938   1
  -7   6  12 182.182 12.4382  -2
  -7  -9  12 182.182 12.4382   1
  -6   5  12 138.278 11.9725  -2
  -6  -9  12 138.278 11.9725   1
  -5   4  12 17.8661 30.7740  -2
  -5  -9  12 17.8661 30.7740   1
  -4   3  12 460.283 23.5615  -2
  -4  -9  12 460.283 23.5615   1
  -3   2  12 299.708 16.9685  -2
  -3  -9  12 299.708 16.9685   1
  -2   1  12 113.843 11.4945  -2
  -2  -9  12 113.843 11.4945   1
  -1   0  12 542.612 24.7631  -2
  -1  -9  12 542.612 24.7631   1
   0  -1  12 364.850 18.1035  -2
   0  -9  12 364.850 18.1035   1
   1  -2  12 18.1167 21.4967  -2
   1  -9  12 18.1167 21.4967   1
   2  -3  12 87.5584 23.0756  -2
   2  -9  12 87.5584 23.0756   1
 -11   9  12 63.1529 11.8644  -2
 -11  -8  12 63.1529 11.8644   1
  -9   7  12 332.255 21.2277  -2
  -9  -8  12 332.255 21.2277   1
  -8   6  12 -2.9389 26.2476  -2
  -8  -8  12 -2.9389 26.2476   1
  -7   5  12 39.2891 8.69704  -2
  -7  -8  12 39.2891 8.69704   1
  -6   4  12 170.216 12.1079  -2
  -6  -8  12 170.216 12.1079   1
  -5   3  12 88.9003 10.5886  -2
  -5  -8  12 88.9003 10.5886   1
  -4   2  12 634.740 29.4263  -2
  -4  -8  12 634.740 29.4263   1
  -3   1  12 97.9005 10.3779  -2
  -3  -8  12 97.9005 10.3779   1
  -2   0  12 11.9116 9.27714  -2
  -2  -8  12 11.9116 9.27714   1
  -1  -1  12 119.288 10.5003  -2
  -1  -8  12 119.288 10.5003   1
   0  -2  12 64.5928 23.6755  -2
   0  -8  12 64.5928 23.6755   1
   1  -3  12 134.147 24.0361  -2
   1  -8  12 134.147 24.0361   1
   2  -4  12 266.499 28.9866  -2
   2  -8  12 266.499 28.9866   1
 -11   8  12 159.285 13.9336  -2
 -11  -7  12 159.285 13.9336   1
  -9   6  12 28.4245 10.3485  -2
  -9  -7  12 28.4245 10.3485   1
  -8   5  12 5.59037 9.30039  -2
  -8  -7  12 5.59037 9.30039   1
  -7   4  12 34.9659 8.77558  -2
  -7  -7  12 34.9659 8.77558   1
  -6   3  12 604.193 28.0959  -2
  -6  -7  12 604.193 28.0959   1
  -5   2  12 100.337 9.87583  -2
  -5  -7  12 100.337 9.87583   1
  -4   1  12 8.18424 9.05831  -2
  -4  -7  12 8.18424 9.05831   1
  -3   0  12 440.918 26.1124  -2
  -3  -7  12 440.918 26.1124   1
  -2  -1  12 90.7065 10.6340  -2
  -2  -7  12 90.7065 10.6340   1
  -1  -2  12 1073.30 44.9394  -2
  -1  -7  12 1073.30 44.9394   1
   0  -3  12 28.2855 21.3121  -2
   0  -7  12 28.2855 21.3121   1
   1  -4  12 328.575 30.7525  -2
   1  -7  12 328.575 30.7525   1
 -12   8  12 22.9214 10.6032  -2
 -12  -6  12 22.9214 10.6032   1
 -10   6  12 82.1719 11.0911  -2
 -10  -6  12 82.1719 11.0911   1
  -9   5  12 388.818 23.8822  -2
  -9  -6  12 388.818 23.8822   1
  -8   4  12 9.38152 9.02774  -2
  -8  -6  12 9.38152 9.02774   1
  -7   3  12 87.0263 9.73180  -2
  -7  -6  12 87.0263 9.73180   1
  -6   2  12 325.282 17.6337  -2
  -6  -6  12 325.282 17.6337   1
  -5   1  12 9.28440 8.90313  -2
  -5  -6  12 9.28440 8.90313   1
  -4   0  12 94.6543 10.7642  -2
  -4  -6  12 94.6543 10.7642   1
  -3  -1  12 1205.64 66.4385  -2
  -3  -6  12 1205.64 66.4385   1
  -2  -2  12 119.537 11.5464  -2
  -2  -6  12 119.537 11.5464   1
  -1  -3  12 512.394 23.4385  -2
  -1  -6  12 512.394 23.4385   1
   0  -4  12 13.2921 20.8627  -2
   0  -6  12 13.2921 20.8627   1
   1  -5  12 1110.53 71.3871  -2
   1  -6  12 1110.53 71.3871   1
 -12   7  12 138.817 13.6601  -2
 -12  -5  12 138.817 13.6601   1
 -10   5  12 111.928 11.7964  -2
 -10  -5  12 111.928 11.7964   1
  -8   3  12 158.705 12.8224  -2
  -8  -5  12 158.705 12.8224   1
  -7   2  12 177.639 12.6152  -2
  -7  -5  12 177.639 12.6152   1
  -6   1  12 129.701 10.3020  -2
  -6  -5  12 129.701 10.3020   1
  -5   0  12 609.558 29.0739  -2
  -5  -5  12 609.558 29.0739   1
  -4  -1  12 15.1670 9.20132  -2
  -4  -5  12 15.1670 9.20132   1
  -3  -2  12 1419.91 78.0012  -2
  -3  -5  12 1419.91 78.0012   1
  -2  -3  12 21.9618 9.01958  -2
  -2  -5  12 21.9618 9.01958   1
   0  -5  12 79.3000 21.1505  -2
   0  -5  12 79.3000 21.1505   1
   1  -6  12 1207.06 76.8576  -2
   1  -5  12 1207.06 76.8576   1
 -13   7  12 9.47537 11.2203  -2
 -13  -4  12 9.47537 11.2203   1
 -10   4  12 95.5709 11.7194  -2
 -10  -4  12 95.5709 11.7194   1
  -8   2  12 34.9275 9.15683  -2
  -8  -4  12 34.9275 9.15683   1
  -7   1  12 180.769 12.1068  -2
  -7  -4  12 180.769 12.1068   1
  -6   0  12 147.242 11.6740  -2
  -6  -4  12 147.242 11.6740   1
  -5  -1  12 607.686 28.4205  -2
  -5  -4  12 607.686 28.4205   1
  -4  -2  12 640.150 36.6942  -2
  -4  -4  12 640.150 36.6942   1
  -3  -3  12 4.81587 9.51061  -2
  -3  -4  12 4.81587 9.51061   1
  -2  -4  12 21.2004 9.15808  -2
  -2  -4  12 21.2004 9.15808   1
   1  -7  12 320.857 15.5392  -2
   1  -4  12 320.857 15.5392   1
 -13   6  12 -5.7799 11.4367  -2
 -13  -3  12 -5.7799 11.4367   1
 -10   3  12 69.8920 9.66043  -2
 -10  -3  12 69.8920 9.66043   1
  -9   2  12 389.035 33.2196  -2
  -9  -3  12 389.035 33.2196   1
  -8   1  12 10.6205 7.65030  -2
  -8  -3  12 10.6205 7.65030   1
  -7   0  12 29.1952 8.34520  -2
  -7  -3  12 29.1952 8.34520   1
  -6  -1  12 581.975 27.5541  -2
  -6  -3  12 581.975 27.5541   1
  -5  -2  12 156.778 12.0447  -2
  -5  -3  12 156.778 12.0447   1
  -4  -3  12 1384.20 76.1028  -2
  -4  -3  12 1384.20 76.1028   1
  -3  -4  12 26.0064 10.4136  -2
  -3  -3  12 26.0064 10.4136   1
  -2  -5  12 28.6743 9.90525  -2
  -2  -3  12 28.6743 9.90525   1
   0  -7  12 9.51708 8.73446  -2
   0  -3  12 9.51708 8.73446   1
   1  -8  12 112.418 11.1448  -2
   1  -3  12 112.418 11.1448   1
 -10   2  12 4.84647 21.9178  -2
 -10  -2  12 4.84647 21.9178   1
  -9   1  12 49.2293 21.0116  -2
  -9  -2  12 49.2293 21.0116   1
  -8   0  12 10.4416 7.68176  -2
  -8  -2  12 10.4416 7.68176   1
  -7  -1  12 58.2014 8.53757  -2
  -7  -2  12 58.2014 8.53757   1
  -6  -2  12 1661.62 91.1040  -2
  -6  -2  12 1661.62 91.1040   1
  -5  -3  12 142.110 12.6790  -2
  -5  -2  12 142.110 12.6790   1
  -4  -4  12 564.724 32.5114  -2
  -4  -2  12 564.724 32.5114   1
  -3  -5  12 1431.87 78.6365  -2
  -3  -2  12 1431.87 78.6365   1
  -2  -6  12 90.9576 10.9578  -2
  -2  -2  12 90.9576 10.9578   1
  -1  -7  12 1164.76 64.2982  -2
  -1  -2  12 1164.76 64.2982   1
   0  -8  12 15.0725 9.12256  -2
   0  -2  12 15.0725 9.12256   1
   1  -9  12 18.4933 9.40549  -2
   1  -2  12 18.4933 9.40549   1
   5 -13  12 433.039 51.6989  -2
   5  -2  12 433.039 51.6989   1
   6 -14  12 -70.966 44.6622  -2
   6  -2  12 -70.966 44.6622   1
 -13   4  12 -6.2047 10.1554  -2
 -13  -1  12 -6.2047 10.1554   1
 -10   1  12 -34.107 20.6504  -2
 -10  -1  12 -34.107 20.6504   1
  -9   0  12 31.2379 20.8751  -2
  -9  -1  12 31.2379 20.8751   1
  -8  -1  12 307.102 14.5242  -2
  -8  -1  12 307.102 14.5242   1
  -7  -2  12 61.6972 8.22098  -2
  -7  -1  12 61.6972 8.22098   1
  -6  -3  12 548.046 31.8461  -2
  -6  -1  12 548.046 31.8461   1
  -5  -4  12 707.349 40.1641  -2
  -5  -1  12 707.349 40.1641   1
  -4  -5  12 17.6325 9.00891  -2
  -4  -1  12 17.6325 9.00891   1
  -3  -6  12 1183.32 65.2466  -2
  -3  -1  12 1183.32 65.2466   1
  -2  -7  12 60.8235 10.4531  -2
  -2  -1  12 60.8235 10.4531   1
  -1  -8  12 132.166 12.0854  -2
  -1  -1  12 132.166 12.0854   1
   4 -13  12 15.2449 37.4476  -2
   4  -1  12 15.2449 37.4476   1
   5 -14  12 87.5227 41.9243  -2
   5  -1  12 87.5227 41.9243   1
   6 -15  12 27.8518 43.3640  -2
   6  -1  12 27.8518 43.3640   1
 -10   0  12 13.4280 20.8543  -2
 -10   0  12 13.4280 20.8543   1
  -9  -1  12 36.4001 20.7006  -2
  -9   0  12 36.4001 20.7006   1
  -8  -2  12 4.83555 8.01925  -2
  -8   0  12 4.83555 8.01925   1
  -7  -3  12 54.3785 8.22816  -2
  -7   0  12 54.3785 8.22816   1
  -6  -4  12 163.327 13.2541  -2
  -6   0  12 163.327 13.2541   1
  -5  -5  12 550.666 31.8351  -2
  -5   0  12 550.666 31.8351   1
  -4  -6  12 81.4632 10.5962  -2
  -4   0  12 81.4632 10.5962   1
  -3  -7  12 451.367 26.9081  -2
  -3   0  12 451.367 26.9081   1
  -2  -8  12 17.2636 9.72270  -2
  -2   0  12 17.2636 9.72270   1
  -1  -9  12 549.764 31.6756  -2
  -1   0  12 549.764 31.6756   1
   0 -10  12 1331.21 73.1585  -2
   0   0  12 1331.21 73.1585   1
   4 -14  12 202.687 41.9140  -2
   4   0  12 202.687 41.9140   1
   5 -15  12 553.829 55.2735  -2
   5   0  12 553.829 55.2735   1
  -9  -2  12 20.3707 14.3165  -2
  -9   1  12 20.3707 14.3165   1
  -8  -3  12 2.75475 8.26865  -2
  -8   1  12 2.75475 8.26865   1
  -7  -4  12 184.056 11.5290  -2
  -7   1  12 184.056 11.5290   1
  -6  -5  12 170.395 11.4440  -2
  -6   1  12 170.395 11.4440   1
  -5  -6  12 40.8571 8.70223  -2
  -5   1  12 40.8571 8.70223   1
  -4  -7  12 28.7495 9.50630  -2
  -4   1  12 28.7495 9.50630   1
  -3  -8  12 86.6095 10.6174  -2
  -3   1  12 86.6095 10.6174   1
  -2  -9  12 130.602 11.7553  -2
  -2   1  12 130.602 11.7553   1
  -1 -10  12 820.502 31.2905  -2
  -1   1  12 820.502 31.2905   1
   0 -11  12 162.110 13.2950  -2
   0   1  12 162.110 13.2950   1
   2 -13  12 21.9823 11.1908  -2
   2   1  12 21.9823 11.1908   1
   3 -14  12 155.335 14.7568  -2
   3   1  12 155.335 14.7568   1
   4 -15  12 325.261 20.3041  -2
   4   1  12 325.261 20.3041   1
   5 -16  12 397.961 24.9542  -2
   5   1  12 397.961 24.9542   1
   6 -17  12 87.3302 15.6239  -2
   6   1  12 87.3302 15.6239   1
   7 -18  12 49.5900 14.7684  -2
   7   1  12 49.5900 14.7684   1
   8 -19  12 206.751 19.1713  -2
   8   1  12 206.751 19.1713   1
  -9  -3  12 375.027 18.6784  -2
  -9   2  12 375.027 18.6784   1
  -8  -4  12 38.2038 8.81486  -2
  -8   2  12 38.2038 8.81486   1
  -7  -5  12 238.801 12.8451  -2
  -7   2  12 238.801 12.8451   1
  -6  -6  12 360.328 17.9930  -2
  -6   2  12 360.328 17.9930   1
  -5  -7  12 137.376 12.5621  -2
  -5   2  12 137.376 12.5621   1
  -4  -8  12 735.607 26.0304  -2
  -4   2  12 735.607 26.0304   1
  -3  -9  12 334.217 20.9461  -2
  -3   2  12 334.217 20.9461   1
  -2 -10  12 0.55087 9.30623  -2
  -2   2  12 0.55087 9.30623   1
  -1 -11  12 59.3973 6.75028  -2
  -1   2  12 59.3973 6.75028   1
   0 -12  12 19.1776 10.2684  -2
   0   2  12 19.1776 10.2684   1
   1 -13  12 2.67072 10.8365  -2
   1   2  12 2.67072 10.8365   1
   2 -14  12 31.3488 11.9245  -2
   2   2  12 31.3488 11.9245   1
   3 -15  12 47.2165 12.8875  -2
   3   2  12 47.2165 12.8875   1
   4 -16  12 27.7873 13.0002  -2
   4   2  12 27.7873 13.0002   1
   5 -17  12 11.6210 14.5864  -2
   5   2  12 11.6210 14.5864   1
   6 -18  12 56.3135 15.5273  -2
   6   2  12 56.3135 15.5273   1
   8 -20  12 71.8995 15.6232  -2
   8   2  12 71.8995 15.6232   1
  -9  -4  12 300.088 15.9441  -2
  -9   3  12 300.088 15.9441   1
  -8  -5  12 173.955 11.8267  -2
  -8   3  12 173.955 11.8267   1
  -7  -6  12 85.4503 10.1495  -2
  -7   3  12 85.4503 10.1495   1
  -6  -7  12 724.970 31.7304  -2
  -6   3  12 724.970 31.7304   1
  -5  -8  12 98.0224 10.0848  -2
  -5   3  12 98.0224 10.0848   1
  -4  -9  12 480.264 21.7245  -2
  -4   3  12 480.264 21.7245   1
  -3 -10  12 299.323 13.7558  -2
  -3   3  12 299.323 13.7558   1
  -2 -11  12 130.718 8.79062  -2
  -2   3  12 130.718 8.79062   1
  -1 -12  12 579.248 19.9541  -2
  -1   3  12 579.248 19.9541   1
   0 -13  12 33.9073 7.24600  -2
   0   3  12 33.9073 7.24600   1
   1 -14  12 18.3304 7.88888  -2
   1   3  12 18.3304 7.88888   1
   2 -15  12 9.69250 11.5798  -2
   2   3  12 9.69250 11.5798   1
   3 -16  12 56.2446 9.36632  -2
   3   3  12 56.2446 9.36632   1
   4 -17  12 74.4643 9.68362  -2
   4   3  12 74.4643 9.68362   1
   8 -21  12 2.31146 16.4642  -2
   8   3  12 2.31146 16.4642   1
 -12  -2  12 11.2786 11.2482  -2
 -12   4  12 11.2786 11.2482   1
 -11  -3  12 93.3481 12.2470  -2
 -11   4  12 93.3481 12.2470   1
 -10  -4  12 58.8677 11.1212  -2
 -10   4  12 58.8677 11.1212   1
  -9  -5  12 139.710 11.6708  -2
  -9   4  12 139.710 11.6708   1
  -8  -6  12 -3.2903 7.91156  -2
  -8   4  12 -3.2903 7.91156   1
  -7  -7  12 30.5593 8.74428  -2
  -7   4  12 30.5593 8.74428   1
  -6  -8  12 160.908 11.1238  -2
  -6   4  12 160.908 11.1238   1
  -5  -9  12 66.4842 11.1879  -2
  -5   4  12 66.4842 11.1879   1
  -4 -10  12 572.918 25.2259  -2
  -4   4  12 572.918 25.2259   1
  -3 -11  12 393.448 19.0960  -2
  -3   4  12 393.448 19.0960   1
  -2 -12  12 85.2709 7.33280  -2
  -2   4  12 85.2709 7.33280   1
  -1 -13  12 260.189 12.6188  -2
  -1   4  12 260.189 12.6188   1
   0 -14  12 46.3966 7.93614  -2
   0   4  12 46.3966 7.93614   1
   1 -15  12 38.1050 8.25668  -2
   1   4  12 38.1050 8.25668   1
   2 -16  12 145.897 10.8820  -2
   2   4  12 145.897 10.8820   1
   3 -17  12 49.0257 9.47264  -2
   3   4  12 49.0257 9.47264   1
   4 -18  12 69.4563 25.0321  -2
   4   4  12 69.4563 25.0321   1
   8   4  12 20.9631 11.5320   1
 -12  -3  12 16.5649 11.8215  -2
 -12   5  12 16.5649 11.8215   1
 -11  -4  12 9.25001 11.3899  -2
 -11   5  12 9.25001 11.3899   1
 -10  -5  12 84.3177 11.9943  -2
 -10   5  12 84.3177 11.9943   1
  -9  -6  12 396.766 18.5297  -2
  -9   5  12 396.766 18.5297   1
  -8  -7  12 -4.2353 8.21810  -2
  -8   5  12 -4.2353 8.21810   1
  -7  -8  12 44.9207 8.52238  -2
  -7   5  12 44.9207 8.52238   1
  -6  -9  12 153.016 11.4599  -2
  -6   5  12 153.016 11.4599   1
  -5 -10  12 93.2018 10.7292  -2
  -5   5  12 93.2018 10.7292   1
  -4 -11  12 623.354 27.2765  -2
  -4   5  12 623.354 27.2765   1
  -3 -12  12 65.8521 7.50389  -2
  -3   5  12 65.8521 7.50389   1
  -2 -13  12 12.0115 7.24965  -2
  -2   5  12 12.0115 7.24965   1
  -1 -14  12 26.2171 7.96626  -2
  -1   5  12 26.2171 7.96626   1
   0 -15  12 229.146 12.3908  -2
   0   5  12 229.146 12.3908   1
   1 -16  12 89.0251 9.67418  -2
   1   5  12 89.0251 9.67418   1
   2 -17  12 96.4249 12.4768  -2
   2   5  12 96.4249 12.4768   1
   4 -19  12 82.4588 25.9819  -2
   4   5  12 82.4588 25.9819   1
 -13  -3  12 1.38236 12.5421  -2
 -13   6  12 1.38236 12.5421   1
 -12  -4  12 238.149 18.4659  -2
 -12   6  12 238.149 18.4659   1
 -11  -5  12 9.21598 11.7185  -2
 -11   6  12 9.21598 11.7185   1
 -10  -6  12 64.4763 11.9258  -2
 -10   6  12 64.4763 11.9258   1
  -9  -7  12 20.4233 10.8251  -2
  -9   6  12 20.4233 10.8251   1
  -8  -8  12 29.2207 8.69662  -2
  -8   6  12 29.2207 8.69662   1
  -7  -9  12 183.030 12.4949  -2
  -7   6  12 183.030 12.4949   1
  -6 -10  12 51.4748 10.4720  -2
  -6   6  12 51.4748 10.4720   1
  -5 -11  12 -0.6233 10.1285  -2
  -5   6  12 -0.6233 10.1285   1
  -4 -12  12 110.561 11.3785  -2
  -4   6  12 110.561 11.3785   1
  -3 -13  12 16.8355 7.64077  -2
  -3   6  12 16.8355 7.64077   1
  -2 -14  12 32.1835 7.90012  -2
  -2   6  12 32.1835 7.90012   1
  -1 -15  12 256.446 11.7463  -2
  -1   6  12 256.446 11.7463   1
   0 -16  12 167.798 11.3723  -2
   0   6  12 167.798 11.3723   1
   1 -17  12 24.6269 13.8576  -2
   1   6  12 24.6269 13.8576   1
   2 -18  12 64.9238 28.9178  -2
   2   6  12 64.9238 28.9178   1
   4 -20  12 53.1564 25.8614  -2
   4   6  12 53.1564 25.8614   1
 -13  -4  12 -6.6836 12.8862  -2
 -13   7  12 -6.6836 12.8862   1
 -12  -5  12 143.162 16.0142  -2
 -12   7  12 143.162 16.0142   1
 -11  -6  12 77.4594 13.0714  -2
 -11   7  12 77.4594 13.0714   1
 -10  -7  12 84.3558 12.5941  -2
 -10   7  12 84.3558 12.5941   1
  -9  -8  12 310.240 19.2480  -2
  -9   7  12 310.240 19.2480   1
  -8  -9  12 142.343 11.2856  -2
  -8   7  12 142.343 11.2856   1
  -7 -10  12 100.015 11.8382  -2
  -7   7  12 100.015 11.8382   1
  -6 -11  12 11.9273 10.5614  -2
  -6   7  12 11.9273 10.5614   1
  -5 -12  12 54.2084 10.7381  -2
  -5   7  12 54.2084 10.7381   1
  -4 -13  12 189.602 10.8375  -2
  -4   7  12 189.602 10.8375   1
  -3 -14  12 21.9941 8.32073  -2
  -3   7  12 21.9941 8.32073   1
  -2 -15  12 29.6617 9.03827  -2
  -2   7  12 29.6617 9.03827   1
  -1 -16  12 -4.6185 12.3260  -2
  -1   7  12 -4.6185 12.3260   1
   0 -17  12 5.59071 11.4378  -2
   0   7  12 5.59071 11.4378   1
 -12  -6  12 5.32985 12.9684  -2
 -12   8  12 5.32985 12.9684   1
 -11  -7  12 103.094 13.8366  -2
 -11   8  12 103.094 13.8366   1
 -10  -8  12 54.8167 12.9422  -2
 -10   8  12 54.8167 12.9422   1
  -9  -9  12 274.437 19.8657  -2
  -9   8  12 274.437 19.8657   1
  -8 -10  12 133.156 14.2565  -2
  -8   8  12 133.156 14.2565   1
  -7 -11  12 74.4431 12.0944  -2
  -7   8  12 74.4431 12.0944   1
  -6 -12  12 384.947 24.9590  -2
  -6   8  12 384.947 24.9590   1
  -5 -13  12 71.0613 8.50932  -2
  -5   8  12 71.0613 8.50932   1
  -4 -14  12 161.248 10.6263  -2
  -4   8  12 161.248 10.6263   1
  -3 -15  12 38.1072 9.37144  -2
  -3   8  12 38.1072 9.37144   1
  -2 -16  12 66.2685 9.89604  -2
  -2   8  12 66.2685 9.89604   1
   0 -18  12 84.1700 24.1190  -2
   0   8  12 84.1700 24.1190   1
   1 -19  12 17.2908 28.5430  -2
   1   8  12 17.2908 28.5430   1
 -12  -7  12 -7.7360 13.1790  -2
 -12   9  12 -7.7360 13.1790   1
 -11  -8  12 31.6104 12.6861  -2
 -11   9  12 31.6104 12.6861   1
 -10  -9  12 15.1323 12.7980  -2
 -10   9  12 15.1323 12.7980   1
  -9 -10  12 48.5481 13.0600  -2
  -9   9  12 48.5481 13.0600   1
  -8 -11  12 77.5647 13.4629  -2
  -8   9  12 77.5647 13.4629   1
  -7 -12  12 101.430 13.0804  -2
  -7   9  12 101.430 13.0804   1
  -6 -13  12 125.202 14.9302  -2
  -6   9  12 125.202 14.9302   1
  -5 -14  12 21.3740 12.9584  -2
  -5   9  12 21.3740 12.9584   1
  -4 -15  12 142.904 15.6062  -2
  -4   9  12 142.904 15.6062   1
  -3 -16  12 165.326 16.4672  -2
  -3   9  12 165.326 16.4672   1
  -2 -17  12 84.7519 13.2434  -2
  -2   9  12 84.7519 13.2434   1
 -12  -8  12 -6.7245 13.7889  -2
 -12  10  12 -6.7245 13.7889   1
 -11  -9  12 28.1575 13.0761  -2
 -11  10  12 28.1575 13.0761   1
 -10 -10  12 113.116 15.0181  -2
 -10  10  12 113.116 15.0181   1
  -9 -11  12 57.1519 13.7954  -2
  -9  10  12 57.1519 13.7954   1
  -8 -12  12 83.9606 14.1613  -2
  -8  10  12 83.9606 14.1613   1
  -7 -13  12 18.5578 11.9053  -2
  -7  10  12 18.5578 11.9053   1
  -6 -14  12 31.1394 13.3494  -2
  -6  10  12 31.1394 13.3494   1
  -5 -15  12 74.3279 14.2783  -2
  -5  10  12 74.3279 14.2783   1
  -4 -16  12 218.015 18.5621  -2
  -4  10  12 218.015 18.5621   1
  -3 -17  12 576.783 34.3429  -2
  -3  10  12 576.783 34.3429   1
   0 -20  12 46.8000 26.0038  -2
   0  10  12 46.8000 26.0038   1
 -12  11  12 1.43817 11.3473   1
 -11 -10  12 23.4250 14.1540  -2
 -11  11  12 23.4250 14.1540   1
 -10 -11  12 10.0100 13.6063  -2
 -10  11  12 10.0100 13.6063   1
  -9 -12  12 30.9587 13.8988  -2
  -9  11  12 30.9587 13.8988   1
  -8 -13  12 26.5408 12.4309  -2
  -8  11  12 26.5408 12.4309   1
  -7 -14  12 164.500 16.9339  -2
  -7  11  12 164.500 16.9339   1
  -6 -15  12 124.726 14.5326  -2
  -6  11  12 124.726 14.5326   1
  -5 -16  12 74.2225 13.2598  -2
  -5  11  12 74.2225 13.2598   1
  -4 -17  12 164.235 17.1182  -2
  -4  11  12 164.235 17.1182   1
   4  11  12 26.5516 11.6527   1
 -11 -11  12 -25.929 14.2577  -2
 -11  12  12 -25.929 14.2577   1
 -10 -12  12 14.8463 14.5112  -2
 -10  12  12 14.8463 14.5112   1
  -9 -13  12 102.368 15.4899  -2
  -9  12  12 102.368 15.4899   1
  -8 -14  12 33.6594 14.2145  -2
  -8  12  12 33.6594 14.2145   1
  -7 -15  12 41.7686 13.0763  -2
  -7  12  12 41.7686 13.0763   1
  -6 -16  12 1.91547 12.5246  -2
  -6  12  12 1.91547 12.5246   1
  -5 -17  12 99.0702 14.2600  -2
  -5  12  12 99.0702 14.2600   1
  -4 -18  12 299.060 22.5537  -2
  -4  12  12 299.060 22.5537   1
 -11  13  12 80.0790 13.2579   1
 -10 -13  12 14.0038 13.3403  -2
 -10  13  12 14.0038 13.3403   1
  -9 -14  12 38.6559 15.0213  -2
  -9  13  12 38.6559 15.0213   1
  -8 -15  12 0.33551 13.1416  -2
  -8  13  12 0.33551 13.1416   1
  -7 -16  12 19.6888 14.8270  -2
  -7  13  12 19.6888 14.8270   1
  -6 -17  12 161.062 17.4368  -2
  -6  13  12 161.062 17.4368   1
  -5 -18  12 72.4658 14.1258  -2
  -5  13  12 72.4658 14.1258   1
  -4 -19  12 224.329 20.0027  -2
  -4  13  12 224.329 20.0027   1
 -10 -14  12 7.36893 15.1401  -2
 -10  14  12 7.36893 15.1401   1
  -9 -15  12 -3.6121 13.5947  -2
  -9  14  12 -3.6121 13.5947   1
  -8 -16  12 62.4525 15.8744  -2
  -8  14  12 62.4525 15.8744   1
  -7 -17  12 53.6619 15.5106  -2
  -7  14  12 53.6619 15.5106   1
  -6 -18  12 82.8156 14.3695  -2
  -6  14  12 82.8156 14.3695   1
  -5 -19  12 43.3002 13.6442  -2
  -5  14  12 43.3002 13.6442   1
  -4 -20  12 25.3468 13.6881  -2
  -4  14  12 25.3468 13.6881   1
  -9 -16  12 25.8302 15.8014  -2
  -9  15  12 25.8302 15.8014   1
  -8 -17  12 42.0366 16.3245  -2
  -8  15  12 42.0366 16.3245   1
  -7 -18  12 21.4316 15.4627  -2
  -7  15  12 21.4316 15.4627   1
  -6 -19  12 6.20391 13.5999  -2
  -6  15  12 6.20391 13.5999   1
  -5 -20  12 57.1982 16.3258  -2
  -5  15  12 57.1982 16.3258   1
   0  15  12 59.6537 12.3005   1
  -8  16  12 4.25007 12.6727   1
  -7 -19  12 31.1031 14.5926  -2
  -7  16  12 31.1031 14.5926   1
  -6 -20  12 74.8978 16.9003  -2
  -6  16  12 74.8978 16.9003   1
  -5 -21  12 42.0788 14.5529  -2
  -5  16  12 42.0788 14.5529   1
  -4 -22  12 7.64167 14.3764  -2
  -4  16  12 7.64167 14.3764   1
  -5  15  13 5.78898 16.6587  -2
  -5 -21  13 5.78898 16.6587   1
  -6  15  13 3.87739 16.4599  -2
  -6 -20  13 3.87739 16.4599   1
  -5  14  13 3.89224 15.9764  -2
  -5 -20  13 3.89224 15.9764   1
  -7  15  13 20.4831 15.8414  -2
  -7 -19  13 20.4831 15.8414   1
  -6  14  13 -6.2457 15.7199  -2
  -6 -19  13 -6.2457 15.7199   1
  -5  13  13 156.884 17.5579  -2
  -5 -19  13 156.884 17.5579   1
   9 -19  13 55.5922 23.3011   1
  -7  14  13 9.70330 14.8210  -2
  -7 -18  13 9.70330 14.8210   1
  -6  13  13 161.661 17.4942  -2
  -6 -18  13 161.661 17.4942   1
  -5  12  13 212.798 18.1864  -2
  -5 -18  13 212.798 18.1864   1
  -3  10  13 -11.485 14.1932  -2
  -3 -18  13 -11.485 14.1932   1
  -7  13  13 28.5321 14.5435  -2
  -7 -17  13 28.5321 14.5435   1
  -6  12  13 26.4983 14.5825  -2
  -6 -17  13 26.4983 14.5825   1
  -5  11  13 56.8701 14.5170  -2
  -5 -17  13 56.8701 14.5170   1
  -7  12  13 -1.7583 13.7463  -2
  -7 -16  13 -1.7583 13.7463   1
  -6  11  13 -3.5414 13.7530  -2
  -6 -16  13 -3.5414 13.7530   1
  -5  10  13 215.970 17.9960  -2
  -5 -16  13 215.970 17.9960   1
   9  -3  13 68.1261 33.2286  -2
   9 -16  13 68.1261 33.2286   1
  -6  10  13 52.5293 13.6523  -2
  -6 -15  13 52.5293 13.6523   1
  -5   9  13 13.1538 12.9249  -2
  -5 -15  13 13.1538 12.9249   1
   8  -3  13 140.188 32.2297  -2
   8 -15  13 140.188 32.2297   1
   9  -4  13 185.701 34.1443  -2
   9 -15  13 185.701 34.1443   1
  -6   9  13 -13.873 11.9629  -2
  -6 -14  13 -13.873 11.9629   1
  -5   8  13 135.728 15.2030  -2
  -5 -14  13 135.728 15.2030   1
  -6   8  13 22.2065 11.4040  -2
  -6 -13  13 22.2065 11.4040   1
  -5   7  13 397.947 22.1936  -2
  -5 -13  13 397.947 22.1936   1
  -6   7  13 21.0551 10.6231  -2
  -6 -12  13 21.0551 10.6231   1
  -5   6  13 32.2940 10.7212  -2
  -5 -12  13 32.2940 10.7212   1
   8  -6  13 311.504 34.5605  -2
   8 -12  13 311.504 34.5605   1
  -6   6  13 98.8783 39.5145  -2
  -6 -11  13 98.8783 39.5145   1
  -5   5  13 65.9801 11.0767  -2
  -5 -11  13 65.9801 11.0767   1
   7  -6  13 20.7547 26.0767  -2
   7 -11  13 20.7547 26.0767   1
  -6   5  13 202.859 40.4300  -2
  -6 -10  13 202.859 40.4300   1
  -5   4  13 97.8700 39.3488  -2
  -5 -10  13 97.8700 39.3488   1
   7  -7  13 38.9093 25.5268  -2
   7 -10  13 38.9093 25.5268   1
  -7   5  13 30.5142 35.2924  -2
  -7  -9  13 30.5142 35.2924   1
  -6   4  13 82.2158 37.1837  -2
  -6  -9  13 82.2158 37.1837   1
  -7   4  13 5.27786 33.4169  -2
  -7  -8  13 5.27786 33.4169   1
  -6   3  13 108.768 36.9550  -2
  -6  -8  13 108.768 36.9550   1
  -7   0  13 146.704 34.8295  -2
  -7  -4  13 146.704 34.8295   1
  -5  -2  13 970.545 55.8622  -2
  -5  -4  13 970.545 55.8622   1
  -8  -1  13 137.710 35.1326  -2
  -8  -2  13 137.710 35.1326   1
   9 -18  13 41.0470 14.5613  -2
   9  -1  13 41.0470 14.5613   1
   6 -16  13 115.187 28.3294  -2
   6   0  13 115.187 28.3294   1
   8 -18  13 32.0185 15.2929  -2
   8   0  13 32.0185 15.2929   1
   9 -19  13 108.934 15.9155  -2
   9   0  13 108.934 15.9155   1
   6 -17  13 -4.8059 25.9554  -2
   6   1  13 -4.8059 25.9554   1
   7 -18  13 19.0654 15.3963  -2
   7   1  13 19.0654 15.3963   1
   8 -19  13 35.4944 15.9576  -2
   8   1  13 35.4944 15.9576   1
   6 -18  13 82.3809 14.1309  -2
   6   2  13 82.3809 14.1309   1
   8 -20  13 108.282 17.0501  -2
   8   2  13 108.282 17.0501   1
   6 -19  13 2.42234 27.3067  -2
   6   3  13 2.42234 27.3067   1
  -8  -7  13 130.528 26.6625  -2
  -8   4  13 130.528 26.6625   1
   6 -20  13 17.2081 28.0077  -2
   6   4  13 17.2081 28.0077   1
  -8  -8  13 186.757 30.4407  -2
  -8   5  13 186.757 30.4407   1
   6 -21  13 78.6705 29.6648  -2
   6   5  13 78.6705 29.6648   1
  -9  -8  13 69.3372 39.4425  -2
  -9   6  13 69.3372 39.4425   1
  -8  -9  13 607.382 47.4574  -2
  -8   6  13 607.382 47.4574   1
  -8 -10  13 253.250 33.5301  -2
  -8   7  13 253.250 33.5301   1
  -5 -13  13 417.827 24.8480  -2
  -5   7  13 417.827 24.8480   1
  -4 -14  13 82.8560 14.9971  -2
  -4   7  13 82.8560 14.9971   1
  -3 -15  13 50.6134 15.2068  -2
  -3   7  13 50.6134 15.2068   1
 -12  -7  13 20.5556 17.1305  -2
 -12   8  13 20.5556 17.1305   1
 -11  -8  13 110.471 16.7906  -2
 -11   8  13 110.471 16.7906   1
 -12  -8  13 -8.0136 16.5118  -2
 -12   9  13 -8.0136 16.5118   1
 -11  -9  13 101.138 17.1009  -2
 -11   9  13 101.138 17.1009   1
  -9 -11  13 57.3681 15.2823  -2
  -9   9  13 57.3681 15.2823   1
  -8 -12  13 32.0930 14.9922  -2
  -8   9  13 32.0930 14.9922   1
  -7 -13  13 176.149 17.9820  -2
  -7   9  13 176.149 17.9820   1
  -6 -14  13 29.3374 15.3234  -2
  -6   9  13 29.3374 15.3234   1
 -12  10  13 25.7531 12.2486   1
 -11 -10  13 215.143 20.6996  -2
 -11  10  13 215.143 20.6996   1
 -10 -11  13 85.3890 16.6935  -2
 -10  10  13 85.3890 16.6935   1
  -9 -12  13 9.69892 14.9920  -2
  -9  10  13 9.69892 14.9920   1
  -7 -14  13 46.6181 14.0084  -2
  -7  10  13 46.6181 14.0084   1
  -6 -15  13 89.6668 15.1638  -2
  -6  10  13 89.6668 15.1638   1
  -5 -16  13 234.377 19.5591  -2
  -5  10  13 234.377 19.5591   1
  -4 -17  13 145.562 18.3734  -2
  -4  10  13 145.562 18.3734   1
 -11 -11  13 86.9392 17.7226  -2
 -11  11  13 86.9392 17.7226   1
 -10 -12  13 21.1992 16.2265  -2
 -10  11  13 21.1992 16.2265   1
  -9 -13  13 45.9787 16.2913  -2
  -9  11  13 45.9787 16.2913   1
  -8 -14  13 156.168 18.3064  -2
  -8  11  13 156.168 18.3064   1
  -7 -15  13 69.9357 16.8281  -2
  -7  11  13 69.9357 16.8281   1
  -6 -16  13 20.6949 16.0795  -2
  -6  11  13 20.6949 16.0795   1
  -5 -17  13 97.4156 17.4610  -2
  -5  11  13 97.4156 17.4610   1
  -4 -18  13 126.542 18.2842  -2
  -4  11  13 126.542 18.2842   1
 -11  12  13 17.3072 11.3684   1
 -10 -13  13 65.6839 17.1843  -2
 -10  12  13 65.6839 17.1843   1
  -9 -14  13 -1.1631 16.6782  -2
  -9  12  13 -1.1631 16.6782   1
  -8 -15  13 82.9028 17.4455  -2
  -8  12  13 82.9028 17.4455   1
  -7 -16  13 -0.1805 16.5073  -2
  -7  12  13 -0.1805 16.5073   1
  -6 -17  13 103.015 17.9073  -2
  -6  12  13 103.015 17.9073   1
  -5 -18  13 264.947 22.7823  -2
  -5  12  13 264.947 22.7823   1
 -10 -14  13 -13.699 17.5448  -2
 -10  13  13 -13.699 17.5448   1
  -9 -15  13 -1.4001 17.2685  -2
  -9  13  13 -1.4001 17.2685   1
  -8 -16  13 16.5162 15.4780  -2
  -8  13  13 16.5162 15.4780   1
  -7 -17  13 18.4902 15.4493  -2
  -7  13  13 18.4902 15.4493   1
  -6 -18  13 187.022 20.3869  -2
  -6  13  13 187.022 20.3869   1
  -5 -19  13 207.026 21.2114  -2
  -5  13  13 207.026 21.2114   1
  -8 -17  13 25.4176 18.0889  -2
  -8  14  13 25.4176 18.0889   1
  -7 -18  13 25.9962 15.9909  -2
  -7  14  13 25.9962 15.9909   1
  -6 -19  13 42.2504 18.2223  -2
  -6  14  13 42.2504 18.2223   1
  -5 -20  13 41.5497 16.1256  -2
  -5  14  13 41.5497 16.1256   1
  -8  15  13 22.1847 12.7726   1
  -7 -19  13 20.7956 16.4889  -2
  -7  15  13 20.7956 16.4889   1
  -6 -20  13 31.2745 18.7619  -2
  -6  15  13 31.2745 18.7619   1
  -5 -21  13 55.6528 17.0147  -2
  -5  15  13 55.6528 17.0147   1
  -5  16  13 8.89189 11.8930   1
  -4  16  13 15.8955 11.8484   1
  -1  14  14 10.0168 15.1564  -2
  -1 -24  14 10.0168 15.1564   1
   0  13  14 -11.592 33.6514  -2
   0 -24  14 -11.592 33.6514   1
   2  11  14 -0.3161 33.2748  -2
   2 -24  14 -0.3161 33.2748   1
   4 -24  14 36.7584 23.8532   1
  -3 -23  14 2.53779 10.8385   1
  -2  14  14 38.9368 14.7794  -2
  -2 -23  14 38.9368 14.7794   1
  -1  13  14 113.088 16.3822  -2
  -1 -23  14 113.088 16.3822   1
   0  12  14 26.3519 32.9876  -2
   0 -23  14 26.3519 32.9876   1
   1  11  14 33.9094 34.8221  -2
   1 -23  14 33.9094 34.8221   1
   2  10  14 -4.0188 32.5625  -2
   2 -23  14 -4.0188 32.5625   1
   4   8  14 178.729 36.9313  -2
   4 -23  14 178.729 36.9313   1
   5   7  14 46.5749 33.2085  -2
   5 -23  14 46.5749 33.2085   1
  -4  15  14 0.73803 16.3991  -2
  -4 -22  14 0.73803 16.3991   1
  -3  14  14 27.6598 15.9547  -2
  -3 -22  14 27.6598 15.9547   1
  -2  13  14 5.97267 14.3204  -2
  -2 -22  14 5.97267 14.3204   1
   1  10  14 31.5733 33.8951  -2
   1 -22  14 31.5733 33.8951   1
   2   9  14 11.8097 33.6140  -2
   2 -22  14 11.8097 33.6140   1
   3   8  14 -8.8476 33.3529  -2
   3 -22  14 -8.8476 33.3529   1
   4   7  14 -18.103 31.5781  -2
   4 -22  14 -18.103 31.5781   1
   5   6  14 26.5973 33.9351  -2
   5 -22  14 26.5973 33.9351   1
   6   5  14 72.1125 34.4806  -2
   6 -22  14 72.1125 34.4806   1
  -5  15  14 -13.000 16.2657  -2
  -5 -21  14 -13.000 16.2657   1
  -4  14  14 33.7552 15.8040  -2
  -4 -21  14 33.7552 15.8040   1
  -3  13  14 -12.285 15.1615  -2
  -3 -21  14 -12.285 15.1615   1
  -2  12  14 38.7567 14.0996  -2
  -2 -21  14 38.7567 14.0996   1
   1   9  14 31.2754 33.1386  -2
   1 -21  14 31.2754 33.1386   1
   2   8  14 53.0888 32.8063  -2
   2 -21  14 53.0888 32.8063   1
   3   7  14 91.9591 31.6359  -2
   3 -21  14 91.9591 31.6359   1
   4   6  14 109.251 33.5245  -2
   4 -21  14 109.251 33.5245   1
   5   5  14 4.13701 31.1213  -2
   5 -21  14 4.13701 31.1213   1
   6   4  14 29.7251 31.3206  -2
   6 -21  14 29.7251 31.3206   1
   7   3  14 27.0104 32.8846  -2
   7 -21  14 27.0104 32.8846   1
  -6  15  14 1.37402 16.8727  -2
  -6 -20  14 1.37402 16.8727   1
  -5  14  14 -23.041 15.8175  -2
  -5 -20  14 -23.041 15.8175   1
  -4  13  14 62.2207 14.8900  -2
  -4 -20  14 62.2207 14.8900   1
  -3  12  14 22.2223 14.7381  -2
  -3 -20  14 22.2223 14.7381   1
   1   8  14 -7.0932 30.7009  -2
   1 -20  14 -7.0932 30.7009   1
   2   7  14 6.54430 22.1835  -2
   2 -20  14 6.54430 22.1835   1
   3   6  14 23.1957 21.6801  -2
   3 -20  14 23.1957 21.6801   1
   4   5  14 77.8644 21.3609  -2
   4 -20  14 77.8644 21.3609   1
   5   4  14 28.0366 30.0405  -2
   5 -20  14 28.0366 30.0405   1
   6   3  14 -20.892 29.8901  -2
   6 -20  14 -20.892 29.8901   1
   7   2  14 28.4062 31.5352  -2
   7 -20  14 28.4062 31.5352   1
   8   1  14 49.4108 30.4068  -2
   8 -20  14 49.4108 30.4068   1
  -7 -19  14 10.8442 10.1305   1
  -6  14  14 -22.207 16.0358  -2
  -6 -19  14 -22.207 16.0358   1
  -5  13  14 42.1246 15.2448  -2
  -5 -19  14 42.1246 15.2448   1
  -4  12  14 234.258 19.5846  -2
  -4 -19  14 234.258 19.5846   1
  -3  11  14 15.7925 14.3786  -2
  -3 -19  14 15.7925 14.3786   1
   1   7  14 676.907 51.3352  -2
   1 -19  14 676.907 51.3352   1
   2   6  14 170.086 33.7779  -2
   2 -19  14 170.086 33.7779   1
   3   5  14 19.7964 21.1368  -2
   3 -19  14 19.7964 21.1368   1
   4   4  14 34.6939 18.5834  -2
   4 -19  14 34.6939 18.5834   1
   5   3  14 -27.023 30.4593  -2
   5 -19  14 -27.023 30.4593   1
   6   2  14 195.053 32.1775  -2
   6 -19  14 195.053 32.1775   1
   7   1  14 39.9893 30.4911  -2
   7 -19  14 39.9893 30.4911   1
   8   0  14 71.3351 31.3074  -2
   8 -19  14 71.3351 31.3074   1
  -6  13  14 50.2000 15.9799  -2
  -6 -18  14 50.2000 15.9799   1
  -5  12  14 69.3141 15.3730  -2
  -5 -18  14 69.3141 15.3730   1
  -4  11  14 187.291 17.4877  -2
  -4 -18  14 187.291 17.4877   1
   0   7  14 213.021 33.2402  -2
   0 -18  14 213.021 33.2402   1
   1   6  14 335.085 35.5149  -2
   1 -18  14 335.085 35.5149   1
   2   5  14 74.9439 30.3453  -2
   2 -18  14 74.9439 30.3453   1
   3   4  14 -47.875 29.8809  -2
   3 -18  14 -47.875 29.8809   1
   4   3  14 219.830 31.6617  -2
   4 -18  14 219.830 31.6617   1
   5   2  14 33.0694 28.0895  -2
   5 -18  14 33.0694 28.0895   1
   6   1  14 4.04504 28.4077  -2
   6 -18  14 4.04504 28.4077   1
   7   0  14 61.2244 29.6203  -2
   7 -18  14 61.2244 29.6203   1
   8  -1  14 32.4410 29.2350  -2
   8 -18  14 32.4410 29.2350   1
  -6  12  14 40.8150 15.1109  -2
  -6 -17  14 40.8150 15.1109   1
  -5  11  14 23.2882 14.1697  -2
  -5 -17  14 23.2882 14.1697   1
  -4  10  14 179.186 16.7896  -2
  -4 -17  14 179.186 16.7896   1
   1   5  14 293.277 34.9049  -2
   1 -17  14 293.277 34.9049   1
   2   4  14 527.295 43.7484  -2
   2 -17  14 527.295 43.7484   1
   3   3  14 -39.661 29.0840  -2
   3 -17  14 -39.661 29.0840   1
   4   2  14 149.043 21.8697  -2
   4 -17  14 149.043 21.8697   1
   5   1  14 -36.837 26.9655  -2
   5 -17  14 -36.837 26.9655   1
   6   0  14 70.6895 29.1274  -2
   6 -17  14 70.6895 29.1274   1
   7  -1  14 172.303 30.4743  -2
   7 -17  14 172.303 30.4743   1
   8  -2  14 77.0322 27.7669  -2
   8 -17  14 77.0322 27.7669   1
   9  -3  14 59.5410 29.4366  -2
   9 -17  14 59.5410 29.4366   1
  -6  11  14 39.3014 14.8914  -2
  -6 -16  14 39.3014 14.8914   1
  -5  10  14 216.600 18.3337  -2
  -5 -16  14 216.600 18.3337   1
  -4   9  14 162.484 16.0449  -2
  -4 -16  14 162.484 16.0449   1
   2   3  14 118.397 29.4025  -2
   2 -16  14 118.397 29.4025   1
   3   2  14 10.5150 26.7274  -2
   3 -16  14 10.5150 26.7274   1
   4   1  14 12.7517 19.6750  -2
   4 -16  14 12.7517 19.6750   1
   5   0  14 44.3086 28.5605  -2
   5 -16  14 44.3086 28.5605   1
   6  -1  14 55.2901 27.6898  -2
   6 -16  14 55.2901 27.6898   1
   7  -2  14 112.235 27.2416  -2
   7 -16  14 112.235 27.2416   1
   8  -3  14 70.5492 27.6840  -2
   8 -16  14 70.5492 27.6840   1
   9  -4  14 103.983 29.3397  -2
   9 -16  14 103.983 29.3397   1
  -6  10  14 59.0169 14.0759  -2
  -6 -15  14 59.0169 14.0759   1
  -5   9  14 5.76063 13.2733  -2
  -5 -15  14 5.76063 13.2733   1
   0   4  14 29.7794 28.3092  -2
   0 -15  14 29.7794 28.3092   1
   1   3  14 152.537 29.6316  -2
   1 -15  14 152.537 29.6316   1
   3   1  14 127.121 27.3944  -2
   3 -15  14 127.121 27.3944   1
   4   0  14 171.844 28.7721  -2
   4 -15  14 171.844 28.7721   1
   5  -1  14 114.268 19.8568  -2
   5 -15  14 114.268 19.8568   1
   6  -2  14 53.6702 26.6710  -2
   6 -15  14 53.6702 26.6710   1
   7  -3  14 5.61700 26.3707  -2
   7 -15  14 5.61700 26.3707   1
   8  -4  14 46.9216 26.1789  -2
   8 -15  14 46.9216 26.1789   1
  -6   9  14 11.9081 13.0067  -2
  -6 -14  14 11.9081 13.0067   1
  -5   8  14 39.8382 13.5019  -2
  -5 -14  14 39.8382 13.5019   1
  -1   4  14 50.7130 26.7414  -2
  -1 -14  14 50.7130 26.7414   1
   0   3  14 16.6583 25.1617  -2
   0 -14  14 16.6583 25.1617   1
   1   2  14 353.848 35.4430  -2
   1 -14  14 353.848 35.4430   1
   2   1  14 4.25095 24.7221  -2
   2 -14  14 4.25095 24.7221   1
   3   0  14 19.9233 25.0889  -2
   3 -14  14 19.9233 25.0889   1
   4  -1  14 48.8931 25.4107  -2
   4 -14  14 48.8931 25.4107   1
   5  -2  14 4.32261 19.0383  -2
   5 -14  14 4.32261 19.0383   1
   6  -3  14 305.323 32.7534  -2
   6 -14  14 305.323 32.7534   1
   7  -4  14 34.9227 25.4752  -2
   7 -14  14 34.9227 25.4752   1
   8  -5  14 23.7438 25.1638  -2
   8 -14  14 23.7438 25.1638   1
  -5   7  14 -11.970 12.5963  -2
  -5 -13  14 -11.970 12.5963   1
  -2   4  14 124.735 18.5535  -2
  -2 -13  14 124.735 18.5535   1
  -1   3  14 603.214 45.7936  -2
  -1 -13  14 603.214 45.7936   1
   0   2  14 93.4448 25.7929  -2
   0 -13  14 93.4448 25.7929   1
   1   1  14 23.1341 25.3899  -2
   1 -13  14 23.1341 25.3899   1
   2   0  14 -22.402 26.9721  -2
   2 -13  14 -22.402 26.9721   1
   4  -2  14 1008.10 65.9413  -2
   4 -13  14 1008.10 65.9413   1
   5  -3  14 109.917 26.8626  -2
   5 -13  14 109.917 26.8626   1
   6  -4  14 133.870 26.8702  -2
   6 -13  14 133.870 26.8702   1
   7  -5  14 -8.3164 24.0393  -2
   7 -13  14 -8.3164 24.0393   1
   8  -6  14 38.3062 24.2185  -2
   8 -13  14 38.3062 24.2185   1
  10  -8  14 7.33259 28.6772  -2
  10 -13  14 7.33259 28.6772   1
  -5   6  14 4.01392 12.0344  -2
  -5 -12  14 4.01392 12.0344   1
  -4   5  14 14.5031 22.7855  -2
  -4 -12  14 14.5031 22.7855   1
  -3   4  14 8.15918 16.3790  -2
  -3 -12  14 8.15918 16.3790   1
  -2   3  14 233.778 28.4549  -2
  -2 -12  14 233.778 28.4549   1
  -1   2  14 387.502 19.8898  -2
  -1 -12  14 387.502 19.8898   1
   0   1  14 31.7940 24.4086  -2
   0 -12  14 31.7940 24.4086   1
   1   0  14 5.39724 25.1824  -2
   1 -12  14 5.39724 25.1824   1
   2  -1  14 204.130 27.6585  -2
   2 -12  14 204.130 27.6585   1
   4  -3  14 340.709 32.9428  -2
   4 -12  14 340.709 32.9428   1
   5  -4  14 6.84322 23.7362  -2
   5 -12  14 6.84322 23.7362   1
   6  -5  14 36.3578 24.4598  -2
   6 -12  14 36.3578 24.4598   1
   7  -6  14 111.006 25.2146  -2
   7 -12  14 111.006 25.2146   1
  10  -9  14 32.8831 25.7882  -2
  10 -12  14 32.8831 25.7882   1
  -4   4  14 139.567 26.0222  -2
  -4 -11  14 139.567 26.0222   1
  -3   3  14 45.4568 23.0380  -2
  -3 -11  14 45.4568 23.0380   1
  -2   2  14 407.757 34.8133  -2
  -2 -11  14 407.757 34.8133   1
  -1   1  14 48.3377 24.5806  -2
  -1 -11  14 48.3377 24.5806   1
   0   0  14 121.156 26.4636  -2
   0 -11  14 121.156 26.4636   1
   1  -1  14 403.593 20.3330  -2
   1 -11  14 403.593 20.3330   1
   2  -2  14 172.332 12.3681  -2
   2 -11  14 172.332 12.3681   1
   4  -4  14 71.5149 24.7324  -2
   4 -11  14 71.5149 24.7324   1
   5  -5  14 161.874 26.5850  -2
   5 -11  14 161.874 26.5850   1
   6  -6  14 117.132 25.4068  -2
   6 -11  14 117.132 25.4068   1
   7  -7  14 153.368 26.0202  -2
   7 -11  14 153.368 26.0202   1
   9  -9  14 67.9296 26.2264  -2
   9 -11  14 67.9296 26.2264   1
  10 -10  14 122.289 27.7752  -2
  10 -11  14 122.289 27.7752   1
  -8   7  14 125.089 28.4774  -2
  -8 -10  14 125.089 28.4774   1
  -4   3  14 148.407 24.8396  -2
  -4 -10  14 148.407 24.8396   1
  -3   2  14 35.9279 22.3510  -2
  -3 -10  14 35.9279 22.3510   1
  -2   1  14 1431.68 90.4390  -2
  -2 -10  14 1431.68 90.4390   1
  -1   0  14 334.567 31.2273  -2
  -1 -10  14 334.567 31.2273   1
   0  -1  14 30.4273 24.8626  -2
   0 -10  14 30.4273 24.8626   1
   1  -2  14 240.274 14.2143  -2
   1 -10  14 240.274 14.2143   1
   2  -3  14 5.33040 24.3461  -2
   2 -10  14 5.33040 24.3461   1
   5  -6  14 22.3160 22.7272  -2
   5 -10  14 22.3160 22.7272   1
   6  -7  14 11.7200 23.8416  -2
   6 -10  14 11.7200 23.8416   1
   9 -10  14 232.855 29.4439  -2
   9 -10  14 232.855 29.4439   1
  10 -11  14 156.188 28.0432  -2
  10 -10  14 156.188 28.0432   1
  -4   2  14 820.156 55.1108  -2
  -4  -9  14 820.156 55.1108   1
  -2   0  14 888.305 59.6695  -2
  -2  -9  14 888.305 59.6695   1
  -1  -1  14 118.275 25.7497  -2
  -1  -9  14 118.275 25.7497   1
   0  -2  14 76.0530 10.0634  -2
   0  -9  14 76.0530 10.0634   1
   1  -3  14 566.885 26.0411  -2
   1  -9  14 566.885 26.0411   1
   2  -4  14 23.5087 22.3993  -2
   2  -9  14 23.5087 22.3993   1
   5  -7  14 -11.235 18.8549  -2
   5  -9  14 -11.235 18.8549   1
   6  -8  14 57.3027 15.2956  -2
   6  -9  14 57.3027 15.2956   1
   7  -9  14 37.2038 14.5730  -2
   7  -9  14 37.2038 14.5730   1
   9 -11  14 58.6746 24.6960  -2
   9  -9  14 58.6746 24.6960   1
  10 -12  14 49.8929 25.6137  -2
  10  -9  14 49.8929 25.6137   1
  -3   0  14 147.369 23.5241  -2
  -3  -8  14 147.369 23.5241   1
  -2  -1  14 73.2666 21.5719  -2
  -2  -8  14 73.2666 21.5719   1
  -1  -2  14 500.895 38.5073  -2
  -1  -8  14 500.895 38.5073   1
   0  -3  14 49.4937 9.38523  -2
   0  -8  14 49.4937 9.38523   1
   1  -4  14 1097.34 72.0036  -2
   1  -8  14 1097.34 72.0036   1
   5  -8  14 0.49990 13.4095  -2
   5  -8  14 0.49990 13.4095   1
   6  -9  14 106.553 16.2463  -2
   6  -8  14 106.553 16.2463   1
   7 -10  14 10.6425 19.7072  -2
   7  -8  14 10.6425 19.7072   1
   9 -12  14 117.994 25.9831  -2
   9  -8  14 117.994 25.9831   1
  10 -13  14 50.2227 28.0034  -2
  10  -8  14 50.2227 28.0034   1
  -2  -2  14 176.537 25.2960  -2
  -2  -7  14 176.537 25.2960   1
  -1  -3  14 545.585 40.3187  -2
  -1  -7  14 545.585 40.3187   1
   0  -4  14 13.3398 22.7221  -2
   0  -7  14 13.3398 22.7221   1
   1  -5  14 267.965 27.9717  -2
   1  -7  14 267.965 27.9717   1
   5  -9  14 0.27189 17.4960  -2
   5  -7  14 0.27189 17.4960   1
   6 -10  14 27.2492 18.4528  -2
   6  -7  14 27.2492 18.4528   1
   7 -11  14 85.4950 20.8683  -2
   7  -7  14 85.4950 20.8683   1
   8 -12  14 -26.387 25.5277  -2
   8  -7  14 -26.387 25.5277   1
   9 -13  14 172.125 29.6297  -2
   9  -7  14 172.125 29.6297   1
  -1  -4  14 156.668 23.7445  -2
  -1  -6  14 156.668 23.7445   1
   0  -5  14 85.2941 20.9963  -2
   0  -6  14 85.2941 20.9963   1
   1  -6  14 463.891 36.6838  -2
   1  -6  14 463.891 36.6838   1
   4  -9  14 38.7542 18.0017  -2
   4  -6  14 38.7542 18.0017   1
   5 -10  14 16.4390 17.3681  -2
   5  -6  14 16.4390 17.3681   1
   6 -11  14 57.0972 19.2516  -2
   6  -6  14 57.0972 19.2516   1
   7 -12  14 43.0355 18.9281  -2
   7  -6  14 43.0355 18.9281   1
   8 -13  14 8.34344 23.9425  -2
   8  -6  14 8.34344 23.9425   1
   9 -14  14 43.0589 24.1055  -2
   9  -6  14 43.0589 24.1055   1
   0  -6  14 137.194 23.6753  -2
   0  -5  14 137.194 23.6753   1
   1  -7  14 265.911 27.2946  -2
   1  -5  14 265.911 27.2946   1
   4 -10  14 52.6015 18.7702  -2
   4  -5  14 52.6015 18.7702   1
   5 -11  14 76.1792 19.8368  -2
   5  -5  14 76.1792 19.8368   1
   6 -12  14 26.3178 18.2348  -2
   6  -5  14 26.3178 18.2348   1
   7 -13  14 10.9475 18.1378  -2
   7  -5  14 10.9475 18.1378   1
   8 -14  14 49.9894 10.7885  -2
   8  -5  14 49.9894 10.7885   1
   9 -15  14 41.3425 24.5020  -2
   9  -5  14 41.3425 24.5020   1
   4 -11  14 64.3554 19.3894  -2
   4  -4  14 64.3554 19.3894   1
   5 -12  14 -3.7832 14.3752  -2
   5  -4  14 -3.7832 14.3752   1
   6 -13  14 53.9301 19.2688  -2
   6  -4  14 53.9301 19.2688   1
   7 -14  14 18.5651 9.14813  -2
   7  -4  14 18.5651 9.14813   1
   8 -15  14 8.55048 11.1008  -2
   8  -4  14 8.55048 11.1008   1
   9 -16  14 17.8137 11.1778  -2
   9  -4  14 17.8137 11.1778   1
   4 -12  14 126.112 22.0488  -2
   4  -3  14 126.112 22.0488   1
   5 -13  14 97.6242 15.3299  -2
   5  -3  14 97.6242 15.3299   1
   6 -14  14 294.279 17.2514  -2
   6  -3  14 294.279 17.2514   1
   7 -15  14 37.1551 9.50509  -2
   7  -3  14 37.1551 9.50509   1
   8 -16  14 26.4687 11.0189  -2
   8  -3  14 26.4687 11.0189   1
   9 -17  14 9.63561 11.8257  -2
   9  -3  14 9.63561 11.8257   1
   2 -11  14 216.265 25.8035  -2
   2  -2  14 216.265 25.8035   1
   3 -12  14 1.67548 17.3857  -2
   3  -2  14 1.67548 17.3857   1
   4 -13  14 315.269 33.8890  -2
   4  -2  14 315.269 33.8890   1
   5 -14  14 21.3499 9.29221  -2
   5  -2  14 21.3499 9.29221   1
   6 -15  14 2.93510 14.9600  -2
   6  -2  14 2.93510 14.9600   1
   7 -16  14 157.720 13.2175  -2
   7  -2  14 157.720 13.2175   1
   8 -17  14 40.3823 11.1323  -2
   8  -2  14 40.3823 11.1323   1
   9 -18  14 120.088 13.9363  -2
   9  -2  14 120.088 13.9363   1
   2 -12  14 68.5585 22.4851  -2
   2  -1  14 68.5585 22.4851   1
   3 -13  14 0.19017 21.3585  -2
   3  -1  14 0.19017 21.3585   1
   4 -14  14 75.1331 10.1078  -2
   4  -1  14 75.1331 10.1078   1
   5 -15  14 173.064 13.6913  -2
   5  -1  14 173.064 13.6913   1
   6 -16  14 52.7150 10.5114  -2
   6  -1  14 52.7150 10.5114   1
   7 -17  14 158.412 13.5561  -2
   7  -1  14 158.412 13.5561   1
   8 -18  14 19.6872 11.3424  -2
   8  -1  14 19.6872 11.3424   1
  -1 -10  14 135.610 24.8479  -2
  -1   0  14 135.610 24.8479   1
   0 -11  14 36.9579 21.6679  -2
   0   0  14 36.9579 21.6679   1
   1 -12  14 7.77029 8.72713  -2
   1   0  14 7.77029 8.72713   1
   2 -13  14 10.7008 9.27096  -2
   2   0  14 10.7008 9.27096   1
   3 -14  14 34.9567 6.97616  -2
   3   0  14 34.9567 6.97616   1
   4 -15  14 214.700 14.7451  -2
   4   0  14 214.700 14.7451   1
   5 -16  14 55.9303 10.3771  -2
   5   0  14 55.9303 10.3771   1
   6 -17  14 47.5967 10.5224  -2
   6   0  14 47.5967 10.5224   1
   7 -18  14 19.8452 11.8596  -2
   7   0  14 19.8452 11.8596   1
   8 -19  14 -3.0704 13.1750  -2
   8   0  14 -3.0704 13.1750   1
   1 -13  14 71.2412 11.0823  -2
   1   1  14 71.2412 11.0823   1
   2 -14  14 -5.1947 8.05050  -2
   2   1  14 -5.1947 8.05050   1
   3 -15  14 86.4142 8.25629  -2
   3   1  14 86.4142 8.25629   1
   4 -16  14 21.1478 10.1358  -2
   4   1  14 21.1478 10.1358   1
   5 -17  14 -11.186 10.1071  -2
   5   1  14 -11.186 10.1071   1
   6 -18  14 23.9066 10.4793  -2
   6   1  14 23.9066 10.4793   1
   7 -19  14 83.6155 28.1192  -2
   7   1  14 83.6155 28.1192   1
   8 -20  14 0.37728 13.6003  -2
   8   1  14 0.37728 13.6003   1
   1 -14  14 316.381 14.7048  -2
   1   2  14 316.381 14.7048   1
   2 -15  14 -0.9540 8.28984  -2
   2   2  14 -0.9540 8.28984   1
   3 -16  14 33.2744 8.26296  -2
   3   2  14 33.2744 8.26296   1
   4 -17  14 203.452 14.6729  -2
   4   2  14 203.452 14.6729   1
   5 -18  14 2.42952 26.1814  -2
   5   2  14 2.42952 26.1814   1
   6 -19  14 80.7409 18.1076  -2
   6   2  14 80.7409 18.1076   1
  -6  -8  14 61.2467 22.7546  -2
  -6   3  14 61.2467 22.7546   1
  -2 -12  14 235.145 17.0577  -2
  -2   3  14 235.145 17.0577   1
  -1 -13  14 552.856 22.3940  -2
  -1   3  14 552.856 22.3940   1
   0 -14  14 4.96491 8.08203  -2
   0   3  14 4.96491 8.08203   1
   1 -15  14 126.746 10.0933  -2
   1   3  14 126.746 10.0933   1
   2 -16  14 137.905 10.2748  -2
   2   3  14 137.905 10.2748   1
   3 -17  14 12.3589 8.56607  -2
   3   3  14 12.3589 8.56607   1
   4 -18  14 184.475 25.8037  -2
   4   3  14 184.475 25.8037   1
   5 -19  14 1.74980 25.8312  -2
   5   3  14 1.74980 25.8312   1
   6 -20  14 -5.6557 17.4205  -2
   6   3  14 -5.6557 17.4205   1
  -6  -9  14 11.2852 22.9860  -2
  -6   4  14 11.2852 22.9860   1
  -4 -11  14 354.125 32.0471  -2
  -4   4  14 354.125 32.0471   1
  -3 -12  14 47.0645 11.9315  -2
  -3   4  14 47.0645 11.9315   1
  -2 -13  14 150.994 10.2826  -2
  -2   4  14 150.994 10.2826   1
  -1 -14  14 45.3758 8.68424  -2
  -1   4  14 45.3758 8.68424   1
   0 -15  14 -2.5404 8.65342  -2
   0   4  14 -2.5404 8.65342   1
   1 -16  14 104.596 14.1153  -2
   1   4  14 104.596 14.1153   1
   2 -17  14 539.774 32.5096  -2
   2   4  14 539.774 32.5096   1
   4 -19  14 -5.5852 24.4330  -2
   4   4  14 -5.5852 24.4330   1
   5 -20  14 -0.9165 25.8674  -2
   5   4  14 -0.9165 25.8674   1
   6 -21  14 -3.5319 23.1007  -2
   6   4  14 -3.5319 23.1007   1
  -4 -12  14 9.65121 10.4677  -2
  -4   5  14 9.65121 10.4677   1
  -3 -13  14 10.4172 10.6936  -2
  -3   5  14 10.4172 10.6936   1
  -2 -14  14 349.356 16.2734  -2
  -2   5  14 349.356 16.2734   1
  -1 -15  14 275.913 14.3310  -2
  -1   5  14 275.913 14.3310   1
   0 -16  14 77.0300 10.0750  -2
   0   5  14 77.0300 10.0750   1
   4 -20  14 24.8474 24.5937  -2
   4   5  14 24.8474 24.5937   1
   6 -22  14 -38.322 35.4610  -2
   6   5  14 -38.322 35.4610   1
  -4 -13  14 120.515 12.3892  -2
  -4   6  14 120.515 12.3892   1
  -3 -14  14 37.8031 11.4428  -2
  -3   6  14 37.8031 11.4428   1
  -2 -15  14 304.543 13.6867  -2
  -2   6  14 304.543 13.6867   1
  -1 -16  14 29.3969 9.63758  -2
  -1   6  14 29.3969 9.63758   1
   0 -17  14 6.00913 14.2385  -2
   0   6  14 6.00913 14.2385   1
   4 -21  14 41.9834 23.0854  -2
   4   6  14 41.9834 23.0854   1
   6 -23  14 -16.145 35.2032  -2
   6   6  14 -16.145 35.2032   1
  -4 -14  14 295.024 20.5143  -2
  -4   7  14 295.024 20.5143   1
  -3 -15  14 16.6005 13.9588  -2
  -3   7  14 16.6005 13.9588   1
  -2 -16  14 32.2352 9.48522  -2
  -2   7  14 32.2352 9.48522   1
  -1 -17  14 129.768 16.8851  -2
  -1   7  14 129.768 16.8851   1
  -3 -16  14 21.7435 15.0106  -2
  -3   8  14 21.7435 15.0106   1
  -2 -17  14 133.275 16.5988  -2
  -2   8  14 133.275 16.5988   1
  -1 -18  14 198.389 28.0012  -2
  -1   8  14 198.389 28.0012   1
  -4 -16  14 240.819 20.7098  -2
  -4   9  14 240.819 20.7098   1
  -3 -17  14 64.7814 15.7038  -2
  -3   9  14 64.7814 15.7038   1
  -5 -17  14 17.9019 16.6184  -2
  -5  11  14 17.9019 16.6184   1
  -5 -18  14 128.899 18.9970  -2
  -5  12  14 128.899 18.9970   1
  -6 -18  14 94.0663 18.7187  -2
  -6  13  14 94.0663 18.7187   1
  -5 -19  14 82.2963 18.7118  -2
  -5  13  14 82.2963 18.7118   1
  -6 -19  14 30.1461 18.6533  -2
  -6  14  14 30.1461 18.6533   1
  -5 -20  14 27.2092 18.4689  -2
  -5  14  14 27.2092 18.4689   1
  -6 -20  14 68.0572 20.0649  -2
  -6  15  14 68.0572 20.0649   1
  -5 -21  14 22.0104 17.2373  -2
  -5  15  14 22.0104 17.2373   1
  -1  13  15 26.8495 13.3048  -2
  -1 -24  15 26.8495 13.3048   1
   0  12  15 40.8178 29.7884  -2
   0 -24  15 40.8178 29.7884   1
   1  11  15 6.61273 27.7576  -2
   1 -24  15 6.61273 27.7576   1
   2  10  15 36.8888 19.3108  -2
   2 -24  15 36.8888 19.3108   1
   3   9  15 -26.312 19.0780  -2
   3 -24  15 -26.312 19.0780   1
   4   8  15 17.2149 24.0585  -2
   4 -24  15 17.2149 24.0585   1
  -3 -23  15 21.3326 11.1148   1
  -2  13  15 -25.075 11.9093  -2
  -2 -23  15 -25.075 11.9093   1
   0  11  15 -0.4384 29.2882  -2
   0 -23  15 -0.4384 29.2882   1
   1  10  15 8.65300 15.2189  -2
   1 -23  15 8.65300 15.2189   1
   2   9  15 12.5884 18.5234  -2
   2 -23  15 12.5884 18.5234   1
   3   8  15 52.4985 15.2817  -2
   3 -23  15 52.4985 15.2817   1
   4   7  15 33.5208 19.1702  -2
   4 -23  15 33.5208 19.1702   1
   5   6  15 49.6534 18.8692  -2
   5 -23  15 49.6534 18.8692   1
  -4  14  15 50.9315 13.7976  -2
  -4 -22  15 50.9315 13.7976   1
  -3  13  15 5.59892 13.5424  -2
  -3 -22  15 5.59892 13.5424   1
  -2  12  15 2.79063 12.2829  -2
  -2 -22  15 2.79063 12.2829   1
  -1  11  15 48.6899 29.1302  -2
  -1 -22  15 48.6899 29.1302   1
   1   9  15 24.7131 15.8512  -2
   1 -22  15 24.7131 15.8512   1
   2   8  15 26.6224 15.6526  -2
   2 -22  15 26.6224 15.6526   1
   3   7  15 29.1224 15.2525  -2
   3 -22  15 29.1224 15.2525   1
   4   6  15 -7.3674 17.9922  -2
   4 -22  15 -7.3674 17.9922   1
   5   5  15 -5.7485 18.6677  -2
   5 -22  15 -5.7485 18.6677   1
  -5  14  15 19.4079 14.4120  -2
  -5 -21  15 19.4079 14.4120   1
  -4  13  15 4.06183 13.9266  -2
  -4 -21  15 4.06183 13.9266   1
  -3  12  15 76.6953 13.9300  -2
  -3 -21  15 76.6953 13.9300   1
  -1  10  15 150.044 30.1045  -2
  -1 -21  15 150.044 30.1045   1
   0   9  15 25.6059 19.1558  -2
   0 -21  15 25.6059 19.1558   1
   1   8  15 -20.468 14.2542  -2
   1 -21  15 -20.468 14.2542   1
   2   7  15 31.8277 14.8827  -2
   2 -21  15 31.8277 14.8827   1
   3   6  15 12.6078 14.3196  -2
   3 -21  15 12.6078 14.3196   1
  -6  14  15 2.92662 14.5514  -2
  -6 -20  15 2.92662 14.5514   1
  -5  13  15 -9.7991 13.0582  -2
  -5 -20  15 -9.7991 13.0582   1
  -4  12  15 11.5877 13.3270  -2
  -4 -20  15 11.5877 13.3270   1
  -3  11  15 16.4744 12.8770  -2
  -3 -20  15 16.4744 12.8770   1
  -1   9  15 -17.886 29.1539  -2
  -1 -20  15 -17.886 29.1539   1
   0   8  15 13.8975 15.5613  -2
   0 -20  15 13.8975 15.5613   1
   1   7  15 16.0947 14.4851  -2
   1 -20  15 16.0947 14.4851   1
   3   5  15 23.7357 13.6245  -2
   3 -20  15 23.7357 13.6245   1
  -6  13  15 27.7517 14.0684  -2
  -6 -19  15 27.7517 14.0684   1
  -5  12  15 37.5446 13.6781  -2
  -5 -19  15 37.5446 13.6781   1
  -4  11  15 29.0101 12.2375  -2
  -4 -19  15 29.0101 12.2375   1
  -1   8  15 14.7979 27.2712  -2
  -1 -19  15 14.7979 27.2712   1
   0   7  15 487.395 28.0966  -2
   0 -19  15 487.395 28.0966   1
   1   6  15 85.7659 14.1314  -2
   1 -19  15 85.7659 14.1314   1
   2   5  15 129.747 14.6003  -2
   2 -19  15 129.747 14.6003   1
   3   4  15 -5.1767 13.1207  -2
   3 -19  15 -5.1767 13.1207   1
   4   3  15 41.5232 14.7472  -2
   4 -19  15 41.5232 14.7472   1
   5   2  15 224.132 19.3295  -2
   5 -19  15 224.132 19.3295   1
  -6  12  15 30.7624 13.3885  -2
  -6 -18  15 30.7624 13.3885   1
  -5  11  15 53.1639 12.8535  -2
  -5 -18  15 53.1639 12.8535   1
  -4  10  15 64.6514 12.4935  -2
  -4 -18  15 64.6514 12.4935   1
  -1   7  15 164.885 27.8330  -2
  -1 -18  15 164.885 27.8330   1
   0   6  15 106.781 27.1528  -2
   0 -18  15 106.781 27.1528   1
   1   5  15 29.2030 17.8777  -2
   1 -18  15 29.2030 17.8777   1
   2   4  15 -17.292 17.5421  -2
   2 -18  15 -17.292 17.5421   1
   3   3  15 31.3413 17.4639  -2
   3 -18  15 31.3413 17.4639   1
   4   2  15 50.3785 13.9574  -2
   4 -18  15 50.3785 13.9574   1
   5   1  15 136.113 19.0227  -2
   5 -18  15 136.113 19.0227   1
   6   0  15 5.89945 12.9248  -2
   6 -18  15 5.89945 12.9248   1
   7  -1  15 -2.7412 15.8538  -2
   7 -18  15 -2.7412 15.8538   1
   8  -2  15 126.071 21.1964  -2
   8 -18  15 126.071 21.1964   1
  -6  11  15 105.579 13.9932  -2
  -6 -17  15 105.579 13.9932   1
  -5  10  15 -8.6217 12.6997  -2
  -5 -17  15 -8.6217 12.6997   1
  -4   9  15 234.483 16.9515  -2
  -4 -17  15 234.483 16.9515   1
  -2   7  15 14.4730 17.7629  -2
  -2 -17  15 14.4730 17.7629   1
  -1   6  15 47.5202 17.7326  -2
  -1 -17  15 47.5202 17.7326   1
   0   5  15 29.1875 16.7985  -2
   0 -17  15 29.1875 16.7985   1
   1   4  15 59.8538 17.0187  -2
   1 -17  15 59.8538 17.0187   1
   2   3  15 75.8852 17.0124  -2
   2 -17  15 75.8852 17.0124   1
   3   2  15 16.7130 16.1603  -2
   3 -17  15 16.7130 16.1603   1
   4   1  15 10.9885 16.5136  -2
   4 -17  15 10.9885 16.5136   1
   5   0  15 40.6141 12.9611  -2
   5 -17  15 40.6141 12.9611   1
   6  -1  15 31.2173 13.0106  -2
   6 -17  15 31.2173 13.0106   1
   7  -2  15 60.9098 13.6242  -2
   7 -17  15 60.9098 13.6242   1
   8  -3  15 78.9291 13.4212  -2
   8 -17  15 78.9291 13.4212   1
  -6  10  15 476.801 27.5313  -2
  -6 -16  15 476.801 27.5313   1
  -5   9  15 118.003 13.8753  -2
  -5 -16  15 118.003 13.8753   1
  -3   7  15 15.7939 24.0547  -2
  -3 -16  15 15.7939 24.0547   1
  -2   6  15 5.11229 16.5488  -2
  -2 -16  15 5.11229 16.5488   1
  -1   5  15 64.6328 22.4952  -2
  -1 -16  15 64.6328 22.4952   1
   0   4  15 146.683 27.9690  -2
   0 -16  15 146.683 27.9690   1
   1   3  15 33.6002 24.1953  -2
   1 -16  15 33.6002 24.1953   1
   2   2  15 71.1685 16.8478  -2
   2 -16  15 71.1685 16.8478   1
   3   1  15 -5.9468 15.9694  -2
   3 -16  15 -5.9468 15.9694   1
   4   0  15 220.292 18.6726  -2
   4 -16  15 220.292 18.6726   1
   5  -1  15 186.928 19.0992  -2
   5 -16  15 186.928 19.0992   1
   6  -2  15 13.4489 12.6811  -2
   6 -16  15 13.4489 12.6811   1
   7  -3  15 13.3829 12.6730  -2
   7 -16  15 13.3829 12.6730   1
   8  -4  15 19.2211 12.9829  -2
   8 -16  15 19.2211 12.9829   1
   9  -5  15 -3.9169 26.7189  -2
   9 -16  15 -3.9169 26.7189   1
  -5   8  15 34.8215 11.6473  -2
  -5 -15  15 34.8215 11.6473   1
  -3   6  15 70.7006 23.4272  -2
  -3 -15  15 70.7006 23.4272   1
  -2   5  15 28.3655 16.3464  -2
  -2 -15  15 28.3655 16.3464   1
  -1   4  15 6.27312 15.8319  -2
  -1 -15  15 6.27312 15.8319   1
   0   3  15 67.1073 26.1722  -2
   0 -15  15 67.1073 26.1722   1
   1   2  15 89.5959 27.6549  -2
   1 -15  15 89.5959 27.6549   1
   2   1  15 537.697 24.8224  -2
   2 -15  15 537.697 24.8224   1
   3   0  15 25.1858 15.8236  -2
   3 -15  15 25.1858 15.8236   1
   4  -1  15 48.4424 16.2954  -2
   4 -15  15 48.4424 16.2954   1
   5  -2  15 -7.6119 15.0846  -2
   5 -15  15 -7.6119 15.0846   1
   6  -3  15 92.6474 14.9785  -2
   6 -15  15 92.6474 14.9785   1
   7  -4  15 139.033 16.3072  -2
   7 -15  15 139.033 16.3072   1
   8  -5  15 25.5279 13.5124  -2
   8 -15  15 25.5279 13.5124   1
   9  -6  15 0.91047 26.7898  -2
   9 -15  15 0.91047 26.7898   1
  -5   7  15 110.015 13.1679  -2
  -5 -14  15 110.015 13.1679   1
  -3   5  15 124.031 17.3281  -2
  -3 -14  15 124.031 17.3281   1
  -2   4  15 84.5206 16.8174  -2
  -2 -14  15 84.5206 16.8174   1
  -1   3  15 19.5189 23.8920  -2
  -1 -14  15 19.5189 23.8920   1
   0   2  15 337.363 33.7674  -2
   0 -14  15 337.363 33.7674   1
   1   1  15 21.7407 23.6889  -2
   1 -14  15 21.7407 23.6889   1
   2   0  15 146.180 10.8518  -2
   2 -14  15 146.180 10.8518   1
   3  -1  15 12.6692 23.3792  -2
   3 -14  15 12.6692 23.3792   1
   4  -2  15 304.897 21.7261  -2
   4 -14  15 304.897 21.7261   1
   5  -3  15 518.721 28.3439  -2
   5 -14  15 518.721 28.3439   1
   6  -4  15 23.0344 12.4163  -2
   6 -14  15 23.0344 12.4163   1
   7  -5  15 91.2137 15.1169  -2
   7 -14  15 91.2137 15.1169   1
   8  -6  15 52.0912 13.4844  -2
   8 -14  15 52.0912 13.4844   1
   9  -7  15 -9.4707 25.8121  -2
   9 -14  15 -9.4707 25.8121   1
  -6   7  15 49.9421 41.8109  -2
  -6 -13  15 49.9421 41.8109   1
  -5   6  15 16.9604 19.4996  -2
  -5 -13  15 16.9604 19.4996   1
  -4   5  15 49.8188 21.6345  -2
  -4 -13  15 49.8188 21.6345   1
  -3   4  15 41.4671 8.93764  -2
  -3 -13  15 41.4671 8.93764   1
  -2   3  15 180.645 13.0090  -2
  -2 -13  15 180.645 13.0090   1
  -1   2  15 10.6024 8.96687  -2
  -1 -13  15 10.6024 8.96687   1
   0   1  15 235.026 14.4612  -2
   0 -13  15 235.026 14.4612   1
   1   0  15 100.956 24.0656  -2
   1 -13  15 100.956 24.0656   1
   2  -1  15 16.1337 7.90660  -2
   2 -13  15 16.1337 7.90660   1
   3  -2  15 3.70668 7.98279  -2
   3 -13  15 3.70668 7.98279   1
   4  -3  15 112.307 15.7316  -2
   4 -13  15 112.307 15.7316   1
   5  -4  15 207.474 18.8843  -2
   5 -13  15 207.474 18.8843   1
   6  -5  15 100.481 12.8487  -2
   6 -13  15 100.481 12.8487   1
   7  -6  15 31.8280 12.1145  -2
   7 -13  15 31.8280 12.1145   1
   8  -7  15 118.134 25.0435  -2
   8 -13  15 118.134 25.0435   1
   9  -8  15 0.00380 26.2504  -2
   9 -13  15 0.00380 26.2504   1
  -6   6  15 37.2482 19.0693  -2
  -6 -12  15 37.2482 19.0693   1
  -5   5  15 14.3127 18.5103  -2
  -5 -12  15 14.3127 18.5103   1
  -4   4  15 228.551 13.9087  -2
  -4 -12  15 228.551 13.9087   1
  -3   3  15 341.270 18.2044  -2
  -3 -12  15 341.270 18.2044   1
  -2   2  15 57.9948 9.32043  -2
  -2 -12  15 57.9948 9.32043   1
  -1   1  15 182.161 12.7391  -2
  -1 -12  15 182.161 12.7391   1
   0   0  15 65.4572 9.72064  -2
   0 -12  15 65.4572 9.72064   1
   1  -1  15 124.791 10.9579  -2
   1 -12  15 124.791 10.9579   1
   2  -2  15 162.746 11.6708  -2
   2 -12  15 162.746 11.6708   1
   3  -3  15 73.7576 9.06315  -2
   3 -12  15 73.7576 9.06315   1
   4  -4  15 53.2797 15.6974  -2
   4 -12  15 53.2797 15.6974   1
   5  -5  15 22.4068 14.2087  -2
   5 -12  15 22.4068 14.2087   1
   6  -6  15 22.9638 12.0450  -2
   6 -12  15 22.9638 12.0450   1
   7  -7  15 70.5259 15.0054  -2
   7 -12  15 70.5259 15.0054   1
   8  -8  15 96.9236 17.1279  -2
   8 -12  15 96.9236 17.1279   1
   9  -9  15 -3.3173 26.2492  -2
   9 -12  15 -3.3173 26.2492   1
 -11 -11  15 -6.6480 26.4845   1
  -6   5  15 105.890 22.9752  -2
  -6 -11  15 105.890 22.9752   1
  -5   4  15 63.2794 41.1499  -2
  -5 -11  15 63.2794 41.1499   1
  -4   3  15 111.984 14.9145  -2
  -4 -11  15 111.984 14.9145   1
  -3   2  15 74.8280 9.64571  -2
  -3 -11  15 74.8280 9.64571   1
  -2   1  15 80.2632 9.68219  -2
  -2 -11  15 80.2632 9.68219   1
  -1   0  15 598.703 27.2508  -2
  -1 -11  15 598.703 27.2508   1
   0  -1  15 261.652 14.9115  -2
   0 -11  15 261.652 14.9115   1
   1  -2  15 52.3831 9.09878  -2
   1 -11  15 52.3831 9.09878   1
   2  -3  15 111.750 9.78868  -2
   2 -11  15 111.750 9.78868   1
   3  -4  15 37.3701 19.7435  -2
   3 -11  15 37.3701 19.7435   1
   4  -5  15 103.979 25.4333  -2
   4 -11  15 103.979 25.4333   1
   5  -6  15 67.2205 14.7336  -2
   5 -11  15 67.2205 14.7336   1
   6  -7  15 -5.2641 14.2707  -2
   6 -11  15 -5.2641 14.2707   1
   7  -8  15 15.5781 11.7505  -2
   7 -11  15 15.5781 11.7505   1
   8  -9  15 25.1649 16.1546  -2
   8 -11  15 25.1649 16.1546   1
   9 -10  15 9.25887 25.1457  -2
   9 -11  15 9.25887 25.1457   1
  -7   5  15 18.2598 19.8784  -2
  -7 -10  15 18.2598 19.8784   1
  -6   4  15 176.924 41.2487  -2
  -6 -10  15 176.924 41.2487   1
  -5   3  15 37.7219 18.6441  -2
  -5 -10  15 37.7219 18.6441   1
  -4   2  15 -4.6198 18.2609  -2
  -4 -10  15 -4.6198 18.2609   1
  -3   1  15 780.037 29.7141  -2
  -3 -10  15 780.037 29.7141   1
  -2   0  15 258.269 14.7052  -2
  -2 -10  15 258.269 14.7052   1
  -1  -1  15 440.604 21.1778  -2
  -1 -10  15 440.604 21.1778   1
   0  -2  15 52.5621 8.92012  -2
   0 -10  15 52.5621 8.92012   1
   1  -3  15 16.4626 8.48212  -2
   1 -10  15 16.4626 8.48212   1
   2  -4  15 621.393 27.6520  -2
   2 -10  15 621.393 27.6520   1
   3  -5  15 188.397 23.4864  -2
   3 -10  15 188.397 23.4864   1
   4  -6  15 31.1932 20.0826  -2
   4 -10  15 31.1932 20.0826   1
   5  -7  15 211.879 17.5176  -2
   5 -10  15 211.879 17.5176   1
   6  -8  15 -17.114 13.9329  -2
   6 -10  15 -17.114 13.9329   1
   7  -9  15 194.045 29.0991  -2
   7 -10  15 194.045 29.0991   1
   8 -10  15 212.264 29.8128  -2
   8 -10  15 212.264 29.8128   1
   9 -11  15 12.1812 25.2351  -2
   9 -10  15 12.1812 25.2351   1
  -8   5  15 53.8186 20.3261  -2
  -8  -9  15 53.8186 20.3261   1
  -7   4  15 35.9567 20.5581  -2
  -7  -9  15 35.9567 20.5581   1
  -6   3  15 5.36929 39.2491  -2
  -6  -9  15 5.36929 39.2491   1
  -5   2  15 135.919 19.1524  -2
  -5  -9  15 135.919 19.1524   1
  -4   1  15 74.1021 10.2238  -2
  -4  -9  15 74.1021 10.2238   1
  -3   0  15 204.002 12.2942  -2
  -3  -9  15 204.002 12.2942   1
  -2  -1  15 115.543 10.8034  -2
  -2  -9  15 115.543 10.8034   1
  -1  -2  15 110.675 10.0025  -2
  -1  -9  15 110.675 10.0025   1
   0  -3  15 592.172 26.5251  -2
   0  -9  15 592.172 26.5251   1
   1  -4  15 11.9336 8.16837  -2
   1  -9  15 11.9336 8.16837   1
   2  -5  15 302.416 18.8873  -2
   2  -9  15 302.416 18.8873   1
   3  -6  15 138.650 24.7090  -2
   3  -9  15 138.650 24.7090   1
   4  -7  15 66.6706 24.1553  -2
   4  -9  15 66.6706 24.1553   1
   5  -8  15 573.800 21.5953  -2
   5  -9  15 573.800 21.5953   1
   6  -9  15 46.9545 11.6983  -2
   6  -9  15 46.9545 11.6983   1
   7 -10  15 240.178 14.9332  -2
   7  -9  15 240.178 14.9332   1
   8 -11  15 42.3829 24.4959  -2
   8  -9  15 42.3829 24.4959   1
   9 -12  15 -10.230 25.2981  -2
   9  -9  15 -10.230 25.2981   1
  -8   4  15 117.253 26.6419  -2
  -8  -8  15 117.253 26.6419   1
  -7   3  15 37.7871 20.4061  -2
  -7  -8  15 37.7871 20.4061   1
  -6   2  15 127.898 38.4674  -2
  -6  -8  15 127.898 38.4674   1
  -5   1  15 136.737 38.2766  -2
  -5  -8  15 136.737 38.2766   1
  -4   0  15 30.4414 9.55863  -2
  -4  -8  15 30.4414 9.55863   1
  -3  -1  15 20.9276 8.90913  -2
  -3  -8  15 20.9276 8.90913   1
  -2  -2  15 58.3483 8.82483  -2
  -2  -8  15 58.3483 8.82483   1
  -1  -3  15 93.4831 9.77287  -2
  -1  -8  15 93.4831 9.77287   1
   0  -4  15 429.322 20.0953  -2
   0  -8  15 429.322 20.0953   1
   1  -5  15 87.9842 8.57089  -2
   1  -8  15 87.9842 8.57089   1
   2  -6  15 42.1548 22.7708  -2
   2  -8  15 42.1548 22.7708   1
   3  -7  15 96.4470 20.7223  -2
   3  -8  15 96.4470 20.7223   1
   4  -8  15 -2.9210 8.18902  -2
   4  -8  15 -2.9210 8.18902   1
   5  -9  15 597.116 26.4570  -2
   5  -8  15 597.116 26.4570   1
   6 -10  15 6.17096 8.15689  -2
   6  -8  15 6.17096 8.15689   1
   7 -11  15 20.4371 15.7090  -2
   7  -8  15 20.4371 15.7090   1
   8 -12  15 159.491 12.5322  -2
   8  -8  15 159.491 12.5322   1
   9 -13  15 -15.790 27.0638  -2
   9  -8  15 -15.790 27.0638   1
  -8   3  15 118.663 25.6281  -2
  -8  -7  15 118.663 25.6281   1
  -7   2  15 128.448 20.9196  -2
  -7  -7  15 128.448 20.9196   1
  -4  -1  15 397.913 19.2019  -2
  -4  -7  15 397.913 19.2019   1
  -3  -2  15 139.935 12.0593  -2
  -3  -7  15 139.935 12.0593   1
  -2  -3  15 70.1341 8.54621  -2
  -2  -7  15 70.1341 8.54621   1
  -1  -4  15 8.58403 7.97487  -2
  -1  -7  15 8.58403 7.97487   1
   0  -5  15 80.1139 20.2632  -2
   0  -7  15 80.1139 20.2632   1
   1  -6  15 6.50846 7.48969  -2
   1  -7  15 6.50846 7.48969   1
   2  -7  15 99.8651 23.3271  -2
   2  -7  15 99.8651 23.3271   1
   3  -8  15 168.609 10.9582  -2
   3  -7  15 168.609 10.9582   1
   4  -9  15 89.9754 8.78641  -2
   4  -7  15 89.9754 8.78641   1
   5 -10  15 222.518 13.5026  -2
   5  -7  15 222.518 13.5026   1
   6 -11  15 32.4201 8.45648  -2
   6  -7  15 32.4201 8.45648   1
   7 -12  15 36.7363 15.1482  -2
   7  -7  15 36.7363 15.1482   1
   8 -13  15 258.369 16.4396  -2
   8  -7  15 258.369 16.4396   1
   9 -14  15 -5.5308 9.26257  -2
   9  -7  15 -5.5308 9.26257   1
 -11   5  15 102.908 30.9798  -2
 -11  -6  15 102.908 30.9798   1
 -10   4  15 16.4271 27.4231  -2
 -10  -6  15 16.4271 27.4231   1
  -9   3  15 185.194 28.1748  -2
  -9  -6  15 185.194 28.1748   1
  -8   2  15 21.3334 24.0215  -2
  -8  -6  15 21.3334 24.0215   1
  -7   1  15 10.0935 22.8619  -2
  -7  -6  15 10.0935 22.8619   1
  -5  -1  15 301.426 19.9341  -2
  -5  -6  15 301.426 19.9341   1
  -4  -2  15 333.399 17.0864  -2
  -4  -6  15 333.399 17.0864   1
  -3  -3  15 20.0408 8.99239  -2
  -3  -6  15 20.0408 8.99239   1
  -2  -4  15 43.1979 9.05393  -2
  -2  -6  15 43.1979 9.05393   1
  -1  -5  15 153.786 11.0111  -2
  -1  -6  15 153.786 11.0111   1
   0  -6  15 340.862 16.6306  -2
   0  -6  15 340.862 16.6306   1
   1  -7  15 11.9406 8.03069  -2
   1  -6  15 11.9406 8.03069   1
   2  -8  15 31.2851 21.8181  -2
   2  -6  15 31.2851 21.8181   1
   3  -9  15 101.914 9.62564  -2
   3  -6  15 101.914 9.62564   1
   4 -10  15 25.0363 7.70365  -2
   4  -6  15 25.0363 7.70365   1
   5 -11  15 64.7629 8.58061  -2
   5  -6  15 64.7629 8.58061   1
   6 -12  15 34.3172 8.43004  -2
   6  -6  15 34.3172 8.43004   1
   7 -13  15 33.3098 8.47501  -2
   7  -6  15 33.3098 8.47501   1
   8 -14  15 59.0616 9.79993  -2
   8  -6  15 59.0616 9.79993   1
   9 -15  15 15.0376 24.9133  -2
   9  -6  15 15.0376 24.9133   1
 -11   4  15 68.2149 29.7305  -2
 -11  -5  15 68.2149 29.7305   1
 -10   3  15 34.7487 26.2735  -2
 -10  -5  15 34.7487 26.2735   1
  -9   2  15 66.4693 24.7493  -2
  -9  -5  15 66.4693 24.7493   1
  -8   1  15 187.128 26.8094  -2
  -8  -5  15 187.128 26.8094   1
  -5  -2  15 68.6676 10.5856  -2
  -5  -5  15 68.6676 10.5856   1
  -4  -3  15 145.201 11.1995  -2
  -4  -5  15 145.201 11.1995   1
  -3  -4  15 252.219 14.3503  -2
  -3  -5  15 252.219 14.3503   1
  -2  -5  15 156.332 13.8099  -2
  -2  -5  15 156.332 13.8099   1
  -1  -6  15 145.525 12.9984  -2
  -1  -5  15 145.525 12.9984   1
   0  -7  15 52.8224 8.20424  -2
   0  -5  15 52.8224 8.20424   1
   1  -8  15 66.5017 8.97984  -2
   1  -5  15 66.5017 8.97984   1
   2  -9  15 376.213 29.7688  -2
   2  -5  15 376.213 29.7688   1
   3 -10  15 239.866 13.3421  -2
   3  -5  15 239.866 13.3421   1
   4 -11  15 99.8832 9.41056  -2
   4  -5  15 99.8832 9.41056   1
   5 -12  15 25.7786 8.25453  -2
   5  -5  15 25.7786 8.25453   1
   6 -13  15 127.375 11.2577  -2
   6  -5  15 127.375 11.2577   1
   7 -14  15 116.140 11.1316  -2
   7  -5  15 116.140 11.1316   1
   8 -15  15 13.4657 24.0207  -2
   8  -5  15 13.4657 24.0207   1
   9 -16  15 15.2358 9.23998  -2
   9  -5  15 15.2358 9.23998   1
 -11   3  15 5.71085 27.8020  -2
 -11  -4  15 5.71085 27.8020   1
 -10   2  15 35.5210 25.7780  -2
 -10  -4  15 35.5210 25.7780   1
  -9   1  15 89.8373 24.9268  -2
  -9  -4  15 89.8373 24.9268   1
  -6  -2  15 185.848 22.1292  -2
  -6  -4  15 185.848 22.1292   1
  -4  -4  15 22.5388 9.03903  -2
  -4  -4  15 22.5388 9.03903   1
  -3  -5  15 257.294 14.4819  -2
  -3  -4  15 257.294 14.4819   1
  -2  -6  15 84.8693 10.8136  -2
  -2  -4  15 84.8693 10.8136   1
  -1  -7  15 1.07668 9.94135  -2
  -1  -4  15 1.07668 9.94135   1
   0  -8  15 489.050 28.6753  -2
   0  -4  15 489.050 28.6753   1
   1  -9  15 21.2489 5.98634  -2
   1  -4  15 21.2489 5.98634   1
   2 -10  15 586.396 17.9626  -2
   2  -4  15 586.396 17.9626   1
   3 -11  15 53.7811 7.81418  -2
   3  -4  15 53.7811 7.81418   1
   4 -12  15 57.9717 7.95245  -2
   4  -4  15 57.9717 7.95245   1
   5 -13  15 245.927 14.5234  -2
   5  -4  15 245.927 14.5234   1
   6 -14  15 33.0485 8.41167  -2
   6  -4  15 33.0485 8.41167   1
   7 -15  15 184.795 13.0629  -2
   7  -4  15 184.795 13.0629   1
   8 -16  15 5.80294 9.59902  -2
   8  -4  15 5.80294 9.59902   1
 -11   2  15 72.6322 27.2108  -2
 -11  -3  15 72.6322 27.2108   1
 -10   1  15 0.52510 24.6257  -2
 -10  -3  15 0.52510 24.6257   1
  -7  -2  15 322.758 28.2950  -2
  -7  -3  15 322.758 28.2950   1
  -6  -3  15 178.206 21.5055  -2
  -6  -3  15 178.206 21.5055   1
  -4  -5  15 166.040 11.8827  -2
  -4  -3  15 166.040 11.8827   1
  -3  -6  15 30.4009 9.01326  -2
  -3  -3  15 30.4009 9.01326   1
  -2  -7  15 64.8857 10.2718  -2
  -2  -3  15 64.8857 10.2718   1
  -1  -8  15 106.273 10.0865  -2
  -1  -3  15 106.273 10.0865   1
   0  -9  15 586.891 22.9069  -2
   0  -3  15 586.891 22.9069   1
   1 -10  15 29.8543 6.17721  -2
   1  -3  15 29.8543 6.17721   1
   2 -11  15 101.256 6.44864  -2
   2  -3  15 101.256 6.44864   1
   3 -12  15 93.1028 9.01112  -2
   3  -3  15 93.1028 9.01112   1
   4 -13  15 122.959 9.90070  -2
   4  -3  15 122.959 9.90070   1
   5 -14  15 474.505 19.0814  -2
   5  -3  15 474.505 19.0814   1
   6 -15  15 97.7897 10.8352  -2
   6  -3  15 97.7897 10.8352   1
   7 -16  15 10.7142 8.06484  -2
   7  -3  15 10.7142 8.06484   1
   8 -17  15 139.612 12.2128  -2
   8  -3  15 139.612 12.2128   1
 -10   0  15 58.7860 24.9037  -2
 -10  -2  15 58.7860 24.9037   1
  -7  -3  15 340.313 28.8082  -2
  -7  -2  15 340.313 28.8082   1
  -6  -4  15 165.030 21.2973  -2
  -6  -2  15 165.030 21.2973   1
  -4  -6  15 329.904 17.2730  -2
  -4  -2  15 329.904 17.2730   1
  -3  -7  15 150.726 11.8027  -2
  -3  -2  15 150.726 11.8027   1
  -2  -8  15 34.4926 6.09352  -2
  -2  -2  15 34.4926 6.09352   1
  -1  -9  15 83.3022 7.03014  -2
  -1  -2  15 83.3022 7.03014   1
   0 -10  15 59.7020 7.01095  -2
   0  -2  15 59.7020 7.01095   1
   1 -11  15 54.0485 6.93668  -2
   1  -2  15 54.0485 6.93668   1
   2 -12  15 134.566 7.41444  -2
   2  -2  15 134.566 7.41444   1
   3 -13  15 -0.0004 7.23806  -2
   3  -2  15 -0.0004 7.23806   1
   4 -14  15 269.098 13.4360  -2
   4  -2  15 269.098 13.4360   1
   5 -15  15 16.3453 7.90111  -2
   5  -2  15 16.3453 7.90111   1
   6 -16  15 20.8195 8.42745  -2
   6  -2  15 20.8195 8.42745   1
   7 -17  15 44.6518 25.0621  -2
   7  -2  15 44.6518 25.0621   1
   8 -18  15 132.629 11.6801  -2
   8  -2  15 132.629 11.6801   1
 -10  -1  15 137.412 26.7341  -2
 -10  -1  15 137.412 26.7341   1
  -8  -3  15 31.2668 19.1616  -2
  -8  -1  15 31.2668 19.1616   1
  -7  -4  15 49.9727 18.5564  -2
  -7  -1  15 49.9727 18.5564   1
  -6  -5  15 670.340 46.1993  -2
  -6  -1  15 670.340 46.1993   1
  -4  -7  15 409.630 20.0065  -2
  -4  -1  15 409.630 20.0065   1
  -3  -8  15 19.0027 8.77558  -2
  -3  -1  15 19.0027 8.77558   1
  -2  -9  15 98.1357 10.3369  -2
  -2  -1  15 98.1357 10.3369   1
  -1 -10  15 462.713 18.7422  -2
  -1  -1  15 462.713 18.7422   1
   0 -11  15 269.644 12.1897  -2
   0  -1  15 269.644 12.1897   1
   1 -12  15 110.147 7.82668  -2
   1  -1  15 110.147 7.82668   1
   2 -13  15 10.0427 5.56129  -2
   2  -1  15 10.0427 5.56129   1
   3 -14  15 14.7793 5.59061  -2
   3  -1  15 14.7793 5.59061   1
   4 -15  15 36.9448 7.80023  -2
   4  -1  15 36.9448 7.80023   1
   5 -16  15 225.204 12.6249  -2
   5  -1  15 225.204 12.6249   1
   6 -17  15 43.0271 9.23280  -2
   6  -1  15 43.0271 9.23280   1
   7 -18  15 20.5089 22.0257  -2
   7  -1  15 20.5089 22.0257   1
   8 -19  15 18.7959 9.80747  -2
   8  -1  15 18.7959 9.80747   1
 -10  -2  15 82.2901 25.3893  -2
 -10   0  15 82.2901 25.3893   1
  -9  -3  15 45.4353 19.6949  -2
  -9   0  15 45.4353 19.6949   1
  -8  -4  15 26.5957 18.8948  -2
  -8   0  15 26.5957 18.8948   1
  -7  -5  15 10.0974 18.8633  -2
  -7   0  15 10.0974 18.8633   1
  -6  -6  15 236.896 24.5569  -2
  -6   0  15 236.896 24.5569   1
  -4  -8  15 28.7756 8.24711  -2
  -4   0  15 28.7756 8.24711   1
  -3  -9  15 211.947 13.3830  -2
  -3   0  15 211.947 13.3830   1
  -2 -10  15 263.400 12.0826  -2
  -2   0  15 263.400 12.0826   1
  -1 -11  15 542.750 21.5477  -2
  -1   0  15 542.750 21.5477   1
   0 -12  15 44.9786 6.56375  -2
   0   0  15 44.9786 6.56375   1
   1 -13  15 67.2420 7.25268  -2
   1   0  15 67.2420 7.25268   1
   2 -14  15 167.128 8.79806  -2
   2   0  15 167.128 8.79806   1
   3 -15  15 36.8714 6.01356  -2
   3   0  15 36.8714 6.01356   1
   4 -16  15 165.260 11.3216  -2
   4   0  15 165.260 11.3216   1
   5 -17  15 46.7376 8.39845  -2
   5   0  15 46.7376 8.39845   1
   6 -18  15 -2.7158 8.15420  -2
   6   0  15 -2.7158 8.15420   1
   7 -19  15 28.4781 17.1367  -2
   7   0  15 28.4781 17.1367   1
   8 -20  15 48.9228 33.0400  -2
   8   0  15 48.9228 33.0400   1
 -10  -3  15 29.5157 25.7229  -2
 -10   1  15 29.5157 25.7229   1
  -9  -4  15 98.2334 20.6723  -2
  -9   1  15 98.2334 20.6723   1
  -8  -5  15 163.669 22.0652  -2
  -8   1  15 163.669 22.0652   1
  -7  -6  15 31.1107 13.7799  -2
  -7   1  15 31.1107 13.7799   1
  -6  -7  15 61.0434 14.2224  -2
  -6   1  15 61.0434 14.2224   1
  -5  -8  15 143.313 19.5560  -2
  -5   1  15 143.313 19.5560   1
  -4  -9  15 50.0545 13.4060  -2
  -4   1  15 50.0545 13.4060   1
  -3 -10  15 731.284 31.2189  -2
  -3   1  15 731.284 31.2189   1
  -2 -11  15 79.4204 7.22477  -2
  -2   1  15 79.4204 7.22477   1
  -1 -12  15 148.495 8.58190  -2
  -1   1  15 148.495 8.58190   1
   0 -13  15 240.616 10.8311  -2
   0   1  15 240.616 10.8311   1
   1 -14  15 29.3922 6.85513  -2
   1   1  15 29.3922 6.85513   1
   2 -15  15 498.085 17.7742  -2
   2   1  15 498.085 17.7742   1
   3 -16  15 8.42041 6.12706  -2
   3   1  15 8.42041 6.12706   1
   4 -17  15 4.24483 9.31051  -2
   4   1  15 4.24483 9.31051   1
   5 -18  15 178.749 11.8921  -2
   5   1  15 178.749 11.8921   1
   6 -19  15 12.6308 12.3538  -2
   6   1  15 12.6308 12.3538   1
   7 -20  15 71.3218 22.8556  -2
   7   1  15 71.3218 22.8556   1
  -9  -5  15 53.7405 19.4012  -2
  -9   2  15 53.7405 19.4012   1
  -8  -6  15 17.9011 14.0184  -2
  -8   2  15 17.9011 14.0184   1
  -7  -7  15 70.9384 14.4870  -2
  -7   2  15 70.9384 14.4870   1
  -6  -8  15 133.567 15.1508  -2
  -6   2  15 133.567 15.1508   1
  -5  -9  15 175.447 12.3792  -2
  -5   2  15 175.447 12.3792   1
  -4 -10  15 31.6300 9.29854  -2
  -4   2  15 31.6300 9.29854   1
  -3 -11  15 76.9803 6.85806  -2
  -3   2  15 76.9803 6.85806   1
  -2 -12  15 46.0664 8.63114  -2
  -2   2  15 46.0664 8.63114   1
  -1 -13  15 9.79545 7.14457  -2
  -1   2  15 9.79545 7.14457   1
   0 -14  15 294.437 13.6800  -2
   0   2  15 294.437 13.6800   1
   1 -15  15 61.9644 7.72582  -2
   1   2  15 61.9644 7.72582   1
   2 -16  15 49.4599 7.62949  -2
   2   2  15 49.4599 7.62949   1
   3 -17  15 30.7489 6.92257  -2
   3   2  15 30.7489 6.92257   1
   4 -18  15 18.4045 18.4955  -2
   4   2  15 18.4045 18.4955   1
   5 -19  15 157.822 19.3176  -2
   5   2  15 157.822 19.3176   1
   6 -20  15 -14.757 12.2429  -2
   6   2  15 -14.757 12.2429   1
  -9  -6  15 61.9779 21.9047  -2
  -9   3  15 61.9779 21.9047   1
  -8  -7  15 48.7844 20.9870  -2
  -8   3  15 48.7844 20.9870   1
  -7  -8  15 26.0658 13.9744  -2
  -7   3  15 26.0658 13.9744   1
  -6  -9  15 5.38255 11.3124  -2
  -6   3  15 5.38255 11.3124   1
  -5 -10  15 52.2311 9.98859  -2
  -5   3  15 52.2311 9.98859   1
  -4 -11  15 180.898 12.5485  -2
  -4   3  15 180.898 12.5485   1
  -3 -12  15 302.316 12.1596  -2
  -3   3  15 302.316 12.1596   1
  -2 -13  15 185.270 9.35405  -2
  -2   3  15 185.270 9.35405   1
  -1 -14  15 7.33232 6.79590  -2
  -1   3  15 7.33232 6.79590   1
   0 -15  15 64.3510 8.47378  -2
   0   3  15 64.3510 8.47378   1
   1 -16  15 53.2955 11.6444  -2
   1   3  15 53.2955 11.6444   1
   2 -17  15 61.8817 10.9954  -2
   2   3  15 61.8817 10.9954   1
   3 -18  15 36.3407 20.0610  -2
   3   3  15 36.3407 20.0610   1
   4 -19  15 19.8865 17.9980  -2
   4   3  15 19.8865 17.9980   1
   5 -20  15 2.89457 17.0866  -2
   5   3  15 2.89457 17.0866   1
   6 -21  15 -15.651 14.0468  -2
   6   3  15 -15.651 14.0468   1
  -9  -7  15 95.5188 23.3308  -2
  -9   4  15 95.5188 23.3308   1
  -8  -8  15 87.9239 21.7374  -2
  -8   4  15 87.9239 21.7374   1
  -7  -9  15 42.0507 21.4446  -2
  -7   4  15 42.0507 21.4446   1
  -6 -10  15 189.046 12.2458  -2
  -6   4  15 189.046 12.2458   1
  -5 -11  15 95.0084 10.9336  -2
  -5   4  15 95.0084 10.9336   1
  -4 -12  15 202.953 9.81730  -2
  -4   4  15 202.953 9.81730   1
  -3 -13  15 67.4935 7.61849  -2
  -3   4  15 67.4935 7.61849   1
  -2 -14  15 133.914 8.48949  -2
  -2   4  15 133.914 8.48949   1
  -1 -15  15 10.1481 7.19495  -2
  -1   4  15 10.1481 7.19495   1
   0 -16  15 144.009 13.9849  -2
   0   4  15 144.009 13.9849   1
   4 -20  15 -7.8453 18.8417  -2
   4   4  15 -7.8453 18.8417   1
   5 -21  15 -16.990 17.0758  -2
   5   4  15 -16.990 17.0758   1
   6 -22  15 -3.6503 26.3622  -2
   6   4  15 -3.6503 26.3622   1
 -10  -7  15 -0.1729 21.0882  -2
 -10   5  15 -0.1729 21.0882   1
  -8  -9  15 135.993 23.8626  -2
  -8   5  15 135.993 23.8626   1
  -7 -10  15 62.9552 12.0329  -2
  -7   5  15 62.9552 12.0329   1
  -6 -11  15 273.128 16.9755  -2
  -6   5  15 273.128 16.9755   1
  -5 -12  15 55.6142 11.6126  -2
  -5   5  15 55.6142 11.6126   1
  -4 -13  15 114.608 8.47812  -2
  -4   5  15 114.608 8.47812   1
  -3 -14  15 232.423 10.8397  -2
  -3   5  15 232.423 10.8397   1
  -2 -15  15 42.3161 7.49673  -2
  -2   5  15 42.3161 7.49673   1
  -1 -16  15 135.525 11.7871  -2
  -1   5  15 135.525 11.7871   1
   0 -17  15 14.2308 9.69497  -2
   0   5  15 14.2308 9.69497   1
   4 -21  15 -3.9182 19.2023  -2
   4   5  15 -3.9182 19.2023   1
   5 -22  15 -37.237 28.4871  -2
   5   5  15 -37.237 28.4871   1
  -8 -10  15 85.9053 13.4290  -2
  -8   6  15 85.9053 13.4290   1
  -7 -11  15 33.9684 12.1458  -2
  -7   6  15 33.9684 12.1458   1
  -6 -12  15 53.6564 13.2574  -2
  -6   6  15 53.6564 13.2574   1
  -5 -13  15 60.3565 13.3472  -2
  -5   6  15 60.3565 13.3472   1
  -4 -14  15 31.5497 8.14755  -2
  -4   6  15 31.5497 8.14755   1
  -3 -15  15 156.850 9.54214  -2
  -3   6  15 156.850 9.54214   1
  -2 -16  15 6.93409 18.6802  -2
  -2   6  15 6.93409 18.6802   1
  -1 -17  15 18.9210 18.6951  -2
  -1   6  15 18.9210 18.6951   1
   0 -18  15 297.339 26.5432  -2
   0   6  15 297.339 26.5432   1
   4 -22  15 -23.017 21.1196  -2
   4   6  15 -23.017 21.1196   1
   5 -23  15 13.4765 29.2062  -2
   5   6  15 13.4765 29.2062   1
  -8 -11  15 28.3043 14.3215  -2
  -8   7  15 28.3043 14.3215   1
  -7 -12  15 -10.805 12.1346  -2
  -7   7  15 -10.805 12.1346   1
  -6 -13  15 100.090 14.8306  -2
  -6   7  15 100.090 14.8306   1
  -5 -14  15 117.901 15.2935  -2
  -5   7  15 117.901 15.2935   1
  -4 -15  15 67.9803 8.86295  -2
  -4   7  15 67.9803 8.86295   1
  -3 -16  15 14.4840 13.0774  -2
  -3   7  15 14.4840 13.0774   1
  -1 -18  15 98.0468 20.6414  -2
  -1   7  15 98.0468 20.6414   1
   0 -19  15 400.323 31.6939  -2
   0   7  15 400.323 31.6939   1
  -8 -12  15 172.734 17.6313  -2
  -8   8  15 172.734 17.6313   1
  -7 -13  15 24.6089 13.0379  -2
  -7   8  15 24.6089 13.0379   1
  -6 -14  15 146.704 16.4686  -2
  -6   8  15 146.704 16.4686   1
  -5 -15  15 42.2961 14.1418  -2
  -5   8  15 42.2961 14.1418   1
  -4 -16  15 120.796 15.5745  -2
  -4   8  15 120.796 15.5745   1
  -3 -17  15 50.8129 12.5922  -2
  -3   8  15 50.8129 12.5922   1
   4 -24  15 14.0615 29.2588  -2
   4   8  15 14.0615 29.2588   1
  -9 -12  15 196.662 19.1740  -2
  -9   9  15 196.662 19.1740   1
  -8 -13  15 40.6811 15.1282  -2
  -8   9  15 40.6811 15.1282   1
  -7 -14  15 102.945 16.0325  -2
  -7   9  15 102.945 16.0325   1
  -6 -15  15 171.847 17.4266  -2
  -6   9  15 171.847 17.4266   1
  -5 -16  15 161.128 16.0286  -2
  -5   9  15 161.128 16.0286   1
  -1 -20  15 -32.451 20.2093  -2
  -1   9  15 -32.451 20.2093   1
 -10 -12  15 15.7464 16.9497  -2
 -10  10  15 15.7464 16.9497   1
  -9 -13  15 59.4604 16.3232  -2
  -9  10  15 59.4604 16.3232   1
  -8 -14  15 32.5118 15.2543  -2
  -8  10  15 32.5118 15.2543   1
  -7 -15  15 62.6343 15.5097  -2
  -7  10  15 62.6343 15.5097   1
  -6 -16  15 511.421 31.6805  -2
  -6  10  15 511.421 31.6805   1
  -5 -17  15 33.3756 15.1491  -2
  -5  10  15 33.3756 15.1491   1
  -1 -21  15 109.542 22.7869  -2
  -1  10  15 109.542 22.7869   1
 -10 -13  15 6.04014 17.4123  -2
 -10  11  15 6.04014 17.4123   1
  -9 -14  15 -2.0630 16.2920  -2
  -9  11  15 -2.0630 16.2920   1
  -8 -15  15 81.8718 16.7898  -2
  -8  11  15 81.8718 16.7898   1
  -7 -16  15 24.6792 15.6713  -2
  -7  11  15 24.6792 15.6713   1
  -6 -17  15 118.226 17.2228  -2
  -6  11  15 118.226 17.2228   1
  -9 -15  15 -8.4574 16.7997  -2
  -9  12  15 -8.4574 16.7997   1
  -8 -16  15 -9.7383 16.0032  -2
  -8  12  15 -9.7383 16.0032   1
  -7 -17  15 32.5548 14.8342  -2
  -7  12  15 32.5548 14.8342   1
  -6 -18  15 59.0380 16.1231  -2
  -6  12  15 59.0380 16.1231   1
  -5 -19  15 70.8215 16.1000  -2
  -5  12  15 70.8215 16.1000   1
  -8 -17  15 27.0074 17.3136  -2
  -8  13  15 27.0074 17.3136   1
  -7 -18  15 57.5023 15.4797  -2
  -7  13  15 57.5023 15.4797   1
  -6 -19  15 45.8670 16.5023  -2
  -6  13  15 45.8670 16.5023   1
  -5 -20  15 2.69800 15.9121  -2
  -5  13  15 2.69800 15.9121   1
  -6 -20  15 21.3596 17.0655  -2
  -6  14  15 21.3596 17.0655   1
  -5 -21  15 20.1078 16.7683  -2
  -5  14  15 20.1078 16.7683   1
   1  10  16 7.10885 20.6762  -2
   1 -24  16 7.10885 20.6762   1
   2   9  16 8.04340 19.7937  -2
   2 -24  16 8.04340 19.7937   1
   3   8  16 48.1596 25.6562  -2
   3 -24  16 48.1596 25.6562   1
  -2  12  16 66.5403 11.3065  -2
  -2 -23  16 66.5403 11.3065   1
  -1  11  16 -53.775 30.9785  -2
  -1 -23  16 -53.775 30.9785   1
   0  10  16 -53.330 31.6416  -2
   0 -23  16 -53.330 31.6416   1
   1   9  16 15.1396 20.5839  -2
   1 -23  16 15.1396 20.5839   1
   2   8  16 6.55884 20.9230  -2
   2 -23  16 6.55884 20.9230   1
   3   7  16 31.7453 21.7563  -2
   3 -23  16 31.7453 21.7563   1
   4   6  16 21.9638 34.5579  -2
   4 -23  16 21.9638 34.5579   1
  -4  13  16 29.2985 10.7249  -2
  -4 -22  16 29.2985 10.7249   1
  -3  12  16 30.6984 10.5407  -2
  -3 -22  16 30.6984 10.5407   1
  -1  10  16 -40.403 32.6254  -2
  -1 -22  16 -40.403 32.6254   1
   0   9  16 169.468 21.6855  -2
   0 -22  16 169.468 21.6855   1
   1   8  16 76.3209 20.8693  -2
   1 -22  16 76.3209 20.8693   1
   2   7  16 9.00752 20.7946  -2
   2 -22  16 9.00752 20.7946   1
   3   6  16 41.9867 21.5911  -2
   3 -22  16 41.9867 21.5911   1
   4   5  16 -31.454 31.7137  -2
   4 -22  16 -31.454 31.7137   1
   5   4  16 130.828 35.9092  -2
   5 -22  16 130.828 35.9092   1
  -5  13  16 19.1218 10.5945  -2
  -5 -21  16 19.1218 10.5945   1
  -4  12  16 5.39340 10.3877  -2
  -4 -21  16 5.39340 10.3877   1
  -3  11  16 14.7074 10.2081  -2
  -3 -21  16 14.7074 10.2081   1
  -1   9  16 -11.407 30.2453  -2
  -1 -21  16 -11.407 30.2453   1
   0   8  16 38.7458 19.2270  -2
   0 -21  16 38.7458 19.2270   1
   1   7  16 -21.508 19.5238  -2
   1 -21  16 -21.508 19.5238   1
   2   6  16 4.91211 20.6841  -2
   2 -21  16 4.91211 20.6841   1
   3   5  16 223.221 24.6776  -2
   3 -21  16 223.221 24.6776   1
   4   4  16 42.9510 31.2242  -2
   4 -21  16 42.9510 31.2242   1
   5   3  16 28.0584 31.7044  -2
   5 -21  16 28.0584 31.7044   1
   6   2  16 -23.383 33.8612  -2
   6 -21  16 -23.383 33.8612   1
  -6  13  16 -8.3891 11.1391  -2
  -6 -20  16 -8.3891 11.1391   1
  -5  12  16 3.54080 10.1259  -2
  -5 -20  16 3.54080 10.1259   1
  -4  11  16 22.6716 10.4629  -2
  -4 -20  16 22.6716 10.4629   1
  -1   8  16 28.4056 18.7261  -2
  -1 -20  16 28.4056 18.7261   1
   0   7  16 -7.7978 20.1522  -2
   0 -20  16 -7.7978 20.1522   1
   1   6  16 106.096 20.3423  -2
   1 -20  16 106.096 20.3423   1
   2   5  16 54.2849 20.4747  -2
   2 -20  16 54.2849 20.4747   1
   3   4  16 146.299 22.2508  -2
   3 -20  16 146.299 22.2508   1
   4   3  16 14.4861 20.0166  -2
   4 -20  16 14.4861 20.0166   1
   5   2  16 -0.2307 30.4201  -2
   5 -20  16 -0.2307 30.4201   1
   6   1  16 121.574 32.4542  -2
   6 -20  16 121.574 32.4542   1
  -6  12  16 -8.8928 10.7429  -2
  -6 -19  16 -8.8928 10.7429   1
  -5  11  16 87.1366 8.45326  -2
  -5 -19  16 87.1366 8.45326   1
  -4  10  16 55.3691 7.90197  -2
  -4 -19  16 55.3691 7.90197   1
  -1   7  16 16.6171 25.7984  -2
  -1 -19  16 16.6171 25.7984   1
   0   6  16 82.0432 26.3483  -2
   0 -19  16 82.0432 26.3483   1
   1   5  16 174.043 20.9915  -2
   1 -19  16 174.043 20.9915   1
   2   4  16 72.9055 19.2930  -2
   2 -19  16 72.9055 19.2930   1
   3   3  16 8.17645 20.4541  -2
   3 -19  16 8.17645 20.4541   1
   4   2  16 56.2575 20.1221  -2
   4 -19  16 56.2575 20.1221   1
   5   1  16 -1.9318 31.2015  -2
   5 -19  16 -1.9318 31.2015   1
   6   0  16 99.7500 30.9517  -2
   6 -19  16 99.7500 30.9517   1
   7  -1  16 -7.2981 30.2066  -2
   7 -19  16 -7.2981 30.2066   1
  -7  12  16 106.495 13.9482  -2
  -7 -18  16 106.495 13.9482   1
  -6  11  16 41.7140 7.80109  -2
  -6 -18  16 41.7140 7.80109   1
  -5  10  16 7.75463 6.95093  -2
  -5 -18  16 7.75463 6.95093   1
  -4   9  16 15.1669 9.82166  -2
  -4 -18  16 15.1669 9.82166   1
  -3   8  16 133.782 13.7654  -2
  -3 -18  16 133.782 13.7654   1
  -2   7  16 55.8119 9.79922  -2
  -2 -18  16 55.8119 9.79922   1
  -1   6  16 36.0678 24.0183  -2
  -1 -18  16 36.0678 24.0183   1
   0   5  16 96.2076 27.1145  -2
   0 -18  16 96.2076 27.1145   1
   1   4  16 -5.6250 26.6381  -2
   1 -18  16 -5.6250 26.6381   1
   2   3  16 -32.240 18.6264  -2
   2 -18  16 -32.240 18.6264   1
   3   2  16 -5.9563 27.9059  -2
   3 -18  16 -5.9563 27.9059   1
   4   1  16 10.0672 21.0532  -2
   4 -18  16 10.0672 21.0532   1
   5   0  16 -18.327 28.9890  -2
   5 -18  16 -18.327 28.9890   1
   7  -2  16 16.9560 20.2532  -2
   7 -18  16 16.9560 20.2532   1
   8  -3  16 7.71258 21.2815  -2
   8 -18  16 7.71258 21.2815   1
  -7  11  16 44.7024 12.3298  -2
  -7 -17  16 44.7024 12.3298   1
  -6  10  16 61.8168 12.1169  -2
  -6 -17  16 61.8168 12.1169   1
  -5   9  16 328.363 14.5356  -2
  -5 -17  16 328.363 14.5356   1
  -4   8  16 149.643 13.3400  -2
  -4 -17  16 149.643 13.3400   1
  -3   7  16 162.011 14.4430  -2
  -3 -17  16 162.011 14.4430   1
  -2   6  16 1.42497 8.27519  -2
  -2 -17  16 1.42497 8.27519   1
  -1   5  16 87.6083 25.2623  -2
  -1 -17  16 87.6083 25.2623   1
   0   4  16 280.793 32.2279  -2
   0 -17  16 280.793 32.2279   1
   1   3  16 219.822 28.8396  -2
   1 -17  16 219.822 28.8396   1
   2   2  16 -2.6994 19.2439  -2
   2 -17  16 -2.6994 19.2439   1
   3   1  16 28.4073 27.0835  -2
   3 -17  16 28.4073 27.0835   1
   4   0  16 25.1938 19.3421  -2
   4 -17  16 25.1938 19.3421   1
   5  -1  16 93.4163 29.2174  -2
   5 -17  16 93.4163 29.2174   1
   6  -2  16 174.807 30.6261  -2
   6 -17  16 174.807 30.6261   1
   7  -3  16 20.5946 20.0876  -2
   7 -17  16 20.5946 20.0876   1
   8  -4  16 60.6704 20.8619  -2
   8 -17  16 60.6704 20.8619   1
  -7  10  16 61.3712 12.5634  -2
  -7 -16  16 61.3712 12.5634   1
  -6   9  16 53.8597 11.9067  -2
  -6 -16  16 53.8597 11.9067   1
  -5   8  16 176.781 9.93079  -2
  -5 -16  16 176.781 9.93079   1
  -4   7  16 55.6753 10.8979  -2
  -4 -16  16 55.6753 10.8979   1
  -3   6  16 59.0085 11.3748  -2
  -3 -16  16 59.0085 11.3748   1
  -2   5  16 340.821 17.9734  -2
  -2 -16  16 340.821 17.9734   1
  -1   4  16 38.0119 24.7087  -2
  -1 -16  16 38.0119 24.7087   1
   0   3  16 306.079 33.3600  -2
   0 -16  16 306.079 33.3600   1
   1   2  16 166.731 29.7702  -2
   1 -16  16 166.731 29.7702   1
   2   1  16 -5.5183 27.6134  -2
   2 -16  16 -5.5183 27.6134   1
   3   0  16 215.912 21.9682  -2
   3 -16  16 215.912 21.9682   1
   4  -1  16 195.796 30.1622  -2
   4 -16  16 195.796 30.1622   1
   5  -2  16 -6.7336 28.9700  -2
   5 -16  16 -6.7336 28.9700   1
   6  -3  16 -6.4836 28.6446  -2
   6 -16  16 -6.4836 28.6446   1
   7  -4  16 17.8586 19.6447  -2
   7 -16  16 17.8586 19.6447   1
   8  -5  16 115.819 30.3526  -2
   8 -16  16 115.819 30.3526   1
  -7   9  16 43.8061 12.3417  -2
  -7 -15  16 43.8061 12.3417   1
  -6   8  16 43.9820 11.5479  -2
  -6 -15  16 43.9820 11.5479   1
  -5   7  16 28.8164 7.24580  -2
  -5 -15  16 28.8164 7.24580   1
  -4   6  16 36.8320 10.2969  -2
  -4 -15  16 36.8320 10.2969   1
  -3   5  16 69.6859 9.33586  -2
  -3 -15  16 69.6859 9.33586   1
  -2   4  16 109.243 11.2644  -2
  -2 -15  16 109.243 11.2644   1
  -1   3  16 33.7764 9.40458  -2
  -1 -15  16 33.7764 9.40458   1
   0   2  16 15.3752 23.2310  -2
   0 -15  16 15.3752 23.2310   1
   1   1  16 119.109 26.0831  -2
   1 -15  16 119.109 26.0831   1
   2   0  16 9.55260 25.2713  -2
   2 -15  16 9.55260 25.2713   1
   3  -1  16 551.305 31.1578  -2
   3 -15  16 551.305 31.1578   1
   4  -2  16 113.105 28.0588  -2
   4 -15  16 113.105 28.0588   1
   5  -3  16 10.1014 26.7622  -2
   5 -15  16 10.1014 26.7622   1
   6  -4  16 226.558 32.2718  -2
   6 -15  16 226.558 32.2718   1
   7  -5  16 15.9109 19.2211  -2
   7 -15  16 15.9109 19.2211   1
   8  -6  16 20.8231 26.9550  -2
   8 -15  16 20.8231 26.9550   1
  -7   8  16 76.1317 12.6155  -2
  -7 -14  16 76.1317 12.6155   1
  -6   7  16 66.4654 12.3226  -2
  -6 -14  16 66.4654 12.3226   1
  -5   6  16 141.996 12.7932  -2
  -5 -14  16 141.996 12.7932   1
  -4   5  16 54.4336 10.6644  -2
  -4 -14  16 54.4336 10.6644   1
  -3   4  16 29.6752 9.82499  -2
  -3 -14  16 29.6752 9.82499   1
  -2   3  16 141.918 11.8156  -2
  -2 -14  16 141.918 11.8156   1
  -1   2  16 9.70206 24.0294  -2
  -1 -14  16 9.70206 24.0294   1
   0   1  16 165.362 26.0351  -2
   0 -14  16 165.362 26.0351   1
   1   0  16 79.5017 27.9123  -2
   1 -14  16 79.5017 27.9123   1
   2  -1  16 -7.6074 25.2673  -2
   2 -14  16 -7.6074 25.2673   1
   3  -2  16 26.1048 26.5533  -2
   3 -14  16 26.1048 26.5533   1
   4  -3  16 197.205 29.2869  -2
   4 -14  16 197.205 29.2869   1
   5  -4  16 -1.9534 27.1913  -2
   5 -14  16 -1.9534 27.1913   1
   6  -5  16 200.291 30.7609  -2
   6 -14  16 200.291 30.7609   1
   7  -6  16 2.68010 27.1821  -2
   7 -14  16 2.68010 27.1821   1
   8  -7  16 30.4370 26.3592  -2
   8 -14  16 30.4370 26.3592   1
  -7   7  16 230.789 17.8164  -2
  -7 -13  16 230.789 17.8164   1
  -7   7  16 306.400 45.7726  -2
  -7   8  15 306.400 45.7726  -2
  -7 -13  16 306.400 45.7726   1
  -6   6  16 34.7536 11.7638  -2
  -6 -13  16 34.7536 11.7638   1
  -5   5  16 73.7393 12.2081  -2
  -5 -13  16 73.7393 12.2081   1
  -4   4  16 49.0209 9.13064  -2
  -4 -13  16 49.0209 9.13064   1
  -3   3  16 315.912 16.7343  -2
  -3 -13  16 315.912 16.7343   1
  -2   2  16 133.654 11.4058  -2
  -2 -13  16 133.654 11.4058   1
  -1   1  16 48.1316 9.33980  -2
  -1 -13  16 48.1316 9.33980   1
   0   0  16 80.9645 10.2872  -2
   0 -13  16 80.9645 10.2872   1
   1  -1  16 132.172 11.9314  -2
   1 -13  16 132.172 11.9314   1
   2  -2  16 159.419 27.9070  -2
   2 -13  16 159.419 27.9070   1
   3  -3  16 505.293 42.1509  -2
   3 -13  16 505.293 42.1509   1
   4  -4  16 331.791 25.2615  -2
   4 -13  16 331.791 25.2615   1
   6  -6  16 -20.112 26.4403  -2
   6 -13  16 -20.112 26.4403   1
   7  -7  16 -24.591 25.7257  -2
   7 -13  16 -24.591 25.7257   1
   8  -8  16 2.33094 22.3389  -2
   8 -13  16 2.33094 22.3389   1
  -7   6  16 26.5758 11.7287  -2
  -7 -12  16 26.5758 11.7287   1
  -6   5  16 -2.0679 9.18437  -2
  -6 -12  16 -2.0679 9.18437   1
  -5   4  16 307.112 18.0806  -2
  -5 -12  16 307.112 18.0806   1
  -4   3  16 111.182 10.5285  -2
  -4 -12  16 111.182 10.5285   1
  -3   2  16 116.474 10.7705  -2
  -3 -12  16 116.474 10.7705   1
  -2   1  16 39.6029 9.12385  -2
  -2 -12  16 39.6029 9.12385   1
  -1   0  16 44.4149 8.70915  -2
  -1 -12  16 44.4149 8.70915   1
   0  -1  16 202.453 13.0608  -2
   0 -12  16 202.453 13.0608   1
   1  -2  16 264.554 15.3341  -2
   1 -12  16 264.554 15.3341   1
   2  -3  16 78.6260 10.6061  -2
   2 -12  16 78.6260 10.6061   1
   3  -4  16 80.6699 26.6186  -2
   3 -12  16 80.6699 26.6186   1
   4  -5  16 138.559 29.4543  -2
   4 -12  16 138.559 29.4543   1
   5  -6  16 41.2722 25.4321  -2
   5 -12  16 41.2722 25.4321   1
   6  -7  16 143.843 27.9595  -2
   6 -12  16 143.843 27.9595   1
   8  -9  16 4.11809 21.8234  -2
   8 -12  16 4.11809 21.8234   1
  -7   5  16 38.8987 9.26015  -2
  -7 -11  16 38.8987 9.26015   1
  -6   4  16 4.40609 10.5888  -2
  -6 -11  16 4.40609 10.5888   1
  -5   3  16 119.372 10.6932  -2
  -5 -11  16 119.372 10.6932   1
  -4   2  16 16.1362 16.8258  -2
  -4 -11  16 16.1362 16.8258   1
  -3   1  16 11.1036 8.86035  -2
  -3 -11  16 11.1036 8.86035   1
  -2   0  16 521.357 24.1325  -2
  -2 -11  16 521.357 24.1325   1
  -1  -1  16 73.1988 9.66384  -2
  -1 -11  16 73.1988 9.66384   1
   0  -2  16 276.970 15.7939  -2
   0 -11  16 276.970 15.7939   1
   1  -3  16 60.4767 9.56596  -2
   1 -11  16 60.4767 9.56596   1
   2  -4  16 8.63710 9.31091  -2
   2 -11  16 8.63710 9.31091   1
   3  -5  16 782.836 56.1979  -2
   3 -11  16 782.836 56.1979   1
   5  -7  16 109.214 26.4134  -2
   5 -11  16 109.214 26.4134   1
   6  -8  16 12.5485 25.6925  -2
   6 -11  16 12.5485 25.6925   1
  -7   4  16 18.9567 10.0208  -2
  -7 -10  16 18.9567 10.0208   1
  -6   3  16 68.2877 9.86748  -2
  -6 -10  16 68.2877 9.86748   1
  -5   2  16 35.8758 8.58632  -2
  -5 -10  16 35.8758 8.58632   1
  -4   1  16 54.0111 8.17457  -2
  -4 -10  16 54.0111 8.17457   1
  -3   0  16 13.0195 8.29068  -2
  -3 -10  16 13.0195 8.29068   1
  -2  -1  16 190.797 12.3405  -2
  -2 -10  16 190.797 12.3405   1
  -1  -2  16 39.5100 8.29087  -2
  -1 -10  16 39.5100 8.29087   1
   0  -3  16 127.237 10.8042  -2
   0 -10  16 127.237 10.8042   1
   1  -4  16 177.639 12.3962  -2
   1 -10  16 177.639 12.3962   1
   2  -5  16 69.4385 9.54497  -2
   2 -10  16 69.4385 9.54497   1
   3  -6  16 174.772 28.6534  -2
   3 -10  16 174.772 28.6534   1
  -8   4  16 25.4808 21.8428  -2
  -8  -9  16 25.4808 21.8428   1
  -7   3  16 186.533 12.1746  -2
  -7  -9  16 186.533 12.1746   1
  -6   2  16 -0.2021 9.79794  -2
  -6  -9  16 -0.2021 9.79794   1
  -5   1  16 49.9369 8.92535  -2
  -5  -9  16 49.9369 8.92535   1
  -4   0  16 2.96580 7.07106  -2
  -4  -9  16 2.96580 7.07106   1
  -3  -1  16 8.04587 8.03563  -2
  -3  -9  16 8.04587 8.03563   1
  -2  -2  16 24.7048 7.83173  -2
  -2  -9  16 24.7048 7.83173   1
  -1  -3  16 36.8758 8.56042  -2
  -1  -9  16 36.8758 8.56042   1
   0  -4  16 42.6759 8.78467  -2
   0  -9  16 42.6759 8.78467   1
   1  -5  16 190.036 12.1185  -2
   1  -9  16 190.036 12.1185   1
   2  -6  16 56.8672 9.21505  -2
   2  -9  16 56.8672 9.21505   1
   3  -7  16 29.1585 24.7428  -2
   3  -9  16 29.1585 24.7428   1
  -8   3  16 164.861 24.3560  -2
  -8  -8  16 164.861 24.3560   1
  -7   2  16 103.388 10.5572  -2
  -7  -8  16 103.388 10.5572   1
  -6   1  16 120.497 10.2564  -2
  -6  -8  16 120.497 10.2564   1
  -5   0  16 57.1062 10.1273  -2
  -5  -8  16 57.1062 10.1273   1
  -4  -1  16 209.447 13.6315  -2
  -4  -8  16 209.447 13.6315   1
  -3  -2  16 127.095 9.12739  -2
  -3  -8  16 127.095 9.12739   1
  -2  -3  16 256.118 14.0455  -2
  -2  -8  16 256.118 14.0455   1
  -1  -4  16 21.7550 7.73580  -2
  -1  -8  16 21.7550 7.73580   1
   0  -5  16 40.3610 21.4678  -2
   0  -8  16 40.3610 21.4678   1
   1  -6  16 78.0016 9.53360  -2
   1  -8  16 78.0016 9.53360   1
   2  -7  16 11.1369 8.36547  -2
   2  -8  16 11.1369 8.36547   1
   3  -8  16 41.1126 25.3488  -2
   3  -8  16 41.1126 25.3488   1
   7 -12  16 17.5519 19.9646  -2
   7  -8  16 17.5519 19.9646   1
 -12  -7  16 52.5770 26.8358   1
  -9   3  16 78.0461 22.2044  -2
  -9  -7  16 78.0461 22.2044   1
  -8   2  16 39.7449 21.1368  -2
  -8  -7  16 39.7449 21.1368   1
  -7   1  16 18.2943 8.77383  -2
  -7  -7  16 18.2943 8.77383   1
  -6   0  16 115.188 9.36388  -2
  -6  -7  16 115.188 9.36388   1
  -5  -1  16 391.194 20.8342  -2
  -5  -7  16 391.194 20.8342   1
  -4  -2  16 174.014 13.0779  -2
  -4  -7  16 174.014 13.0779   1
  -3  -3  16 116.946 10.7966  -2
  -3  -7  16 116.946 10.7966   1
  -2  -4  16 64.6544 8.32618  -2
  -2  -7  16 64.6544 8.32618   1
  -1  -5  16 3.40131 7.52689  -2
  -1  -7  16 3.40131 7.52689   1
   0  -6  16 498.822 22.5727  -2
   0  -7  16 498.822 22.5727   1
   1  -7  16 182.797 12.1496  -2
   1  -7  16 182.797 12.1496   1
   2  -8  16 12.6336 8.82059  -2
   2  -7  16 12.6336 8.82059   1
   3  -9  16 38.2664 25.1351  -2
   3  -7  16 38.2664 25.1351   1
   4 -10  16 81.8242 26.7199  -2
   4  -7  16 81.8242 26.7199   1
   7 -13  16 0.13970 19.2039  -2
   7  -7  16 0.13970 19.2039   1
 -12   5  16 16.9073 26.8933  -2
 -12  -6  16 16.9073 26.8933   1
 -11   4  16 20.9141 25.2053  -2
 -11  -6  16 20.9141 25.2053   1
 -10   3  16 205.567 26.3785  -2
 -10  -6  16 205.567 26.3785   1
  -9   2  16 25.1323 21.4140  -2
  -9  -6  16 25.1323 21.4140   1
  -8   1  16 20.4344 20.8686  -2
  -8  -6  16 20.4344 20.8686   1
  -7   0  16 70.6813 9.64531  -2
  -7  -6  16 70.6813 9.64531   1
  -6  -1  16 31.6596 8.53001  -2
  -6  -6  16 31.6596 8.53001   1
  -5  -2  16 220.657 15.1614  -2
  -5  -6  16 220.657 15.1614   1
  -4  -3  16 85.7640 10.1157  -2
  -4  -6  16 85.7640 10.1157   1
  -3  -4  16 65.6789 9.80493  -2
  -3  -6  16 65.6789 9.80493   1
  -2  -5  16 171.811 13.2332  -2
  -2  -6  16 171.811 13.2332   1
  -1  -6  16 0.78623 7.44391  -2
  -1  -6  16 0.78623 7.44391   1
   0  -7  16 449.292 20.9701  -2
   0  -6  16 449.292 20.9701   1
   1  -8  16 63.8487 8.70111  -2
   1  -6  16 63.8487 8.70111   1
   2  -9  16 51.8631 9.05224  -2
   2  -6  16 51.8631 9.05224   1
   3 -10  16 113.237 26.0832  -2
   3  -6  16 113.237 26.0832   1
   4 -11  16 531.394 43.0929  -2
   4  -6  16 531.394 43.0929   1
   5 -12  16 99.7311 27.9007  -2
   5  -6  16 99.7311 27.9007   1
   7 -14  16 -14.341 18.7887  -2
   7  -6  16 -14.341 18.7887   1
 -11   3  16 6.38413 24.5640  -2
 -11  -5  16 6.38413 24.5640   1
 -10   2  16 71.2126 22.1913  -2
 -10  -5  16 71.2126 22.1913   1
  -9   1  16 24.4736 21.1696  -2
  -9  -5  16 24.4736 21.1696   1
  -8   0  16 7.54062 20.3319  -2
  -8  -5  16 7.54062 20.3319   1
  -7  -1  16 132.889 10.9032  -2
  -7  -5  16 132.889 10.9032   1
  -6  -2  16 126.124 10.3940  -2
  -6  -5  16 126.124 10.3940   1
  -5  -3  16 178.005 13.0947  -2
  -5  -5  16 178.005 13.0947   1
  -4  -4  16 32.0161 8.19704  -2
  -4  -5  16 32.0161 8.19704   1
  -3  -5  16 9.39779 8.81910  -2
  -3  -5  16 9.39779 8.81910   1
  -2  -6  16 180.224 14.1096  -2
  -2  -5  16 180.224 14.1096   1
  -1  -7  16 -4.3131 9.75482  -2
  -1  -5  16 -4.3131 9.75482   1
   0  -8  16 13.5626 8.17654  -2
   0  -5  16 13.5626 8.17654   1
   1  -9  16 226.978 13.7462  -2
   1  -5  16 226.978 13.7462   1
   2 -10  16 73.0264 9.40789  -2
   2  -5  16 73.0264 9.40789   1
   3 -11  16 792.076 38.4147  -2
   3  -5  16 792.076 38.4147   1
   4 -12  16 146.858 12.4103  -2
   4  -5  16 146.858 12.4103   1
   5 -13  16 -3.8729 25.4511  -2
   5  -5  16 -3.8729 25.4511   1
   6 -14  16 238.860 15.7056  -2
   6  -5  16 238.860 15.7056   1
   7 -15  16 15.8376 24.4079  -2
   7  -5  16 15.8376 24.4079   1
   8 -16  16 118.394 31.5919  -2
   8  -5  16 118.394 31.5919   1
 -11   2  16 17.1746 22.0682  -2
 -11  -4  16 17.1746 22.0682   1
 -10   1  16 224.120 26.1519  -2
 -10  -4  16 224.120 26.1519   1
  -9   0  16 22.5736 20.6035  -2
  -9  -4  16 22.5736 20.6035   1
  -8  -1  16 6.54162 19.9317  -2
  -8  -4  16 6.54162 19.9317   1
  -7  -2  16 52.0643 8.42735  -2
  -7  -4  16 52.0643 8.42735   1
  -6  -3  16 102.565 9.71719  -2
  -6  -4  16 102.565 9.71719   1
  -5  -4  16 271.024 17.6809  -2
  -5  -4  16 271.024 17.6809   1
  -4  -5  16 54.3687 9.17728  -2
  -4  -4  16 54.3687 9.17728   1
  -3  -6  16 52.4771 9.33633  -2
  -3  -4  16 52.4771 9.33633   1
  -2  -7  16 48.8120 7.80329  -2
  -2  -4  16 48.8120 7.80329   1
  -1  -8  16 35.4278 5.97525  -2
  -1  -4  16 35.4278 5.97525   1
   0  -9  16 39.6690 6.29303  -2
   0  -4  16 39.6690 6.29303   1
   1 -10  16 168.672 8.52789  -2
   1  -4  16 168.672 8.52789   1
   2 -11  16 6.17094 6.50274  -2
   2  -4  16 6.17094 6.50274   1
   3 -12  16 110.566 9.94960  -2
   3  -4  16 110.566 9.94960   1
   4 -13  16 388.737 19.7013  -2
   4  -4  16 388.737 19.7013   1
   5 -14  16 27.0868 11.1002  -2
   5  -4  16 27.0868 11.1002   1
   6 -15  16 222.871 15.0507  -2
   6  -4  16 222.871 15.0507   1
   7 -16  16 3.23557 10.2745  -2
   7  -4  16 3.23557 10.2745   1
   8 -17  16 53.7374 12.2536  -2
   8  -4  16 53.7374 12.2536   1
 -11   1  16 51.9771 21.5735  -2
 -11  -3  16 51.9771 21.5735   1
 -10   0  16 88.7217 22.2264  -2
 -10  -3  16 88.7217 22.2264   1
  -9  -1  16 5.91929 19.8922  -2
  -9  -3  16 5.91929 19.8922   1
  -8  -2  16 163.949 24.2131  -2
  -8  -3  16 163.949 24.2131   1
  -7  -3  16 724.589 28.2412  -2
  -7  -3  16 724.589 28.2412   1
  -6  -4  16 135.858 10.3694  -2
  -6  -3  16 135.858 10.3694   1
  -5  -5  16 164.813 11.3110  -2
  -5  -3  16 164.813 11.3110   1
  -4  -6  16 156.704 13.7228  -2
  -4  -3  16 156.704 13.7228   1
  -3  -7  16 126.638 12.1725  -2
  -3  -3  16 126.638 12.1725   1
  -2  -8  16 217.773 10.0218  -2
  -2  -3  16 217.773 10.0218   1
  -1  -9  16 31.0828 5.71867  -2
  -1  -3  16 31.0828 5.71867   1
   0 -10  16 111.691 7.87488  -2
   0  -3  16 111.691 7.87488   1
   1 -11  16 107.048 7.49683  -2
   1  -3  16 107.048 7.49683   1
   2 -12  16 78.7418 7.38764  -2
   2  -3  16 78.7418 7.38764   1
   3 -13  16 403.857 17.0465  -2
   3  -3  16 403.857 17.0465   1
   4 -14  16 257.945 15.8550  -2
   4  -3  16 257.945 15.8550   1
   5 -15  16 56.6118 10.9253  -2
   5  -3  16 56.6118 10.9253   1
   6 -16  16 33.3586 11.5101  -2
   6  -3  16 33.3586 11.5101   1
   7 -17  16 11.3230 11.3169  -2
   7  -3  16 11.3230 11.3169   1
   8 -18  16 25.2166 12.2157  -2
   8  -3  16 25.2166 12.2157   1
 -10  -1  16 78.0728 21.6483  -2
 -10  -2  16 78.0728 21.6483   1
  -9  -2  16 54.9884 20.6486  -2
  -9  -2  16 54.9884 20.6486   1
  -8  -3  16 145.570 19.6796  -2
  -8  -2  16 145.570 19.6796   1
  -7  -4  16 76.9792 9.71925  -2
  -7  -2  16 76.9792 9.71925   1
  -6  -5  16 108.225 10.4819  -2
  -6  -2  16 108.225 10.4819   1
  -5  -6  16 252.336 14.3507  -2
  -5  -2  16 252.336 14.3507   1
  -4  -7  16 183.226 11.6759  -2
  -4  -2  16 183.226 11.6759   1
  -3  -8  16 150.159 10.8159  -2
  -3  -2  16 150.159 10.8159   1
  -2  -9  16 22.5309 6.98709  -2
  -2  -2  16 22.5309 6.98709   1
  -1 -10  16 43.8331 5.88301  -2
  -1  -2  16 43.8331 5.88301   1
   0 -11  16 257.157 11.0426  -2
   0  -2  16 257.157 11.0426   1
   1 -12  16 269.752 11.3490  -2
   1  -2  16 269.752 11.3490   1
   2 -13  16 141.951 8.46563  -2
   2  -2  16 141.951 8.46563   1
   3 -14  16 21.1350 9.22425  -2
   3  -2  16 21.1350 9.22425   1
   4 -15  16 194.283 13.6498  -2
   4  -2  16 194.283 13.6498   1
   5 -16  16 16.7027 10.0346  -2
   5  -2  16 16.7027 10.0346   1
   6 -17  16 156.964 13.5468  -2
   6  -2  16 156.964 13.5468   1
   7 -18  16 43.8783 11.9524  -2
   7  -2  16 43.8783 11.9524   1
 -10  -2  16 86.1430 21.5910  -2
 -10  -1  16 86.1430 21.5910   1
  -9  -3  16 2.53425 19.6824  -2
  -9  -1  16 2.53425 19.6824   1
  -8  -4  16 20.8414 13.0093  -2
  -8  -1  16 20.8414 13.0093   1
  -7  -5  16 127.195 9.74658  -2
  -7  -1  16 127.195 9.74658   1
  -6  -6  16 45.4450 7.91340  -2
  -6  -1  16 45.4450 7.91340   1
  -5  -7  16 418.441 20.5463  -2
  -5  -1  16 418.441 20.5463   1
  -4  -8  16 195.902 12.1009  -2
  -4  -1  16 195.902 12.1009   1
  -3  -9  16 10.1406 7.83289  -2
  -3  -1  16 10.1406 7.83289   1
  -2 -10  16 192.770 8.56692  -2
  -2  -1  16 192.770 8.56692   1
  -1 -11  16 67.3297 6.39557  -2
  -1  -1  16 67.3297 6.39557   1
   0 -12  16 159.369 8.74122  -2
   0  -1  16 159.369 8.74122   1
   1 -13  16 118.880 8.02211  -2
   1  -1  16 118.880 8.02211   1
   2 -14  16 7.84203 6.40547  -2
   2  -1  16 7.84203 6.40547   1
   3 -15  16 502.139 20.1105  -2
   3  -1  16 502.139 20.1105   1
   4 -16  16 188.725 12.7300  -2
   4  -1  16 188.725 12.7300   1
   5 -17  16 60.6113 17.8229  -2
   5  -1  16 60.6113 17.8229   1
   6 -18  16 4.09126 17.8420  -2
   6  -1  16 4.09126 17.8420   1
 -10  -3  16 117.651 22.3567  -2
 -10   0  16 117.651 22.3567   1
  -9  -4  16 8.91063 19.3800  -2
  -9   0  16 8.91063 19.3800   1
  -8  -5  16 10.8634 8.93290  -2
  -8   0  16 10.8634 8.93290   1
  -7  -6  16 77.8677 9.13578  -2
  -7   0  16 77.8677 9.13578   1
  -6  -7  16 115.703 10.2811  -2
  -6   0  16 115.703 10.2811   1
  -5  -8  16 56.7114 7.94355  -2
  -5   0  16 56.7114 7.94355   1
  -4  -9  16 17.7865 7.02074  -2
  -4   0  16 17.7865 7.02074   1
  -3 -10  16 6.27610 5.26624  -2
  -3   0  16 6.27610 5.26624   1
  -2 -11  16 492.998 17.3049  -2
  -2   0  16 492.998 17.3049   1
  -1 -12  16 15.6766 6.00420  -2
  -1   0  16 15.6766 6.00420   1
   0 -13  16 40.1027 6.13036  -2
   0   0  16 40.1027 6.13036   1
   1 -14  16 104.947 7.98247  -2
   1   0  16 104.947 7.98247   1
   2 -15  16 13.9176 7.28473  -2
   2   0  16 13.9176 7.28473   1
   3 -16  16 162.014 11.9337  -2
   3   0  16 162.014 11.9337   1
   4 -17  16 21.8033 10.1339  -2
   4   0  16 21.8033 10.1339   1
   5 -18  16 24.5021 10.3436  -2
   5   0  16 24.5021 10.3436   1
   6 -19  16 75.7321 18.5055  -2
   6   0  16 75.7321 18.5055   1
   7 -20  16 14.4021 24.4688  -2
   7   0  16 14.4021 24.4688   1
 -10  -4  16 268.780 27.4210  -2
 -10   1  16 268.780 27.4210   1
  -9  -5  16 39.5524 20.0894  -2
  -9   1  16 39.5524 20.0894   1
  -8  -6  16 3.80494 9.96247  -2
  -8   1  16 3.80494 9.96247   1
  -7  -7  16 29.4914 8.51011  -2
  -7   1  16 29.4914 8.51011   1
  -6  -8  16 103.813 9.34264  -2
  -6   1  16 103.813 9.34264   1
  -5  -9  16 72.7223 8.45329  -2
  -5   1  16 72.7223 8.45329   1
  -4 -10  16 76.2652 7.97586  -2
  -4   1  16 76.2652 7.97586   1
  -3 -11  16 7.58107 5.47167  -2
  -3   1  16 7.58107 5.47167   1
  -2 -12  16 36.8591 6.46465  -2
  -2   1  16 36.8591 6.46465   1
  -1 -13  16 36.4455 6.41968  -2
  -1   1  16 36.4455 6.41968   1
   0 -14  16 144.273 8.94220  -2
   0   1  16 144.273 8.94220   1
   1 -15  16 158.832 9.21938  -2
   1   1  16 158.832 9.21938   1
   2 -16  16 30.8286 8.10848  -2
   2   1  16 30.8286 8.10848   1
   3 -17  16 64.2341 10.7965  -2
   3   1  16 64.2341 10.7965   1
   4 -18  16 33.7410 22.4339  -2
   4   1  16 33.7410 22.4339   1
   5 -19  16 -1.2102 15.9375  -2
   5   1  16 -1.2102 15.9375   1
   6 -20  16 62.9085 17.2515  -2
   6   1  16 62.9085 17.2515   1
  -9  -6  16 20.1440 10.9578  -2
  -9   2  16 20.1440 10.9578   1
  -8  -7  16 36.6779 10.3070  -2
  -8   2  16 36.6779 10.3070   1
  -7  -8  16 121.460 10.0124  -2
  -7   2  16 121.460 10.0124   1
  -6  -9  16 20.4152 8.06249  -2
  -6   2  16 20.4152 8.06249   1
  -5 -10  16 32.7043 8.07262  -2
  -5   2  16 32.7043 8.07262   1
  -4 -11  16 72.4249 6.24428  -2
  -4   2  16 72.4249 6.24428   1
  -3 -12  16 103.965 6.94060  -2
  -3   2  16 103.965 6.94060   1
  -2 -13  16 119.679 7.55331  -2
  -2   2  16 119.679 7.55331   1
  -1 -14  16 27.4399 6.95574  -2
  -1   2  16 27.4399 6.95574   1
   0 -15  16 12.4343 7.34183  -2
   0   2  16 12.4343 7.34183   1
   1 -16  16 121.910 9.34105  -2
   1   2  16 121.910 9.34105   1
   2 -17  16 36.7560 11.6113  -2
   2   2  16 36.7560 11.6113   1
   3 -18  16 18.0193 20.1950  -2
   3   2  16 18.0193 20.1950   1
   4 -19  16 11.5469 17.2087  -2
   4   2  16 11.5469 17.2087   1
   5 -20  16 -6.8655 21.8207  -2
   5   2  16 -6.8655 21.8207   1
   6 -21  16 -2.6991 16.4314  -2
   6   2  16 -2.6991 16.4314   1
  -9  -7  16 83.5051 11.6649  -2
  -9   3  16 83.5051 11.6649   1
  -8  -8  16 186.684 13.9869  -2
  -8   3  16 186.684 13.9869   1
  -7  -9  16 216.806 14.4146  -2
  -7   3  16 216.806 14.4146   1
  -6 -10  16 83.4213 9.48775  -2
  -6   3  16 83.4213 9.48775   1
  -5 -11  16 157.324 10.3508  -2
  -5   3  16 157.324 10.3508   1
  -4 -12  16 106.873 7.23204  -2
  -4   3  16 106.873 7.23204   1
  -3 -13  16 280.742 12.6280  -2
  -3   3  16 280.742 12.6280   1
  -2 -14  16 132.675 7.82011  -2
  -2   3  16 132.675 7.82011   1
  -1 -15  16 11.3450 6.89871  -2
  -1   3  16 11.3450 6.89871   1
   0 -16  16 278.200 19.2577  -2
   0   3  16 278.200 19.2577   1
   3 -19  16 3.68523 19.9238  -2
   3   3  16 3.68523 19.9238   1
   4 -20  16 2.57278 17.1784  -2
   4   3  16 2.57278 17.1784   1
   5 -21  16 15.7063 17.8309  -2
   5   3  16 15.7063 17.8309   1
 -10  -7  16 331.499 23.5285  -2
 -10   4  16 331.499 23.5285   1
  -9  -8  16 43.6109 10.6383  -2
  -9   4  16 43.6109 10.6383   1
  -8  -9  16 8.42392 10.1826  -2
  -8   4  16 8.42392 10.1826   1
  -7 -10  16 9.50384 9.41252  -2
  -7   4  16 9.50384 9.41252   1
  -6 -11  16 35.8624 9.46725  -2
  -6   4  16 35.8624 9.46725   1
  -5 -12  16 282.544 18.7131  -2
  -5   4  16 282.544 18.7131   1
  -4 -13  16 56.2277 6.20009  -2
  -4   4  16 56.2277 6.20009   1
  -3 -14  16 36.1703 6.66644  -2
  -3   4  16 36.1703 6.66644   1
  -2 -15  16 129.254 8.15415  -2
  -2   4  16 129.254 8.15415   1
  -1 -16  16 29.7469 9.41658  -2
  -1   4  16 29.7469 9.41658   1
   4 -21  16 42.5172 17.2907  -2
   4   4  16 42.5172 17.2907   1
   5 -22  16 38.7068 17.7549  -2
   5   4  16 38.7068 17.7549   1
 -12  -6  16 -0.2740 16.6726  -2
 -12   5  16 -0.2740 16.6726   1
 -11  -7  16 35.0412 15.3208  -2
 -11   5  16 35.0412 15.3208   1
 -10  -8  16 27.2945 14.1082  -2
 -10   5  16 27.2945 14.1082   1
  -9  -9  16 54.5859 13.8911  -2
  -9   5  16 54.5859 13.8911   1
  -8 -10  16 29.9405 10.7287  -2
  -8   5  16 29.9405 10.7287   1
  -7 -11  16 29.4103 10.5526  -2
  -7   5  16 29.4103 10.5526   1
  -6 -12  16 6.01344 10.1238  -2
  -6   5  16 6.01344 10.1238   1
  -5 -13  16 35.7928 10.4112  -2
  -5   5  16 35.7928 10.4112   1
  -4 -14  16 31.9712 8.98403  -2
  -4   5  16 31.9712 8.98403   1
  -3 -15  16 60.6357 6.88479  -2
  -3   5  16 60.6357 6.88479   1
  -2 -16  16 356.967 29.6153  -2
  -2   5  16 356.967 29.6153   1
  -1 -17  16 72.0353 20.0614  -2
  -1   5  16 72.0353 20.0614   1
   4 -22  16 -17.827 30.9863  -2
   4   5  16 -17.827 30.9863   1
   5 -23  16 40.7136 33.6895  -2
   5   5  16 40.7136 33.6895   1
 -11  -8  16 116.463 16.7160  -2
 -11   6  16 116.463 16.7160   1
 -10  -9  16 169.250 17.6893  -2
 -10   6  16 169.250 17.6893   1
  -9 -10  16 29.4108 13.8015  -2
  -9   6  16 29.4108 13.8015   1
  -8 -11  16 20.6053 9.96239  -2
  -8   6  16 20.6053 9.96239   1
  -7 -12  16 11.8194 9.78190  -2
  -7   6  16 11.8194 9.78190   1
  -6 -13  16 23.1800 10.2069  -2
  -6   6  16 23.1800 10.2069   1
  -5 -14  16 148.968 14.5054  -2
  -5   6  16 148.968 14.5054   1
  -4 -15  16 22.4517 6.79815  -2
  -4   6  16 22.4517 6.79815   1
  -3 -16  16 26.5187 10.3981  -2
  -3   6  16 26.5187 10.3981   1
  -1 -18  16 7.40019 18.3623  -2
  -1   6  16 7.40019 18.3623   1
   3 -22  16 66.9623 31.1134  -2
   3   6  16 66.9623 31.1134   1
   4 -23  16 27.4356 17.5070  -2
   4   6  16 27.4356 17.5070   1
 -11  -9  16 81.1815 16.5315  -2
 -11   7  16 81.1815 16.5315   1
 -10 -10  16 75.9024 15.4663  -2
 -10   7  16 75.9024 15.4663   1
  -9 -11  16 151.929 15.4467  -2
  -9   7  16 151.929 15.4467   1
  -8 -12  16 76.8428 10.9927  -2
  -8   7  16 76.8428 10.9927   1
  -7 -13  16 179.660 13.4561  -2
  -7   7  16 179.660 13.4561   1
  -6 -14  16 33.5132 10.9531  -2
  -6   7  16 33.5132 10.9531   1
  -5 -15  16 16.7021 11.7708  -2
  -5   7  16 16.7021 11.7708   1
  -4 -16  16 51.8882 7.50201  -2
  -4   7  16 51.8882 7.50201   1
  -3 -17  16 107.192 12.3666  -2
  -3   7  16 107.192 12.3666   1
  -1 -19  16 -9.4910 20.3881  -2
  -1   7  16 -9.4910 20.3881   1
   3 -23  16 -51.984 31.6089  -2
   3   7  16 -51.984 31.6089   1
 -11 -10  16 13.1978 16.1224  -2
 -11   8  16 13.1978 16.1224   1
 -10 -11  16 54.4786 15.5308  -2
 -10   8  16 54.4786 15.5308   1
  -9 -12  16 71.1630 13.4313  -2
  -9   8  16 71.1630 13.4313   1
  -8 -13  16 162.393 14.7633  -2
  -8   8  16 162.393 14.7633   1
  -7 -14  16 43.1061 10.2993  -2
  -7   8  16 43.1061 10.2993   1
  -6 -15  16 46.5903 12.7043  -2
  -6   8  16 46.5903 12.7043   1
  -5 -16  16 171.154 14.8632  -2
  -5   8  16 171.154 14.8632   1
  -2 -19  16 63.3704 21.9466  -2
  -2   8  16 63.3704 21.9466   1
  -1 -20  16 0.39756 20.0602  -2
  -1   8  16 0.39756 20.0602   1
   3 -24  16 -35.251 32.5225  -2
   3   8  16 -35.251 32.5225   1
 -10 -12  16 122.241 16.9940  -2
 -10   9  16 122.241 16.9940   1
  -9 -13  16 35.8903 14.4471  -2
  -9   9  16 35.8903 14.4471   1
  -8 -14  16 26.1619 13.6255  -2
  -8   9  16 26.1619 13.6255   1
  -7 -15  16 20.3681 12.7291  -2
  -7   9  16 20.3681 12.7291   1
  -6 -16  16 65.6420 11.8794  -2
  -6   9  16 65.6420 11.8794   1
  -5 -17  16 281.254 20.3526  -2
  -5   9  16 281.254 20.3526   1
 -10 -13  16 8.48109 15.3829  -2
 -10  10  16 8.48109 15.3829   1
  -9 -14  16 11.4274 14.6846  -2
  -9  10  16 11.4274 14.6846   1
  -8 -15  16 47.3173 14.2333  -2
  -8  10  16 47.3173 14.2333   1
  -7 -16  16 26.3155 11.7465  -2
  -7  10  16 26.3155 11.7465   1
  -6 -17  16 50.4770 13.2622  -2
  -6  10  16 50.4770 13.2622   1
  -2 -21  16 16.6997 22.8533  -2
  -2  10  16 16.6997 22.8533   1
  -9 -15  16 23.7741 13.4698  -2
  -9  11  16 23.7741 13.4698   1
  -8 -16  16 -3.4579 12.8383  -2
  -8  11  16 -3.4579 12.8383   1
  -7 -17  16 12.6193 13.2821  -2
  -7  11  16 12.6193 13.2821   1
  -6 -18  16 44.4128 12.0272  -2
  -6  11  16 44.4128 12.0272   1
  -5 -19  16 93.8740 12.9708  -2
  -5  11  16 93.8740 12.9708   1
  -8 -17  16 41.2803 13.5334  -2
  -8  12  16 41.2803 13.5334   1
  -7 -18  16 90.1441 14.6528  -2
  -7  12  16 90.1441 14.6528   1
  -6 -19  16 8.81834 11.7537  -2
  -6  12  16 8.81834 11.7537   1
  -5 -20  16 20.1548 13.4459  -2
  -5  12  16 20.1548 13.4459   1
  -6 -20  16 11.0028 12.4900  -2
  -6  13  16 11.0028 12.4900   1
  -5 -21  16 24.3508 12.4111  -2
  -5  13  16 24.3508 12.4111   1
  -3  11  17 -14.472 13.0591  -2
  -3 -22  17 -14.472 13.0591   1
  -5  12  17 -6.9057 13.9650  -2
  -5 -21  17 -6.9057 13.9650   1
  -4  11  17 0.70281 13.6854  -2
  -4 -21  17 0.70281 13.6854   1
  -5  11  17 102.604 14.3164  -2
  -5 -20  17 102.604 14.3164   1
  -4  10  17 34.5453 13.5573  -2
  -4 -20  17 34.5453 13.5573   1
  -5  10  17 -9.3768 13.0855  -2
  -5 -19  17 -9.3768 13.0855   1
  -4   9  17 -5.1339 12.8572  -2
  -4 -19  17 -5.1339 12.8572   1
   7 -19  17 -16.064 21.8746   1
  -5   9  17 -4.1531 12.4518  -2
  -5 -18  17 -4.1531 12.4518   1
  -5   8  17 28.4500 12.3438  -2
  -5 -17  17 28.4500 12.3438   1
  -5   7  17 50.1527 12.2350  -2
  -5 -16  17 50.1527 12.2350   1
  -3   5  17 29.2718 25.7894  -2
  -3 -16  17 29.2718 25.7894   1
  -2   4  17 -2.8957 27.4288  -2
  -2 -16  17 -2.8957 27.4288   1
  -3   4  17 54.5471 26.4863  -2
  -3 -15  17 54.5471 26.4863   1
  -2   3  17 61.6165 26.2915  -2
  -2 -15  17 61.6165 26.2915   1
  -1   2  17 120.344 28.7889  -2
  -1 -15  17 120.344 28.7889   1
  -4   4  17 17.3508 24.7804  -2
  -4 -14  17 17.3508 24.7804   1
  -3   3  17 101.428 27.2114  -2
  -3 -14  17 101.428 27.2114   1
  -2   2  17 112.092 29.1747  -2
  -2 -14  17 112.092 29.1747   1
  -1   1  17 414.018 39.1059  -2
  -1 -14  17 414.018 39.1059   1
  -4   3  17 292.969 32.1043  -2
  -4 -13  17 292.969 32.1043   1
  -3   2  17 211.947 28.7693  -2
  -3 -13  17 211.947 28.7693   1
  -2   1  17 23.5866 25.7626  -2
  -2 -13  17 23.5866 25.7626   1
  -1   0  17 15.8679 27.3377  -2
  -1 -13  17 15.8679 27.3377   1
  -5   3  17 -10.372 24.9199  -2
  -5 -12  17 -10.372 24.9199   1
  -4   2  17 121.000 27.4667  -2
  -4 -12  17 121.000 27.4667   1
  -3   1  17 107.123 28.1418  -2
  -3 -12  17 107.123 28.1418   1
  -2   0  17 51.8225 25.6081  -2
  -2 -12  17 51.8225 25.6081   1
  -1  -1  17 579.408 46.0196  -2
  -1 -12  17 579.408 46.0196   1
  -6   3  17 -0.2820 32.1185  -2
  -6 -11  17 -0.2820 32.1185   1
  -5   2  17 -4.2428 18.9469  -2
  -5 -11  17 -4.2428 18.9469   1
  -4   1  17 183.457 28.2532  -2
  -4 -11  17 183.457 28.2532   1
  -3   0  17 48.7984 24.6290  -2
  -3 -11  17 48.7984 24.6290   1
  -2  -1  17 38.5110 25.7117  -2
  -2 -11  17 38.5110 25.7117   1
  -1  -2  17 384.385 36.9879  -2
  -1 -11  17 384.385 36.9879   1
  -6   2  17 119.337 18.6756  -2
  -6 -10  17 119.337 18.6756   1
  -5   1  17 135.144 19.9455  -2
  -5 -10  17 135.144 19.9455   1
  -4   0  17 345.505 27.0549  -2
  -4 -10  17 345.505 27.0549   1
  -3  -1  17 20.2216 23.5713  -2
  -3 -10  17 20.2216 23.5713   1
  -2  -2  17 97.3984 25.9937  -2
  -2 -10  17 97.3984 25.9937   1
  -1  -3  17 144.366 29.1900  -2
  -1 -10  17 144.366 29.1900   1
 -10   5  17 -11.959 24.5430  -2
 -10  -9  17 -11.959 24.5430   1
  -7   2  17 30.6365 31.8273  -2
  -7  -9  17 30.6365 31.8273   1
  -6   1  17 114.617 34.8852  -2
  -6  -9  17 114.617 34.8852   1
  -5   0  17 111.628 34.0836  -2
  -5  -9  17 111.628 34.0836   1
  -4  -1  17 87.8958 19.3035  -2
  -4  -9  17 87.8958 19.3035   1
  -3  -2  17 133.071 24.7028  -2
  -3  -9  17 133.071 24.7028   1
  -2  -3  17 255.966 27.8261  -2
  -2  -9  17 255.966 27.8261   1
 -11   5  17 26.4429 25.6682  -2
 -11  -8  17 26.4429 25.6682   1
 -10   4  17 43.1001 24.4046  -2
 -10  -8  17 43.1001 24.4046   1
  -7   1  17 188.724 35.9886  -2
  -7  -8  17 188.724 35.9886   1
  -6   0  17 165.686 35.3353  -2
  -6  -8  17 165.686 35.3353   1
  -5  -1  17 -16.632 33.5960  -2
  -5  -8  17 -16.632 33.5960   1
  -4  -2  17 353.328 47.1203  -2
  -4  -8  17 353.328 47.1203   1
  -2  -4  17 95.1847 24.9238  -2
  -2  -8  17 95.1847 24.9238   1
 -11   4  17 -0.6291 24.6871  -2
 -11  -7  17 -0.6291 24.6871   1
 -10   3  17 13.5355 22.6958  -2
 -10  -7  17 13.5355 22.6958   1
  -9   2  17 46.3414 26.4133  -2
  -9  -7  17 46.3414 26.4133   1
  -7   0  17 63.8809 32.8188  -2
  -7  -7  17 63.8809 32.8188   1
  -6  -1  17 300.498 39.8889  -2
  -6  -7  17 300.498 39.8889   1
  -5  -2  17 17.7325 35.2549  -2
  -5  -7  17 17.7325 35.2549   1
  -1  -6  17 275.466 30.6051  -2
  -1  -7  17 275.466 30.6051   1
 -11   3  17 -17.599 23.8379  -2
 -11  -6  17 -17.599 23.8379   1
 -10   2  17 -14.017 21.9474  -2
 -10  -6  17 -14.017 21.9474   1
  -9   1  17 105.848 23.2725  -2
  -9  -6  17 105.848 23.2725   1
  -7  -1  17 143.443 34.1175  -2
  -7  -6  17 143.443 34.1175   1
  -6  -2  17 148.772 35.6326  -2
  -6  -6  17 148.772 35.6326   1
  -5  -3  17 56.7734 35.9874  -2
  -5  -6  17 56.7734 35.9874   1
  -1  -7  17 196.873 26.1234  -2
  -1  -6  17 196.873 26.1234   1
 -11   2  17 24.2137 23.0201  -2
 -11  -5  17 24.2137 23.0201   1
 -10   1  17 18.8023 21.8588  -2
 -10  -5  17 18.8023 21.8588   1
  -9   0  17 238.147 27.2948  -2
  -9  -5  17 238.147 27.2948   1
  -7  -2  17 51.2850 33.0108  -2
  -7  -5  17 51.2850 33.0108   1
  -6  -3  17 88.0743 34.3960  -2
  -6  -5  17 88.0743 34.3960   1
 -11   1  17 99.0600 24.0051  -2
 -11  -4  17 99.0600 24.0051   1
 -10   0  17 69.2207 23.0643  -2
 -10  -4  17 69.2207 23.0643   1
  -9  -1  17 64.5364 22.2404  -2
  -9  -4  17 64.5364 22.2404   1
  -7  -3  17 269.134 39.5268  -2
  -7  -4  17 269.134 39.5268   1
  -6  -4  17 390.785 44.7901  -2
  -6  -4  17 390.785 44.7901   1
 -11   0  17 55.8689 22.6075  -2
 -11  -3  17 55.8689 22.6075   1
 -10  -1  17 11.8408 21.8184  -2
 -10  -3  17 11.8408 21.8184   1
  -9  -2  17 64.4910 21.8112  -2
  -9  -3  17 64.4910 21.8112   1
  -8  -3  17 111.300 22.6344  -2
  -8  -3  17 111.300 22.6344   1
  -7  -4  17 239.755 39.7144  -2
  -7  -3  17 239.755 39.7144   1
  -6  -5  17 29.8315 35.9671  -2
  -6  -3  17 29.8315 35.9671   1
 -10  -2  17 36.3294 21.9056  -2
 -10  -2  17 36.3294 21.9056   1
  -9  -3  17 61.3728 22.1168  -2
  -9  -2  17 61.3728 22.1168   1
  -8  -4  17 24.1140 20.8444  -2
  -8  -2  17 24.1140 20.8444   1
  -7  -5  17 37.9547 18.0178  -2
  -7  -2  17 37.9547 18.0178   1
  -6  -6  17 187.268 40.1109  -2
  -6  -2  17 187.268 40.1109   1
 -10  -3  17 41.9033 21.5784  -2
 -10  -1  17 41.9033 21.5784   1
  -9  -4  17 38.0898 21.3059  -2
  -9  -1  17 38.0898 21.3059   1
  -8  -5  17 -4.0202 17.4032  -2
  -8  -1  17 -4.0202 17.4032   1
  -7  -6  17 132.295 19.7801  -2
  -7  -1  17 132.295 19.7801   1
  -6  -7  17 326.001 25.1378  -2
  -6  -1  17 326.001 25.1378   1
   4 -17  17 321.584 22.0944  -2
   4  -1  17 321.584 22.0944   1
 -10  -4  17 102.173 23.2398  -2
 -10   0  17 102.173 23.2398   1
  -9  -5  17 220.119 26.3284  -2
  -9   0  17 220.119 26.3284   1
  -8  -6  17 22.8044 17.8580  -2
  -8   0  17 22.8044 17.8580   1
  -7  -7  17 35.0261 18.7062  -2
  -7   0  17 35.0261 18.7062   1
  -6  -8  17 174.080 25.3974  -2
  -6   0  17 174.080 25.3974   1
  -3 -11  17 39.2952 12.2082  -2
  -3   0  17 39.2952 12.2082   1
   2 -16  17 105.706 15.6532  -2
   2   0  17 105.706 15.6532   1
   3 -17  17 22.7784 15.1499  -2
   3   0  17 22.7784 15.1499   1
   4 -18  17 39.5536 14.7288  -2
   4   0  17 39.5536 14.7288   1
 -11  -4  17 86.0397 13.0711  -2
 -11   1  17 86.0397 13.0711   1
 -10  -5  17 37.0515 21.4190  -2
 -10   1  17 37.0515 21.4190   1
  -9  -6  17 81.1161 22.6797  -2
  -9   1  17 81.1161 22.6797   1
  -8  -7  17 33.0321 18.1962  -2
  -8   1  17 33.0321 18.1962   1
  -7  -8  17 236.518 27.1440  -2
  -7   1  17 236.518 27.1440   1
  -6  -9  17 198.619 26.6424  -2
  -6   1  17 198.619 26.6424   1
  -4 -11  17 181.123 10.1993  -2
  -4   1  17 181.123 10.1993   1
  -3 -12  17 158.420 15.3807  -2
  -3   1  17 158.420 15.3807   1
  -1 -14  17 428.619 25.4092  -2
  -1   1  17 428.619 25.4092   1
   0 -15  17 96.0045 14.2627  -2
   0   1  17 96.0045 14.2627   1
   1 -16  17 26.7434 14.4316  -2
   1   1  17 26.7434 14.4316   1
 -11  -5  17 38.4984 13.5265  -2
 -11   2  17 38.4984 13.5265   1
 -10  -6  17 3.98803 12.6345  -2
 -10   2  17 3.98803 12.6345   1
  -9  -7  17 34.3690 10.2484  -2
  -9   2  17 34.3690 10.2484   1
  -8  -8  17 134.458 12.2489  -2
  -8   2  17 134.458 12.2489   1
  -7  -9  17 54.3306 11.2721  -2
  -7   2  17 54.3306 11.2721   1
  -6 -10  17 187.618 14.2314  -2
  -6   2  17 187.618 14.2314   1
  -5 -11  17 44.2658 11.6322  -2
  -5   2  17 44.2658 11.6322   1
  -4 -12  17 116.026 12.2136  -2
  -4   2  17 116.026 12.2136   1
  -3 -13  17 233.238 12.4167  -2
  -3   2  17 233.238 12.4167   1
  -2 -14  17 97.5625 9.43062  -2
  -2   2  17 97.5625 9.43062   1
  -1 -15  17 115.010 10.1201  -2
  -1   2  17 115.010 10.1201   1
   0 -16  17 251.310 14.0170  -2
   0   2  17 251.310 14.0170   1
   3 -19  17 17.1624 25.1938  -2
   3   2  17 17.1624 25.1938   1
   4 -20  17 -30.890 25.9319  -2
   4   2  17 -30.890 25.9319   1
 -12  -5  17 2.38445 14.0173  -2
 -12   3  17 2.38445 14.0173   1
 -11  -6  17 21.4496 12.2540  -2
 -11   3  17 21.4496 12.2540   1
 -10  -7  17 55.4106 13.5220  -2
 -10   3  17 55.4106 13.5220   1
  -9  -8  17 61.4308 11.3726  -2
  -9   3  17 61.4308 11.3726   1
  -8  -9  17 118.986 12.3249  -2
  -8   3  17 118.986 12.3249   1
  -7 -10  17 4.43487 11.1798  -2
  -7   3  17 4.43487 11.1798   1
  -6 -11  17 -1.0215 10.2985  -2
  -6   3  17 -1.0215 10.2985   1
  -5 -12  17 13.9999 11.7607  -2
  -5   3  17 13.9999 11.7607   1
  -4 -13  17 246.311 12.5834  -2
  -4   3  17 246.311 12.5834   1
  -3 -14  17 137.230 10.1744  -2
  -3   3  17 137.230 10.1744   1
  -2 -15  17 72.7906 9.59859  -2
  -2   3  17 72.7906 9.59859   1
  -1 -16  17 494.756 30.5818  -2
  -1   3  17 494.756 30.5818   1
   3 -20  17 12.0440 25.8393  -2
   3   3  17 12.0440 25.8393   1
   4 -21  17 -2.6342 25.7388  -2
   4   3  17 -2.6342 25.7388   1
 -11  -7  17 8.47319 13.7148  -2
 -11   4  17 8.47319 13.7148   1
 -10  -8  17 48.8444 12.1692  -2
 -10   4  17 48.8444 12.1692   1
  -9  -9  17 20.2845 10.3191  -2
  -9   4  17 20.2845 10.3191   1
  -8 -10  17 20.5178 10.1343  -2
  -8   4  17 20.5178 10.1343   1
  -7 -11  17 4.90960 10.5621  -2
  -7   4  17 4.90960 10.5621   1
  -6 -12  17 37.9424 12.0964  -2
  -6   4  17 37.9424 12.0964   1
  -5 -13  17 -3.9771 11.3972  -2
  -5   4  17 -3.9771 11.3972   1
  -4 -14  17 23.8808 8.67854  -2
  -4   4  17 23.8808 8.67854   1
  -3 -15  17 41.6949 9.17107  -2
  -3   4  17 41.6949 9.17107   1
  -2 -16  17 8.37955 9.24050  -2
  -2   4  17 8.37955 9.24050   1
  -1 -17  17 271.741 14.4308  -2
  -1   4  17 271.741 14.4308   1
   3 -21  17 1.77877 25.4183  -2
   3   4  17 1.77877 25.4183   1
   4 -22  17 13.4412 28.3502  -2
   4   4  17 13.4412 28.3502   1
 -11  -8  17 41.6126 12.8398  -2
 -11   5  17 41.6126 12.8398   1
 -10  -9  17 17.5173 11.9392  -2
 -10   5  17 17.5173 11.9392   1
  -9 -10  17 247.889 19.1616  -2
  -9   5  17 247.889 19.1616   1
  -8 -11  17 -8.1589 11.5285  -2
  -8   5  17 -8.1589 11.5285   1
  -7 -12  17 19.2775 10.7802  -2
  -7   5  17 19.2775 10.7802   1
  -6 -13  17 40.4660 11.2397  -2
  -6   5  17 40.4660 11.2397   1
  -5 -14  17 29.6492 13.3227  -2
  -5   5  17 29.6492 13.3227   1
  -4 -15  17 119.207 10.3119  -2
  -4   5  17 119.207 10.3119   1
  -3 -16  17 18.4986 9.28340  -2
  -3   5  17 18.4986 9.28340   1
   4 -23  17 9.75723 29.2847  -2
   4   5  17 9.75723 29.2847   1
 -11  -9  17 83.0683 13.7550  -2
 -11   6  17 83.0683 13.7550   1
 -10 -10  17 46.3587 13.9343  -2
 -10   6  17 46.3587 13.9343   1
  -9 -11  17 112.125 14.6695  -2
  -9   6  17 112.125 14.6695   1
  -8 -12  17 93.1389 12.9874  -2
  -8   6  17 93.1389 12.9874   1
  -7 -13  17 84.0663 13.0177  -2
  -7   6  17 84.0663 13.0177   1
  -6 -14  17 256.749 18.9788  -2
  -6   6  17 256.749 18.9788   1
  -4 -16  17 73.4206 9.91765  -2
  -4   6  17 73.4206 9.91765   1
  -3 -17  17 29.0154 14.1500  -2
  -3   6  17 29.0154 14.1500   1
 -11 -10  17 12.7054 14.3672  -2
 -11   7  17 12.7054 14.3672   1
 -10 -11  17 -12.048 13.8655  -2
 -10   7  17 -12.048 13.8655   1
  -9 -12  17 46.4588 13.3048  -2
  -9   7  17 46.4588 13.3048   1
  -8 -13  17 44.1629 12.2132  -2
  -8   7  17 44.1629 12.2132   1
  -7 -14  17 135.521 14.5430  -2
  -7   7  17 135.521 14.5430   1
  -6 -15  17 39.8618 12.2112  -2
  -6   7  17 39.8618 12.2112   1
 -10 -12  17 14.4942 13.7753  -2
 -10   8  17 14.4942 13.7753   1
  -9 -13  17 26.3349 14.0406  -2
  -9   8  17 26.3349 14.0406   1
  -8 -14  17 62.3929 14.2907  -2
  -8   8  17 62.3929 14.2907   1
  -7 -15  17 29.7414 12.6313  -2
  -7   8  17 29.7414 12.6313   1
  -6 -16  17 45.8944 14.6682  -2
  -6   8  17 45.8944 14.6682   1
 -10 -13  17 -1.7270 12.5082  -2
 -10   9  17 -1.7270 12.5082   1
  -9 -14  17 5.80314 12.5176  -2
  -9   9  17 5.80314 12.5176   1
  -8 -15  17 7.57977 12.6185  -2
  -8   9  17 7.57977 12.6185   1
  -7 -16  17 49.6427 14.7604  -2
  -7   9  17 49.6427 14.7604   1
  -6 -17  17 5.14953 12.9185  -2
  -6   9  17 5.14953 12.9185   1
  -9 -15  17 68.1272 15.1620  -2
  -9  10  17 68.1272 15.1620   1
  -8 -16  17 35.4535 14.6564  -2
  -8  10  17 35.4535 14.6564   1
  -7 -17  17 20.0915 13.0077  -2
  -7  10  17 20.0915 13.0077   1
  -6 -18  17 61.9464 15.2314  -2
  -6  10  17 61.9464 15.2314   1
  -8 -17  17 14.5756 13.3798  -2
  -8  11  17 14.5756 13.3798   1
  -7 -18  17 35.3090 15.1010  -2
  -7  11  17 35.3090 15.1010   1
  -6 -19  17 114.067 16.6410  -2
  -6  11  17 114.067 16.6410   1
  -6  12  17 16.4448 12.8532   1
  -5 -21  17 41.5325 16.2978  -2
  -5  12  17 41.5325 16.2978   1
  -4  12  17 46.4043 13.5587   1
  -5  10  18 161.856 18.3409  -2
  -5 -20  18 161.856 18.3409   1
  -5   9  18 3.08264 15.3535  -2
  -5 -19  18 3.08264 15.3535   1
  -5   8  18 63.9003 15.3850  -2
  -5 -18  18 63.9003 15.3850   1
  -7   1  18 135.288 44.4489  -2
  -7  -9  18 135.288 44.4489   1
  -7   0  18 -16.877 43.8889  -2
  -7  -8  18 -16.877 43.8889   1
  -6  -1  18 80.0914 46.4781  -2
  -6  -8  18 80.0914 46.4781   1
  -6  -2  18 52.5086 45.4938  -2
  -6  -7  18 52.5086 45.4938   1
   6 -17  18 43.9852 29.5257  -2
   6  -3  18 43.9852 29.5257   1
   6 -18  18 26.6336 28.9250  -2
   6  -2  18 26.6336 28.9250   1
   6 -19  18 5.02879 28.6735  -2
   6  -1  18 5.02879 28.6735   1
 -10  -5  18 113.152 24.0691  -2
 -10   0  18 113.152 24.0691   1
   6 -20  18 16.9197 29.8644  -2
   6   0  18 16.9197 29.8644   1
 -10  -6  18 73.9493 23.4047  -2
 -10   1  18 73.9493 23.4047   1
  -9  -7  18 32.1856 29.4060  -2
  -9   1  18 32.1856 29.4060   1
  -9  -8  18 59.4647 30.5896  -2
  -9   2  18 59.4647 30.5896   1
   5 -21  18 19.0337 30.9726  -2
   5   2  18 19.0337 30.9726   1
  -9  -9  18 16.9111 30.7411  -2
  -9   3  18 16.9111 30.7411   1
  -9 -10  18 3.09989 31.8550  -2
  -9   4  18 3.09989 31.8550   1
  -8 -11  18 224.135 37.8784  -2
  -8   4  18 224.135 37.8784   1
  -8 -12  18 72.9393 36.0150  -2
  -8   5  18 72.9393 36.0150   1
  -9 -12  18 9.14783 15.5293  -2
  -9   6  18 9.14783 15.5293   1
  -8 -13  18 -18.538 35.9460  -2
  -8   6  18 -18.538 35.9460   1
 -10 -12  18 18.5323 16.2765  -2
 -10   7  18 18.5323 16.2765   1
  -9 -13  18 16.0322 15.8054  -2
  -9   7  18 16.0322 15.8054   1
  -8 -14  18 13.6915 14.6094  -2
  -8   7  18 13.6915 14.6094   1
  -7 -15  18 8.92062 14.6625  -2
  -7   7  18 8.92062 14.6625   1
  -6 -16  18 11.1195 16.0181  -2
  -6   7  18 11.1195 16.0181   1
  -9 -14  18 24.6507 16.4720  -2
  -9   8  18 24.6507 16.4720   1
  -8 -15  18 84.5836 16.9344  -2
  -8   8  18 84.5836 16.9344   1
  -7 -16  18 -18.994 14.6400  -2
  -7   8  18 -18.994 14.6400   1
  -6 -17  18 57.3891 16.8064  -2
  -6   8  18 57.3891 16.8064   1
  -9   9  18 13.1380 12.1296   1
  -8 -16  18 165.021 19.0510  -2
  -8   9  18 165.021 19.0510   1
  -7 -17  18 82.1210 17.2512  -2
  -7   9  18 82.1210 17.2512   1
  -7 -18  18 46.1026 15.6326  -2
  -7  10  18 46.1026 15.6326   1
  -5  11  18 74.6533 13.1283   1
   4   2  19 -25.391 35.6653  -2
   4 -21  19 -25.391 35.6653   1
   4   1  19 73.1367 37.1655  -2
   4 -20  19 73.1367 37.1655   1
   5   0  19 -16.097 34.0398  -2
   5 -20  19 -16.097 34.0398   1
   4   0  19 -9.0438 33.9763  -2
   4 -19  19 -9.0438 33.9763   1
   4  -1  19 -39.106 33.9210  -2
   4 -18  19 -39.106 33.9210   1
   5  -2  19 6.69567 33.9040  -2
   5 -18  19 6.69567 33.9040   1
   6  -3  19 48.2930 33.2986  -2
   6 -18  19 48.2930 33.2986   1
   3  -1  19 10.7505 34.5319  -2
   3 -17  19 10.7505 34.5319   1
   4  -2  19 -2.3630 31.1428  -2
   4 -17  19 -2.3630 31.1428   1
   5  -3  19 29.8459 31.2680  -2
   5 -17  19 29.8459 31.2680   1
   6  -4  19 -16.099 31.7726  -2
   6 -17  19 -16.099 31.7726   1
   5  -4  19 -47.183 31.4460  -2
   5 -16  19 -47.183 31.4460   1
   6  -5  19 1.76430 30.8571  -2
   6 -16  19 1.76430 30.8571   1
   4  -4  19 201.380 33.6866  -2
   4 -15  19 201.380 33.6866   1
   6  -7  19 4.47302 29.5311  -2
   6 -14  19 4.47302 29.5311   1
   7  -9  19 49.6268 26.8477  -2
   7 -13  19 49.6268 26.8477   1
   3  -6  19 -0.5150 24.6009  -2
   3 -12  19 -0.5150 24.6009   1
   4  -7  19 18.2027 24.3056  -2
   4 -12  19 18.2027 24.3056   1
   5  -8  19 -7.4631 24.6647  -2
   5 -12  19 -7.4631 24.6647   1
   6  -9  19 -3.9408 25.4877  -2
   6 -12  19 -3.9408 25.4877   1
   7 -10  19 -2.6144 26.1026  -2
   7 -12  19 -2.6144 26.1026   1
   3  -7  19 1.90869 24.0457  -2
   3 -11  19 1.90869 24.0457   1
   4  -8  19 56.9643 24.9712  -2
   4 -11  19 56.9643 24.9712   1
   5  -9  19 5.26752 25.5190  -2
   5 -11  19 5.26752 25.5190   1
   6 -10  19 24.1026 24.8433  -2
   6 -11  19 24.1026 24.8433   1
   7 -11  19 29.7887 26.4423  -2
   7 -11  19 29.7887 26.4423   1
   2  -7  19 20.6628 22.2792  -2
   2 -10  19 20.6628 22.2792   1
   3  -8  19 25.2465 22.2431  -2
   3 -10  19 25.2465 22.2431   1
   4  -9  19 147.460 26.5080  -2
   4 -10  19 147.460 26.5080   1
   5 -10  19 -3.2632 24.6520  -2
   5 -10  19 -3.2632 24.6520   1
   6 -11  19 16.0807 24.4022  -2
   6 -10  19 16.0807 24.4022   1
   7 -12  19 9.18497 25.3767  -2
   7 -10  19 9.18497 25.3767   1
   2  -8  19 46.0251 22.3510  -2
   2  -9  19 46.0251 22.3510   1
   3  -9  19 34.0223 22.3900  -2
   3  -9  19 34.0223 22.3900   1
   4 -10  19 140.816 25.9660  -2
   4  -9  19 140.816 25.9660   1
   5 -11  19 1.86299 20.5063  -2
   5  -9  19 1.86299 20.5063   1
   6 -12  19 -2.4532 16.4874  -2
   6  -9  19 -2.4532 16.4874   1
   7 -13  19 40.1047 18.5674  -2
   7  -9  19 40.1047 18.5674   1
   1  -8  19 153.100 26.4508  -2
   1  -8  19 153.100 26.4508   1
   2  -9  19 26.0091 21.4048  -2
   2  -8  19 26.0091 21.4048   1
   3 -10  19 9.63904 21.1285  -2
   3  -8  19 9.63904 21.1285   1
   4 -11  19 19.9187 21.0955  -2
   4  -8  19 19.9187 21.0955   1
   5 -12  19 9.47851 20.5472  -2
   5  -8  19 9.47851 20.5472   1
   6 -13  19 13.3708 20.9799  -2
   6  -8  19 13.3708 20.9799   1
   7 -14  19 49.6956 22.3216  -2
   7  -8  19 49.6956 22.3216   1
   1  -9  19 65.3864 22.4093  -2
   1  -7  19 65.3864 22.4093   1
   2 -10  19 19.0237 20.7880  -2
   2  -7  19 19.0237 20.7880   1
   3 -11  19 -0.6750 20.3254  -2
   3  -7  19 -0.6750 20.3254   1
   4 -12  19 21.1192 20.5219  -2
   4  -7  19 21.1192 20.5219   1
   5 -13  19 19.2909 20.4585  -2
   5  -7  19 19.2909 20.4585   1
   6 -14  19 10.2651 20.3719  -2
   6  -7  19 10.2651 20.3719   1
   7 -15  19 5.63873 20.5618  -2
   7  -7  19 5.63873 20.5618   1
   1 -10  19 65.8782 22.3495  -2
   1  -6  19 65.8782 22.3495   1
   2 -11  19 6.08754 20.8232  -2
   2  -6  19 6.08754 20.8232   1
   3 -12  19 11.8147 21.1790  -2
   3  -6  19 11.8147 21.1790   1
   4 -13  19 14.9822 20.6045  -2
   4  -6  19 14.9822 20.6045   1
   5 -14  19 2.33158 20.1539  -2
   5  -6  19 2.33158 20.1539   1
   6 -15  19 9.92021 20.6445  -2
   6  -6  19 9.92021 20.6445   1
   7 -16  19 12.1412 20.6467  -2
   7  -6  19 12.1412 20.6467   1
   1 -11  19 59.9688 22.6887  -2
   1  -5  19 59.9688 22.6887   1
   2 -12  19 2.24413 20.4799  -2
   2  -5  19 2.24413 20.4799   1
   3 -13  19 18.3760 21.1922  -2
   3  -5  19 18.3760 21.1922   1
   4 -14  19 71.4418 22.1643  -2
   4  -5  19 71.4418 22.1643   1
   5 -15  19 -7.7381 20.0539  -2
   5  -5  19 -7.7381 20.0539   1
   6 -16  19 79.1905 34.5095  -2
   6  -5  19 79.1905 34.5095   1
   1 -12  19 -8.3615 20.7392  -2
   1  -4  19 -8.3615 20.7392   1
   2 -13  19 -1.9472 20.9759  -2
   2  -4  19 -1.9472 20.9759   1
   3 -14  19 64.1521 22.1240  -2
   3  -4  19 64.1521 22.1240   1
   4 -15  19 73.2871 22.0251  -2
   4  -4  19 73.2871 22.0251   1
   5 -16  19 33.3039 20.4442  -2
   5  -4  19 33.3039 20.4442   1
   6 -17  19 -9.6205 16.6253  -2
   6  -4  19 -9.6205 16.6253   1
   1 -13  19 26.1115 20.9909  -2
   1  -3  19 26.1115 20.9909   1
   2 -14  19 0.03505 20.8175  -2
   2  -3  19 0.03505 20.8175   1
   3 -15  19 18.5815 20.7572  -2
   3  -3  19 18.5815 20.7572   1
   4 -16  19 6.75881 20.2720  -2
   4  -3  19 6.75881 20.2720   1
   5 -17  19 71.2780 15.3895  -2
   5  -3  19 71.2780 15.3895   1
   6 -18  19 37.0097 17.1296  -2
   6  -3  19 37.0097 17.1296   1
   0 -13  19 -2.0845 24.4399  -2
   0  -2  19 -2.0845 24.4399   1
   1 -14  19 43.4486 25.5851  -2
   1  -2  19 43.4486 25.5851   1
   3 -16  19 -11.699 25.1896  -2
   3  -2  19 -11.699 25.1896   1
   4 -17  19 55.9140 12.6278  -2
   4  -2  19 55.9140 12.6278   1
   5 -18  19 16.5297 18.9195  -2
   5  -2  19 16.5297 18.9195   1
   3 -17  19 80.7132 13.9360  -2
   3  -1  19 80.7132 13.9360   1
   4 -18  19 57.1845 14.7945  -2
   4  -1  19 57.1845 14.7945   1
   5 -19  19 4.56095 24.8978  -2
   5  -1  19 4.56095 24.8978   1
   3 -18  19 -6.7409 26.9189  -2
   3   0  19 -6.7409 26.9189   1
   5 -20  19 7.10360 19.7968  -2
   5   0  19 7.10360 19.7968   1
   2 -18  19 105.737 27.7393  -2
   2   1  19 105.737 27.7393   1
   3 -19  19 2.03369 26.3912  -2
   3   1  19 2.03369 26.3912   1
   4 -20  19 138.842 30.0506  -2
   4   1  19 138.842 30.0506   1
   4 -21  19 -8.6593 27.6782  -2
   4   2  19 -8.6593 27.6782   1
   3 -21  19 -16.333 27.1275  -2
   3   3  19 -16.333 27.1275   1
   3 -22  19 -28.549 26.9054  -2
   3   4  19 -28.549 26.9054   1
   1 -22  20 52.4427 27.6158   1
   1   4  20 -47.524 32.5885  -2
   1 -21  20 -47.524 32.5885   1
   2   3  20 -39.614 30.3936  -2
   2 -21  20 -39.614 30.3936   1
   3   2  20 -37.156 29.0308  -2
   3 -21  20 -37.156 29.0308   1
   3   1  20 9.48252 27.8933  -2
   3 -20  20 9.48252 27.8933   1
   4   0  20 -21.689 28.3385  -2
   4 -20  20 -21.689 28.3385   1
   3   0  20 -17.533 27.3436  -2
   3 -19  20 -17.533 27.3436   1
   5  -2  20 21.1931 24.5191  -2
   5 -19  20 21.1931 24.5191   1
   0   2  20 44.1189 28.9458  -2
   0 -18  20 44.1189 28.9458   1
   4  -2  20 -4.5775 19.2104  -2
   4 -18  20 -4.5775 19.2104   1
   5  -3  20 -10.223 20.0315  -2
   5 -18  20 -10.223 20.0315   1
  -2   3  20 20.6329 29.6025  -2
  -2 -17  20 20.6329 29.6025   1
  -1   2  20 34.4509 29.7691  -2
  -1 -17  20 34.4509 29.7691   1
   0   1  20 22.6574 30.8282  -2
   0 -17  20 22.6574 30.8282   1
   1   0  20 86.9633 30.4885  -2
   1 -17  20 86.9633 30.4885   1
   4  -3  20 27.6410 28.8273  -2
   4 -17  20 27.6410 28.8273   1
   5  -4  20 -5.1119 19.3981  -2
   5 -17  20 -5.1119 19.3981   1
   6  -5  20 9.86094 20.0481  -2
   6 -17  20 9.86094 20.0481   1
  -2   2  20 -8.3233 28.8592  -2
  -2 -16  20 -8.3233 28.8592   1
  -1   1  20 -22.067 30.4189  -2
  -1 -16  20 -22.067 30.4189   1
   0   0  20 81.8135 32.1141  -2
   0 -16  20 81.8135 32.1141   1
   4  -4  20 11.6549 29.1473  -2
   4 -16  20 11.6549 29.1473   1
   5  -5  20 132.403 20.3228  -2
   5 -16  20 132.403 20.3228   1
   6  -6  20 -22.126 20.1126  -2
   6 -16  20 -22.126 20.1126   1
  -2   1  20 -7.7497 28.1377  -2
  -2 -15  20 -7.7497 28.1377   1
  -1   0  20 -4.6020 26.7399  -2
  -1 -15  20 -4.6020 26.7399   1
   0  -1  20 238.131 35.6093  -2
   0 -15  20 238.131 35.6093   1
   4  -5  20 36.8140 29.6416  -2
   4 -15  20 36.8140 29.6416   1
   5  -6  20 8.87657 19.1894  -2
   5 -15  20 8.87657 19.1894   1
   6  -7  20 6.83023 19.5269  -2
   6 -15  20 6.83023 19.5269   1
  -1  -1  20 -25.532 30.2927  -2
  -1 -14  20 -25.532 30.2927   1
   0  -2  20 40.0514 12.7497  -2
   0 -14  20 40.0514 12.7497   1
   1  -3  20 13.0562 13.2767  -2
   1 -14  20 13.0562 13.2767   1
   2  -4  20 39.2800 12.8426  -2
   2 -14  20 39.2800 12.8426   1
   4  -6  20 3.34665 24.4974  -2
   4 -14  20 3.34665 24.4974   1
   5  -7  20 3.69768 29.4574  -2
   5 -14  20 3.69768 29.4574   1
   6  -8  20 5.43908 29.0856  -2
   6 -14  20 5.43908 29.0856   1
  -9 -13  20 59.2397 27.1089   1
  -2  -1  20 44.3860 28.8605  -2
  -2 -13  20 44.3860 28.8605   1
   0  -3  20 57.8249 13.0988  -2
   0 -13  20 57.8249 13.0988   1
   1  -4  20 18.1645 12.8046  -2
   1 -13  20 18.1645 12.8046   1
   2  -5  20 -0.9662 28.7318  -2
   2 -13  20 -0.9662 28.7318   1
   3  -6  20 -22.275 28.8786  -2
   3 -13  20 -22.275 28.8786   1
   4  -7  20 64.0091 28.6031  -2
   4 -13  20 64.0091 28.6031   1
   5  -8  20 62.2292 29.8097  -2
   5 -13  20 62.2292 29.8097   1
   6  -9  20 1.49173 24.7729  -2
   6 -13  20 1.49173 24.7729   1
  -9   5  20 -25.090 30.6926  -2
  -9 -12  20 -25.090 30.6926   1
  -8   4  20 23.2130 29.2067  -2
  -8 -12  20 23.2130 29.2067   1
   1  -5  20 -15.516 12.1654  -2
   1 -12  20 -15.516 12.1654   1
   2  -6  20 170.130 31.7560  -2
   2 -12  20 170.130 31.7560   1
   3  -7  20 -10.386 29.4883  -2
   3 -12  20 -10.386 29.4883   1
   4  -8  20 85.6568 29.4134  -2
   4 -12  20 85.6568 29.4134   1
   5  -9  20 70.5857 29.6462  -2
   5 -12  20 70.5857 29.6462   1
   6 -10  20 13.9012 29.4114  -2
   6 -12  20 13.9012 29.4114   1
  -9   4  20 10.6704 30.4591  -2
  -9 -11  20 10.6704 30.4591   1
  -8   3  20 45.6784 29.2501  -2
  -8 -11  20 45.6784 29.2501   1
   1  -6  20 51.5377 11.5219  -2
   1 -11  20 51.5377 11.5219   1
   2  -7  20 215.595 32.6919  -2
   2 -11  20 215.595 32.6919   1
   3  -8  20 -6.3796 26.2272  -2
   3 -11  20 -6.3796 26.2272   1
   4  -9  20 0.86086 27.6183  -2
   4 -11  20 0.86086 27.6183   1
   5 -10  20 194.609 32.6342  -2
   5 -11  20 194.609 32.6342   1
   6 -11  20 -11.227 19.0074  -2
   6 -11  20 -11.227 19.0074   1
 -10   4  20 -20.543 31.7463  -2
 -10 -10  20 -20.543 31.7463   1
  -9   3  20 33.0231 30.3000  -2
  -9 -10  20 33.0231 30.3000   1
  -8   2  20 14.2492 28.4977  -2
  -8 -10  20 14.2492 28.4977   1
  -2  -4  20 36.1024 25.7506  -2
  -2 -10  20 36.1024 25.7506   1
  -1  -5  20 58.0656 26.2913  -2
  -1 -10  20 58.0656 26.2913   1
   0  -6  20 167.313 30.0140  -2
   0 -10  20 167.313 30.0140   1
   1  -7  20 28.7540 10.9231  -2
   1 -10  20 28.7540 10.9231   1
   2  -8  20 161.883 30.5034  -2
   2 -10  20 161.883 30.5034   1
   3  -9  20 87.2427 27.3516  -2
   3 -10  20 87.2427 27.3516   1
   4 -10  20 -19.024 26.7613  -2
   4 -10  20 -19.024 26.7613   1
   5 -11  20 147.864 19.3632  -2
   5 -10  20 147.864 19.3632   1
   6 -12  20 22.1730 18.7343  -2
   6 -10  20 22.1730 18.7343   1
 -10   3  20 17.0855 31.2271  -2
 -10  -9  20 17.0855 31.2271   1
  -9   2  20 209.186 33.2761  -2
  -9  -9  20 209.186 33.2761   1
  -8   1  20 10.0418 28.9591  -2
  -8  -9  20 10.0418 28.9591   1
  -4  -3  20 121.371 27.8378  -2
  -4  -9  20 121.371 27.8378   1
  -3  -4  20 60.2067 26.9453  -2
  -3  -9  20 60.2067 26.9453   1
  -2  -5  20 -3.6973 24.6401  -2
  -2  -9  20 -3.6973 24.6401   1
  -1  -6  20 119.543 29.9908  -2
  -1  -9  20 119.543 29.9908   1
   0  -7  20 94.3850 27.1860  -2
   0  -9  20 94.3850 27.1860   1
   1  -8  20 9.91469 27.3182  -2
   1  -9  20 9.91469 27.3182   1
   2  -9  20 326.197 36.0819  -2
   2  -9  20 326.197 36.0819   1
   3 -10  20 94.8530 27.1777  -2
   3  -9  20 94.8530 27.1777   1
   4 -11  20 19.7075 10.3349  -2
   4  -9  20 19.7075 10.3349   1
   5 -12  20 11.2582 15.5561  -2
   5  -9  20 11.2582 15.5561   1
   6 -13  20 1.94026 17.0322  -2
   6  -9  20 1.94026 17.0322   1
 -10   2  20 59.3033 31.6945  -2
 -10  -8  20 59.3033 31.6945   1
  -9   1  20 139.581 31.2863  -2
  -9  -8  20 139.581 31.2863   1
  -8   0  20 101.383 29.7909  -2
  -8  -8  20 101.383 29.7909   1
  -5  -3  20 5.19985 23.4995  -2
  -5  -8  20 5.19985 23.4995   1
  -4  -4  20 335.493 32.3137  -2
  -4  -8  20 335.493 32.3137   1
  -3  -5  20 137.468 28.1731  -2
  -3  -8  20 137.468 28.1731   1
  -2  -6  20 25.1194 24.1761  -2
  -2  -8  20 25.1194 24.1761   1
  -1  -7  20 653.389 48.6272  -2
  -1  -8  20 653.389 48.6272   1
   0  -8  20 318.520 34.0946  -2
   0  -8  20 318.520 34.0946   1
   1  -9  20 63.7850 27.9626  -2
   1  -8  20 63.7850 27.9626   1
   2 -10  20 119.002 29.2604  -2
   2  -8  20 119.002 29.2604   1
   3 -11  20 0.77631 25.0940  -2
   3  -8  20 0.77631 25.0940   1
   4 -12  20 70.2746 9.17033  -2
   4  -8  20 70.2746 9.17033   1
   5 -13  20 36.6759 8.89421  -2
   5  -8  20 36.6759 8.89421   1
   6 -14  20 -9.0407 8.40330  -2
   6  -8  20 -9.0407 8.40330   1
 -10   1  20 87.7713 31.3905  -2
 -10  -7  20 87.7713 31.3905   1
  -9   0  20 66.3550 30.0015  -2
  -9  -7  20 66.3550 30.0015   1
  -8  -1  20 98.5547 30.0782  -2
  -8  -7  20 98.5547 30.0782   1
  -5  -4  20 4.39630 23.0153  -2
  -5  -7  20 4.39630 23.0153   1
  -4  -5  20 69.3725 24.3328  -2
  -4  -7  20 69.3725 24.3328   1
  -2  -7  20 75.4326 27.4487  -2
  -2  -7  20 75.4326 27.4487   1
  -1  -8  20 643.999 48.9957  -2
  -1  -7  20 643.999 48.9957   1
   0  -9  20 143.729 27.5261  -2
   0  -7  20 143.729 27.5261   1
   1 -10  20 45.3439 27.0083  -2
   1  -7  20 45.3439 27.0083   1
   2 -11  20 229.199 31.8576  -2
   2  -7  20 229.199 31.8576   1
   3 -12  20 1.95932 17.6036  -2
   3  -7  20 1.95932 17.6036   1
   4 -13  20 43.7754 16.3860  -2
   4  -7  20 43.7754 16.3860   1
   5 -14  20 9.85281 9.14258  -2
   5  -7  20 9.85281 9.14258   1
   6 -15  20 -11.625 9.29012  -2
   6  -7  20 -11.625 9.29012   1
 -10   0  20 62.1677 31.0009  -2
 -10  -6  20 62.1677 31.0009   1
  -9  -1  20 16.9781 30.0370  -2
  -9  -6  20 16.9781 30.0370   1
  -8  -2  20 99.9204 29.8448  -2
  -8  -6  20 99.9204 29.8448   1
  -7  -3  20 14.1815 24.1070  -2
  -7  -6  20 14.1815 24.1070   1
  -5  -5  20 37.3396 23.3593  -2
  -5  -6  20 37.3396 23.3593   1
  -4  -6  20 85.7089 24.6439  -2
  -4  -6  20 85.7089 24.6439   1
  -1  -9  20 74.5846 25.1185  -2
  -1  -6  20 74.5846 25.1185   1
   0 -10  20 262.522 30.1268  -2
   0  -6  20 262.522 30.1268   1
   1 -11  20 60.0440 26.2886  -2
   1  -6  20 60.0440 26.2886   1
   2 -12  20 169.046 29.6295  -2
   2  -6  20 169.046 29.6295   1
   3 -13  20 28.3577 25.0306  -2
   3  -6  20 28.3577 25.0306   1
   4 -14  20 11.6724 9.04677  -2
   4  -6  20 11.6724 9.04677   1
   5 -15  20 105.249 11.6944  -2
   5  -6  20 105.249 11.6944   1
   6 -16  20 -3.9104 9.34698  -2
   6  -6  20 -3.9104 9.34698   1
 -11   0  20 74.2125 32.6625  -2
 -11  -5  20 74.2125 32.6625   1
 -10  -1  20 57.1441 30.9983  -2
 -10  -5  20 57.1441 30.9983   1
  -9  -2  20 44.4527 30.4887  -2
  -9  -5  20 44.4527 30.4887   1
  -8  -3  20 19.5760 24.4589  -2
  -8  -5  20 19.5760 24.4589   1
  -7  -4  20 55.5353 24.0888  -2
  -7  -5  20 55.5353 24.0888   1
  -5  -6  20 36.2430 23.6655  -2
  -5  -5  20 36.2430 23.6655   1
  -4  -7  20 67.2823 24.9214  -2
  -4  -5  20 67.2823 24.9214   1
  -3  -8  20 111.738 25.0761  -2
  -3  -5  20 111.738 25.0761   1
  -2  -9  20 6.53105 24.8258  -2
  -2  -5  20 6.53105 24.8258   1
  -1 -10  20 81.6573 26.6471  -2
  -1  -5  20 81.6573 26.6471   1
   0 -11  20 217.227 20.4157  -2
   0  -5  20 217.227 20.4157   1
   1 -12  20 23.2188 24.8573  -2
   1  -5  20 23.2188 24.8573   1
   2 -13  20 36.3620 22.7001  -2
   2  -5  20 36.3620 22.7001   1
   3 -14  20 60.4023 16.5096  -2
   3  -5  20 60.4023 16.5096   1
   4 -15  20 30.1318 9.07998  -2
   4  -5  20 30.1318 9.07998   1
   5 -16  20 78.0401 15.7719  -2
   5  -5  20 78.0401 15.7719   1
   6 -17  20 5.52869 9.38141  -2
   6  -5  20 5.52869 9.38141   1
 -11  -1  20 53.9477 32.6376  -2
 -11  -4  20 53.9477 32.6376   1
 -10  -2  20 60.0923 32.0184  -2
 -10  -4  20 60.0923 32.0184   1
  -9  -3  20 179.951 32.9641  -2
  -9  -4  20 179.951 32.9641   1
  -8  -4  20 61.5760 24.1768  -2
  -8  -4  20 61.5760 24.1768   1
  -7  -5  20 51.1360 23.8390  -2
  -7  -4  20 51.1360 23.8390   1
  -5  -7  20 26.0646 24.1660  -2
  -5  -4  20 26.0646 24.1660   1
  -4  -8  20 288.629 31.4324  -2
  -4  -4  20 288.629 31.4324   1
  -3  -9  20 33.6735 25.3298  -2
  -3  -4  20 33.6735 25.3298   1
  -2 -10  20 34.2455 26.1837  -2
  -2  -4  20 34.2455 26.1837   1
  -1 -11  20 56.2136 26.0366  -2
  -1  -4  20 56.2136 26.0366   1
   0 -12  20 65.9897 17.6424  -2
   0  -4  20 65.9897 17.6424   1
   1 -13  20 15.4150 24.2468  -2
   1  -4  20 15.4150 24.2468   1
   2 -14  20 41.8159 22.4143  -2
   2  -4  20 41.8159 22.4143   1
   3 -15  20 101.119 11.3543  -2
   3  -4  20 101.119 11.3543   1
   4 -16  20 7.08008 8.98695  -2
   4  -4  20 7.08008 8.98695   1
   5 -17  20 17.4107 9.37532  -2
   5  -4  20 17.4107 9.37532   1
 -11  -2  20 106.616 33.1761  -2
 -11  -3  20 106.616 33.1761   1
 -10  -3  20 69.7388 31.8795  -2
 -10  -3  20 69.7388 31.8795   1
  -9  -4  20 152.980 26.8400  -2
  -9  -3  20 152.980 26.8400   1
  -8  -5  20 -8.3953 23.6347  -2
  -8  -3  20 -8.3953 23.6347   1
  -7  -6  20 3.33013 23.4289  -2
  -7  -3  20 3.33013 23.4289   1
  -5  -8  20 34.2869 24.2995  -2
  -5  -3  20 34.2869 24.2995   1
  -4  -9  20 116.519 26.1550  -2
  -4  -3  20 116.519 26.1550   1
  -3 -10  20 24.1184 25.8687  -2
  -3  -3  20 24.1184 25.8687   1
  -2 -11  20 25.7275 25.9276  -2
  -2  -3  20 25.7275 25.9276   1
  -1 -12  20 166.560 27.5893  -2
  -1  -3  20 166.560 27.5893   1
   0 -13  20 73.2457 25.9592  -2
   0  -3  20 73.2457 25.9592   1
   1 -14  20 23.2063 10.9150  -2
   1  -3  20 23.2063 10.9150   1
   2 -15  20 -0.0845 11.0797  -2
   2  -3  20 -0.0845 11.0797   1
   3 -16  20 12.0533 8.94835  -2
   3  -3  20 12.0533 8.94835   1
   4 -17  20 -1.4471 9.24818  -2
   4  -3  20 -1.4471 9.24818   1
   5 -18  20 24.8214 9.52017  -2
   5  -3  20 24.8214 9.52017   1
 -10  -4  20 36.8496 25.8076  -2
 -10  -2  20 36.8496 25.8076   1
  -9  -5  20 61.5088 24.9308  -2
  -9  -2  20 61.5088 24.9308   1
  -8  -6  20 57.2462 24.6428  -2
  -8  -2  20 57.2462 24.6428   1
  -7  -7  20 0.71677 23.8384  -2
  -7  -2  20 0.71677 23.8384   1
  -5  -9  20 14.6539 24.6632  -2
  -5  -2  20 14.6539 24.6632   1
  -4 -10  20 23.2082 25.2788  -2
  -4  -2  20 23.2082 25.2788   1
  -3 -11  20 400.535 37.1453  -2
  -3  -2  20 400.535 37.1453   1
  -2 -12  20 2.70078 25.2223  -2
  -2  -2  20 2.70078 25.2223   1
  -1 -13  20 159.080 27.2636  -2
  -1  -2  20 159.080 27.2636   1
   0 -14  20 29.6478 12.0116  -2
   0  -2  20 29.6478 12.0116   1
   1 -15  20 10.7595 8.26134  -2
   1  -2  20 10.7595 8.26134   1
   2 -16  20 174.538 13.5923  -2
   2  -2  20 174.538 13.5923   1
   3 -17  20 33.8419 10.1949  -2
   3  -2  20 33.8419 10.1949   1
   4 -18  20 -0.8512 10.1278  -2
   4  -2  20 -0.8512 10.1278   1
   5 -19  20 22.1745 15.9441  -2
   5  -2  20 22.1745 15.9441   1
 -10  -5  20 35.8927 25.7280  -2
 -10  -1  20 35.8927 25.7280   1
  -9  -6  20 31.7548 24.6063  -2
  -9  -1  20 31.7548 24.6063   1
  -8  -7  20 81.2188 25.0382  -2
  -8  -1  20 81.2188 25.0382   1
  -7  -8  20 34.1433 24.5825  -2
  -7  -1  20 34.1433 24.5825   1
  -6  -9  20 -15.621 22.4399  -2
  -6  -1  20 -15.621 22.4399   1
  -5 -10  20 74.8326 26.0303  -2
  -5  -1  20 74.8326 26.0303   1
  -4 -11  20 176.955 28.8664  -2
  -4  -1  20 176.955 28.8664   1
  -3 -12  20 264.898 31.4457  -2
  -3  -1  20 264.898 31.4457   1
  -2 -13  20 27.7184 25.3024  -2
  -2  -1  20 27.7184 25.3024   1
  -1 -14  20 1.56829 12.6663  -2
  -1  -1  20 1.56829 12.6663   1
   0 -15  20 276.996 14.0850  -2
   0  -1  20 276.996 14.0850   1
   1 -16  20 21.2304 8.83538  -2
   1  -1  20 21.2304 8.83538   1
   2 -17  20 142.306 13.5781  -2
   2  -1  20 142.306 13.5781   1
   3 -18  20 24.6739 23.5963  -2
   3  -1  20 24.6739 23.5963   1
   4 -19  20 21.4968 25.6536  -2
   4  -1  20 21.4968 25.6536   1
 -10  -6  20 56.0291 25.7259  -2
 -10   0  20 56.0291 25.7259   1
  -9  -7  20 16.2610 24.6665  -2
  -9   0  20 16.2610 24.6665   1
  -8  -8  20 52.8947 24.8899  -2
  -8   0  20 52.8947 24.8899   1
  -7  -9  20 35.9735 17.6789  -2
  -7   0  20 35.9735 17.6789   1
  -6 -10  20 42.1575 23.8731  -2
  -6   0  20 42.1575 23.8731   1
  -5 -11  20 12.6450 25.6000  -2
  -5   0  20 12.6450 25.6000   1
  -4 -12  20 133.728 27.4048  -2
  -4   0  20 133.728 27.4048   1
  -3 -13  20 35.9577 10.3949  -2
  -3   0  20 35.9577 10.3949   1
  -1 -15  20 2.88445 8.86993  -2
  -1   0  20 2.88445 8.86993   1
   0 -16  20 108.717 10.4405  -2
   0   0  20 108.717 10.4405   1
   1 -17  20 60.0054 9.85970  -2
   1   0  20 60.0054 9.85970   1
   2 -18  20 36.6104 23.9507  -2
   2   0  20 36.6104 23.9507   1
   3 -19  20 56.0457 23.9740  -2
   3   0  20 56.0457 23.9740   1
   4 -20  20 12.1977 25.1060  -2
   4   0  20 12.1977 25.1060   1
 -10  -7  20 78.8487 25.9959  -2
 -10   1  20 78.8487 25.9959   1
  -9  -8  20 86.0914 26.0778  -2
  -9   1  20 86.0914 26.0778   1
  -8  -9  20 30.5756 25.1186  -2
  -8   1  20 30.5756 25.1186   1
  -7 -10  20 35.9832 17.7665  -2
  -7   1  20 35.9832 17.7665   1
  -5 -12  20 31.0989 31.4846  -2
  -5   1  20 31.0989 31.4846   1
  -4 -13  20 113.103 31.5380  -2
  -4   1  20 113.103 31.5380   1
  -3 -14  20 145.081 10.6156  -2
  -3   1  20 145.081 10.6156   1
  -2 -15  20 5.39708 9.24341  -2
  -2   1  20 5.39708 9.24341   1
  -1 -16  20 -3.3402 12.6724  -2
  -1   1  20 -3.3402 12.6724   1
   2 -19  20 4.62919 23.8184  -2
   2   1  20 4.62919 23.8184   1
   3 -20  20 114.012 24.9034  -2
   3   1  20 114.012 24.9034   1
  -9  -9  20 199.048 29.2560  -2
  -9   2  20 199.048 29.2560   1
  -8 -10  20 -13.475 26.1910  -2
  -8   2  20 -13.475 26.1910   1
  -7 -11  20 31.3810 32.8156  -2
  -7   2  20 31.3810 32.8156   1
  -5 -13  20 15.9201 13.2958  -2
  -5   2  20 15.9201 13.2958   1
  -4 -14  20 237.956 17.4693  -2
  -4   2  20 237.956 17.4693   1
  -3 -15  20 -9.8292 12.3267  -2
  -3   2  20 -9.8292 12.3267   1
  -2 -16  20 -11.381 9.59977  -2
  -2   2  20 -11.381 9.59977   1
   2 -20  20 17.3973 23.5111  -2
   2   2  20 17.3973 23.5111   1
   3 -21  20 -0.2740 25.9096  -2
   3   2  20 -0.2740 25.9096   1
  -9 -10  20 33.3628 26.2703  -2
  -9   3  20 33.3628 26.2703   1
  -8 -11  20 70.5199 34.7865  -2
  -8   3  20 70.5199 34.7865   1
  -6 -13  20 199.184 36.0106  -2
  -6   3  20 199.184 36.0106   1
  -5 -14  20 2.89225 13.3406  -2
  -5   3  20 2.89225 13.3406   1
  -3 -16  20 246.948 18.8200  -2
  -3   3  20 246.948 18.8200   1
 -10 -10  20 9.35548 24.9416  -2
 -10   4  20 9.35548 24.9416   1
  -9 -11  20 5.85758 35.6938  -2
  -9   4  20 5.85758 35.6938   1
  -8 -12  20 1.36527 34.8159  -2
  -8   4  20 1.36527 34.8159   1
  -6 -14  20 20.1534 33.7746  -2
  -6   4  20 20.1534 33.7746   1
  -5 -15  20 -22.408 32.0171  -2
  -5   4  20 -22.408 32.0171   1
  -6 -15  20 -35.053 34.3704  -2
  -6   5  20 -35.053 34.3704   1
  -8 -14  20 -52.835 37.8852  -2
  -8   6  20 -52.835 37.8852   1
  -7 -15  20 47.4076 16.1247  -2
  -7   6  20 47.4076 16.1247   1
  -6 -16  20 -44.045 35.0117  -2
  -6   6  20 -44.045 35.0117   1
  -8 -15  20 14.8532 16.9267  -2
  -8   7  20 14.8532 16.9267   1
  -7 -16  20 34.2765 16.6229  -2
  -7   7  20 34.2765 16.6229   1
  -6 -17  20 -0.2972 35.6196  -2
  -6   7  20 -0.2972 35.6196   1
  -2   6  21 60.8101 13.3467  -2
  -2 -21  21 60.8101 13.3467   1
  -1   5  21 29.6612 11.2859  -2
  -1 -21  21 29.6612 11.2859   1
   0   4  21 40.0221 28.3035  -2
   0 -21  21 40.0221 28.3035   1
   1   3  21 54.8497 22.9002  -2
   1 -21  21 54.8497 22.9002   1
  -3   6  21 62.0296 13.3057  -2
  -3 -20  21 62.0296 13.3057   1
  -1   4  21 29.6168 30.1641  -2
  -1 -20  21 29.6168 30.1641   1
   0   3  21 21.9414 30.2786  -2
   0 -20  21 21.9414 30.2786   1
   1   2  21 5.33356 29.2261  -2
   1 -20  21 5.33356 29.2261   1
   2   1  21 -41.099 33.5233  -2
   2 -20  21 -41.099 33.5233   1
   3   0  21 -32.424 34.4235  -2
   3 -20  21 -32.424 34.4235   1
  -2   4  21 23.3407 25.3380  -2
  -2 -19  21 23.3407 25.3380   1
  -1   3  21 11.0390 26.1129  -2
  -1 -19  21 11.0390 26.1129   1
   0   2  21 190.012 33.5901  -2
   0 -19  21 190.012 33.5901   1
   1   1  21 33.8871 29.1381  -2
   1 -19  21 33.8871 29.1381   1
  -2   3  21 79.7361 26.4955  -2
  -2 -18  21 79.7361 26.4955   1
  -1   2  21 -2.8456 28.9541  -2
  -1 -18  21 -2.8456 28.9541   1
   0   1  21 92.6717 28.2550  -2
   0 -18  21 92.6717 28.2550   1
   1   0  21 -17.790 28.6609  -2
   1 -18  21 -17.790 28.6609   1
   3  -2  21 35.4061 34.2727  -2
   3 -18  21 35.4061 34.2727   1
  -3   3  21 49.3339 27.7884  -2
  -3 -17  21 49.3339 27.7884   1
  -2   2  21 31.0531 28.8522  -2
  -2 -17  21 31.0531 28.8522   1
  -1   1  21 51.2064 26.8846  -2
  -1 -17  21 51.2064 26.8846   1
   0   0  21 110.996 28.7994  -2
   0 -17  21 110.996 28.7994   1
   1  -1  21 310.287 36.1893  -2
   1 -17  21 310.287 36.1893   1
  -3   2  21 26.8541 24.3536  -2
  -3 -16  21 26.8541 24.3536   1
  -2   1  21 22.2873 25.4693  -2
  -2 -16  21 22.2873 25.4693   1
  -1   0  21 9.30304 26.3115  -2
  -1 -16  21 9.30304 26.3115   1
   0  -1  21 48.4335 27.8939  -2
   0 -16  21 48.4335 27.8939   1
   1  -2  21 45.8929 11.5287  -2
   1 -16  21 45.8929 11.5287   1
  -4   2  21 -33.671 25.9029  -2
  -4 -15  21 -33.671 25.9029   1
  -3   1  21 64.7745 27.9845  -2
  -3 -15  21 64.7745 27.9845   1
  -2   0  21 12.2604 10.6499  -2
  -2 -15  21 12.2604 10.6499   1
  -1  -1  21 38.8778 29.1033  -2
  -1 -15  21 38.8778 29.1033   1
   0  -2  21 27.7578 27.2706  -2
   0 -15  21 27.7578 27.2706   1
   1  -3  21 -3.0695 10.7103  -2
   1 -15  21 -3.0695 10.7103   1
  -8   5  21 69.8009 26.1855  -2
  -8 -14  21 69.8009 26.1855   1
  -4   1  21 48.4459 26.5335  -2
  -4 -14  21 48.4459 26.5335   1
  -3   0  21 27.1408 27.2211  -2
  -3 -14  21 27.1408 27.2211   1
  -2  -1  21 49.2506 25.5111  -2
  -2 -14  21 49.2506 25.5111   1
  -1  -2  21 1.45085 25.1314  -2
  -1 -14  21 1.45085 25.1314   1
   0  -3  21 99.0552 12.1284  -2
   0 -14  21 99.0552 12.1284   1
   1  -4  21 9.03379 10.7486  -2
   1 -14  21 9.03379 10.7486   1
  -8   4  21 8.52533 25.8763  -2
  -8 -13  21 8.52533 25.8763   1
  -5   1  21 107.544 25.9143  -2
  -5 -13  21 107.544 25.9143   1
  -4   0  21 19.4259 25.1631  -2
  -4 -13  21 19.4259 25.1631   1
  -3  -1  21 16.4182 23.5900  -2
  -3 -13  21 16.4182 23.5900   1
  -2  -2  21 363.211 36.3478  -2
  -2 -13  21 363.211 36.3478   1
  -1  -3  21 42.0987 11.2861  -2
  -1 -13  21 42.0987 11.2861   1
   0  -4  21 48.1428 11.0554  -2
   0 -13  21 48.1428 11.0554   1
   1  -5  21 4.26037 10.6138  -2
   1 -13  21 4.26037 10.6138   1
   2  -6  21 -5.6084 29.5467  -2
   2 -13  21 -5.6084 29.5467   1
   6 -10  21 34.2877 33.6267  -2
   6 -13  21 34.2877 33.6267   1
  -9   4  21 -24.405 27.9039  -2
  -9 -12  21 -24.405 27.9039   1
  -8   3  21 31.9254 25.1970  -2
  -8 -12  21 31.9254 25.1970   1
  -5   0  21 19.4311 11.2149  -2
  -5 -12  21 19.4311 11.2149   1
  -4  -1  21 -7.0082 22.2996  -2
  -4 -12  21 -7.0082 22.2996   1
  -3  -2  21 -10.918 25.2967  -2
  -3 -12  21 -10.918 25.2967   1
  -2  -3  21 264.115 30.4129  -2
  -2 -12  21 264.115 30.4129   1
  -1  -4  21 48.2184 10.5372  -2
  -1 -12  21 48.2184 10.5372   1
   0  -5  21 9.92321 10.1918  -2
   0 -12  21 9.92321 10.1918   1
   1  -6  21 87.4603 11.2068  -2
   1 -12  21 87.4603 11.2068   1
   2  -7  21 -22.042 28.8735  -2
   2 -12  21 -22.042 28.8735   1
  -9   3  21 28.6583 25.8689  -2
  -9 -11  21 28.6583 25.8689   1
  -8   2  21 35.7338 25.3116  -2
  -8 -11  21 35.7338 25.3116   1
  -7   1  21 27.1978 25.1819  -2
  -7 -11  21 27.1978 25.1819   1
  -6   0  21 35.4184 23.3967  -2
  -6 -11  21 35.4184 23.3967   1
  -5  -1  21 84.9171 11.5050  -2
  -5 -11  21 84.9171 11.5050   1
  -4  -2  21 27.8495 24.5098  -2
  -4 -11  21 27.8495 24.5098   1
  -3  -3  21 34.3543 22.2502  -2
  -3 -11  21 34.3543 22.2502   1
  -2  -4  21 33.8469 24.4428  -2
  -2 -11  21 33.8469 24.4428   1
  -1  -5  21 34.3708 10.4824  -2
  -1 -11  21 34.3708 10.4824   1
   0  -6  21 74.7268 11.2691  -2
   0 -11  21 74.7268 11.2691   1
   1  -7  21 64.6502 11.2761  -2
   1 -11  21 64.6502 11.2761   1
   2  -8  21 15.2885 28.8358  -2
   2 -11  21 15.2885 28.8358   1
   5 -11  21 87.1426 32.5312  -2
   5 -11  21 87.1426 32.5312   1
  -9   2  21 20.3487 25.2133  -2
  -9 -10  21 20.3487 25.2133   1
  -8   1  21 90.3335 26.0816  -2
  -8 -10  21 90.3335 26.0816   1
  -7   0  21 79.6857 25.9233  -2
  -7 -10  21 79.6857 25.9233   1
  -6  -1  21 1.58954 23.1686  -2
  -6 -10  21 1.58954 23.1686   1
  -5  -2  21 20.8387 10.8356  -2
  -5 -10  21 20.8387 10.8356   1
  -4  -3  21 -19.233 19.9910  -2
  -4 -10  21 -19.233 19.9910   1
  -3  -4  21 188.258 27.1089  -2
  -3 -10  21 188.258 27.1089   1
  -2  -5  21 145.985 25.9069  -2
  -2 -10  21 145.985 25.9069   1
  -1  -6  21 -4.7627 9.65357  -2
  -1 -10  21 -4.7627 9.65357   1
   0  -7  21 47.3106 10.4300  -2
   0 -10  21 47.3106 10.4300   1
   1  -8  21 13.3347 25.9446  -2
   1 -10  21 13.3347 25.9446   1
   2  -9  21 -4.1328 28.3819  -2
   2 -10  21 -4.1328 28.3819   1
   4 -11  21 13.2307 30.5137  -2
   4 -10  21 13.2307 30.5137   1
   5 -12  21 -8.1111 31.4094  -2
   5 -10  21 -8.1111 31.4094   1
  -9   1  21 28.3409 25.6354  -2
  -9  -9  21 28.3409 25.6354   1
  -8   0  21 70.2282 25.7863  -2
  -8  -9  21 70.2282 25.7863   1
  -7  -1  21 26.9604 25.0873  -2
  -7  -9  21 26.9604 25.0873   1
  -5  -3  21 204.565 16.7691  -2
  -5  -9  21 204.565 16.7691   1
  -4  -4  21 7.76011 20.2995  -2
  -4  -9  21 7.76011 20.2995   1
  -3  -5  21 54.4794 22.2813  -2
  -3  -9  21 54.4794 22.2813   1
  -2  -6  21 60.1561 22.7265  -2
  -2  -9  21 60.1561 22.7265   1
  -1  -7  21 3.28683 9.50361  -2
  -1  -9  21 3.28683 9.50361   1
   0  -8  21 366.105 35.1843  -2
   0  -9  21 366.105 35.1843   1
   1  -9  21 34.6837 10.4111  -2
   1  -9  21 34.6837 10.4111   1
   2 -10  21 -8.0957 27.7019  -2
   2  -9  21 -8.0957 27.7019   1
   4 -12  21 -0.3138 30.0939  -2
   4  -9  21 -0.3138 30.0939   1
   5 -13  21 43.9410 31.4337  -2
   5  -9  21 43.9410 31.4337   1
 -10   1  21 111.946 27.4021  -2
 -10  -8  21 111.946 27.4021   1
  -9   0  21 51.8591 25.8185  -2
  -9  -8  21 51.8591 25.8185   1
  -8  -1  21 20.7726 25.1454  -2
  -8  -8  21 20.7726 25.1454   1
  -7  -2  21 147.631 27.3921  -2
  -7  -8  21 147.631 27.3921   1
  -5  -4  21 219.010 17.1330  -2
  -5  -8  21 219.010 17.1330   1
  -3  -6  21 23.9711 20.2936  -2
  -3  -8  21 23.9711 20.2936   1
  -2  -7  21 209.855 26.4798  -2
  -2  -8  21 209.855 26.4798   1
  -1  -8  21 38.3178 9.50728  -2
  -1  -8  21 38.3178 9.50728   1
   0  -9  21 328.559 32.6731  -2
   0  -8  21 328.559 32.6731   1
   1 -10  21 54.4566 25.1180  -2
   1  -8  21 54.4566 25.1180   1
   2 -11  21 43.7878 25.8946  -2
   2  -8  21 43.7878 25.8946   1
   3 -12  21 101.618 29.6134  -2
   3  -8  21 101.618 29.6134   1
   4 -13  21 -10.513 28.9906  -2
   4  -8  21 -10.513 28.9906   1
   5 -14  21 78.2662 11.3415  -2
   5  -8  21 78.2662 11.3415   1
 -10   0  21 79.1247 27.0916  -2
 -10  -7  21 79.1247 27.0916   1
  -9  -1  21 -0.2697 25.4662  -2
  -9  -7  21 -0.2697 25.4662   1
  -8  -2  21 31.0392 25.5223  -2
  -8  -7  21 31.0392 25.5223   1
  -7  -3  21 171.421 29.2976  -2
  -7  -7  21 171.421 29.2976   1
  -5  -5  21 18.4639 11.8316  -2
  -5  -7  21 18.4639 11.8316   1
  -2  -8  21 220.208 27.1879  -2
  -2  -7  21 220.208 27.1879   1
  -1  -9  21 1.04002 9.56942  -2
  -1  -7  21 1.04002 9.56942   1
   0 -10  21 61.1920 20.1903  -2
   0  -7  21 61.1920 20.1903   1
   1 -11  21 86.3152 7.62206  -2
   1  -7  21 86.3152 7.62206   1
   2 -12  21 18.6732 25.3751  -2
   2  -7  21 18.6732 25.3751   1
   3 -13  21 123.094 11.4203  -2
   3  -7  21 123.094 11.4203   1
   4 -14  21 17.3267 9.18925  -2
   4  -7  21 17.3267 9.18925   1
   5 -15  21 23.2782 10.0563  -2
   5  -7  21 23.2782 10.0563   1
 -10  -1  21 167.987 29.0717  -2
 -10  -6  21 167.987 29.0717   1
  -9  -2  21 0.90304 25.4668  -2
  -9  -6  21 0.90304 25.4668   1
  -8  -3  21 38.3582 25.7331  -2
  -8  -6  21 38.3582 25.7331   1
  -7  -4  21 37.4767 25.6586  -2
  -7  -6  21 37.4767 25.6586   1
  -5  -6  21 16.2859 10.7331  -2
  -5  -6  21 16.2859 10.7331   1
  -1 -10  21 3.58121 6.18171  -2
  -1  -6  21 3.58121 6.18171   1
   0 -11  21 80.0941 8.55416  -2
   0  -6  21 80.0941 8.55416   1
   1 -12  21 81.0504 7.41630  -2
   1  -6  21 81.0504 7.41630   1
   2 -13  21 7.55280 23.8003  -2
   2  -6  21 7.55280 23.8003   1
   3 -14  21 4.03529 24.7630  -2
   3  -6  21 4.03529 24.7630   1
   4 -15  21 117.891 12.3529  -2
   4  -6  21 117.891 12.3529   1
   5 -16  21 -16.634 10.8782  -2
   5  -6  21 -16.634 10.8782   1
 -10  -2  21 76.5846 26.9845  -2
 -10  -5  21 76.5846 26.9845   1
  -9  -3  21 26.5146 25.9026  -2
  -9  -5  21 26.5146 25.9026   1
  -8  -4  21 193.183 27.5891  -2
  -8  -5  21 193.183 27.5891   1
  -7  -5  21 104.703 26.8783  -2
  -7  -5  21 104.703 26.8783   1
  -6  -6  21 28.7539 25.0792  -2
  -6  -5  21 28.7539 25.0792   1
  -5  -7  21 23.8111 10.7498  -2
  -5  -5  21 23.8111 10.7498   1
  -3  -9  21 89.0266 12.3020  -2
  -3  -5  21 89.0266 12.3020   1
  -2 -10  21 116.260 13.9208  -2
  -2  -5  21 116.260 13.9208   1
  -1 -11  21 44.8672 7.05240  -2
  -1  -5  21 44.8672 7.05240   1
   0 -12  21 30.0819 7.20650  -2
   0  -5  21 30.0819 7.20650   1
   1 -13  21 6.12419 7.23117  -2
   1  -5  21 6.12419 7.23117   1
   2 -14  21 66.8178 10.4894  -2
   2  -5  21 66.8178 10.4894   1
   3 -15  21 71.9564 11.1120  -2
   3  -5  21 71.9564 11.1120   1
   4 -16  21 41.6125 9.97396  -2
   4  -5  21 41.6125 9.97396   1
   5 -17  21 15.3968 10.1682  -2
   5  -5  21 15.3968 10.1682   1
 -10  -3  21 97.2695 27.6713  -2
 -10  -4  21 97.2695 27.6713   1
  -9  -4  21 35.0625 25.7596  -2
  -9  -4  21 35.0625 25.7596   1
  -8  -5  21 180.756 27.7791  -2
  -8  -4  21 180.756 27.7791   1
  -7  -6  21 44.3920 25.7299  -2
  -7  -4  21 44.3920 25.7299   1
  -6  -7  21 15.4495 25.0583  -2
  -6  -4  21 15.4495 25.0583   1
  -5  -8  21 265.800 16.9807  -2
  -5  -4  21 265.800 16.9807   1
  -4  -9  21 27.7559 11.5770  -2
  -4  -4  21 27.7559 11.5770   1
  -3 -10  21 208.775 14.4766  -2
  -3  -4  21 208.775 14.4766   1
  -2 -11  21 16.8155 6.93029  -2
  -2  -4  21 16.8155 6.93029   1
  -1 -12  21 53.0519 7.79578  -2
  -1  -4  21 53.0519 7.79578   1
   0 -13  21 64.0626 7.32709  -2
   0  -4  21 64.0626 7.32709   1
   1 -14  21 -10.840 7.12005  -2
   1  -4  21 -10.840 7.12005   1
   2 -15  21 43.0766 9.86687  -2
   2  -4  21 43.0766 9.86687   1
   3 -16  21 15.0345 9.42931  -2
   3  -4  21 15.0345 9.42931   1
   4 -17  21 11.5337 9.72680  -2
   4  -4  21 11.5337 9.72680   1
 -10  -4  21 116.240 28.1876  -2
 -10  -3  21 116.240 28.1876   1
  -9  -5  21 -9.1195 25.5474  -2
  -9  -3  21 -9.1195 25.5474   1
  -8  -6  21 23.0992 25.7013  -2
  -8  -3  21 23.0992 25.7013   1
  -7  -7  21 172.885 29.5212  -2
  -7  -3  21 172.885 29.5212   1
  -6  -8  21 1.54261 10.8759  -2
  -6  -3  21 1.54261 10.8759   1
  -5  -9  21 194.176 17.2699  -2
  -5  -3  21 194.176 17.2699   1
  -4 -10  21 24.1324 10.5074  -2
  -4  -3  21 24.1324 10.5074   1
  -3 -11  21 38.4923 7.00951  -2
  -3  -3  21 38.4923 7.00951   1
  -2 -12  21 377.254 20.3956  -2
  -2  -3  21 377.254 20.3956   1
  -1 -13  21 31.1648 7.25691  -2
  -1  -3  21 31.1648 7.25691   1
   0 -14  21 94.1874 9.06502  -2
   0  -3  21 94.1874 9.06502   1
   1 -15  21 3.33836 7.17033  -2
   1  -3  21 3.33836 7.17033   1
   2 -16  21 10.5249 9.33068  -2
   2  -3  21 10.5249 9.33068   1
   3 -17  21 180.300 13.1775  -2
   3  -3  21 180.300 13.1775   1
   4 -18  21 9.94385 9.58476  -2
   4  -3  21 9.94385 9.58476   1
 -10  -5  21 76.4918 27.6118  -2
 -10  -2  21 76.4918 27.6118   1
  -9  -6  21 -4.5805 25.9347  -2
  -9  -2  21 -4.5805 25.9347   1
  -8  -7  21 36.1943 26.1133  -2
  -8  -2  21 36.1943 26.1133   1
  -7  -8  21 177.305 29.8177  -2
  -7  -2  21 177.305 29.8177   1
  -6  -9  21 -4.1120 11.7996  -2
  -6  -2  21 -4.1120 11.7996   1
  -5 -10  21 36.7687 11.9620  -2
  -5  -2  21 36.7687 11.9620   1
  -4 -11  21 65.8846 10.8507  -2
  -4  -2  21 65.8846 10.8507   1
  -3 -12  21 -3.1052 6.87210  -2
  -3  -2  21 -3.1052 6.87210   1
  -2 -13  21 301.612 12.8546  -2
  -2  -2  21 301.612 12.8546   1
  -1 -14  21 15.4869 7.12494  -2
  -1  -2  21 15.4869 7.12494   1
   0 -15  21 40.3696 8.30127  -2
   0  -2  21 40.3696 8.30127   1
   1 -16  21 58.0591 7.62379  -2
   1  -2  21 58.0591 7.62379   1
   2 -17  21 21.9692 9.28201  -2
   2  -2  21 21.9692 9.28201   1
   3 -18  21 170.671 13.5871  -2
   3  -2  21 170.671 13.5871   1
   4 -19  21 1.56085 17.9028  -2
   4  -2  21 1.56085 17.9028   1
 -10  -6  21 222.582 30.3226  -2
 -10  -1  21 222.582 30.3226   1
  -9  -7  21 -7.2685 25.9390  -2
  -9  -1  21 -7.2685 25.9390   1
  -8  -8  21 12.4588 26.3964  -2
  -8  -1  21 12.4588 26.3964   1
  -7  -9  21 32.7124 27.3217  -2
  -7  -1  21 32.7124 27.3217   1
  -6 -10  21 54.5341 12.1295  -2
  -6  -1  21 54.5341 12.1295   1
  -5 -11  21 83.7708 11.4123  -2
  -5  -1  21 83.7708 11.4123   1
  -4 -12  21 43.5226 11.5387  -2
  -4  -1  21 43.5226 11.5387   1
  -3 -13  21 1.13296 6.57374  -2
  -3  -1  21 1.13296 6.57374   1
  -2 -14  21 -0.8685 6.89652  -2
  -2  -1  21 -0.8685 6.89652   1
  -1 -15  21 29.4657 7.92175  -2
  -1  -1  21 29.4657 7.92175   1
   0 -16  21 49.3250 8.62524  -2
   0  -1  21 49.3250 8.62524   1
   1 -17  21 297.140 12.8671  -2
   1  -1  21 297.140 12.8671   1
   2 -18  21 -34.534 20.7200  -2
   2  -1  21 -34.534 20.7200   1
   3 -19  21 21.0288 22.9864  -2
   3  -1  21 21.0288 22.9864   1
 -10  -7  21 33.2109 27.1769  -2
 -10   0  21 33.2109 27.1769   1
  -9  -8  21 84.1971 26.6956  -2
  -9   0  21 84.1971 26.6956   1
  -8  -9  21 46.9656 26.0640  -2
  -8   0  21 46.9656 26.0640   1
  -7 -10  21 72.5810 11.9861  -2
  -7   0  21 72.5810 11.9861   1
  -6 -11  21 50.3156 11.1110  -2
  -6   0  21 50.3156 11.1110   1
  -5 -12  21 27.5752 11.6256  -2
  -5   0  21 27.5752 11.6256   1
  -4 -13  21 22.1720 11.5358  -2
  -4   0  21 22.1720 11.5358   1
  -3 -14  21 -6.7582 7.01944  -2
  -3   0  21 -6.7582 7.01944   1
  -2 -15  21 -5.8499 7.25165  -2
  -2   0  21 -5.8499 7.25165   1
  -1 -16  21 1.15435 11.0680  -2
  -1   0  21 1.15435 11.0680   1
   0 -17  21 69.1611 11.6396  -2
   0   0  21 69.1611 11.6396   1
   2 -19  21 -5.5001 21.6014  -2
   2   0  21 -5.5001 21.6014   1
   3 -20  21 12.3530 21.9530  -2
   3   0  21 12.3530 21.9530   1
  -9  -9  21 49.8790 26.9861  -2
  -9   1  21 49.8790 26.9861   1
  -8 -10  21 89.5056 12.5783  -2
  -8   1  21 89.5056 12.5783   1
  -7 -11  21 3.19248 12.2137  -2
  -7   1  21 3.19248 12.2137   1
  -6 -12  21 40.4953 11.8680  -2
  -6   1  21 40.4953 11.8680   1
  -5 -13  21 182.048 14.1039  -2
  -5   1  21 182.048 14.1039   1
  -4 -14  21 72.7205 12.0748  -2
  -4   1  21 72.7205 12.0748   1
  -3 -15  21 -6.7574 9.41854  -2
  -3   1  21 -6.7574 9.41854   1
  -2 -16  21 7.62684 10.8700  -2
  -2   1  21 7.62684 10.8700   1
  -1 -17  21 38.9411 11.7587  -2
  -1   1  21 38.9411 11.7587   1
   2 -20  21 17.6839 21.8207  -2
   2   1  21 17.6839 21.8207   1
  -9 -10  21 14.9913 12.2880  -2
  -9   2  21 14.9913 12.2880   1
  -8 -11  21 0.99146 12.7969  -2
  -8   2  21 0.99146 12.7969   1
  -7 -12  21 44.7003 12.1179  -2
  -7   2  21 44.7003 12.1179   1
  -6 -13  21 1.16138 11.7039  -2
  -6   2  21 1.16138 11.7039   1
  -5 -14  21 123.156 13.5189  -2
  -5   2  21 123.156 13.5189   1
  -4 -15  21 15.9378 26.2540  -2
  -4   2  21 15.9378 26.2540   1
  -3 -16  21 22.2493 11.7145  -2
  -3   2  21 22.2493 11.7145   1
  -2 -17  21 48.1654 11.3784  -2
  -2   2  21 48.1654 11.3784   1
   2 -21  21 11.1818 21.0714  -2
   2   2  21 11.1818 21.0714   1
  -9 -11  21 6.35873 12.4645  -2
  -9   3  21 6.35873 12.4645   1
  -8 -12  21 21.9930 13.3475  -2
  -8   3  21 21.9930 13.3475   1
  -7 -13  21 40.8046 12.2962  -2
  -7   3  21 40.8046 12.2962   1
  -6 -14  21 -3.6950 27.0116  -2
  -6   3  21 -3.6950 27.0116   1
  -5 -15  21 3.82543 26.3957  -2
  -5   3  21 3.82543 26.3957   1
  -4 -16  21 7.60212 26.0017  -2
  -4   3  21 7.60212 26.0017   1
  -3 -17  21 11.4260 11.2647  -2
  -3   3  21 11.4260 11.2647   1
  -9 -12  21 15.0645 15.5484  -2
  -9   4  21 15.0645 15.5484   1
  -8 -13  21 5.43923 13.0099  -2
  -8   4  21 5.43923 13.0099   1
  -7 -14  21 -13.645 12.0663  -2
  -7   4  21 -13.645 12.0663   1
  -6 -15  21 -19.675 27.1058  -2
  -6   4  21 -19.675 27.1058   1
  -8 -14  21 45.6783 13.7317  -2
  -8   5  21 45.6783 13.7317   1
  -7 -15  21 -40.975 28.3634  -2
  -7   5  21 -40.975 28.3634   1
  -6 -16  21 -9.5001 27.9831  -2
  -6   5  21 -9.5001 27.9831   1
  -5 -17  21 -38.687 26.6243  -2
  -5   5  21 -38.687 26.6243   1
  -7 -16  21 -2.9403 13.0253  -2
  -7   6  21 -2.9403 13.0253   1
  -6 -17  21 34.4344 28.6375  -2
  -6   6  21 34.4344 28.6375   1
  -5   1  22 19.5838 27.4690  -2
  -5 -14  22 19.5838 27.4690   1
  -6  -1  22 1.04483 24.9720  -2
  -6 -11  22 1.04483 24.9720   1
  -5  -2  22 35.3451 26.1173  -2
  -5 -11  22 35.3451 26.1173   1
  -9   1  22 140.306 27.9245  -2
  -9 -10  22 140.306 27.9245   1
  -6  -2  22 -21.153 24.1337  -2
  -6 -10  22 -21.153 24.1337   1
  -5  -3  22 1.23490 26.3598  -2
  -5 -10  22 1.23490 26.3598   1
  -4  -4  22 149.524 26.4519  -2
  -4 -10  22 149.524 26.4519   1
  -3  -5  22 38.9132 25.5698  -2
  -3 -10  22 38.9132 25.5698   1
  -9   0  22 16.8035 25.9829  -2
  -9  -9  22 16.8035 25.9829   1
  -4  -5  22 336.101 33.4006  -2
  -4  -9  22 336.101 33.4006   1
  -3  -6  22 7.70245 24.4199  -2
  -3  -9  22 7.70245 24.4199   1
  -9  -1  22 37.1185 26.5322  -2
  -9  -8  22 37.1185 26.5322   1
  -8  -2  22 26.4222 25.9920  -2
  -8  -8  22 26.4222 25.9920   1
  -3  -7  22 -2.0415 25.2304  -2
  -3  -8  22 -2.0415 25.2304   1
  -2  -8  22 32.9928 25.4977  -2
  -2  -8  22 32.9928 25.4977   1
  -1  -9  22 336.543 35.3376  -2
  -1  -8  22 336.543 35.3376   1
  -9  -2  22 23.7078 26.2435  -2
  -9  -7  22 23.7078 26.2435   1
  -2  -9  22 46.3318 26.0067  -2
  -2  -7  22 46.3318 26.0067   1
  -1 -10  22 94.8608 27.3056  -2
  -1  -7  22 94.8608 27.3056   1
  -9  -3  22 20.3560 26.8324  -2
  -9  -6  22 20.3560 26.8324   1
  -1 -11  22 130.189 27.4545  -2
  -1  -6  22 130.189 27.4545   1
 -10  -3  22 60.4451 28.2173  -2
 -10  -5  22 60.4451 28.2173   1
  -9  -4  22 80.6307 27.5558  -2
  -9  -5  22 80.6307 27.5558   1
  -1 -12  22 46.6100 26.3158  -2
  -1  -5  22 46.6100 26.3158   1
 -10  -4  22 45.2612 11.9032  -2
 -10  -4  22 45.2612 11.9032   1
  -9  -5  22 107.510 27.5962  -2
  -9  -4  22 107.510 27.5962   1
  -8  -6  22 50.6830 25.7538  -2
  -8  -4  22 50.6830 25.7538   1
   0 -14  22 36.5694 26.0302  -2
   0  -4  22 36.5694 26.0302   1
   4  -4  22 147.541 15.4762   1
 -10  -5  22 62.9998 28.1080  -2
 -10  -3  22 62.9998 28.1080   1
  -9  -6  22 18.7372 26.7568  -2
  -9  -3  22 18.7372 26.7568   1
  -8  -7  22 31.4642 26.2971  -2
  -8  -3  22 31.4642 26.2971   1
  -7  -8  22 34.8635 25.6319  -2
  -7  -3  22 34.8635 25.6319   1
   0 -15  22 0.62293 26.3896  -2
   0  -3  22 0.62293 26.3896   1
   1 -16  22 19.7038 26.7641  -2
   1  -3  22 19.7038 26.7641   1
   2 -17  22 101.626 29.5730  -2
   2  -3  22 101.626 29.5730   1
   3 -18  22 44.1213 15.7729  -2
   3  -3  22 44.1213 15.7729   1
  -9  -7  22 11.0371 26.3124  -2
  -9  -2  22 11.0371 26.3124   1
  -8  -8  22 17.2370 26.2322  -2
  -8  -2  22 17.2370 26.2322   1
  -7  -9  22 16.8955 25.9909  -2
  -7  -2  22 16.8955 25.9909   1
  -6 -10  22 -6.2639 26.1733  -2
  -6  -2  22 -6.2639 26.1733   1
   1 -17  22 -10.873 27.0296  -2
   1  -2  22 -10.873 27.0296   1
   2 -18  22 107.095 29.4191  -2
   2  -2  22 107.095 29.4191   1
   3 -19  22 3.18145 33.0410  -2
   3  -2  22 3.18145 33.0410   1
  -9  -8  22 10.5359 26.9606  -2
  -9  -1  22 10.5359 26.9606   1
  -8  -9  22 40.8505 26.7132  -2
  -8  -1  22 40.8505 26.7132   1
  -7 -10  22 58.6477 12.9020  -2
  -7  -1  22 58.6477 12.9020   1
  -6 -11  22 46.5329 11.1729  -2
  -6  -1  22 46.5329 11.1729   1
  -5 -12  22 48.2139 14.9578  -2
  -5  -1  22 48.2139 14.9578   1
  -4 -13  22 48.6558 14.6799  -2
  -4  -1  22 48.6558 14.6799   1
  -3 -14  22 20.5781 14.5739  -2
  -3  -1  22 20.5781 14.5739   1
  -2 -15  22 67.7232 13.4161  -2
  -2  -1  22 67.7232 13.4161   1
  -1 -16  22 -19.729 13.5447  -2
  -1  -1  22 -19.729 13.5447   1
   1 -18  22 45.6937 27.5202  -2
   1  -1  22 45.6937 27.5202   1
   2 -19  22 35.2773 27.8479  -2
   2  -1  22 35.2773 27.8479   1
  -9  -9  22 44.0057 13.2177  -2
  -9   0  22 44.0057 13.2177   1
  -8 -10  22 37.1446 12.7062  -2
  -8   0  22 37.1446 12.7062   1
  -7 -11  22 66.3612 12.7681  -2
  -7   0  22 66.3612 12.7681   1
  -6 -12  22 18.1726 11.9679  -2
  -6   0  22 18.1726 11.9679   1
  -5 -13  22 24.5050 14.6205  -2
  -5   0  22 24.5050 14.6205   1
  -4 -14  22 229.535 17.6447  -2
  -4   0  22 229.535 17.6447   1
  -2 -16  22 120.705 13.3729  -2
  -2   0  22 120.705 13.3729   1
  -1 -17  22 20.9126 13.5956  -2
  -1   0  22 20.9126 13.5956   1
   1 -19  22 32.1748 27.3630  -2
   1   0  22 32.1748 27.3630   1
   2 -20  22 41.8580 27.6099  -2
   2   0  22 41.8580 27.6099   1
  -9 -10  22 107.267 13.7972  -2
  -9   1  22 107.267 13.7972   1
  -8 -11  22 19.9482 11.3451  -2
  -8   1  22 19.9482 11.3451   1
  -7 -12  22 31.7032 11.3145  -2
  -7   1  22 31.7032 11.3145   1
  -6 -13  22 44.6253 11.1570  -2
  -6   1  22 44.6253 11.1570   1
  -5 -14  22 19.5990 13.5375  -2
  -5   1  22 19.5990 13.5375   1
  -4 -15  22 70.9549 33.9884  -2
  -4   1  22 70.9549 33.9884   1
  -3 -16  22 -26.429 33.7042  -2
  -3   1  22 -26.429 33.7042   1
  -2 -17  22 22.6880 13.9517  -2
  -2   1  22 22.6880 13.9517   1
  -8 -12  22 13.8902 11.5394  -2
  -8   2  22 13.8902 11.5394   1
  -7 -13  22 10.0597 11.3113  -2
  -7   2  22 10.0597 11.3113   1
  -6 -14  22 33.9336 27.4267  -2
  -6   2  22 33.9336 27.4267   1
  -5 -15  22 -22.601 33.7453  -2
  -5   2  22 -22.601 33.7453   1
  -8 -13  22 24.8650 11.5875  -2
  -8   3  22 24.8650 11.5875   1
  -7 -14  22 -14.413 11.0572  -2
  -7   3  22 -14.413 11.0572   1
  -6 -15  22 -12.867 33.8732  -2
  -6   3  22 -12.867 33.8732   1
  -5 -16  22 6.46143 34.4336  -2
  -5   3  22 6.46143 34.4336   1
  -4 -17  22 13.9957 33.8661  -2
  -4   3  22 13.9957 33.8661   1
  -7 -15  22 -15.271 28.8675  -2
  -7   4  22 -15.271 28.8675   1
  -5 -17  22 -6.4123 34.4831  -2
  -5   4  22 -6.4123 34.4831   1
  -5   5  22 -21.687 29.8801   1
  -9  -7  23 110.132 29.3104  -2
  -9  -3  23 110.132 29.3104   1
  -9  -8  23 60.2121 28.7138  -2
  -9  -2  23 60.2121 28.7138   1
   1  -9  24 70.4942 25.9547  -2
   1 -11  24 70.4942 25.9547   1
   2 -10  24 13.7272 24.1563  -2
   2 -11  24 13.7272 24.1563   1
   1 -10  24 91.8974 25.8562  -2
   1 -10  24 91.8974 25.8562   1
   2 -11  24 7.24553 23.7982  -2
   2 -10  24 7.24553 23.7982   1
   1 -11  24 49.6379 24.7417  -2
   1  -9  24 49.6379 24.7417   1
   2 -12  24 12.5905 23.4471  -2
   2  -9  24 12.5905 23.4471   1
   1 -12  24 6.15048 23.0926  -2
   1  -8  24 6.15048 23.0926   1
   2 -13  24 -4.7724 23.4184  -2
   2  -8  24 -4.7724 23.4184   1
   1 -13  24 0.41089 23.0129  -2
   1  -7  24 0.41089 23.0129   1
   2 -14  24 9.55650 22.6715  -2
   2  -7  24 9.55650 22.6715   1
   1 -14  24 33.6890 23.8594  -2
   1  -6  24 33.6890 23.8594   1
   2 -15  24 -0.9592 23.1379  -2
   2  -6  24 -0.9592 23.1379   1
   1 -15  24 20.7003 23.4647  -2
   1  -5  24 20.7003 23.4647   1
   2 -16  24 3.05002 23.1540  -2
   2  -5  24 3.05002 23.1540   1
   0  -5  25 17.4703 16.4021  -2
   0 -15  25 17.4703 16.4021   1
  -6  -3  25 17.6498 32.6232  -2
  -6 -11  25 17.6498 32.6232   1
  -5  -4  25 33.7620 28.9405  -2
  -5 -11  25 33.7620 28.9405   1
  -5  -5  25 -5.4325 28.3702  -2
  -5 -10  25 -5.4325 28.3702   1
   0 -10  25 28.9732 31.8688  -2
   0 -10  25 28.9732 31.8688   1
  -6  -5  25 49.0961 28.2443  -2
  -6  -9  25 49.0961 28.2443   1
  -5  -6  25 24.7771 28.1754  -2
  -5  -9  25 24.7771 28.1754   1
   0 -11  25 16.6225 31.6978  -2
   0  -9  25 16.6225 31.6978   1
   1 -12  25 6.24774 20.8860  -2
   1  -9  25 6.24774 20.8860   1
  -7  -5  25 34.2687 28.5729  -2
  -7  -8  25 34.2687 28.5729   1
  -6  -6  25 9.41134 27.5278  -2
  -6  -8  25 9.41134 27.5278   1
  -5  -7  25 12.5130 27.8368  -2
  -5  -8  25 12.5130 27.8368   1
  -4  -8  25 45.5860 28.2374  -2
  -4  -8  25 45.5860 28.2374   1
  -3  -9  25 62.2865 28.0412  -2
  -3  -8  25 62.2865 28.0412   1
  -2 -10  25 53.9992 27.9521  -2
  -2  -8  25 53.9992 27.9521   1
  -1 -11  25 65.3801 33.0630  -2
  -1  -8  25 65.3801 33.0630   1
   0 -12  25 79.1628 21.0234  -2
   0  -8  25 79.1628 21.0234   1
   1 -13  25 39.5444 31.5387  -2
   1  -8  25 39.5444 31.5387   1
  -7  -6  25 10.7134 27.4339  -2
  -7  -7  25 10.7134 27.4339   1
  -6  -7  25 -0.5388 27.7377  -2
  -6  -7  25 -0.5388 27.7377   1
  -5  -8  25 13.3783 28.1462  -2
  -5  -7  25 13.3783 28.1462   1
  -4  -9  25 36.9242 28.1706  -2
  -4  -7  25 36.9242 28.1706   1
  -3 -10  25 11.3256 20.1853  -2
  -3  -7  25 11.3256 20.1853   1
  -2 -11  25 17.9619 19.8551  -2
  -2  -7  25 17.9619 19.8551   1
  -1 -12  25 76.5624 20.4308  -2
  -1  -7  25 76.5624 20.4308   1
   0 -13  25 30.2832 20.6848  -2
   0  -7  25 30.2832 20.6848   1
   1 -14  25 56.6799 31.0022  -2
   1  -7  25 56.6799 31.0022   1
  -7  -7  25 -1.4103 27.7100  -2
  -7  -6  25 -1.4103 27.7100   1
  -6  -8  25 12.8660 27.7901  -2
  -6  -6  25 12.8660 27.7901   1
  -5  -9  25 37.2117 28.4587  -2
  -5  -6  25 37.2117 28.4587   1
  -4 -10  25 -14.555 27.9375  -2
  -4  -6  25 -14.555 27.9375   1
  -3 -11  25 -5.8087 27.8404  -2
  -3  -6  25 -5.8087 27.8404   1
  -2 -12  25 4.26055 20.8777  -2
  -2  -6  25 4.26055 20.8777   1
  -1 -13  25 65.8746 20.5752  -2
  -1  -6  25 65.8746 20.5752   1
   0 -14  25 -13.801 20.4928  -2
   0  -6  25 -13.801 20.4928   1
  -7  -8  25 15.7103 28.4360  -2
  -7  -5  25 15.7103 28.4360   1
  -6  -9  25 96.4163 29.4155  -2
  -6  -5  25 96.4163 29.4155   1
  -5 -10  25 13.0013 28.2068  -2
  -5  -5  25 13.0013 28.2068   1
  -4 -11  25 27.8666 27.9897  -2
  -4  -5  25 27.8666 27.9897   1
  -3 -12  25 4.44765 27.6696  -2
  -3  -5  25 4.44765 27.6696   1
  -2 -13  25 -18.795 20.0231  -2
  -2  -5  25 -18.795 20.0231   1
  -1 -14  25 57.2378 20.3688  -2
  -1  -5  25 57.2378 20.3688   1
   0 -15  25 29.4129 28.7126  -2
   0  -5  25 29.4129 28.7126   1
  -6 -10  25 62.3672 28.8407  -2
  -6  -4  25 62.3672 28.8407   1
  -5 -11  25 7.85689 28.1121  -2
  -5  -4  25 7.85689 28.1121   1
  -4 -12  25 18.3631 27.8933  -2
  -4  -4  25 18.3631 27.8933   1
  -3 -13  25 93.1850 28.6302  -2
  -3  -4  25 93.1850 28.6302   1
  -2 -14  25 91.5760 28.8596  -2
  -2  -4  25 91.5760 28.8596   1
  -1 -15  25 91.7259 21.1903  -2
  -1  -4  25 91.7259 21.1903   1
   0 -16  25 57.0074 29.3036  -2
   0  -4  25 57.0074 29.3036   1
  -6 -11  25 4.40148 28.4956  -2
  -6  -3  25 4.40148 28.4956   1
  -5 -12  25 53.5140 28.6471  -2
  -5  -3  25 53.5140 28.6471   1
  -4 -13  25 43.8819 27.8311  -2
  -4  -3  25 43.8819 27.8311   1
  -3 -14  25 105.632 28.8365  -2
  -3  -3  25 105.632 28.8365   1
  -2 -15  25 34.5698 28.1740  -2
  -2  -3  25 34.5698 28.1740   1
  -1 -16  25 65.4471 30.2155  -2
  -1  -3  25 65.4471 30.2155   1
  -5 -13  25 17.3064 28.2661  -2
  -5  -2  25 17.3064 28.2661   1
  -4 -14  25 33.8165 27.9553  -2
  -4  -2  25 33.8165 27.9553   1
  -2 -14  26 76.7173 28.9642   1
  -3  -5  26 5.11646 30.3915  -2
  -3 -13  26 5.11646 30.3915   1
  -2  -6  26 -7.5857 28.2780  -2
  -2 -13  26 -7.5857 28.2780   1
  -1  -7  26 41.0825 28.9072  -2
  -1 -13  26 41.0825 28.9072   1
  -4  -5  26 -17.780 29.0822  -2
  -4 -12  26 -17.780 29.0822   1
  -3  -6  26 24.5357 27.0366  -2
  -3 -12  26 24.5357 27.0366   1
  -2  -7  26 9.10203 28.4787  -2
  -2 -12  26 9.10203 28.4787   1
  -1  -8  26 31.8864 12.8322  -2
  -1 -12  26 31.8864 12.8322   1
  -5  -5  26 47.5237 30.2292  -2
  -5 -11  26 47.5237 30.2292   1
  -4  -6  26 -5.1191 25.3716  -2
  -4 -11  26 -5.1191 25.3716   1
  -3  -7  26 52.5052 29.6741  -2
  -3 -11  26 52.5052 29.6741   1
  -2  -8  26 -2.4244 25.6238  -2
  -2 -11  26 -2.4244 25.6238   1
  -1  -9  26 5.60088 12.3561  -2
  -1 -11  26 5.60088 12.3561   1
  -5  -6  26 108.350 27.8501  -2
  -5 -10  26 108.350 27.8501   1
  -4  -7  26 -4.4743 26.8577  -2
  -4 -10  26 -4.4743 26.8577   1
  -3  -8  26 21.4681 24.9137  -2
  -3 -10  26 21.4681 24.9137   1
  -2  -9  26 107.557 12.6203  -2
  -2 -10  26 107.557 12.6203   1
  -1 -10  26 17.7575 24.3979  -2
  -1 -10  26 17.7575 24.3979   1
  -5  -7  26 0.96122 26.4307  -2
  -5  -9  26 0.96122 26.4307   1
  -4  -8  26 27.1727 24.1343  -2
  -4  -9  26 27.1727 24.1343   1
  -3  -9  26 31.4785 24.6817  -2
  -3  -9  26 31.4785 24.6817   1
  -2 -10  26 92.6698 12.8893  -2
  -2  -9  26 92.6698 12.8893   1
  -1 -11  26 11.4567 12.9859  -2
  -1  -9  26 11.4567 12.9859   1
  -3 -10  26 4.50127 11.6678  -2
  -3  -8  26 4.50127 11.6678   1
  -2 -11  26 -1.1826 11.0893  -2
  -2  -8  26 -1.1826 11.0893   1
  -1 -12  26 24.9782 13.2440  -2
  -1  -8  26 24.9782 13.2440   1
  -4 -10  26 0.56274 12.7346  -2
  -4  -7  26 0.56274 12.7346   1
  -3 -11  26 20.5585 11.0770  -2
  -3  -7  26 20.5585 11.0770   1
  -2 -12  26 33.9692 24.4236  -2
  -2  -7  26 33.9692 24.4236   1
  -1 -13  26 47.5066 25.3564  -2
  -1  -7  26 47.5066 25.3564   1
  -4 -11  26 -3.3691 13.5321  -2
  -4  -6  26 -3.3691 13.5321   1
  -3 -12  26 27.5951 10.4178  -2
  -3  -6  26 27.5951 10.4178   1
  -2 -13  26 29.6829 11.1985  -2
  -2  -6  26 29.6829 11.1985   1
   0   0   0    0.00    0.00   0
;
_shelx_hkl_checksum              46464
#END Tags that were not found in dictionaries
loop_
_space_group_symop_operation_xyz
'x, y, z'
'-x, -y, -z'
loop_
_atom_site_label
_atom_site_type_symbol
_atom_site_fract_x
_atom_site_fract_y
_atom_site_fract_z
_atom_site_U_iso_or_equiv
_atom_site_adp_type
_atom_site_occupancy
_atom_site_site_symmetry_order
_atom_site_calc_flag
_atom_site_refinement_flags_posn
_atom_site_refinement_flags_adp
_atom_site_refinement_flags_occupancy
_atom_site_disorder_assembly
_atom_site_disorder_group
Co1 Co 1.17729(19) 0.00288(16) 0.37852(12) 0.0242(6) Uani 1 1 d . . . . .
Cd1 Cd 0.41582(15) 0.19986(8) 0.27749(10) 0.0334(5) Uani 1 1 d . . . . .
Cd2 Cd 0.21890(14) -0.19053(7) 0.11569(9) 0.0306(5) Uani 1 1 d . . . . .
N1 N 0.1607(15) -0.2405(9) -0.0026(5) 0.045(3) Uani 1 1 d D U . . .
N2 N 0.3328(15) -0.2729(9) 0.0785(9) 0.030(3) Uani 1 1 d . U . . .
N3 N 0.6059(15) 0.2861(8) 0.3071(10) 0.030(3) Uani 1 1 d . U . . .
N5 N 1.9844(9) 0.1944(9) 0.8903(10) 0.044(3) Uani 1 1 d D U . . .
N6 N 1.8469(16) 0.2522(9) 0.8218(10) 0.031(3) Uani 1 1 d . U . . .
N7 N 1.5853(17) -0.2593(9) 0.6086(11) 0.035(3) Uani 1 1 d . U . . .
N8 N 1.7808(10) -0.2018(8) 0.7200(8) 0.043(3) Uani 1 1 d D U . . .
C2 C 0.0838(19) -0.2233(10) -0.0431(7) 0.052(4) Uani 1 1 d D U . . .
H2 H 0.0520 -0.1860 -0.0227 0.063 Uiso 1 1 calc R U . . .
C3 C 0.0484(19) -0.2566(11) -0.1126(7) 0.060(4) Uani 1 1 d D U . . .
H3 H -0.0046 -0.2419 -0.1393 0.072 Uiso 1 1 calc R U . . .
C4 C 0.092(2) -0.3117(11) -0.1421(5) 0.060(4) Uani 1 1 d D U . . .
H4 H 0.0638 -0.3388 -0.1895 0.072 Uiso 1 1 calc R U . . .
C5 C 0.1782(19) -0.3273(10) -0.1020(7) 0.055(4) Uani 1 1 d D U . . .
H5 H 0.2164 -0.3614 -0.1218 0.065 Uiso 1 1 calc R U . . .
C6 C 0.2078(18) -0.2922(10) -0.0322(6) 0.045(3) Uani 1 1 d D U . . .
C1 C 0.2946(18) -0.3087(12) 0.0149(11) 0.039(3) Uani 1 1 d D U . . .
H1 H 0.3227 -0.3482 -0.0038 0.046 Uiso 1 1 calc R U . . .
C7 C 0.4179(10) -0.2904(6) 0.1179(7) 0.031(3) Uani 1 1 d G U . . .
C8 C 0.4020(10) -0.3597(5) 0.1094(7) 0.034(3) Uani 1 1 d G U . . .
H8 H 0.3310 -0.3952 0.0780 0.040 Uiso 1 1 calc R U . . .
C9 C 0.4901(12) -0.3771(5) 0.1469(7) 0.035(3) Uani 1 1 d G U . . .
H9 H 0.4792 -0.4244 0.1411 0.041 Uiso 1 1 calc R U . . .
C10 C 0.5941(10) -0.3252(6) 0.1928(7) 0.032(3) Uani 1 1 d G U . . .
H10 H 0.6542 -0.3370 0.2184 0.039 Uiso 1 1 calc R U . . .
C11 C 0.6100(9) -0.2559(5) 0.2013(7) 0.028(3) Uani 1 1 d G U . . .
C12 C 0.5219(11) -0.2385(5) 0.1638(7) 0.031(3) Uani 1 1 d G U . . .
H12 H 0.5328 -0.1911 0.1696 0.037 Uiso 1 1 calc R U . . .
C13 C 0.7220(12) -0.1970(7) 0.2512(8) 0.025(3) Uani 1 1 d DG U . . .
C14 C 0.7134(12) -0.1299(8) 0.2852(12) 0.026(4) Uani 0.488(18) 1 d G U P A 1
H14 H 0.6383 -0.1201 0.2758 0.031 Uiso 0.488(18) 1 calc R U P A 1
C15 C 0.8145(15) -0.0770(7) 0.3329(11) 0.028(4) Uani 0.488(18) 1 d G U P A 1
H15 H 0.8086 -0.0311 0.3562 0.034 Uiso 0.488(18) 1 calc R U P A 1
C16 C 0.9244(12) -0.0912(7) 0.3467(8) 0.024(3) Uani 1 1 d DG U . A .
C17 C 0.9331(12) -0.1584(8) 0.3127(11) 0.024(4) Uani 0.488(18) 1 d G U P A 1
H17 H 1.0081 -0.1681 0.3222 0.029 Uiso 0.488(18) 1 calc R U P A 1
C18 C 0.8319(14) -0.2113(7) 0.2650(11) 0.023(4) Uani 0.488(18) 1 d G U P A 1
H18 H 0.8378 -0.2572 0.2418 0.028 Uiso 0.488(18) 1 calc R U P A 1
C14' C 0.753(3) -0.1377(13) 0.2416(17) 0.028(4) Uani 0.512(18) 1 d D U P A 2
H14' H 0.7075 -0.1303 0.2056 0.033 Uiso 0.512(18) 1 calc R U P A 2
C15' C 0.857(3) -0.0893(17) 0.2894(14) 0.026(4) Uani 0.512(18) 1 d D U P A 2
H15' H 0.8863 -0.0492 0.2819 0.031 Uiso 0.512(18) 1 calc R U P A 2
C18' C 0.782(2) -0.2150(15) 0.3006(14) 0.024(4) Uani 0.512(18) 1 d D U P A 2
H18' H 0.7562 -0.2580 0.3042 0.028 Uiso 0.512(18) 1 calc R U P A 2
C17' C 0.887(3) -0.1601(12) 0.3443(18) 0.024(4) Uani 0.512(18) 1 d D U P A 2
H17' H 0.9397 -0.1700 0.3758 0.028 Uiso 0.512(18) 1 calc R U P A 2
C19 C 1.0270(18) -0.0345(10) 0.4013(11) 0.022(3) Uani 1 1 d . U . . .
C20 C 1.0763(18) 0.0445(10) 0.4301(11) 0.023(3) Uani 1 1 d . U . . .
C21 C 1.0143(13) 0.0981(7) 0.4265(9) 0.026(3) Uani 1 1 d DG U . . .
C22 C 0.934(2) 0.0885(8) 0.3667(8) 0.024(4) Uani 0.439(18) 1 d G U P B 1
H22 H 0.9112 0.0451 0.3281 0.029 Uiso 0.439(18) 1 calc R U P B 1
C23 C 0.886(2) 0.1425(9) 0.3635(8) 0.027(4) Uani 0.439(18) 1 d G U P B 1
H23 H 0.8312 0.1360 0.3226 0.033 Uiso 0.439(18) 1 calc R U P B 1
C24 C 0.9192(13) 0.2061(6) 0.4200(9) 0.028(3) Uani 1 1 d DG U . B .
C25 C 1.000(2) 0.2156(8) 0.4798(8) 0.026(4) Uani 0.439(18) 1 d G U P B 1
H25 H 1.0223 0.2590 0.5185 0.031 Uiso 0.439(18) 1 calc R U P B 1
C26 C 1.047(2) 0.1616(9) 0.4831(8) 0.026(4) Uani 0.439(18) 1 d G U P B 1
H26 H 1.1023 0.1682 0.5239 0.031 Uiso 0.439(18) 1 calc R U P B 1
C22' C 0.8908(19) 0.0791(14) 0.4012(19) 0.027(3) Uani 0.561(18) 1 d D U P B 2
H22' H 0.8397 0.0335 0.3884 0.033 Uiso 0.561(18) 1 calc R U P B 2
C23' C 0.850(2) 0.1349(10) 0.3966(19) 0.027(4) Uani 0.561(18) 1 d D U P B 2
H23' H 0.7658 0.1242 0.3756 0.033 Uiso 0.561(18) 1 calc R U P B 2
C25' C 1.0407(19) 0.2125(15) 0.4405(18) 0.024(3) Uani 0.561(18) 1 d D U P B 2
H25' H 1.0940 0.2585 0.4577 0.029 Uiso 0.561(18) 1 calc R U P B 2
C26' C 1.094(2) 0.1593(11) 0.4388(19) 0.025(3) Uani 0.561(18) 1 d D U P B 2
H26' H 1.1777 0.1652 0.4455 0.030 Uiso 0.561(18) 1 calc R U P B 2
C27 C 0.8659(11) 0.2642(5) 0.4148(7) 0.030(3) Uani 1 1 d DG U . . .
C28 C 0.9266(10) 0.3332(6) 0.4608(7) 0.039(4) Uani 1 1 d G U . B .
H28 H 0.9995 0.3432 0.4945 0.047 Uiso 1 1 calc R U . . .
C29 C 0.8805(11) 0.3877(5) 0.4575(7) 0.037(4) Uani 1 1 d G U . B .
H29 H 0.9220 0.4348 0.4890 0.045 Uiso 1 1 calc R U . . .
C30 C 0.7738(11) 0.3731(5) 0.4082(7) 0.033(4) Uani 1 1 d G U . B .
H30 H 0.7423 0.4103 0.4059 0.040 Uiso 1 1 calc R U . . .
C31 C 0.7131(10) 0.3041(6) 0.3622(6) 0.028(3) Uani 1 1 d G U . B .
C32 C 0.7592(10) 0.2497(5) 0.3655(7) 0.028(3) Uani 1 1 d G U . B .
H32 H 0.7178 0.2025 0.3340 0.034 Uiso 1 1 calc R U . . .
C33 C 0.599(2) 0.3242(12) 0.2752(13) 0.040(3) Uani 1 1 d . U . . .
H33 H 0.6697 0.3599 0.2840 0.048 Uiso 1 1 calc R U . C 1
C34 C 0.490(3) 0.317(2) 0.2258(18) 0.041(4) Uani 0.56(4) 1 d D U P D 1
C35 C 0.487(2) 0.3599(17) 0.1922(19) 0.041(4) Uani 0.56(4) 1 d D U P D 1
H35 H 0.5563 0.3974 0.2025 0.049 Uiso 0.56(4) 1 calc R U P D 1
C36 C 0.383(3) 0.3469(19) 0.1433(19) 0.041(4) Uani 0.56(4) 1 d D U P D 1
H36 H 0.3789 0.3747 0.1184 0.049 Uiso 0.56(4) 1 calc R U P D 1
C37 C 0.283(2) 0.2931(18) 0.1307(18) 0.041(4) Uani 0.56(4) 1 d D U P D 1
H37 H 0.2108 0.2829 0.0964 0.049 Uiso 0.56(4) 1 calc R U P D 1
C38 C 0.291(3) 0.2543(18) 0.169(2) 0.041(4) Uani 0.56(4) 1 d D U P D 1
H38 H 0.2222 0.2173 0.1602 0.049 Uiso 0.56(4) 1 calc R U P D 1
N4 N 0.392(3) 0.2675(18) 0.2179(17) 0.041(4) Uani 0.56(4) 1 d D U P D 1
C34' C 0.501(4) 0.306(3) 0.217(2) 0.041(4) Uani 0.44(4) 1 d D U P D 2
C35' C 0.508(3) 0.345(2) 0.179(2) 0.041(4) Uani 0.44(4) 1 d D U P D 2
H35' H 0.5747 0.3854 0.1933 0.049 Uiso 0.44(4) 1 calc R U P D 2
C36' C 0.414(4) 0.325(2) 0.122(2) 0.041(4) Uani 0.44(4) 1 d D U P D 2
H36' H 0.4230 0.3410 0.0881 0.049 Uiso 0.44(4) 1 calc R U P D 2
C37' C 0.306(3) 0.279(2) 0.114(2) 0.041(4) Uani 0.44(4) 1 d D U P D 2
H37' H 0.2323 0.2765 0.0843 0.050 Uiso 0.44(4) 1 calc R U P D 2
C38' C 0.309(3) 0.238(2) 0.150(2) 0.041(4) Uani 0.44(4) 1 d D U P D 2
H38' H 0.2421 0.1983 0.1364 0.049 Uiso 0.44(4) 1 calc R U P D 2
N4' N 0.404(4) 0.254(2) 0.204(2) 0.041(4) Uani 0.44(4) 1 d D U P D 2
C39 C 2.0525(12) 0.1652(11) 0.9220(12) 0.051(4) Uani 1 1 d D U . . .
H39 H 2.0136 0.1317 0.9352 0.061 Uiso 1 1 calc R U . . .
C40 C 2.1764(12) 0.1815(11) 0.9363(13) 0.057(4) Uani 1 1 d D U . . .
H40 H 2.2206 0.1563 0.9544 0.068 Uiso 1 1 calc R U . . .
C41 C 2.2335(9) 0.2353(12) 0.9235(13) 0.057(4) Uani 1 1 d D U . . .
H41 H 2.3189 0.2510 0.9368 0.068 Uiso 1 1 calc R U . . .
C42 C 2.1660(12) 0.2665(10) 0.8912(13) 0.052(4) Uani 1 1 d D U . . .
H42 H 2.2041 0.3019 0.8797 0.063 Uiso 1 1 calc R U . . .
C43 C 2.0413(11) 0.2452(10) 0.8757(12) 0.044(3) Uani 1 1 d D U . . .
C44 C 1.963(2) 0.2707(12) 0.8353(12) 0.041(3) Uani 1 1 d . U . . .
H44 H 1.9987 0.3018 0.8185 0.049 Uiso 1 1 calc R U . . .
C45 C 1.7721(11) 0.2772(6) 0.7813(7) 0.033(3) Uani 1 1 d G U . . .
C46 C 1.8023(10) 0.3466(6) 0.7894(7) 0.036(3) Uani 1 1 d G U . . .
H46 H 1.8739 0.3796 0.8230 0.043 Uiso 1 1 calc R U . . .
C47 C 1.7279(11) 0.3678(5) 0.7485(7) 0.036(4) Uani 1 1 d G U . . .
H47 H 1.7485 0.4153 0.7541 0.043 Uiso 1 1 calc R U . . .
C48 C 1.6232(10) 0.3196(6) 0.6995(7) 0.032(3) Uani 1 1 d G U . . .
H48 H 1.5723 0.3341 0.6715 0.039 Uiso 1 1 calc R U . . .
C49 C 1.5929(9) 0.2502(5) 0.6914(6) 0.027(3) Uani 1 1 d DG U . . .
C50 C 1.6674(11) 0.2290(5) 0.7323(7) 0.032(3) Uani 1 1 d G U . . .
H50 H 1.6468 0.1816 0.7268 0.038 Uiso 1 1 calc R U . . .
C51 C 1.4858(11) 0.1950(6) 0.6336(7) 0.024(3) Uani 1 1 d DG U . . .
C52 C 1.4967(11) 0.1306(8) 0.5931(10) 0.023(4) Uani 0.492(17) 1 d G U P E 1
H52 H 1.5721 0.1209 0.6008 0.028 Uiso 0.492(17) 1 calc R U P E 1
C53 C 1.3973(13) 0.0803(7) 0.5413(9) 0.024(4) Uani 0.492(17) 1 d G U P E 1
H53 H 1.4047 0.0362 0.5137 0.029 Uiso 0.492(17) 1 calc R U P E 1
C54 C 1.2869(11) 0.0944(6) 0.5301(7) 0.022(3) Uani 1 1 d DG U . E .
C55 C 1.2760(11) 0.1589(8) 0.5706(10) 0.023(4) Uani 0.492(17) 1 d G U P E 1
H55 H 1.2006 0.1686 0.5629 0.027 Uiso 0.492(17) 1 calc R U P E 1
C56 C 1.3754(13) 0.2092(7) 0.6223(9) 0.024(4) Uani 0.492(17) 1 d G U P E 1
H56 H 1.3680 0.2532 0.6500 0.029 Uiso 0.492(17) 1 calc R U P E 1
C52' C 1.439(3) 0.1359(12) 0.6420(16) 0.023(3) Uani 0.508(17) 1 d D U P E 2
H52' H 1.4675 0.1297 0.6819 0.028 Uiso 0.508(17) 1 calc R U P E 2
C53' C 1.344(3) 0.0860(16) 0.5863(13) 0.023(3) Uani 0.508(17) 1 d D U P E 2
H53' H 1.3161 0.0416 0.5869 0.028 Uiso 0.508(17) 1 calc R U P E 2
C55' C 1.338(3) 0.1622(11) 0.5354(17) 0.022(3) Uani 0.508(17) 1 d D U P E 2
H55' H 1.3000 0.1734 0.5005 0.027 Uiso 0.508(17) 1 calc R U P E 2
C56' C 1.437(3) 0.2141(15) 0.5846(13) 0.023(3) Uani 0.508(17) 1 d D U P E 2
H56' H 1.4676 0.2584 0.5843 0.028 Uiso 0.508(17) 1 calc R U P E 2
C57 C 1.1811(18) 0.0412(10) 0.4725(11) 0.023(3) Uani 1 1 d . U . . .
C58 C 1.1426(18) -0.0362(9) 0.4461(11) 0.024(3) Uani 1 1 d D U . . .
C59 C 1.1904(13) -0.0944(6) 0.4540(8) 0.020(2) Uani 1 1 d DG U . . .
C60 C 1.1755(19) -0.1567(9) 0.3991(6) 0.022(3) Uani 0.466(17) 1 d G U P F 1
H60 H 1.1332 -0.1639 0.3550 0.026 Uiso 0.466(17) 1 calc R U P F 1
C61 C 1.2224(19) -0.2086(7) 0.4089(7) 0.021(3) Uani 0.466(17) 1 d G U P F 1
H61 H 1.2122 -0.2511 0.3714 0.025 Uiso 0.466(17) 1 calc R U P F 1
C62 C 1.2843(13) -0.1981(6) 0.4735(8) 0.022(3) Uani 1 1 d DG U . F .
C63 C 1.2992(19) -0.1358(9) 0.5283(6) 0.019(3) Uani 0.466(17) 1 d G U P F 1
H63 H 1.3415 -0.1287 0.5725 0.023 Uiso 0.466(17) 1 calc R U P F 1
C64 C 1.2522(19) -0.0840(7) 0.5186(7) 0.020(3) Uani 0.466(17) 1 d G U P F 1
H64 H 1.2624 -0.0414 0.5561 0.024 Uiso 0.466(17) 1 calc R U P F 1
C60' C 1.104(2) -0.1534(12) 0.4438(18) 0.019(3) Uani 0.534(17) 1 d D U P F 2
H60' H 1.0198 -0.1601 0.4311 0.023 Uiso 0.534(17) 1 calc R U P F 2
C61' C 1.1607(19) -0.2018(15) 0.4550(17) 0.021(3) Uani 0.534(17) 1 d D U P F 2
H61' H 1.1073 -0.2442 0.4493 0.025 Uiso 0.534(17) 1 calc R U P F 2
C63' C 1.355(2) -0.1294(11) 0.4882(18) 0.020(3) Uani 0.534(17) 1 d D U P F 2
H63' H 1.4391 -0.1195 0.5059 0.024 Uiso 0.534(17) 1 calc R U P F 2
C64' C 1.3143(18) -0.0750(13) 0.4797(17) 0.018(3) Uani 0.534(17) 1 d D U P F 2
H64' H 1.3657 -0.0301 0.4902 0.022 Uiso 0.534(17) 1 calc R U P F 2
C65 C 1.3370(12) -0.2536(5) 0.4847(7) 0.028(3) Uani 1 1 d G U . . .
C66 C 1.2914(11) -0.3233(6) 0.4377(6) 0.038(4) Uani 1 1 d G U . F .
H66 H 1.2236 -0.3368 0.3996 0.046 Uiso 1 1 calc R U . . .
C67 C 1.3451(12) -0.3733(5) 0.4463(7) 0.039(4) Uani 1 1 d G U . F .
H67 H 1.3139 -0.4210 0.4141 0.046 Uiso 1 1 calc R U . . .
C68 C 1.4443(12) -0.3536(5) 0.5021(7) 0.038(4) Uani 1 1 d G U . F .
H68 H 1.4810 -0.3878 0.5080 0.046 Uiso 1 1 calc R U . . .
C69 C 1.4899(11) -0.2839(6) 0.5491(6) 0.031(3) Uani 1 1 d G U . F .
C70 C 1.4362(11) -0.2338(5) 0.5405(6) 0.028(3) Uani 1 1 d G U . F .
H70 H 1.4673 -0.1862 0.5727 0.034 Uiso 1 1 calc R U . . .
C71 C 1.682(2) -0.2792(13) 0.6042(14) 0.043(4) Uani 1 1 d . U . . .
H71 H 1.6830 -0.3134 0.5628 0.052 Uiso 1 1 calc R U . . .
C72 C 1.7891(11) -0.2488(9) 0.6627(7) 0.041(3) Uani 1 1 d D U . . .
C73 C 1.8911(14) -0.2702(10) 0.6579(8) 0.053(4) Uani 1 1 d D U . . .
H73 H 1.8908 -0.3072 0.6179 0.063 Uiso 1 1 calc R U . . .
C74 C 1.9932(12) -0.2363(12) 0.7126(9) 0.062(5) Uani 1 1 d D U . . .
H74 H 2.0664 -0.2474 0.7099 0.074 Uiso 1 1 calc R U . . .
C75 C 1.9885(11) -0.1861(11) 0.7715(8) 0.054(4) Uani 1 1 d D U . . .
H75 H 2.0575 -0.1635 0.8102 0.065 Uiso 1 1 calc R U . . .
C76 C 1.8811(13) -0.1692(10) 0.7733(7) 0.048(4) Uani 1 1 d D U . . .
H76 H 1.8785 -0.1335 0.8133 0.058 Uiso 1 1 calc R U . . .
C77 C 0.4632(18) 0.0655(10) 0.2613(12) 0.027(3) Uani 1 1 d . U . . .
C78 C 0.3630(19) 0.0448(10) 0.2066(12) 0.031(3) Uani 1 1 d . U . . .
C79 C 0.3226(19) -0.0326(10) 0.1738(12) 0.029(3) Uani 1 1 d . U . . .
C80 C 0.4099(18) -0.0547(10) 0.2137(11) 0.027(3) Uani 1 1 d . U . . .
C81 C 0.5031(14) 0.0042(11) 0.2664(9) 0.024(3) Uani 1 1 d . U . . .
C82 C 1.194(4) -0.0560(15) 0.2816(18) 0.024(4) Uani 0.49(3) 1 d G U P G 1
H82 H 1.1499 -0.1034 0.2518 0.028 Uiso 0.49(3) 1 calc R U P G 1
C83 C 1.160(2) 0.005(3) 0.2817(17) 0.024(4) Uani 0.49(3) 1 d G U P G 1
H83 H 1.0908 0.0050 0.2518 0.029 Uiso 0.49(3) 1 calc R U P G 1
C84 C 1.250(5) 0.0647(14) 0.334(2) 0.025(4) Uani 0.49(3) 1 d G U P G 1
H84 H 1.2504 0.1123 0.3456 0.030 Uiso 0.49(3) 1 calc R U P G 1
C85 C 1.338(2) 0.041(3) 0.3666(13) 0.025(4) Uani 0.49(3) 1 d G U P G 1
H85 H 1.4081 0.0702 0.4035 0.030 Uiso 0.49(3) 1 calc R U P G 1
C86 C 1.303(4) -0.033(3) 0.334(2) 0.024(4) Uani 0.49(3) 1 d G U P G 1
H86 H 1.3460 -0.0631 0.3455 0.029 Uiso 0.49(3) 1 calc R U P G 1
C87 C 1.297(4) 0.0672(11) 0.354(2) 0.025(4) Uani 0.51(3) 1 d G U P G 2
H87 H 1.3363 0.1161 0.3789 0.030 Uiso 0.51(3) 1 calc R U P G 2
C88 C 1.184(3) 0.036(3) 0.302(2) 0.023(4) Uani 0.51(3) 1 d G U P G 2
H88 H 1.1352 0.0612 0.2869 0.028 Uiso 0.51(3) 1 calc R U P G 2
C89 C 1.158(2) -0.038(2) 0.2780(13) 0.023(4) Uani 0.51(3) 1 d G U P G 2
H89 H 1.0887 -0.0714 0.2434 0.027 Uiso 0.51(3) 1 calc R U P G 2
C90 C 1.255(4) -0.0530(14) 0.314(2) 0.024(4) Uani 0.51(3) 1 d G U P G 2
H90 H 1.2610 -0.0985 0.3086 0.029 Uiso 0.51(3) 1 calc R U P G 2
C91 C 1.3405(18) 0.012(3) 0.3614(16) 0.023(4) Uani 0.51(3) 1 d G U P G 2
H91 H 1.4140 0.0174 0.3923 0.027 Uiso 0.51(3) 1 calc R U P G 2
O20 O 0.5179(12) 0.1300(7) 0.2997(8) 0.031(3) Uani 1 1 d . U . . .
O21 O 0.5884(10) 0.0038(8) 0.3080(7) 0.033(3) Uani 1 1 d . U . . .
O22 O 0.3937(12) -0.1205(6) 0.1987(8) 0.027(3) Uani 1 1 d . U . . .
O23 O 0.2287(13) -0.0755(7) 0.1246(8) 0.033(3) Uani 1 1 d . U . . .
O24 O 0.3144(13) 0.0874(7) 0.1911(8) 0.033(3) Uani 1 1 d . U . . .
S2 S 0.8240(14) 0.5013(8) 0.2695(8) 0.089(4) Uani 0.669(12) 1 d D U P H 1
S1 S 0.7336(17) 0.5505(9) 0.3799(9) 0.084(3) Uani 0.669(12) 1 d D U P H 1
N200 N 0.8465(19) 0.5447(15) 0.3500(9) 0.084(3) Uiso 0.669(12) 1 d D U P H 1
O3 O 0.7171(19) 0.5031(14) 0.2272(14) 0.078(8) Uiso 0.669(12) 1 d D U P H 1
O4 O 0.850(2) 0.4362(9) 0.2590(13) 0.056(7) Uiso 0.669(12) 1 d D U P H 1
C2A C 0.9459(18) 0.5563(12) 0.2564(12) 0.090(5) Uiso 0.669(12) 1 d D U P H 1
F4A F 1.0497(19) 0.5642(14) 0.2987(13) 0.085(5) Uiso 0.669(12) 1 d D U P H 1
F5A F 0.931(3) 0.6205(12) 0.2701(16) 0.097(6) Uiso 0.669(12) 1 d D U P H 1
F6A F 0.944(2) 0.5315(13) 0.1938(11) 0.088(6) Uiso 0.669(12) 1 d D U P H 1
O1 O 0.631(2) 0.4903(13) 0.3447(17) 0.083(4) Uiso 0.669(12) 1 d D U P H 1
F1A F 0.606(2) 0.6391(15) 0.4079(14) 0.100(5) Uiso 0.669(12) 1 d D U P H 1
F2A F 0.780(2) 0.6766(12) 0.3924(14) 0.096(5) Uiso 0.669(12) 1 d D U P H 1
O2 O 0.783(3) 0.5751(15) 0.4518(10) 0.086(4) Uiso 0.669(12) 1 d D U P H 1
F3A F 0.623(2) 0.6101(13) 0.3115(11) 0.092(5) Uiso 0.669(12) 1 d D U P H 1
C1A C 0.682(2) 0.6239(11) 0.3733(13) 0.086(3) Uiso 0.669(12) 1 d D U P H 1
S2' S 0.810(3) 0.5021(17) 0.2558(16) 0.102(7) Uani 0.331(12) 1 d D U P H 2
S1' S 0.738(2) 0.5462(13) 0.3714(13) 0.049(4) Uani 0.331(12) 1 d D U P H 2
F3A' F 0.634(5) 0.583(3) 0.467(2) 0.104(12) Uiso 0.331(12) 1 d D U P H 2
N202 N 0.737(4) 0.550(2) 0.2997(17) 0.095(9) Uiso 0.331(12) 1 d D U P H 2
C1A' C 0.668(3) 0.6053(17) 0.4229(17) 0.095(7) Uiso 0.331(12) 1 d D U P H 2
O1' O 0.855(3) 0.557(3) 0.413(2) 0.085(11) Uiso 0.331(12) 1 d D U P H 2
F2A' F 0.565(4) 0.603(3) 0.383(2) 0.102(9) Uiso 0.331(12) 1 d D U P H 2
F1A' F 0.739(4) 0.6696(18) 0.457(2) 0.103(9) Uiso 0.331(12) 1 d D U P H 2
O3' O 0.738(4) 0.470(2) 0.1867(17) 0.070(12) Uiso 0.331(12) 1 d D U P H 2
O4' O 0.853(5) 0.461(3) 0.288(3) 0.098(12) Uiso 0.331(12) 1 d D U P H 2
C2A' C 0.945(3) 0.5619(18) 0.2578(19) 0.090(7) Uiso 0.331(12) 1 d D U P H 2
O2' O 0.648(4) 0.4811(17) 0.354(3) 0.070(14) Uiso 0.331(12) 1 d D U P H 2
F5A' F 1.002(4) 0.525(2) 0.221(2) 0.086(9) Uiso 0.331(12) 1 d D U P H 2
F4A' F 0.909(4) 0.605(2) 0.233(3) 0.091(9) Uiso 0.331(12) 1 d D U P H 2
F6A' F 1.018(4) 0.600(2) 0.3202(19) 0.095(9) Uiso 0.331(12) 1 d D U P H 2
C100 C 0.3165(18) 0.4360(11) 0.3197(10) 0.086(5) Uani 1 1 d G U . . .
H100 H 0.3555 0.4317 0.2860 0.103 Uiso 1 1 calc R U . . .
C101 C 0.3783(14) 0.4405(10) 0.3820(12) 0.086(5) Uani 1 1 d G U . . .
H101 H 0.4597 0.4394 0.3909 0.103 Uiso 1 1 calc R U . . .
C102 C 0.3211(19) 0.4467(11) 0.4313(9) 0.085(5) Uani 1 1 d G U . . .
H102 H 0.3634 0.4499 0.4739 0.102 Uiso 1 1 calc R U . . .
C103 C 0.2021(19) 0.4484(11) 0.4183(10) 0.087(5) Uani 1 1 d G U . . .
H103 H 0.1631 0.4526 0.4520 0.104 Uiso 1 1 calc R U . . .
C104 C 0.1403(14) 0.4438(11) 0.3560(12) 0.091(5) Uani 1 1 d G U . . .
H104 H 0.0589 0.4449 0.3471 0.109 Uiso 1 1 calc R U . . .
C105 C 0.1974(18) 0.4376(11) 0.3067(10) 0.090(5) Uani 1 1 d G U . . .
H105 H 0.1552 0.4345 0.2641 0.108 Uiso 1 1 calc R U . . .
N1S N 0.472(3) 0.4132(19) 0.036(2) 0.134(11) Uiso 1 1 d D U . . .
C1S C 0.554(3) 0.456(2) 0.045(2) 0.113(10) Uiso 1 1 d D U . . .
C2S C 0.663(3) 0.514(2) 0.063(2) 0.121(12) Uiso 1 1 d D U . . .
H2S1 H 0.6927 0.5386 0.1121 0.182 Uiso 1 1 d R U . . .
H2S2 H 0.6417 0.5465 0.0438 0.182 Uiso 1 1 d R U . . .
H2S3 H 0.7249 0.4957 0.0457 0.182 Uiso 1 1 d R U . . .
N2S N -0.082(3) -0.1079(15) -0.0488(19) 0.106(9) Uiso 1 1 d D U . . .
C3S C -0.131(4) -0.065(2) -0.037(3) 0.128(11) Uiso 1 1 d D U . . .
C4S C -0.188(4) -0.007(2) -0.025(3) 0.146(13) Uiso 1 1 d D U . . .
H4S1 H -0.1735 0.0199 0.0232 0.220 Uiso 1 1 d R U . . .
H4S2 H -0.2752 -0.0274 -0.0477 0.220 Uiso 1 1 d R U . . .
H4S3 H -0.1551 0.0242 -0.0443 0.220 Uiso 1 1 d R U . . .
S3 S -0.0127(7) -0.4329(4) 0.0153(4) 0.083(3) Uani 1 1 d D . . I 1
O5 O -0.083(3) -0.4356(19) 0.0591(15) 0.178(15) Uiso 1 1 d D . . I 1
F1B F -0.128(2) -0.3809(10) -0.0540(12) 0.122(7) Uiso 1 1 d D U . I 1
N201 N 0.067(3) -0.4885(17) -0.001(2) 0.080(11) Uiso 0.5 1 d D U P I 1
F2B F -0.2183(16) -0.4881(10) -0.0811(11) 0.118(7) Uiso 1 1 d D U . I 1
C3A C -0.1131(16) -0.4431(11) -0.0636(8) 0.082(7) Uiso 1 1 d D U . I 1
O6 O 0.071(2) -0.3642(10) 0.0361(15) 0.070(11) Uiso 0.55(4) 1 d D U P I 1
F3B F -0.074(2) -0.4700(15) -0.1153(12) 0.098(10) Uiso 0.60(3) 1 d D U P I 1
O6' O 0.096(4) -0.417(2) 0.017(2) 0.071(10) Uiso 0.45(4) 1 d . U P I 2
F3B' F -0.077(4) -0.409(3) -0.107(3) 0.096(8) Uiso 0.40(3) 1 d . U P I 2
S5 S -0.3629(18) 0.0050(11) 0.0970(10) 0.124(7) Uani 0.5 1 d D . P J 3
S6 S -0.355(3) 0.1505(15) 0.128(2) 0.225(19) Uiso 0.5 1 d D . P J 3
C5A C -0.282(3) -0.002(2) 0.1727(14) 0.119(13) Uiso 0.5 1 d D U P J 3
O12 O -0.262(4) 0.207(2) 0.182(2) 0.119(17) Uiso 0.5 1 d D . P J 3
O9 O -0.480(3) 0.006(3) 0.102(3) 0.141(14) Uiso 0.5 1 d D U P J 3
O10 O -0.339(5) -0.048(2) 0.0441(18) 0.15(2) Uiso 0.5 1 d D . P J 3
F1C F -0.173(3) -0.002(3) 0.168(2) 0.120(10) Uiso 0.5 1 d D U P J 3
O11 O -0.481(3) 0.127(3) 0.115(3) 0.137(14) Uiso 0.5 1 d D U P J 3
F2C F -0.269(4) 0.059(2) 0.2229(17) 0.129(13) Uiso 0.5 1 d D U P J 3
N102 N -0.301(4) 0.0831(14) 0.101(2) 0.128(13) Uiso 0.5 1 d D U P J 3
C6A C -0.394(9) 0.163(5) 0.059(6) 0.135(13) Uiso 0.5 1 d . U P J 3
F4C F -0.495(5) 0.185(3) 0.043(2) 0.140(12) Uiso 0.5 1 d D U P J 3
F1X F -0.495(3) -0.1327(18) 0.027(2) 0.084(8) Uiso 0.5 1 d . U P K 4
F2X F -0.095(6) -0.002(5) 0.137(4) 0.093(14) Uiso 0.25 1 d . U P L 5
F4X F -0.497(8) 0.239(5) 0.027(5) 0.109(18) Uiso 0.25 1 d . U P M 6
F3X F -0.501(19) 0.054(11) -0.033(11) 0.132(12) Uiso 0.125 1 d . U P N 7
O1W O -0.599(4) -0.137(2) 0.049(2) 0.080(9) Uiso 0.5 1 d . U P O 8
F5X F -0.437(9) 0.054(5) 0.049(5) 0.129(12) Uiso 0.25 1 d . U P P 9
F6X F -0.291(17) -0.030(9) 0.155(10) 0.119(13) Uiso 0.125 1 d . U P Q 10
loop_
_atom_site_aniso_label
_atom_site_aniso_U_11
_atom_site_aniso_U_22
_atom_site_aniso_U_33
_atom_site_aniso_U_23
_atom_site_aniso_U_13
_atom_site_aniso_U_12
Co1 0.0172(13) 0.0326(13) 0.0283(17) 0.0155(16) 0.0094(12) 0.0110(13)
Cd1 0.0217(9) 0.0347(9) 0.0496(12) 0.0246(9) 0.0081(8) 0.0098(7)
Cd2 0.0230(10) 0.0334(9) 0.0312(11) 0.0106(9) 0.0054(8) 0.0080(7)
N1 0.035(7) 0.054(7) 0.040(6) 0.017(5) 0.005(5) 0.012(5)
N2 0.020(6) 0.043(6) 0.030(5) 0.013(5) 0.013(4) 0.014(5)
N3 0.021(5) 0.034(6) 0.048(6) 0.024(5) 0.016(4) 0.015(4)
N5 0.030(6) 0.064(7) 0.052(7) 0.030(6) 0.018(5) 0.024(5)
N6 0.023(5) 0.037(6) 0.039(6) 0.022(5) 0.010(5) 0.009(4)
N7 0.036(5) 0.037(5) 0.050(6) 0.036(4) 0.015(4) 0.013(4)
N8 0.027(6) 0.055(7) 0.065(7) 0.040(6) 0.016(5) 0.016(5)
C2 0.044(8) 0.056(7) 0.047(7) 0.019(6) 0.000(6) 0.014(6)
C3 0.056(8) 0.065(8) 0.046(7) 0.020(6) -0.001(6) 0.012(6)
C4 0.059(8) 0.067(8) 0.039(6) 0.019(6) -0.001(6) 0.014(6)
C5 0.054(7) 0.062(7) 0.036(5) 0.017(5) 0.001(5) 0.013(6)
C6 0.038(6) 0.055(7) 0.036(5) 0.018(5) 0.005(5) 0.012(5)
C1 0.031(6) 0.050(7) 0.031(5) 0.012(5) 0.009(5) 0.013(5)
C7 0.022(5) 0.038(5) 0.031(5) 0.013(4) 0.011(4) 0.009(4)
C8 0.027(6) 0.037(5) 0.033(7) 0.013(5) 0.008(5) 0.007(4)
C9 0.032(6) 0.040(5) 0.031(7) 0.013(5) 0.011(5) 0.011(4)
C10 0.029(6) 0.040(5) 0.029(7) 0.011(5) 0.010(5) 0.015(4)
C11 0.022(5) 0.039(4) 0.026(5) 0.010(4) 0.015(4) 0.013(4)
C12 0.023(5) 0.041(5) 0.028(6) 0.012(5) 0.011(5) 0.010(4)
C13 0.020(4) 0.036(4) 0.028(5) 0.016(4) 0.014(4) 0.014(3)
C14 0.022(5) 0.034(5) 0.030(6) 0.017(5) 0.014(5) 0.014(4)
C15 0.022(5) 0.035(5) 0.032(7) 0.015(5) 0.013(5) 0.014(4)
C16 0.020(4) 0.036(4) 0.026(5) 0.017(4) 0.016(4) 0.013(3)
C17 0.019(5) 0.037(5) 0.026(7) 0.017(5) 0.017(5) 0.013(4)
C18 0.019(5) 0.035(5) 0.027(7) 0.018(5) 0.016(5) 0.013(4)
C14' 0.024(6) 0.036(5) 0.030(6) 0.016(5) 0.013(5) 0.013(4)
C15' 0.023(6) 0.036(5) 0.028(6) 0.018(5) 0.013(5) 0.013(5)
C18' 0.017(6) 0.035(5) 0.028(6) 0.016(5) 0.015(5) 0.014(4)
C17' 0.017(6) 0.036(5) 0.028(6) 0.018(5) 0.014(5) 0.013(4)
C19 0.021(4) 0.032(4) 0.026(5) 0.019(3) 0.015(3) 0.014(3)
C20 0.020(4) 0.031(4) 0.030(5) 0.018(4) 0.013(4) 0.016(3)
C21 0.023(5) 0.029(4) 0.033(5) 0.015(4) 0.010(4) 0.016(3)
C22 0.021(6) 0.029(5) 0.031(6) 0.016(4) 0.011(5) 0.014(4)
C23 0.024(6) 0.029(5) 0.032(6) 0.015(4) 0.009(4) 0.013(4)
C24 0.023(5) 0.030(4) 0.034(5) 0.015(4) 0.009(4) 0.014(3)
C25 0.022(6) 0.028(5) 0.033(6) 0.013(4) 0.010(5) 0.016(4)
C26 0.022(6) 0.030(5) 0.032(6) 0.015(4) 0.010(5) 0.016(4)
C22' 0.023(5) 0.031(5) 0.033(7) 0.015(5) 0.010(5) 0.015(4)
C23' 0.023(5) 0.030(5) 0.034(7) 0.014(5) 0.010(5) 0.014(4)
C25' 0.023(5) 0.028(5) 0.030(7) 0.017(5) 0.011(5) 0.014(4)
C26' 0.022(5) 0.030(5) 0.030(7) 0.015(5) 0.011(5) 0.017(4)
C27 0.022(5) 0.034(4) 0.041(6) 0.020(4) 0.011(5) 0.015(4)
C28 0.028(6) 0.038(5) 0.049(7) 0.016(5) 0.004(5) 0.016(4)
C29 0.026(6) 0.039(5) 0.050(7) 0.020(5) 0.009(5) 0.015(4)
C30 0.025(6) 0.035(5) 0.047(7) 0.019(5) 0.012(5) 0.018(4)
C31 0.020(5) 0.033(5) 0.044(6) 0.020(4) 0.018(4) 0.017(4)
C32 0.020(5) 0.034(5) 0.042(6) 0.022(5) 0.015(5) 0.015(4)
C33 0.028(6) 0.051(6) 0.058(6) 0.037(5) 0.017(5) 0.017(5)
C34 0.028(6) 0.055(6) 0.058(6) 0.037(5) 0.019(5) 0.021(4)
C35 0.028(6) 0.056(6) 0.058(6) 0.037(5) 0.019(5) 0.021(5)
C36 0.029(6) 0.056(6) 0.058(6) 0.037(5) 0.019(5) 0.021(5)
C37 0.028(6) 0.056(6) 0.058(6) 0.037(5) 0.019(5) 0.021(5)
C38 0.028(6) 0.056(6) 0.058(6) 0.037(5) 0.019(5) 0.021(5)
N4 0.028(6) 0.056(6) 0.058(6) 0.037(5) 0.019(5) 0.021(5)
C34' 0.028(6) 0.056(6) 0.058(6) 0.037(5) 0.019(5) 0.021(5)
C35' 0.029(6) 0.055(6) 0.058(6) 0.037(5) 0.019(5) 0.021(5)
C36' 0.029(6) 0.056(6) 0.058(6) 0.037(5) 0.019(5) 0.021(5)
C37' 0.029(6) 0.056(6) 0.058(6) 0.037(5) 0.019(5) 0.021(5)
C38' 0.028(6) 0.056(6) 0.058(6) 0.037(5) 0.019(5) 0.021(5)
N4' 0.028(6) 0.056(6) 0.058(6) 0.037(5) 0.019(5) 0.021(5)
C39 0.037(6) 0.075(8) 0.057(8) 0.036(7) 0.019(6) 0.029(6)
C40 0.037(6) 0.083(8) 0.064(9) 0.037(7) 0.019(6) 0.031(6)
C41 0.032(6) 0.086(8) 0.064(9) 0.037(7) 0.018(6) 0.028(6)
C42 0.028(5) 0.077(8) 0.060(8) 0.033(7) 0.017(5) 0.021(5)
C43 0.026(5) 0.064(7) 0.052(7) 0.028(6) 0.015(5) 0.019(5)
C44 0.024(5) 0.053(7) 0.047(7) 0.024(6) 0.011(5) 0.010(5)
C45 0.026(5) 0.040(5) 0.040(6) 0.025(5) 0.012(4) 0.009(4)
C46 0.031(6) 0.041(5) 0.043(7) 0.025(5) 0.014(5) 0.009(4)
C47 0.033(6) 0.038(5) 0.047(7) 0.027(5) 0.014(5) 0.009(4)
C48 0.032(6) 0.034(5) 0.040(7) 0.023(5) 0.017(5) 0.011(4)
C49 0.025(5) 0.034(4) 0.034(5) 0.022(4) 0.014(4) 0.011(3)
C50 0.024(5) 0.040(5) 0.039(6) 0.022(5) 0.012(5) 0.013(4)
C51 0.021(4) 0.028(4) 0.034(5) 0.016(4) 0.013(4) 0.018(3)
C52 0.021(5) 0.027(5) 0.032(5) 0.017(4) 0.011(4) 0.015(4)
C53 0.021(5) 0.027(5) 0.032(6) 0.013(4) 0.012(4) 0.017(4)
C54 0.020(4) 0.026(4) 0.032(5) 0.016(4) 0.013(3) 0.017(3)
C55 0.020(5) 0.026(5) 0.032(6) 0.015(4) 0.013(4) 0.018(4)
C56 0.022(5) 0.027(5) 0.032(6) 0.016(5) 0.011(4) 0.017(4)
C52' 0.020(5) 0.028(5) 0.033(5) 0.017(4) 0.011(4) 0.018(4)
C53' 0.021(5) 0.027(5) 0.031(5) 0.016(4) 0.012(4) 0.017(4)
C55' 0.019(6) 0.026(5) 0.031(6) 0.015(4) 0.012(5) 0.017(4)
C56' 0.020(6) 0.025(5) 0.033(5) 0.015(4) 0.012(4) 0.017(4)
C57 0.022(4) 0.026(4) 0.031(5) 0.016(4) 0.012(4) 0.018(3)
C58 0.023(4) 0.027(4) 0.029(5) 0.014(4) 0.010(4) 0.015(3)
C59 0.017(4) 0.025(4) 0.025(5) 0.013(4) 0.013(4) 0.012(3)
C60 0.020(5) 0.026(4) 0.025(5) 0.011(4) 0.011(4) 0.012(4)
C61 0.018(6) 0.024(5) 0.026(5) 0.012(4) 0.012(5) 0.010(5)
C62 0.021(5) 0.027(4) 0.026(5) 0.013(4) 0.013(4) 0.014(3)
C63 0.019(6) 0.026(5) 0.024(5) 0.014(4) 0.013(5) 0.013(4)
C64 0.018(6) 0.025(5) 0.024(5) 0.013(4) 0.013(5) 0.013(5)
C60' 0.019(5) 0.024(5) 0.021(7) 0.012(5) 0.012(5) 0.011(4)
C61' 0.021(5) 0.025(5) 0.024(6) 0.013(4) 0.011(4) 0.012(4)
C63' 0.018(5) 0.026(5) 0.023(6) 0.012(4) 0.013(5) 0.014(4)
C64' 0.017(5) 0.025(5) 0.022(6) 0.013(5) 0.014(5) 0.012(4)
C65 0.029(5) 0.032(4) 0.036(6) 0.019(4) 0.018(4) 0.020(4)
C66 0.041(7) 0.032(5) 0.047(7) 0.015(5) 0.016(6) 0.023(4)
C67 0.043(7) 0.028(5) 0.052(7) 0.017(5) 0.018(6) 0.021(5)
C68 0.040(7) 0.030(5) 0.055(7) 0.025(5) 0.018(5) 0.016(5)
C69 0.034(5) 0.030(5) 0.047(6) 0.030(4) 0.017(4) 0.016(4)
C70 0.029(6) 0.028(5) 0.043(6) 0.027(5) 0.016(5) 0.014(4)
C71 0.036(5) 0.048(7) 0.063(7) 0.040(6) 0.016(5) 0.016(5)
C72 0.029(5) 0.053(7) 0.063(7) 0.044(5) 0.021(5) 0.014(5)
C73 0.034(6) 0.069(8) 0.072(8) 0.041(7) 0.020(5) 0.022(5)
C74 0.031(6) 0.086(9) 0.075(8) 0.038(7) 0.019(6) 0.022(6)
C75 0.028(6) 0.077(9) 0.070(8) 0.042(7) 0.017(6) 0.018(6)
C76 0.025(6) 0.067(8) 0.067(7) 0.043(6) 0.016(5) 0.013(6)
C77 0.020(5) 0.026(4) 0.036(6) 0.011(4) 0.009(4) 0.010(4)
C78 0.026(5) 0.025(4) 0.039(6) 0.014(4) 0.006(4) 0.006(4)
C79 0.025(5) 0.025(4) 0.035(6) 0.013(4) 0.007(4) 0.004(4)
C80 0.022(5) 0.026(4) 0.033(6) 0.013(4) 0.009(4) 0.005(4)
C81 0.017(5) 0.026(4) 0.032(5) 0.010(4) 0.014(4) 0.009(4)
C82 0.014(7) 0.030(7) 0.025(8) 0.009(7) 0.008(6) 0.004(6)
C83 0.014(6) 0.030(7) 0.026(7) 0.009(7) 0.009(6) 0.004(6)
C84 0.016(7) 0.030(7) 0.027(7) 0.010(7) 0.008(6) 0.003(6)
C85 0.015(7) 0.030(7) 0.027(7) 0.009(7) 0.007(6) 0.004(6)
C86 0.014(7) 0.030(7) 0.026(8) 0.009(7) 0.008(6) 0.003(6)
C87 0.017(6) 0.029(6) 0.027(7) 0.011(6) 0.007(5) 0.003(5)
C88 0.014(7) 0.028(7) 0.026(7) 0.010(7) 0.008(6) 0.003(6)
C89 0.014(7) 0.029(7) 0.025(7) 0.010(7) 0.009(6) 0.003(6)
C90 0.015(7) 0.029(7) 0.027(8) 0.010(7) 0.008(6) 0.004(6)
C91 0.015(6) 0.028(7) 0.025(7) 0.011(7) 0.009(6) 0.003(6)
O20 0.019(6) 0.029(4) 0.040(7) 0.007(5) 0.012(5) 0.010(4)
O21 0.021(5) 0.032(6) 0.044(6) 0.009(6) 0.007(4) 0.015(5)
O22 0.025(6) 0.025(4) 0.030(7) 0.010(4) 0.010(5) 0.004(4)
O23 0.031(6) 0.028(5) 0.032(6) 0.009(5) 0.005(5) 0.003(4)
O24 0.027(6) 0.033(5) 0.044(7) 0.021(5) 0.009(5) 0.008(5)
S2 0.089(8) 0.100(7) 0.137(11) 0.082(8) 0.078(8) 0.047(6)
S1 0.083(3) 0.085(3) 0.084(3) 0.036(2) 0.025(2) 0.023(2)
S2' 0.091(10) 0.109(9) 0.147(13) 0.073(10) 0.073(11) 0.041(9)
S1' 0.045(7) 0.062(7) 0.066(8) 0.056(7) 0.013(7) 0.015(6)
C100 0.078(10) 0.064(9) 0.103(12) 0.041(9) 0.004(8) 0.008(8)
C101 0.079(10) 0.060(9) 0.101(12) 0.036(9) 0.003(8) 0.008(8)
C102 0.078(10) 0.059(9) 0.102(12) 0.038(9) 0.004(8) 0.003(8)
C103 0.079(10) 0.063(9) 0.104(11) 0.038(8) 0.007(8) 0.006(7)
C104 0.078(10) 0.073(9) 0.105(11) 0.040(9) 0.005(8) 0.005(8)
C105 0.078(10) 0.073(9) 0.104(11) 0.043(9) 0.004(8) 0.007(8)
S3 0.056(5) 0.092(6) 0.074(6) 0.014(5) -0.006(4) 0.037(4)
S5 0.153(19) 0.109(14) 0.14(2) 0.052(18) 0.104(18) 0.054(17)
loop_
_atom_type_symbol
_atom_type_description
_atom_type_scat_dispersion_real
_atom_type_scat_dispersion_imag
_atom_type_scat_source
C C 0.0034 0.0017 'International Tables Vol C Tables 4.2.6.8 and 6.1.1.4'
H H 0.0000 0.0000 'International Tables Vol C Tables 4.2.6.8 and 6.1.1.4'
N N 0.0066 0.0034 'International Tables Vol C Tables 4.2.6.8 and 6.1.1.4'
O O 0.0114 0.0062 'International Tables Vol C Tables 4.2.6.8 and 6.1.1.4'
F F 0.0180 0.0106 'International Tables Vol C Tables 4.2.6.8 and 6.1.1.4'
S S 0.1265 0.1256 'International Tables Vol C Tables 4.2.6.8 and 6.1.1.4'
Co Co 0.3480 0.9239 'International Tables Vol C Tables 4.2.6.8 and 6.1.1.4'
Cd Cd -0.8469 1.1419 'International Tables Vol C Tables 4.2.6.8 and 6.1.1.4'
loop_
_geom_angle_atom_site_label_1
_geom_angle_atom_site_label_2
_geom_angle_atom_site_label_3
_geom_angle
_geom_angle_site_symmetry_1
_geom_angle_site_symmetry_3
C20 Co1 C57 43.0(9) . .
C20 Co1 C90 170.1(16) . .
C57 Co1 C90 143.1(15) . .
C20 Co1 C58 64.5(8) . .
C57 Co1 C58 43.3(7) . .
C90 Co1 C58 114.3(9) . .
C20 Co1 C89 132.4(14) . .
C57 Co1 C89 175.2(12) . .
C90 Co1 C89 41.1(6) . .
C58 Co1 C89 136.1(13) . .
C20 Co1 C91 148.7(15) . .
C57 Co1 C91 116.0(11) . .
C90 Co1 C91 41.1(5) . .
C58 Co1 C91 120.0(10) . .
C89 Co1 C91 68.6(6) . .
C20 Co1 C19 44.2(7) . .
C57 Co1 C19 62.3(9) . .
C90 Co1 C19 127.4(12) . .
C58 Co1 C19 43.9(8) . .
C89 Co1 C19 113.7(9) . .
C91 Co1 C19 160.4(14) . .
C20 Co1 C85 134.6(14) . .
C57 Co1 C85 112.0(9) . .
C58 Co1 C85 129.6(14) . .
C19 Co1 C85 173.3(11) . .
C20 Co1 C88 111.5(10) . .
C57 Co1 C88 139.2(15) . .
C90 Co1 C88 68.3(6) . .
C58 Co1 C88 171.3(13) . .
C89 Co1 C88 40.3(4) . .
C91 Co1 C88 67.7(6) . .
C19 Co1 C88 127.6(11) . .
C20 Co1 C87 118.4(12) . .
C57 Co1 C87 114.9(10) . .
C90 Co1 C87 68.3(6) . .
C58 Co1 C87 148.7(15) . .
C89 Co1 C87 67.7(6) . .
C91 Co1 C87 40.2(5) . .
C19 Co1 C87 159.4(15) . .
C88 Co1 C87 39.8(5) . .
C20 Co1 C84 112.4(10) . .
C57 Co1 C84 122.7(13) . .
C58 Co1 C84 163.7(16) . .
C19 Co1 C84 145.2(14) . .
C85 Co1 C84 40.2(6) . .
C20 Co1 C86 172.8(17) . .
C57 Co1 C86 130.7(13) . .
C58 Co1 C86 114.0(8) . .
C19 Co1 C86 139.9(14) . .
C85 Co1 C86 40.3(5) . .
C84 Co1 C86 67.0(6) . .
O20 Cd1 N4 144.9(10) . .
O20 Cd1 N4' 135.6(13) . .
O20 Cd1 O24 74.7(5) . .
N4 Cd1 O24 100.1(10) . .
N4' Cd1 O24 93.4(12) . .
O20 Cd1 N8 128.9(6) . 2_756
N4 Cd1 N8 83.4(10) . 2_756
N4' Cd1 N8 90.1(13) . 2_756
O24 Cd1 N8 82.5(5) . 2_756
O20 Cd1 N7 94.6(6) . 2_756
N4 Cd1 N7 111.8(10) . 2_756
N4' Cd1 N7 121.7(13) . 2_756
O24 Cd1 N7 133.9(6) . 2_756
N8 Cd1 N7 69.7(6) 2_756 2_756
O20 Cd1 N3 88.3(5) . .
N4 Cd1 N3 70.8(9) . .
N4' Cd1 N3 70.3(12) . .
O24 Cd1 N3 135.3(6) . .
N8 Cd1 N3 136.3(5) 2_756 .
N7 Cd1 N3 87.6(6) 2_756 .
O22 Cd2 N1 134.5(6) . .
O22 Cd2 O23 75.0(5) . .
N1 Cd2 O23 93.6(6) . .
O22 Cd2 N5 131.0(6) . 2_756
N1 Cd2 N5 88.7(6) . 2_756
O23 Cd2 N5 81.6(5) . 2_756
O22 Cd2 N6 94.7(6) . 2_756
N1 Cd2 N6 122.7(7) . 2_756
O23 Cd2 N6 132.4(6) . 2_756
N5 Cd2 N6 70.8(5) 2_756 2_756
O22 Cd2 N2 85.7(5) . .
N1 Cd2 N2 71.7(6) . .
O23 Cd2 N2 135.0(6) . .
N5 Cd2 N2 137.8(6) 2_756 .
N6 Cd2 N2 88.7(6) 2_756 .
C2 N1 C6 117.4(4) . .
C2 N1 Cd2 126.2(7) . .
C6 N1 Cd2 116.4(7) . .
C1 N2 C7 119.6(16) . .
C1 N2 Cd2 111.5(13) . .
C7 N2 Cd2 128.2(12) . .
C33 N3 C31 119.8(17) . .
C33 N3 Cd1 112.2(14) . .
C31 N3 Cd1 127.2(12) . .
C39 N5 C43 117.7(4) . .
C39 N5 Cd2 126.3(8) . 2_756
C43 N5 Cd2 113.6(8) . 2_756
C44 N6 C45 121.0(18) . .
C44 N6 Cd2 112.7(15) . 2_756
C45 N6 Cd2 125.6(12) . 2_756
C71 N7 C69 118(2) . .
C71 N7 Cd1 113.5(17) . 2_756
C69 N7 Cd1 127.9(13) . 2_756
C72 N8 C76 117.7(4) . .
C72 N8 Cd1 115.6(8) . 2_756
C76 N8 Cd1 125.8(8) . 2_756
N1 C2 C3 123.8(4) . .
N1 C2 H2 118.1 . .
C3 C2 H2 118.1 . .
C4 C3 C2 118.0(4) . .
C4 C3 H3 121.0 . .
C2 C3 H3 121.0 . .
C3 C4 C5 119.4(4) . .
C3 C4 H4 120.3 . .
C5 C4 H4 120.3 . .
C4 C5 C6 118.9(4) . .
C4 C5 H5 120.5 . .
C6 C5 H5 120.5 . .
N1 C6 C5 122.0(4) . .
N1 C6 C1 115.5(13) . .
C5 C6 C1 122.5(13) . .
N2 C1 C6 123.9(18) . .
N2 C1 H1 118.1 . .
C6 C1 H1 118.1 . .
C8 C7 C12 120.0 . .
C8 C7 N2 120.5(10) . .
C12 C7 N2 119.5(10) . .
C9 C8 C7 120.0 . .
C9 C8 H8 120.0 . .
C7 C8 H8 120.0 . .
C8 C9 C10 120.0 . .
C8 C9 H9 120.0 . .
C10 C9 H9 120.0 . .
C11 C10 C9 120.0 . .
C11 C10 H10 120.0 . .
C9 C10 H10 120.0 . .
C12 C11 C10 120.0 . .
C12 C11 C13 118.1(9) . .
C10 C11 C13 121.9(9) . .
C11 C12 C7 120.0 . .
C11 C12 H12 120.0 . .
C7 C12 H12 120.0 . .
C14 C13 C18 120.0 . .
C14' C13 C18' 129.1(18) . .
C14' C13 C11 118.7(16) . .
C14 C13 C11 120.0(10) . .
C18 C13 C11 120.0(10) . .
C18' C13 C11 112.2(15) . .
C13 C14 C15 120.0 . .
C13 C14 H14 120.0 . .
C15 C14 H14 120.0 . .
C16 C15 C14 120.0 . .
C16 C15 H15 120.0 . .
C14 C15 H15 120.0 . .
C17 C16 C15 120.0 . .
C15' C16 C17' 110(2) . .
C15' C16 C19 127.4(19) . .
C17 C16 C19 122.1(12) . .
C15 C16 C19 117.8(12) . .
C17' C16 C19 122.7(18) . .
C16 C17 C18 120.0 . .
C16 C17 H17 120.0 . .
C18 C17 H17 120.0 . .
C17 C18 C13 120.0 . .
C17 C18 H18 120.0 . .
C13 C18 H18 120.0 . .
C13 C14' C15' 113(3) . .
C13 C14' H14' 123.6 . .
C15' C14' H14' 123.6 . .
C14' C15' C16 129(3) . .
C14' C15' H15' 115.5 . .
C16 C15' H15' 115.5 . .
C13 C18' C17' 110(2) . .
C13 C18' H18' 124.9 . .
C17' C18' H18' 124.9 . .
C18' C17' C16 128(3) . .
C18' C17' H17' 116.1 . .
C16 C17' H17' 116.1 . .
C16 C19 C20 138.6(19) . .
C16 C19 C58 131.9(15) . .
C20 C19 C58 88.9(16) . .
C16 C19 Co1 119.1(14) . .
C20 C19 Co1 64.0(12) . .
C58 C19 Co1 67.9(11) . .
C57 C20 C21 137.9(18) . .
C57 C20 C19 89.7(16) . .
C21 C20 C19 129.9(19) . .
C57 C20 Co1 68.4(12) . .
C21 C20 Co1 130.6(15) . .
C19 C20 Co1 71.7(12) . .
C26' C21 C22' 127.4(17) . .
C22 C21 C26 120.0 . .
C26' C21 C20 111.3(16) . .
C22' C21 C20 120.2(15) . .
C22 C21 C20 121.5(13) . .
C26 C21 C20 118.2(13) . .
C21 C22 C23 120.0 . .
C21 C22 H22 120.0 . .
C23 C22 H22 120.0 . .
C22 C23 C24 120.0 . .
C22 C23 H23 120.0 . .
C24 C23 H23 120.0 . .
C23 C24 C25 120.0 . .
C25' C24 C23' 110.6(17) . .
C25' C24 C27 125.3(15) . .
C23 C24 C27 118.8(11) . .
C25 C24 C27 121.2(11) . .
C23' C24 C27 123.7(15) . .
C26 C25 C24 120.0 . .
C26 C25 H25 120.0 . .
C24 C25 H25 120.0 . .
C25 C26 C21 120.0 . .
C25 C26 H26 120.0 . .
C21 C26 H26 120.0 . .
C21 C22' C23' 112(2) . .
C21 C22' H22' 124.0 . .
C23' C22' H22' 124.0 . .
C22' C23' C24 127(2) . .
C22' C23' H23' 116.4 . .
C24 C23' H23' 116.4 . .
C24 C25' C26' 127(2) . .
C24 C25' H25' 116.3 . .
C26' C25' H25' 116.3 . .
C21 C26' C25' 113(2) . .
C21 C26' H26' 123.4 . .
C25' C26' H26' 123.4 . .
C28 C27 C32 120.0 . .
C28 C27 C24 118.5(9) . .
C32 C27 C24 121.5(9) . .
C29 C28 C27 120.0 . .
C29 C28 H28 120.0 . .
C27 C28 H28 120.0 . .
C30 C29 C28 120.0 . .
C30 C29 H29 120.0 . .
C28 C29 H29 120.0 . .
C29 C30 C31 120.0 . .
C29 C30 H30 120.0 . .
C31 C30 H30 120.0 . .
C32 C31 C30 120.0 . .
C32 C31 N3 117.4(9) . .
C30 C31 N3 122.5(9) . .
C31 C32 C27 120.0 . .
C31 C32 H32 120.0 . .
C27 C32 H32 120.0 . .
N3 C33 C34' 123(3) . .
N3 C33 C34 124(2) . .
N3 C33 H33 118.0 . .
C34 C33 H33 118.0 . .
N4 C34 C35 123.5(4) . .
N4 C34 C33 115(2) . .
C35 C34 C33 122(2) . .
C36 C35 C34 118.1(4) . .
C36 C35 H35 121.0 . .
C34 C35 H35 121.0 . .
C35 C36 C37 119.6(4) . .
C35 C36 H36 120.2 . .
C37 C36 H36 120.2 . .
C36 C37 C38 118.9(4) . .
C36 C37 H37 120.5 . .
C38 C37 H37 120.5 . .
N4 C38 C37 122.1(4) . .
N4 C38 H38 119.0 . .
C37 C38 H38 119.0 . .
C34 N4 C38 117.4(4) . .
C34 N4 Cd1 117.9(15) . .
C38 N4 Cd1 124.0(15) . .
N4' C34' C35' 123.6(8) . .
N4' C34' C33 117(3) . .
C35' C34' C33 119(3) . .
C36' C35' C34' 117.6(8) . .
C36' C35' H35' 121.2 . .
C34' C35' H35' 121.2 . .
C35' C36' C37' 118.4(10) . .
C35' C36' H36' 120.8 . .
C37' C36' H36' 120.8 . .
C36' C37' C38' 117.8(9) . .
C36' C37' H37' 121.1 . .
C38' C37' H37' 121.1 . .
N4' C38' C37' 121.5(9) . .
N4' C38' H38' 119.3 . .
C37' C38' H38' 119.3 . .
C34' N4' C38' 117.6(8) . .
C34' N4' Cd1 116(2) . .
C38' N4' Cd1 126(2) . .
N5 C39 C40 123.5(4) . .
N5 C39 H39 118.3 . .
C40 C39 H39 118.3 . .
C41 C40 C39 118.0(4) . .
C41 C40 H40 121.0 . .
C39 C40 H40 121.0 . .
C40 C41 C42 119.7(4) . .
C40 C41 H41 120.2 . .
C42 C41 H41 120.2 . .
C41 C42 C43 118.9(4) . .
C41 C42 H42 120.6 . .
C43 C42 H42 120.6 . .
N5 C43 C42 122.0(4) . .
N5 C43 C44 115.8(13) . .
C42 C43 C44 121.8(13) . .
N6 C44 C43 122(2) . .
N6 C44 H44 118.9 . .
C43 C44 H44 118.9 . .
C46 C45 C50 120.0 . .
C46 C45 N6 122.3(10) . .
C50 C45 N6 117.7(10) . .
C47 C46 C45 120.0 . .
C47 C46 H46 120.0 . .
C45 C46 H46 120.0 . .
C46 C47 C48 120.0 . .
C46 C47 H47 120.0 . .
C48 C47 H47 120.0 . .
C49 C48 C47 120.0 . .
C49 C48 H48 120.0 . .
C47 C48 H48 120.0 . .
C50 C49 C48 120.0 . .
C50 C49 C51 118.9(9) . .
C48 C49 C51 120.8(9) . .
C49 C50 C45 120.0 . .
C49 C50 H50 120.0 . .
C45 C50 H50 120.0 . .
C56' C51 C52' 127.0(18) . .
C52 C51 C56 120.0 . .
C56' C51 C49 116.2(15) . .
C52' C51 C49 116.0(16) . .
C52 C51 C49 120.8(10) . .
C56 C51 C49 119.2(10) . .
C53 C52 C51 120.0 . .
C53 C52 H52 120.0 . .
C51 C52 H52 120.0 . .
C54 C53 C52 120.0 . .
C54 C53 H53 120.0 . .
C52 C53 H53 120.0 . .
C55 C54 C53 120.0 . .
C53' C54 C55' 111(2) . .
C53' C54 C57 125.7(18) . .
C55 C54 C57 120.1(11) . .
C53 C54 C57 119.8(11) . .
C55' C54 C57 123.6(18) . .
C56 C55 C54 120.0 . .
C56 C55 H55 120.0 . .
C54 C55 H55 120.0 . .
C55 C56 C51 120.0 . .
C55 C56 H56 120.0 . .
C51 C56 H56 120.0 . .
C51 C52' C53' 113(2) . .
C51 C52' H52' 123.3 . .
C53' C52' H52' 123.3 . .
C54 C53' C52' 127(3) . .
C54 C53' H53' 116.6 . .
C52' C53' H53' 116.6 . .
C56' C55' C54 128(3) . .
C56' C55' H55' 115.8 . .
C54 C55' H55' 115.8 . .
C51 C56' C55' 113(2) . .
C51 C56' H56' 123.7 . .
C55' C56' H56' 123.7 . .
C20 C57 C54 134.9(16) . .
C20 C57 C58 94.5(17) . .
C54 C57 C58 130.1(18) . .
C20 C57 Co1 68.5(12) . .
C54 C57 Co1 124.9(15) . .
C58 C57 Co1 72.2(14) . .
C57 C58 C19 86.9(14) . .
C57 C58 C59 139.1(19) . .
C19 C58 C59 133.9(16) . .
C57 C58 Co1 64.5(14) . .
C19 C58 Co1 68.2(11) . .
C59 C58 Co1 121.9(14) . .
C60' C59 C64' 130.8(16) . .
C60 C59 C64 120.0 . .
C60' C59 C58 115.1(15) . .
C64' C59 C58 113.4(15) . .
C60 C59 C58 122.2(13) . .
C64 C59 C58 117.8(13) . .
C61 C60 C59 120.0 . .
C61 C60 H60 120.0 . .
C59 C60 H60 120.0 . .
C60 C61 C62 120.0 . .
C60 C61 H61 120.0 . .
C62 C61 H61 120.0 . .
C63 C62 C61 120.0 . .
C61' C62 C63' 109.0(17) . .
C63 C62 C65 119.4(11) . .
C61 C62 C65 120.6(11) . .
C61' C62 C65 126.8(15) . .
C63' C62 C65 123.8(15) . .
C62 C63 C64 120.0 . .
C62 C63 H63 120.0 . .
C64 C63 H63 120.0 . .
C63 C64 C59 120.0 . .
C63 C64 H64 120.0 . .
C59 C64 H64 120.0 . .
C59 C60' C61' 109(2) . .
C59 C60' H60' 125.4 . .
C61' C60' H60' 125.4 . .
C60' C61' C62 131(2) . .
C60' C61' H61' 114.7 . .
C62 C61' H61' 114.7 . .
C64' C63' C62 128(2) . .
C64' C63' H63' 116.0 . .
C62 C63' H63' 116.0 . .
C59 C64' C63' 112(2) . .
C59 C64' H64' 124.2 . .
C63' C64' H64' 124.2 . .
C66 C65 C70 120.0 . .
C66 C65 C62 120.3(9) . .
C70 C65 C62 119.6(9) . .
C65 C66 C67 120.0 . .
C65 C66 H66 120.0 . .
C67 C66 H66 120.0 . .
C68 C67 C66 120.0 . .
C68 C67 H67 120.0 . .
C66 C67 H67 120.0 . .
C67 C68 C69 120.0 . .
C67 C68 H68 120.0 . .
C69 C68 H68 120.0 . .
C70 C69 C68 120.0 . .
C70 C69 N7 115.5(10) . .
C68 C69 N7 124.4(10) . .
C69 C70 C65 120.0 . .
C69 C70 H70 120.0 . .
C65 C70 H70 120.0 . .
N7 C71 C72 120(2) . .
N7 C71 H71 120.0 . .
C72 C71 H71 120.0 . .
N8 C72 C73 123.5(4) . .
N8 C72 C71 116.7(14) . .
C73 C72 C71 119.8(14) . .
C74 C73 C72 118.0(4) . .
C74 C73 H73 121.0 . .
C72 C73 H73 121.0 . .
C73 C74 C75 119.6(4) . .
C73 C74 H74 120.2 . .
C75 C74 H74 120.2 . .
C74 C75 C76 119.0(4) . .
C74 C75 H75 120.5 . .
C76 C75 H75 120.5 . .
N8 C76 C75 121.9(4) . .
N8 C76 H76 119.0 . .
C75 C76 H76 119.0 . .
O20 C77 C78 122.2(18) . .
O20 C77 C81 125.3(18) . .
C78 C77 C81 112.4(17) . .
O24 C78 C77 123.9(18) . .
O24 C78 C79 128(2) . .
C77 C78 C79 108(2) . .
O23 C79 C78 131(2) . .
O23 C79 C80 124.1(17) . .
C78 C79 C80 105(2) . .
O22 C80 C81 128.9(19) . .
O22 C80 C79 119.1(18) . .
C81 C80 C79 111.9(17) . .
O21 C81 C80 128(2) . .
O21 C81 C77 129.2(19) . .
C80 C81 C77 102.4(14) . .
C86 C82 C83 108.0 . .
C86 C82 Co1 67.9(9) . .
C83 C82 Co1 70.8(12) . .
C86 C82 H82 126.0 . .
C83 C82 H82 126.0 . .
Co1 C82 H82 126.8 . .
C82 C83 C84 108.0 . .
C82 C83 Co1 70.5(13) . .
C84 C83 Co1 68.1(13) . .
C82 C83 H83 126.0 . .
C84 C83 H83 126.0 . .
Co1 C83 H83 127.0 . .
C85 C84 C83 108.0 . .
C85 C84 Co1 68.2(10) . .
C83 C84 Co1 72.7(12) . .
C85 C84 H84 126.0 . .
C83 C84 H84 126.0 . .
Co1 C84 H84 124.6 . .
C86 C85 C84 108.0 . .
C86 C85 Co1 71.2(15) . .
C84 C85 Co1 71.5(11) . .
C86 C85 H85 126.0 . .
C84 C85 H85 126.0 . .
Co1 C85 H85 123.0 . .
C85 C86 C82 108.0 . .
C85 C86 Co1 68.5(14) . .
C82 C86 Co1 72.8(10) . .
C85 C86 H86 126.0 . .
C82 C86 H86 126.0 . .
Co1 C86 H86 124.3 . .
C91 C87 C88 108.0 . .
C91 C87 Co1 68.1(11) . .
C88 C87 Co1 70.0(9) . .
C91 C87 H87 126.0 . .
C88 C87 H87 126.0 . .
Co1 C87 H87 127.5 . .
C89 C88 C87 108.0 . .
C89 C88 Co1 68.0(13) . .
C87 C88 Co1 70.2(10) . .
C89 C88 H88 126.0 . .
C87 C88 H88 126.0 . .
Co1 C88 H88 127.4 . .
C88 C89 C90 108.0 . .
C88 C89 Co1 71.7(13) . .
C90 C89 Co1 68.4(11) . .
C88 C89 H89 126.0 . .
C90 C89 H89 126.0 . .
Co1 C89 H89 125.5 . .
C91 C90 C89 108.0 . .
C91 C90 Co1 70.7(11) . .
C89 C90 Co1 70.5(10) . .
C91 C90 H90 126.0 . .
C89 C90 H90 126.0 . .
Co1 C90 H90 124.4 . .
C90 C91 C87 108.0 . .
C90 C91 Co1 68.2(13) . .
C87 C91 Co1 71.7(13) . .
C90 C91 H91 126.0 . .
C87 C91 H91 126.0 . .
Co1 C91 H91 125.7 . .
C77 O20 Cd1 111.6(12) . .
C80 O22 Cd2 113.6(12) . .
C79 O23 Cd2 108.0(13) . .
C78 O24 Cd1 106.6(13) . .
O4 S2 O3 120.4(17) . .
O4 S2 N200 108.2(15) . .
O3 S2 N200 114.3(15) . .
O4 S2 C2A 107.0(13) . .
O3 S2 C2A 103.8(14) . .
N200 S2 C2A 100.8(12) . .
O1 S1 O2 118.6(19) . .
O1 S1 N200 114.3(16) . .
O2 S1 N200 106.1(15) . .
O1 S1 C1A 105.5(15) . .
O2 S1 C1A 101.9(14) . .
N200 S1 C1A 109.4(14) . .
S1 N200 S2 120.6(14) . .
F6A C2A F4A 114(2) . .
F6A C2A F5A 105(2) . .
F4A C2A F5A 108(2) . .
F6A C2A S2 111.3(16) . .
F4A C2A S2 108.9(16) . .
F5A C2A S2 110.2(16) . .
F3A C1A F1A 105(2) . .
F3A C1A F2A 107(2) . .
F1A C1A F2A 114(2) . .
F3A C1A S1 112.5(17) . .
F1A C1A S1 111.7(17) . .
F2A C1A S1 106.4(16) . .
O4' S2' O3' 121(3) . .
O4' S2' N202 109(2) . .
O3' S2' N202 107(2) . .
O4' S2' C2A' 106(2) . .
O3' S2' C2A' 104(2) . .
N202 S2' C2A' 108.2(19) . .
O1' S1' O2' 117(2) . .
O1' S1' N202 113(2) . .
O2' S1' N202 105(2) . .
O1' S1' C1A' 108(2) . .
O2' S1' C1A' 97.0(19) . .
N202 S1' C1A' 115.8(16) . .
S1' N202 S2' 116(2) . .
F1A' C1A' F2A' 112(3) . .
F1A' C1A' F3A' 107(3) . .
F2A' C1A' F3A' 105(3) . .
F1A' C1A' S1' 113(2) . .
F2A' C1A' S1' 108(2) . .
F3A' C1A' S1' 112(2) . .
F5A' C2A' F6A' 110(3) . .
F5A' C2A' F4A' 111(3) . .
F6A' C2A' F4A' 108(3) . .
F5A' C2A' S2' 109(2) . .
F6A' C2A' S2' 112(2) . .
F4A' C2A' S2' 107(2) . .
C101 C100 C105 120.0 . .
C101 C100 H100 120.0 . .
C105 C100 H100 120.0 . .
C102 C101 C100 120.0 . .
C102 C101 H101 120.0 . .
C100 C101 H101 120.0 . .
C101 C102 C103 120.0 . .
C101 C102 H102 120.0 . .
C103 C102 H102 120.0 . .
C104 C103 C102 120.0 . .
C104 C103 H103 120.0 . .
C102 C103 H103 120.0 . .
C103 C104 C105 120.0 . .
C103 C104 H104 120.0 . .
C105 C104 H104 120.0 . .
C104 C105 C100 120.0 . .
C104 C105 H105 120.0 . .
C100 C105 H105 120.0 . .
N1S C1S C2S 175(5) . .
C1S C2S H2S1 107.6 . .
C1S C2S H2S2 110.0 . .
H2S1 C2S H2S2 109.5 . .
C1S C2S H2S3 110.9 . .
H2S1 C2S H2S3 109.5 . .
H2S2 C2S H2S3 109.5 . .
N2S C3S C4S 176(6) . .
C3S C4S H4S1 110.6 . .
C3S C4S H4S2 108.8 . .
H4S1 C4S H4S2 109.5 . .
C3S C4S H4S3 109.0 . .
H4S1 C4S H4S3 109.5 . .
H4S2 C4S H4S3 109.5 . .
O5 S3 O6 114.3(18) . .
O5 S3 N201 71(2) . 2_545
O6 S3 N201 162.7(18) . 2_545
O5 S3 N201 118.2(19) . .
O6 S3 N201 105.5(16) . .
N201 S3 N201 59(2) 2_545 .
O5 S3 C3A 107.8(15) . .
O6 S3 C3A 100.7(13) . .
N201 S3 C3A 92.8(17) 2_545 .
N201 S3 C3A 108.9(15) . .
S3 O5 N201 58(2) . 2_545
S3 N201 N201 62(2) 2_545 2_545
S3 N201 S3 121(2) 2_545 .
N201 N201 S3 58.2(9) 2_545 .
S3 N201 O5 50.6(11) 2_545 2_545
N201 N201 O5 104(3) 2_545 2_545
S3 N201 O5 148(3) . 2_545
F2B C3A F3B 102.7(18) . .
F2B C3A F1B 108.6(18) . .
F3B C3A F1B 113.4(19) . .
F2B C3A S3 112.6(15) . .
F3B C3A S3 112.9(16) . .
F1B C3A S3 106.8(14) . .
O9 S5 O10 124(2) . .
O9 S5 N102 105(2) . .
O10 S5 N102 109(2) . .
O9 S5 C5A 106.0(19) . .
O10 S5 C5A 102.9(19) . .
N102 S5 C5A 108.5(18) . .
O11 S6 O12 133(3) . .
O11 S6 N102 111(2) . .
O12 S6 N102 108(2) . .
O11 S6 C6A 84(5) . .
O12 S6 C6A 114(5) . .
N102 S6 C6A 101(4) . .
F2C C5A F1C 107(3) . .
F2C C5A S5 105(2) . .
F1C C5A S5 106(2) . .
S6 N102 S5 123(2) . .
F4C C6A S6 121(7) . .
loop_
_geom_bond_atom_site_label_1
_geom_bond_atom_site_label_2
_geom_bond_distance
_geom_bond_site_symmetry_2
Co1 C20 1.94(2) .
Co1 C57 1.94(2) .
Co1 C90 2.01(3) .
Co1 C58 2.05(2) .
Co1 C89 2.04(3) .
Co1 C91 2.04(2) .
Co1 C19 2.05(2) .
Co1 C85 2.04(3) .
Co1 C88 2.08(3) .
Co1 C87 2.09(3) .
Co1 C84 2.09(3) .
Co1 C86 2.08(3) .
Cd1 O20 2.211(14) .
Cd1 N4 2.31(2) .
Cd1 N4' 2.33(3) .
Cd1 O24 2.345(14) .
Cd1 N8 2.352(11) 2_756
Cd1 N7 2.40(2) 2_756
Cd1 N3 2.418(17) .
Cd2 O22 2.277(14) .
Cd2 N1 2.345(11) .
Cd2 O23 2.365(14) .
Cd2 N5 2.371(11) 2_756
Cd2 N6 2.387(19) 2_756
Cd2 N2 2.427(17) .
N1 C2 1.345(4) .
N1 C6 1.348(4) .
N2 C1 1.27(3) .
N2 C7 1.39(2) .
N3 C33 1.26(3) .
N3 C31 1.45(2) .
N5 C39 1.344(4) .
N5 C43 1.346(4) .
N5 Cd2 2.371(11) 2_756
N6 C44 1.30(3) .
N6 C45 1.44(2) .
N6 Cd2 2.387(19) 2_756
N7 C71 1.31(3) .
N7 C69 1.40(2) .
N7 Cd1 2.40(2) 2_756
N8 C72 1.345(4) .
N8 C76 1.346(4) .
N8 Cd1 2.352(11) 2_756
C2 C3 1.380(4) .
C2 H2 0.9500 .
C3 C4 1.375(4) .
C3 H3 0.9500 .
C4 C5 1.383(4) .
C4 H4 0.9500 .
C5 C6 1.391(4) .
C5 H5 0.9500 .
C6 C1 1.496(16) .
C1 H1 0.9500 .
C7 C8 1.3900 .
C7 C12 1.3900 .
C8 C9 1.3900 .
C8 H8 0.9500 .
C9 C10 1.3900 .
C9 H9 0.9500 .
C10 C11 1.3900 .
C10 H10 0.9500 .
C11 C12 1.3900 .
C11 C13 1.524(14) .
C12 H12 0.9500 .
C13 C14' 1.357(18) .
C13 C14 1.3900 .
C13 C18 1.3900 .
C13 C18' 1.397(18) .
C14 C15 1.3900 .
C14 H14 0.9500 .
C15 C16 1.3900 .
C15 H15 0.9500 .
C16 C15' 1.379(18) .
C16 C17 1.3900 .
C16 C17' 1.429(18) .
C16 C19 1.48(2) .
C17 C18 1.3900 .
C17 H17 0.9500 .
C18 H18 0.9500 .
C14' C15' 1.378(19) .
C14' H14' 0.9500 .
C15' H15' 0.9500 .
C18' C17' 1.411(19) .
C18' H18' 0.9500 .
C17' H17' 0.9500 .
C19 C20 1.51(2) .
C19 C58 1.53(3) .
C20 C57 1.43(3) .
C20 C21 1.49(2) .
C21 C26' 1.358(18) .
C21 C22' 1.376(17) .
C21 C22 1.3900 .
C21 C26 1.3900 .
C22 C23 1.3900 .
C22 H22 0.9500 .
C23 C24 1.3900 .
C23 H23 0.9500 .
C24 C25' 1.382(17) .
C24 C25 1.3900 .
C24 C23' 1.426(17) .
C24 C27 1.522(11) .
C25 C26 1.3900 .
C25 H25 0.9500 .
C26 H26 0.9500 .
C22' C23' 1.395(18) .
C22' H22' 0.9500 .
C23' H23' 0.9500 .
C25' C26' 1.389(18) .
C25' H25' 0.9500 .
C26' H26' 0.9500 .
C27 C28 1.3900 .
C27 C32 1.3900 .
C28 C29 1.3900 .
C28 H28 0.9500 .
C29 C30 1.3900 .
C29 H29 0.9500 .
C30 C31 1.3900 .
C30 H30 0.9500 .
C31 C32 1.3900 .
C32 H32 0.9500 .
C33 C34' 1.43(4) .
C33 C34 1.46(3) .
C33 H33 0.9500 .
C34 N4 1.346(4) .
C34 C35 1.381(4) .
C35 C36 1.375(4) .
C35 H35 0.9500 .
C36 C37 1.382(4) .
C36 H36 0.9500 .
C37 C38 1.391(4) .
C37 H37 0.9500 .
C38 N4 1.347(4) .
C38 H38 0.9500 .
C34' N4' 1.345(8) .
C34' C35' 1.382(8) .
C35' C36' 1.381(9) .
C35' H35' 0.9500 .
C36' C37' 1.388(9) .
C36' H36' 0.9500 .
C37' C38' 1.395(9) .
C37' H37' 0.9500 .
C38' N4' 1.350(9) .
C38' H38' 0.9500 .
C39 C40 1.383(4) .
C39 H39 0.9500 .
C40 C41 1.374(4) .
C40 H40 0.9500 .
C41 C42 1.382(4) .
C41 H41 0.9500 .
C42 C43 1.392(4) .
C42 H42 0.9500 .
C43 C44 1.47(3) .
C44 H44 0.9500 .
C45 C46 1.3900 .
C45 C50 1.3900 .
C46 C47 1.3900 .
C46 H46 0.9500 .
C47 C48 1.3900 .
C47 H47 0.9500 .
C48 C49 1.3900 .
C48 H48 0.9500 .
C49 C50 1.3900 .
C49 C51 1.521(12) .
C50 H50 0.9500 .
C51 C56' 1.358(18) .
C51 C52' 1.376(18) .
C51 C52 1.3900 .
C51 C56 1.3900 .
C52 C53 1.3900 .
C52 H52 0.9500 .
C53 C54 1.3900 .
C53 H53 0.9500 .
C54 C53' 1.387(18) .
C54 C55 1.3900 .
C54 C55' 1.410(18) .
C54 C57 1.50(2) .
C55 C56 1.3900 .
C55 H55 0.9500 .
C56 H56 0.9500 .
C52' C53' 1.393(19) .
C52' H52' 0.9500 .
C53' H53' 0.9500 .
C55' C56' 1.376(19) .
C55' H55' 0.9500 .
C56' H56' 0.9500 .
C57 C58 1.48(2) .
C58 C59 1.506(15) .
C59 C60' 1.375(18) .
C59 C64' 1.381(17) .
C59 C60 1.3900 .
C59 C64 1.3900 .
C60 C61 1.3900 .
C60 H60 0.9500 .
C61 C62 1.3900 .
C61 H61 0.9500 .
C62 C63 1.3900 .
C62 C61' 1.417(17) .
C62 C63' 1.423(17) .
C62 C65 1.509(13) .
C63 C64 1.3900 .
C63 H63 0.9500 .
C64 H64 0.9500 .
C60' C61' 1.397(18) .
C60' H60' 0.9500 .
C61' H61' 0.9500 .
C63' C64' 1.393(18) .
C63' H63' 0.9500 .
C64' H64' 0.9500 .
C65 C66 1.3900 .
C65 C70 1.3900 .
C66 C67 1.3900 .
C66 H66 0.9500 .
C67 C68 1.3900 .
C67 H67 0.9500 .
C68 C69 1.3900 .
C68 H68 0.9500 .
C69 C70 1.3900 .
C70 H70 0.9500 .
C71 C72 1.45(3) .
C71 H71 0.9500 .
C72 C73 1.381(4) .
C73 C74 1.376(4) .
C73 H73 0.9500 .
C74 C75 1.381(4) .
C74 H74 0.9500 .
C75 C76 1.392(4) .
C75 H75 0.9500 .
C76 H76 0.9500 .
C77 O20 1.27(2) .
C77 C78 1.38(3) .
C77 C81 1.50(3) .
C78 O24 1.27(3) .
C78 C79 1.47(2) .
C79 O23 1.29(3) .
C79 C80 1.48(3) .
C80 O22 1.28(2) .
C80 C81 1.43(3) .
C81 O21 1.225(19) .
C82 C86 1.4200 .
C82 C83 1.4200 .
C82 H82 0.9500 .
C83 C84 1.4200 .
C83 H83 0.9500 .
C84 C85 1.4200 .
C84 H84 0.9500 .
C85 C86 1.4200 .
C85 H85 0.9500 .
C86 H86 0.9500 .
C87 C91 1.4200 .
C87 C88 1.4200 .
C87 H87 0.9500 .
C88 C89 1.4200 .
C88 H88 0.9500 .
C89 C90 1.4200 .
C89 H89 0.9500 .
C90 C91 1.4200 .
C90 H90 0.9500 .
C91 H91 0.9500 .
S2 O4 1.425(11) .
S2 O3 1.431(12) .
S2 N200 1.629(12) .
S2 C2A 1.831(9) .
S1 O1 1.424(12) .
S1 O2 1.439(12) .
S1 N200 1.623(12) .
S1 C1A 1.826(9) .
C2A F6A 1.296(17) .
C2A F4A 1.326(17) .
C2A F5A 1.343(17) .
F1A C1A 1.312(17) .
F2A C1A 1.323(17) .
F3A C1A 1.306(17) .
S2' O4' 1.425(18) .
S2' O3' 1.430(18) .
S2' N202 1.650(18) .
S2' C2A' 1.829(17) .
S1' O1' 1.424(18) .
S1' O2' 1.447(18) .
S1' N202 1.628(17) .
S1' C1A' 1.829(17) .
F3A' C1A' 1.337(18) .
C1A' F1A' 1.308(18) .
C1A' F2A' 1.330(18) .
C2A' F5A' 1.316(18) .
C2A' F6A' 1.326(18) .
C2A' F4A' 1.331(18) .
C100 C101 1.3900 .
C100 C105 1.3900 .
C100 H100 0.9500 .
C101 C102 1.3900 .
C101 H101 0.9500 .
C102 C103 1.3900 .
C102 H102 0.9500 .
C103 C104 1.3900 .
C103 H103 0.9500 .
C104 C105 1.3900 .
C104 H104 0.9500 .
C105 H105 0.9500 .
N1S C1S 1.136(18) .
C1S C2S 1.471(19) .
C2S H2S1 0.9800 .
C2S H2S2 0.9800 .
C2S H2S3 0.9800 .
N2S C3S 1.156(18) .
C3S C4S 1.482(19) .
C4S H4S1 0.9800 .
C4S H4S2 0.9800 .
C4S H4S3 0.9800 .
S3 O5 1.419(12) .
S3 O6 1.454(12) .
S3 N201 1.56(4) 2_545
S3 N201 1.633(12) .
S3 C3A 1.822(9) .
O5 N201 1.74(4) 2_545
F1B C3A 1.317(16) .
N201 S3 1.56(4) 2_545
N201 N201 1.59(7) 2_545
N201 O5 1.74(4) 2_545
F2B C3A 1.306(16) .
C3A F3B 1.309(17) .
S5 O9 1.420(12) .
S5 O10 1.427(12) .
S5 N102 1.650(12) .
S5 C5A 1.831(10) .
S6 O11 1.415(12) .
S6 O12 1.421(12) .
S6 N102 1.648(12) .
S6 C6A 1.65(12) .
C5A F2C 1.325(19) .
C5A F1C 1.324(19) .
C6A F4C 1.39(10) .
loop_
_geom_torsion_atom_site_label_1
_geom_torsion_atom_site_label_2
_geom_torsion_atom_site_label_3
_geom_torsion_atom_site_label_4
_geom_torsion
_geom_torsion_site_symmetry_1
_geom_torsion_site_symmetry_4
C6 N1 C2 C3 2(4) . .
Cd2 N1 C2 C3 -177.0(19) . .
N1 C2 C3 C4 2(4) . .
C2 C3 C4 C5 -6(4) . .
C3 C4 C5 C6 7(4) . .
C2 N1 C6 C5 -1(4) . .
Cd2 N1 C6 C5 178.4(19) . .
C2 N1 C6 C1 179(2) . .
Cd2 N1 C6 C1 -2(3) . .
C4 C5 C6 N1 -4(4) . .
C4 C5 C6 C1 176(2) . .
C7 N2 C1 C6 -177.0(19) . .
Cd2 N2 C1 C6 11(3) . .
N1 C6 C1 N2 -7(3) . .
C5 C6 C1 N2 173(2) . .
C1 N2 C7 C8 -48(2) . .
Cd2 N2 C7 C8 121.7(12) . .
C1 N2 C7 C12 128.8(17) . .
Cd2 N2 C7 C12 -61.1(18) . .
C12 C7 C8 C9 0.0 . .
N2 C7 C8 C9 177.2(16) . .
C7 C8 C9 C10 0.0 . .
C8 C9 C10 C11 0.0 . .
C9 C10 C11 C12 0.0 . .
C9 C10 C11 C13 179.7(14) . .
C10 C11 C12 C7 0.0 . .
C13 C11 C12 C7 -179.7(14) . .
C8 C7 C12 C11 0.0 . .
N2 C7 C12 C11 -177.2(16) . .
C12 C11 C13 C14' -23(2) . .
C10 C11 C13 C14' 157(2) . .
C12 C11 C13 C14 34.0(17) . .
C10 C11 C13 C14 -145.7(14) . .
C12 C11 C13 C18 -148.8(13) . .
C10 C11 C13 C18 31.5(19) . .
C12 C11 C13 C18' 159.7(18) . .
C10 C11 C13 C18' -20(2) . .
C14' C13 C14 C15 -79.4(18) . .
C18 C13 C14 C15 0.0 . .
C18' C13 C14 C15 48.7(15) . .
C11 C13 C14 C15 177.2(14) . .
C13 C14 C15 C16 0.0 . .
C14 C15 C16 C15' 67.3(19) . .
C14 C15 C16 C17 0.0 . .
C14 C15 C16 C17' -39.0(17) . .
C14 C15 C16 C19 -175.8(16) . .
C15' C16 C17 C18 -44.6(16) . .
C15 C16 C17 C18 0.0 . .
C17' C16 C17 C18 71(2) . .
C19 C16 C17 C18 175.6(17) . .
C16 C17 C18 C13 0.0 . .
C14' C13 C18 C17 49.4(16) . .
C14 C13 C18 C17 0.0 . .
C18' C13 C18 C17 -84.0(18) . .
C11 C13 C18 C17 -177.2(14) . .
C14 C13 C14' C15' 75(3) . .
C18 C13 C14' C15' -45(3) . .
C18' C13 C14' C15' -2(4) . .
C11 C13 C14' C15' -179(2) . .
C13 C14' C15' C16 -6(5) . .
C17 C16 C15' C14' 52(4) . .
C15 C16 C15' C14' -75(4) . .
C17' C16 C15' C14' 13(4) . .
C19 C16 C15' C14' -172(3) . .
C14' C13 C18' C17' 1(4) . .
C14 C13 C18' C17' -49(3) . .
C18 C13 C18' C17' 67(2) . .
C11 C13 C18' C17' 178(2) . .
C13 C18' C17' C16 8(5) . .
C15' C16 C17' C18' -14(4) . .
C17 C16 C17' C18' -87(4) . .
C15 C16 C17' C18' 37(4) . .
C19 C16 C17' C18' 171(3) . .
C15' C16 C19 C20 22(4) . .
C17 C16 C19 C20 148(3) . .
C15 C16 C19 C20 -36(4) . .
C17' C16 C19 C20 -163(3) . .
C15' C16 C19 C58 -146(3) . .
C17 C16 C19 C58 -20(3) . .
C15 C16 C19 C58 156(2) . .
C17' C16 C19 C58 29(3) . .
C15' C16 C19 Co1 -60(3) . .
C17 C16 C19 Co1 66(2) . .
C15 C16 C19 Co1 -118.8(15) . .
C17' C16 C19 Co1 114(2) . .
C16 C19 C20 C57 -173(3) . .
C58 C19 C20 C57 -2(2) . .
Co1 C19 C20 C57 -67.3(12) . .
C16 C19 C20 C21 23(5) . .
C58 C19 C20 C21 -166(2) . .
Co1 C19 C20 C21 128(3) . .
C16 C19 C20 Co1 -105(3) . .
C58 C19 C20 Co1 65.8(12) . .
C57 C20 C21 C26' 44(4) . .
C19 C20 C21 C26' -160(3) . .
Co1 C20 C21 C26' -59(3) . .
C57 C20 C21 C22' -147(3) . .
C19 C20 C21 C22' 9(4) . .
Co1 C20 C21 C22' 109(3) . .
C57 C20 C21 C22 159(3) . .
C19 C20 C21 C22 -44(3) . .
Co1 C20 C21 C22 56(2) . .
C57 C20 C21 C26 -15(3) . .
C19 C20 C21 C26 142(3) . .
Co1 C20 C21 C26 -118(2) . .
C26' C21 C22 C23 -52.0(14) . .
C22' C21 C22 C23 83.3(17) . .
C26 C21 C22 C23 0.0 . .
C20 C21 C22 C23 -173.8(16) . .
C21 C22 C23 C24 0.0 . .
C22 C23 C24 C25' 42.5(16) . .
C22 C23 C24 C25 0.0 . .
C22 C23 C24 C23' -70.7(18) . .
C22 C23 C24 C27 179.8(15) . .
C25' C24 C25 C26 -69.1(17) . .
C23 C24 C25 C26 0.0 . .
C23' C24 C25 C26 38.9(15) . .
C27 C24 C25 C26 -179.8(15) . .
C24 C25 C26 C21 0.0 . .
C26' C21 C26 C25 77.6(16) . .
C22' C21 C26 C25 -47.3(16) . .
C22 C21 C26 C25 0.0 . .
C20 C21 C26 C25 174.0(16) . .
C26' C21 C22' C23' -8(4) . .
C22 C21 C22' C23' -69(3) . .
C26 C21 C22' C23' 47(3) . .
C20 C21 C22' C23' -175(3) . .
C21 C22' C23' C24 -6(5) . .
C25' C24 C23' C22' 9(5) . .
C23 C24 C23' C22' 86(4) . .
C25 C24 C23' C22' -38(4) . .
C27 C24 C23' C22' -178(3) . .
C23 C24 C25' C26' -39(4) . .
C25 C24 C25' C26' 87(4) . .
C23' C24 C25' C26' 1(5) . .
C27 C24 C25' C26' -172(3) . .
C22' C21 C26' C25' 16(5) . .
C22 C21 C26' C25' 55(3) . .
C26 C21 C26' C25' -66(3) . .
C20 C21 C26' C25' -176(3) . .
C24 C25' C26' C21 -12(5) . .
C25' C24 C27 C28 -34(3) . .
C23 C24 C27 C28 -158.1(14) . .
C25 C24 C27 C28 22(2) . .
C23' C24 C27 C28 154(2) . .
C25' C24 C27 C32 146(2) . .
C23 C24 C27 C32 22(2) . .
C25 C24 C27 C32 -158.3(15) . .
C23' C24 C27 C32 -26(3) . .
C32 C27 C28 C29 0.0 . .
C24 C27 C28 C29 -180.0(15) . .
C27 C28 C29 C30 0.0 . .
C28 C29 C30 C31 0.0 . .
C29 C30 C31 C32 0.0 . .
C29 C30 C31 N3 -176.0(16) . .
C33 N3 C31 C32 -136.3(17) . .
Cd1 N3 C31 C32 54.9(17) . .
C33 N3 C31 C30 40(2) . .
Cd1 N3 C31 C30 -129.1(11) . .
C30 C31 C32 C27 0.0 . .
N3 C31 C32 C27 176.2(15) . .
C28 C27 C32 C31 0.0 . .
C24 C27 C32 C31 180.0(16) . .
C31 N3 C33 C34' 174(3) . .
Cd1 N3 C33 C34' -16(4) . .
C31 N3 C33 C34 -171(3) . .
Cd1 N3 C33 C34 0(3) . .
N3 C33 C34 N4 3(5) . .
C34' C33 C34 N4 91(13) . .
N3 C33 C34 C35 -180(3) . .
C34' C33 C34 C35 -92(14) . .
N4 C34 C35 C36 -7(6) . .
C33 C34 C35 C36 176(4) . .
C34 C35 C36 C37 2(6) . .
C35 C36 C37 C38 1(6) . .
C36 C37 C38 N4 0(6) . .
C35 C34 N4 C38 8(6) . .
C33 C34 N4 C38 -175(3) . .
C35 C34 N4 Cd1 179(3) . .
C33 C34 N4 Cd1 -4(4) . .
C37 C38 N4 C34 -5(6) . .
C37 C38 N4 Cd1 -175(3) . .
N3 C33 C34' N4' 13(6) . .
C34 C33 C34' N4' -87(14) . .
N3 C33 C34' C35' -172(4) . .
C34 C33 C34' C35' 88(14) . .
N4' C34' C35' C36' -8(7) . .
C33 C34' C35' C36' 178(5) . .
C34' C35' C36' C37' 18(6) . .
C35' C36' C37' C38' -22(6) . .
C36' C37' C38' N4' 17(6) . .
C35' C34' N4' C38' 2(8) . .
C33 C34' N4' C38' 177(4) . .
C35' C34' N4' Cd1 -177(4) . .
C33 C34' N4' Cd1 -2(6) . .
C37' C38' N4' C34' -7(7) . .
C37' C38' N4' Cd1 173(3) . .
C43 N5 C39 C40 -4(4) . .
Cd2 N5 C39 C40 -166(2) 2_756 .
N5 C39 C40 C41 7(4) . .
C39 C40 C41 C42 -6(4) . .
C40 C41 C42 C43 4(4) . .
C39 N5 C43 C42 1(4) . .
Cd2 N5 C43 C42 165(2) 2_756 .
C39 N5 C43 C44 174(2) . .
Cd2 N5 C43 C44 -22(3) 2_756 .
C41 C42 C43 N5 -1(4) . .
C41 C42 C43 C44 -174(2) . .
C45 N6 C44 C43 -179.1(19) . .
Cd2 N6 C44 C43 10(3) 2_756 .
N5 C43 C44 N6 8(4) . .
C42 C43 C44 N6 -179(2) . .
C44 N6 C45 C46 -43(2) . .
Cd2 N6 C45 C46 127.2(11) 2_756 .
C44 N6 C45 C50 136.7(18) . .
Cd2 N6 C45 C50 -53.6(17) 2_756 .
C50 C45 C46 C47 0.0 . .
N6 C45 C46 C47 179.2(17) . .
C45 C46 C47 C48 0.0 . .
C46 C47 C48 C49 0.0 . .
C47 C48 C49 C50 0.0 . .
C47 C48 C49 C51 -173.8(14) . .
C48 C49 C50 C45 0.0 . .
C51 C49 C50 C45 173.9(14) . .
C46 C45 C50 C49 0.0 . .
N6 C45 C50 C49 -179.2(16) . .
C50 C49 C51 C56' -162.0(19) . .
C48 C49 C51 C56' 12(2) . .
C50 C49 C51 C52' 27(2) . .
C48 C49 C51 C52' -158.8(18) . .
C50 C49 C51 C52 -42.3(17) . .
C48 C49 C51 C52 131.6(13) . .
C50 C49 C51 C56 136.5(13) . .
C48 C49 C51 C56 -49.6(17) . .
C56' C51 C52 C53 -53.3(15) . .
C52' C51 C52 C53 74.4(15) . .
C56 C51 C52 C53 0.0 . .
C49 C51 C52 C53 178.8(14) . .
C51 C52 C53 C54 0.0 . .
C52 C53 C54 C53' -67.7(17) . .
C52 C53 C54 C55 0.0 . .
C52 C53 C54 C55' 45.5(16) . .
C52 C53 C54 C57 177.6(17) . .
C53' C54 C55 C56 49.0(15) . .
C53 C54 C55 C56 0.0 . .
C55' C54 C55 C56 -66.9(17) . .
C57 C54 C55 C56 -177.6(17) . .
C54 C55 C56 C51 0.0 . .
C56' C51 C56 C55 78.5(16) . .
C52' C51 C56 C55 -57.0(15) . .
C52 C51 C56 C55 0.0 . .
C49 C51 C56 C55 -178.8(14) . .
C56' C51 C52' C53' 13(4) . .
C52 C51 C52' C53' -65(2) . .
C56 C51 C52' C53' 58(3) . .
C49 C51 C52' C53' -177(2) . .
C55 C54 C53' C52' -47(3) . .
C53 C54 C53' C52' 80(3) . .
C55' C54 C53' C52' 1(4) . .
C57 C54 C53' C52' -176(3) . .
C51 C52' C53' C54 -9(5) . .
C53' C54 C55' C56' 5(4) . .
C55 C54 C55' C56' 79(4) . .
C53 C54 C55' C56' -48(4) . .
C57 C54 C55' C56' -178(3) . .
C52' C51 C56' C55' -9(4) . .
C52 C51 C56' C55' 51(3) . .
C56 C51 C56' C55' -70(3) . .
C49 C51 C56' C55' -178(2) . .
C54 C55' C56' C51 -1(5) . .
C21 C20 C57 C54 -9(5) . .
C19 C20 C57 C54 -171(3) . .
Co1 C20 C57 C54 118(3) . .
C21 C20 C57 C58 164(3) . .
C19 C20 C57 C58 2(2) . .
Co1 C20 C57 C58 -68.9(15) . .
C21 C20 C57 Co1 -127(3) . .
C19 C20 C57 Co1 70.4(13) . .
C53' C54 C57 C20 143(3) . .
C55 C54 C57 C20 27(3) . .
C53 C54 C57 C20 -151(2) . .
C55' C54 C57 C20 -34(4) . .
C53' C54 C57 C58 -27(4) . .
C55 C54 C57 C58 -144(3) . .
C53 C54 C57 C58 39(3) . .
C55' C54 C57 C58 156(3) . .
C53' C54 C57 Co1 -123(2) . .
C55 C54 C57 Co1 120.7(15) . .
C53 C54 C57 Co1 -57(2) . .
C55' C54 C57 Co1 60(2) . .
C20 C57 C58 C19 -2(2) . .
C54 C57 C58 C19 172(2) . .
Co1 C57 C58 C19 -67.3(12) . .
C20 C57 C58 C59 176(3) . .
C54 C57 C58 C59 -11(6) . .
Co1 C57 C58 C59 110(3) . .
C20 C57 C58 Co1 65.7(13) . .
C54 C57 C58 Co1 -121(3) . .
C16 C19 C58 C57 174(2) . .
C20 C19 C58 C57 1(2) . .
Co1 C19 C58 C57 63.7(14) . .
C16 C19 C58 C59 -4(4) . .
C20 C19 C58 C59 -176(2) . .
Co1 C19 C58 C59 -114(3) . .
C16 C19 C58 Co1 110(2) . .
C20 C19 C58 Co1 -62.3(13) . .
C57 C58 C59 C60' 151(3) . .
C19 C58 C59 C60' -33(4) . .
Co1 C58 C59 C60' -123(2) . .
C57 C58 C59 C64' -21(4) . .
C19 C58 C59 C64' 156(3) . .
Co1 C58 C59 C64' 66(2) . .
C57 C58 C59 C60 -138(3) . .
C19 C58 C59 C60 39(3) . .
Co1 C58 C59 C60 -51(2) . .
C57 C58 C59 C64 42(4) . .
C19 C58 C59 C64 -142(2) . .
Co1 C58 C59 C64 128.4(15) . .
C60' C59 C60 C61 -77.2(14) . .
C64' C59 C60 C61 54.9(14) . .
C64 C59 C60 C61 0.0 . .
C58 C59 C60 C61 179.2(15) . .
C59 C60 C61 C62 0.0 . .
C60 C61 C62 C63 0.0 . .
C60 C61 C62 C61' 63.8(14) . .
C60 C61 C62 C63' -47.3(13) . .
C60 C61 C62 C65 -179.3(13) . .
C61 C62 C63 C64 0.0 . .
C61' C62 C63 C64 -49.9(14) . .
C63' C62 C63 C64 67.4(15) . .
C65 C62 C63 C64 179.3(13) . .
C62 C63 C64 C59 0.0 . .
C60' C59 C64 C63 59.8(13) . .
C64' C59 C64 C63 -78.8(13) . .
C60 C59 C64 C63 0.0 . .
C58 C59 C64 C63 -179.3(15) . .
C64' C59 C60' C61' -9(4) . .
C60 C59 C60' C61' 68(2) . .
C64 C59 C60' C61' -55(3) . .
C58 C59 C60' C61' -178(2) . .
C59 C60' C61' C62 0(5) . .
C63 C62 C61' C60' 55(4) . .
C61 C62 C61' C60' -74(4) . .
C63' C62 C61' C60' 7(4) . .
C65 C62 C61' C60' 180(3) . .
C63 C62 C63' C64' -76(3) . .
C61 C62 C63' C64' 50(3) . .
C61' C62 C63' C64' -7(4) . .
C65 C62 C63' C64' -180(3) . .
C60' C59 C64' C63' 9(4) . .
C60 C59 C64' C63' -52(3) . .
C64 C59 C64' C63' 69(2) . .
C58 C59 C64' C63' 178(2) . .
C62 C63' C64' C59 0(5) . .
C63 C62 C65 C66 158.0(12) . .
C61 C62 C65 C66 -22.7(17) . .
C61' C62 C65 C66 49(3) . .
C63' C62 C65 C66 -139(2) . .
C63 C62 C65 C70 -25.9(17) . .
C61 C62 C65 C70 153.4(12) . .
C61' C62 C65 C70 -135(2) . .
C63' C62 C65 C70 37(2) . .
C70 C65 C66 C67 0.0 . .
C62 C65 C66 C67 176.1(15) . .
C65 C66 C67 C68 0.0 . .
C66 C67 C68 C69 0.0 . .
C67 C68 C69 C70 0.0 . .
C67 C68 C69 N7 176.6(17) . .
C71 N7 C69 C70 -135.5(16) . .
Cd1 N7 C69 C70 55.5(16) 2_756 .
C71 N7 C69 C68 48(2) . .
Cd1 N7 C69 C68 -121.2(12) 2_756 .
C68 C69 C70 C65 0.0 . .
N7 C69 C70 C65 -176.9(16) . .
C66 C65 C70 C69 0.0 . .
C62 C65 C70 C69 -176.1(14) . .
C69 N7 C71 C72 172.7(17) . .
Cd1 N7 C71 C72 -17(2) 2_756 .
C76 N8 C72 C73 7(3) . .
Cd1 N8 C72 C73 -162.9(18) 2_756 .
C76 N8 C72 C71 -175.1(19) . .
Cd1 N8 C72 C71 15(2) 2_756 .
N7 C71 C72 N8 1(3) . .
N7 C71 C72 C73 180(2) . .
N8 C72 C73 C74 -7(4) . .
C71 C72 C73 C74 175(2) . .
C72 C73 C74 C75 4(4) . .
C73 C74 C75 C76 -2(4) . .
C72 N8 C76 C75 -4(3) . .
Cd1 N8 C76 C75 164.2(18) 2_756 .
C74 C75 C76 N8 2(4) . .
O20 C77 C78 O24 -2(4) . .
C81 C77 C78 O24 -178(2) . .
O20 C77 C78 C79 -180(2) . .
C81 C77 C78 C79 4(3) . .
O24 C78 C79 O23 -3(5) . .
C77 C78 C79 O23 174(2) . .
O24 C78 C79 C80 -178(2) . .
C77 C78 C79 C80 -1(3) . .
O23 C79 C80 O22 1(3) . .
C78 C79 C80 O22 176(2) . .
O23 C79 C80 C81 -178(2) . .
C78 C79 C80 C81 -3(3) . .
O22 C80 C81 O21 1(3) . .
C79 C80 C81 O21 179.9(18) . .
O22 C80 C81 C77 -174(2) . .
C79 C80 C81 C77 4.9(19) . .
O20 C77 C81 O21 4(3) . .
C78 C77 C81 O21 179.4(19) . .
O20 C77 C81 C80 179(2) . .
C78 C77 C81 C80 -6(2) . .
C86 C82 C83 C84 0.0 . .
Co1 C82 C83 C84 57.9(10) . .
C86 C82 C83 Co1 -57.9(10) . .
C82 C83 C84 C85 0.0 . .
Co1 C83 C84 C85 59.4(11) . .
C82 C83 C84 Co1 -59.4(11) . .
C83 C84 C85 C86 0.0 . .
Co1 C84 C85 C86 62.2(14) . .
C83 C84 C85 Co1 -62.2(14) . .
C84 C85 C86 C82 0.0 . .
Co1 C85 C86 C82 62.4(9) . .
C84 C85 C86 Co1 -62.4(9) . .
C83 C82 C86 C85 0.0 . .
Co1 C82 C86 C85 -59.7(14) . .
C83 C82 C86 Co1 59.7(14) . .
C91 C87 C88 C89 0.0 . .
Co1 C87 C88 C89 -57.6(13) . .
C91 C87 C88 Co1 57.6(13) . .
C87 C88 C89 C90 0.0 . .
Co1 C88 C89 C90 -59.0(9) . .
C87 C88 C89 Co1 59.0(9) . .
C88 C89 C90 C91 0.0 . .
Co1 C89 C90 C91 -61.0(13) . .
C88 C89 C90 Co1 61.0(13) . .
C89 C90 C91 C87 0.0 . .
Co1 C90 C91 C87 -60.9(11) . .
C89 C90 C91 Co1 60.9(11) . .
C88 C87 C91 C90 0.0 . .
Co1 C87 C91 C90 58.8(11) . .
C88 C87 C91 Co1 -58.8(11) . .
C78 C77 O20 Cd1 9(3) . .
C81 C77 O20 Cd1 -175.2(16) . .
C81 C80 O22 Cd2 174.3(17) . .
C79 C80 O22 Cd2 -5(2) . .
C78 C79 O23 Cd2 -171(3) . .
C80 C79 O23 Cd2 3(3) . .
C77 C78 O24 Cd1 -5(3) . .
C79 C78 O24 Cd1 171(3) . .
O1 S1 N200 S2 33(3) . .
O2 S1 N200 S2 165(2) . .
C1A S1 N200 S2 -86(2) . .
O4 S2 N200 S1 -105(2) . .
O3 S2 N200 S1 32(3) . .
C2A S2 N200 S1 143(2) . .
O4 S2 C2A F6A 68(2) . .
O3 S2 C2A F6A -60(2) . .
N200 S2 C2A F6A -179(2) . .
O4 S2 C2A F4A -58(2) . .
O3 S2 C2A F4A 174(2) . .
N200 S2 C2A F4A 55(2) . .
O4 S2 C2A F5A -176(2) . .
O3 S2 C2A F5A 56(2) . .
N200 S2 C2A F5A -63(2) . .
O1 S1 C1A F3A -50(2) . .
O2 S1 C1A F3A -174(2) . .
N200 S1 C1A F3A 74(2) . .
O1 S1 C1A F1A 68(2) . .
O2 S1 C1A F1A -56(2) . .
N200 S1 C1A F1A -168(2) . .
O1 S1 C1A F2A -167(2) . .
O2 S1 C1A F2A 69(2) . .
N200 S1 C1A F2A -43(2) . .
O1' S1' N202 S2' 49(4) . .
O2' S1' N202 S2' -80(3) . .
C1A' S1' N202 S2' 175(3) . .
O4' S2' N202 S1' 5(4) . .
O3' S2' N202 S1' 138(3) . .
C2A' S2' N202 S1' -110(3) . .
O1' S1' C1A' F1A' 47(4) . .
O2' S1' C1A' F1A' 168(3) . .
N202 S1' C1A' F1A' -81(3) . .
O1' S1' C1A' F2A' 172(3) . .
O2' S1' C1A' F2A' -67(3) . .
N202 S1' C1A' F2A' 44(3) . .
O1' S1' C1A' F3A' -74(4) . .
O2' S1' C1A' F3A' 47(3) . .
N202 S1' C1A' F3A' 158(3) . .
O4' S2' C2A' F5A' 66(4) . .
O3' S2' C2A' F5A' -64(3) . .
N202 S2' C2A' F5A' -177(3) . .
O4' S2' C2A' F6A' -56(4) . .
O3' S2' C2A' F6A' 175(3) . .
N202 S2' C2A' F6A' 61(3) . .
O4' S2' C2A' F4A' -174(3) . .
O3' S2' C2A' F4A' 56(3) . .
N202 S2' C2A' F4A' -57(3) . .
C105 C100 C101 C102 0.0 . .
C100 C101 C102 C103 0.0 . .
C101 C102 C103 C104 0.0 . .
C102 C103 C104 C105 0.0 . .
C103 C104 C105 C100 0.0 . .
C101 C100 C105 C104 0.0 . .
O6 S3 O5 N201 -162(2) . 2_545
N201 S3 O5 N201 -37(3) . 2_545
C3A S3 O5 N201 86.8(18) . 2_545
O5 S3 N201 S3 42(4) . 2_545
O6 S3 N201 S3 171(3) . 2_545
N201 S3 N201 S3 -0.001(4) 2_545 2_545
C3A S3 N201 S3 -82(3) . 2_545
O5 S3 N201 N201 42(4) . 2_545
O6 S3 N201 N201 171(3) . 2_545
C3A S3 N201 N201 -82(3) . 2_545
O5 S3 N201 O5 105(5) . 2_545
O6 S3 N201 O5 -126(5) . 2_545
N201 S3 N201 O5 64(5) 2_545 2_545
C3A S3 N201 O5 -18(6) . 2_545
O5 S3 C3A F2B -38(2) . .
O6 S3 C3A F2B -158(2) . .
N201 S3 C3A F2B 33(2) 2_545 .
N201 S3 C3A F2B 92(2) . .
O5 S3 C3A F3B -154(2) . .
O6 S3 C3A F3B 86(2) . .
N201 S3 C3A F3B -83(2) 2_545 .
N201 S3 C3A F3B -24(2) . .
O5 S3 C3A F1B 81(2) . .
O6 S3 C3A F1B -39(2) . .
N201 S3 C3A F1B 152.1(19) 2_545 .
N201 S3 C3A F1B -149(2) . .
O9 S5 C5A F2C -67(3) . .
O10 S5 C5A F2C 161(3) . .
N102 S5 C5A F2C 45(3) . .
O9 S5 C5A F1C -180(3) . .
O10 S5 C5A F1C 48(3) . .
N102 S5 C5A F1C -68(3) . .
O11 S6 N102 S5 -28(5) . .
O12 S6 N102 S5 124(4) . .
C6A S6 N102 S5 -116(5) . .
O9 S5 N102 S6 16(4) . .
O10 S5 N102 S6 151(4) . .
C5A S5 N102 S6 -97(4) . .
O11 S6 C6A F4C 35(7) . .
O12 S6 C6A F4C -100(8) . .
N102 S6 C6A F4C 145(7) . .
