#------------------------------------------------------------------------------
#$Date: 2015-09-06 01:32:58 +0300 (Sun, 06 Sep 2015) $
#$Revision: 154625 $
#$URL: svn://www.crystallography.net/cod/cif/4/12/41/4124174.cif $
#------------------------------------------------------------------------------
#
# This file is available in the Crystallography Open Database (COD),
# http://www.crystallography.net/
#
# All data on this site have been placed in the public domain by the
# contributors.
#
data_4124174
loop_
_publ_author_name
'Marshall, Ross J.'
'Griffin, Sarah L.'
'Wilson, Claire'
'Forgan, Ross S.'
_publ_section_title
;
 Single-Crystal to Single-Crystal Mechanical Contraction of Metal-Organic
 Frameworks through Stereoselective Postsynthetic Bromination.
;
_journal_issue                   30
_journal_name_full               'Journal of the American Chemical Society'
_journal_page_first              9527
_journal_page_last               9530
_journal_paper_doi               10.1021/jacs.5b05434
_journal_volume                  137
_journal_year                    2015
_chemical_formula_moiety         'C16 H10 I2 O4, 2(C2 H6 O S)'
_chemical_formula_sum            'C20 H22 I2 O6 S2'
_chemical_formula_weight         676.29
_space_group_crystal_system      triclinic
_space_group_IT_number           2
_space_group_name_Hall           '-P 1'
_space_group_name_H-M_alt        'P -1'
_symmetry_space_group_name_Hall  '-P 1'
_symmetry_space_group_name_H-M   'P -1'
_atom_sites_solution_hydrogens   geom
_atom_sites_solution_primary     iterative
_audit_creation_date             2015-05-14
_audit_creation_method
;
Olex2 1.2
(compiled 2015.01.26 svn.r3150 for OlexSys, GUI svn.r4998)
;
_cell_angle_alpha                89.817(4)
_cell_angle_beta                 83.800(4)
_cell_angle_gamma                70.889(4)
_cell_formula_units_Z            1
_cell_length_a                   5.8835(11)
_cell_length_b                   6.7768(12)
_cell_length_c                   16.356(3)
_cell_measurement_reflns_used    9955
_cell_measurement_temperature    100
_cell_measurement_theta_max      27.47
_cell_measurement_theta_min      2.51
_cell_volume                     612.23(19)
_computing_cell_refinement       'SAINT v8.34A (Bruker, 2013)'
_computing_data_reduction        'SAINT v8.34A (Bruker, 2013)'
_computing_molecular_graphics    'Olex2 (Dolomanov et al., 2009)'
_computing_publication_material  'Olex2 (Dolomanov et al., 2009)'
_computing_structure_refinement  'ShelXL (Sheldrick, 2008)'
_computing_structure_solution
;
Superflip (Palatinus & Chapuis, 2007;Palatinus & van der Lee, 2008;
Palatinus et al., 2012)
;
_diffrn_ambient_temperature      100
_diffrn_measured_fraction_theta_full 0.997
_diffrn_measured_fraction_theta_max 0.998
_diffrn_measurement_device_type  'Bruker APEX-II CCD'
_diffrn_measurement_method       '\f and \w scans'
_diffrn_radiation_type           MoK\a
_diffrn_radiation_wavelength     0.71073
_diffrn_reflns_av_R_equivalents  0.0693
_diffrn_reflns_av_unetI/netI     0.0433
_diffrn_reflns_laue_measured_fraction_full 0.997
_diffrn_reflns_laue_measured_fraction_max 0.998
_diffrn_reflns_limit_h_max       5
_diffrn_reflns_limit_h_min       -7
_diffrn_reflns_limit_k_max       8
_diffrn_reflns_limit_k_min       -8
_diffrn_reflns_limit_l_max       21
_diffrn_reflns_limit_l_min       -21
_diffrn_reflns_number            13644
_diffrn_reflns_point_group_measured_fraction_full 0.997
_diffrn_reflns_point_group_measured_fraction_max 0.998
_diffrn_reflns_theta_full        26.000
_diffrn_reflns_theta_max         27.521
_diffrn_reflns_theta_min         1.253
_diffrn_standards_number         0
_exptl_absorpt_coefficient_mu    2.771
_exptl_absorpt_correction_T_max  0.7456
_exptl_absorpt_correction_T_min  0.5643
_exptl_absorpt_correction_type   multi-scan
_exptl_absorpt_process_details
;
SADABS-2012/1 (Bruker,2012) was used for absorption correction.
wR2(int) was 0.1340 before and 0.1026 after correction.
The Ratio of minimum to maximum transmission is 0.7568.
The \l/2 correction factor is 0.0015.
;
_exptl_crystal_colour            colourless
_exptl_crystal_colour_primary    colourless
_exptl_crystal_density_diffrn    1.834
_exptl_crystal_description       plate
_exptl_crystal_F_000             328
_exptl_crystal_size_max          0.39
_exptl_crystal_size_mid          0.34
_exptl_crystal_size_min          0.04
_refine_diff_density_max         1.963
_refine_diff_density_min         -0.710
_refine_diff_density_rms         0.169
_refine_ls_extinction_method     none
_refine_ls_goodness_of_fit_ref   1.099
_refine_ls_hydrogen_treatment    constr
_refine_ls_matrix_type           full
_refine_ls_number_parameters     139
_refine_ls_number_reflns         2814
_refine_ls_number_restraints     0
_refine_ls_restrained_S_all      1.099
_refine_ls_R_factor_all          0.0364
_refine_ls_R_factor_gt           0.0350
_refine_ls_shift/su_max          0.000
_refine_ls_shift/su_mean         0.000
_refine_ls_structure_factor_coef Fsqd
_refine_ls_weighting_details
'w=1/[\s^2^(Fo^2^)+(0.0560P)^2^+0.5050P] where P=(Fo^2^+2Fc^2^)/3'
_refine_ls_weighting_scheme      calc
_refine_ls_wR_factor_gt          0.0922
_refine_ls_wR_factor_ref         0.0937
_reflns_Friedel_coverage         0.000
_reflns_number_gt                2694
_reflns_number_total             2814
_reflns_threshold_expression     'I > 2\s(I)'
_cod_data_source_file            ja5b05434_si_004.cif
_cod_data_source_block           rjm_8_036c_0m
_cod_depositor_comments
'Adding full bibliography for 4124172--4124178.cif.'
_cod_database_code               4124174
_shelx_space_group_comment
;
The symmetry employed for this shelxl refinement is uniquely defined
by the following loop, which should always be used as a source of
symmetry information in preference to the above space-group names.
They are only intended as comments.
;
_olex2_refinement_description
;
1. Fixed Uiso
 At 1.2 times of:
  All C(H) groups
 At 1.5 times of:
  All C(H,H,H) groups, All O(H) groups
2.a Aromatic/amide H refined with riding coordinates:
 C3(H3), C4(H4), C6(H6), C7(H7)
2.b Idealised Me refined as rotating group:
 C2S(H2SA,H2SB,H2SC), C3S(H3SA,H3SB,H3SC)
2.c Idealised tetrahedral OH refined as rotating group:
 O2(H2)
;
_shelx_res_file
;
    rjm_8_036c_0m.res created by SHELXL-2014/7

TITL RJM_8_036c_0m in P-1
CELL 0.71073 5.8835 6.7768 16.3559 89.8169 83.8003 70.8886
ZERR 1 0.0011 0.0012 0.003 0.004 0.004 0.0038
LATT 1
SFAC C H I O S
UNIT 20 22 2 6 2

L.S. 4 0 0
PLAN  20
MORE -1
BOND $H
CONF
fmap 2 53
acta 52
REM <olex2.extras>
REM <HklSrc "%.\\RJM_8_036c_0m.hkl">
REM </olex2.extras>

WGHT    0.056000    0.505000
FVAR       0.18275
C1    1    1.266624   -0.090637    0.290074    11.00000    0.03071    0.01855 =
         0.01957    0.00359   -0.00691   -0.00860
C2    1    1.177293    0.057567    0.223554    11.00000    0.01971    0.01737 =
         0.01363    0.00136   -0.00192   -0.00257
C3    1    1.262634    0.226095    0.213600    11.00000    0.02874    0.02457 =
         0.02289    0.00216   -0.01016   -0.01292
AFIX  43
H3    2    1.368867    0.245237    0.248546    11.00000   -1.20000
AFIX   0
C4    1    1.189890    0.364881    0.151954    11.00000    0.04129    0.02796 =
         0.02723    0.00783   -0.01168   -0.02458
AFIX  43
H4    2    1.249072    0.476110    0.145092    11.00000   -1.20000
AFIX   0
C5    1    1.028358    0.339053    0.100030    11.00000    0.04002    0.02462 =
         0.02478    0.00688   -0.01295   -0.01691
C6    1    0.942541    0.169856    0.110141    11.00000    0.03991    0.02780 =
         0.03215    0.01151   -0.01950   -0.02125
AFIX  43
H6    2    0.835380    0.151134    0.075486    11.00000   -1.20000
AFIX   0
C7    1    1.017103    0.029788    0.171844    11.00000    0.02425    0.02083 =
         0.02463    0.00460   -0.00513   -0.01280
AFIX  43
H7    2    0.959782   -0.082552    0.178528    11.00000   -1.20000
AFIX   0
PART 1
C8    1    0.940886    0.495579    0.036415    11.00000    0.03142    0.02510 =
         0.03039    0.00329   -0.00739   -0.01074
PART 0
I1    3    0.605988    0.731310    0.073150    11.00000    0.01847    0.01826 =
         0.02663   -0.00004    0.00224   -0.00203
O1    4    1.386393   -0.058078    0.340174    11.00000    0.08730    0.04139 =
         0.04538    0.02411   -0.04795   -0.04077
O2    4    1.196439   -0.256710    0.289353    11.00000    0.03245    0.02365 =
         0.02695    0.01164   -0.01487   -0.01405
AFIX 147
H2    2    1.268284   -0.341367    0.321546    11.00000   -1.50000
AFIX   0

S1    5    0.659537    0.340357    0.369177    11.00000    0.01771    0.03508 =
         0.01907   -0.00122   -0.00412   -0.00707
C2S   1    0.839247    0.486210    0.402056    11.00000    0.02357    0.05248 =
         0.03774    0.00193   -0.00451   -0.02176
AFIX 137
H2SA  2    0.813143    0.610555    0.370968    11.00000   -1.50000
H2SB  2    1.007237    0.402596    0.393364    11.00000   -1.50000
H2SC  2    0.793886    0.523816    0.459494    11.00000   -1.50000
AFIX   0
C3S   1    0.725859    0.138673    0.441717    11.00000    0.03193    0.02737 =
         0.03520    0.00260   -0.01382   -0.00144
AFIX 137
H3SA  2    0.681262    0.199414    0.496486    11.00000   -1.50000
H3SB  2    0.896002    0.061513    0.434365    11.00000   -1.50000
H3SC  2    0.636083    0.046317    0.433423    11.00000   -1.50000
AFIX   0
O1S   4    0.397038    0.471885    0.395344    11.00000    0.01635    0.02922 =
         0.02282    0.00803   -0.00558   -0.00583
HKLF 4

REM  RJM_8_036c_0m in P-1
REM R1 =  0.0350 for    2694 Fo > 4sig(Fo)  and  0.0364 for all    2814 data
REM    139 parameters refined using      0 restraints

END

WGHT      0.0556      0.5068

REM Highest difference peak  1.963,  deepest hole -0.710,  1-sigma level  0.169
Q1    1   1.0914  0.4028  0.0089  11.00000  0.05    1.96
Q2    1   0.6895  0.6799  0.1077  11.00000  0.05    1.02
Q3    1   0.6597  0.7699  0.0321  11.00000  0.05    1.02
Q4    1   1.1522  0.2657  0.0811  11.00000  0.05    0.87
Q5    1   0.7163  0.6074  0.0818  11.00000  0.05    0.72
Q6    1   0.4559  0.8110  0.0604  11.00000  0.05    0.68
Q7    1   0.5146  0.3827  0.3758  11.00000  0.05    0.56
Q8    1   0.7419  0.6061  0.0234  11.00000  0.05    0.52
Q9    1   1.6471 -0.4607  0.2210  11.00000  0.05    0.51
Q10   1   0.6124  0.6144  0.0581  11.00000  0.05    0.51
Q11   1   1.5131  0.3574  0.1836  11.00000  0.05    0.50
Q12   1   0.9769  0.3207  0.1049  11.00000  0.05    0.50
Q13   1   0.7188  0.5052  0.1366  11.00000  0.05    0.50
Q14   1   1.0832  0.1183  0.0817  11.00000  0.05    0.50
Q15   1   0.7438  0.4136  0.4002  11.00000  0.05    0.49
Q16   1   1.1604 -0.0013  0.2640  11.00000  0.05    0.49
Q17   1   1.0540  0.3800  0.1321  11.00000  0.05    0.49
Q18   1   1.2984  0.1277  0.1996  11.00000  0.05    0.48
Q19   1   0.6693  0.6773  0.3529  11.00000  0.05    0.47
Q20   1   1.2692  0.6152  0.2005  11.00000  0.05    0.47
;
_shelx_res_checksum              62818
_shelx_hkl_file
;
  -1   0   0  120.65   10.06
  -1   0   0  101.74    9.30
   1   0   0  108.34    9.30
   1   0   0  101.15   10.06
   1   0   0   96.91    9.30
   1   0   0  109.86    8.94
   1   0   0  109.19    8.94
  -2   0   0    1.96    0.21
  -2   0   0    1.53    0.20
  -2   0   0    2.19    0.22
  -2   0   0    2.27    0.28
  -2   0   0    1.50    0.20
   2   0   0    1.55    0.19
   2   0   0    1.77    0.19
  -3   0   0   76.85    7.63
  -3   0   0   73.14    7.02
  -3   0   0   87.16    6.75
  -3   0   0   82.55    7.02
  -3   0   0   92.32    6.75
   3   0   0   69.21    6.74
  -4   0   0   88.14    7.72
  -4   0   0   99.87    7.72
   4   0   0   87.14    7.71
  -5   0   0   98.82    7.83
  -5   0   0   83.82    8.53
  -5   0   0   94.81    7.83
  -5   0   0   78.79    7.51
  -6   0   0    6.81    0.62
  -6   0   0    5.71    0.66
  -6   0   0    6.04    0.84
  -6   0   0    7.50    0.85
  -7   0   0   -0.30    0.15
  -7   0   0    0.01    0.28
  -7   0   0   -0.25    0.25
  -6   1   0   15.13    1.78
  -6   1   0   17.13    1.53
  -6   1   0   17.62    1.82
  -6   1   0   17.93    1.61
  -5   1   0    1.20    0.22
  -5   1   0    0.99    0.19
  -5   1   0    1.16    0.34
  -5   1   0    1.31    0.31
   4  -1   0    7.17    0.69
  -4   1   0    8.63    0.85
  -4   1   0    8.02    0.74
  -4   1   0    6.19    0.73
  -4   1   0    6.84    0.70
   3  -1   0   94.13    7.60
  -3   1   0   91.03    7.90
  -3   1   0   85.34    8.55
  -3   1   0   89.82    7.60
   2  -1   0  150.83   13.98
   2  -1   0  147.18   13.43
   2  -1   0  144.98   12.91
  -2   1   0  160.05   14.51
  -2   1   0  149.88   12.91
  -2   1   0  145.56   12.91
  -2   1   0  168.14   13.44
  -2   1   0  163.85   13.43
   1  -1   0   62.53    5.31
   1  -1   0   69.95    5.97
   1  -1   0   53.94    5.30
   1  -1   0   69.87    5.53
  -1   1   0   62.06    5.96
  -1   1   0   55.16    5.30
  -1   1   0   60.65    5.31
  -1   1   0   65.55    5.52
  -1   1   0   68.56    5.75
   0  -1   0   10.98    1.12
   0  -1   0   10.33    1.04
   0  -1   0   12.02    1.00
   0   1   0   11.50    1.12
   0   1   0   12.32    1.04
  -1  -1   0    9.43    0.78
  -1  -1   0    8.53    0.87
  -1  -1   0    9.94    0.76
  -1  -1   0    9.37    0.78
   1   1   0    9.67    0.76
   1   1   0    8.39    0.78
  -2  -1   0  106.03    8.54
  -4  -1   0   69.82    6.70
  -5  -1   0    1.88    0.39
  -6  -1   0   22.86    2.42
  -6  -1   0   23.84    2.35
  -7  -1   0   40.62    3.85
  -7  -1   0   37.67    3.91
  -6   2   0    5.27    0.63
  -6   2   0    6.75    0.82
  -6   2   0    4.37    0.65
  -6   2   0    6.61    0.87
  -5   2   0   47.73    4.40
  -5   2   0   52.76    4.90
  -5   2   0   59.66    4.59
  -5   2   0   44.59    4.96
   4  -2   0   79.31    6.53
  -4   2   0   84.44    7.20
  -4   2   0   66.91    6.53
  -4   2   0   77.55    6.79
   3  -2   0   52.12    4.11
   3  -2   0   39.42    3.93
  -3   2   0   47.07    4.11
  -3   2   0   44.04    4.10
  -3   2   0   48.32    3.96
   2  -2   0    1.30    0.20
   2  -2   0    1.27    0.23
  -2   2   0    1.10    0.22
  -2   2   0    1.22    0.21
  -2   2   0    1.26    0.22
  -2   2   0    1.65    0.24
   1  -2   0   61.95    6.27
   1  -2   0   65.78    6.02
   1  -2   0   69.48    6.04
   1  -2   0   70.69    5.79
  -1   2   0   77.54    6.03
  -1   2   0   60.61    6.50
  -1   2   0   78.69    6.04
  -1   2   0   71.18    5.79
  -1   2   0   62.03    5.80
   0  -2   0  158.26   15.64
   0  -2   0  169.79   15.65
   0  -2   0  179.10   16.26
   0  -2   0  179.75   15.04
   0  -2   0  190.61   15.04
   0  -2   0  190.09   16.88
   0  -2   0  189.12   16.48
   0   2   0  157.68   16.40
   0   2   0  191.16   16.48
   0   2   0  182.74   15.64
   0   2   0  184.78   15.04
   0   2   0  155.84   16.27
   0   2   0  201.74   15.65
  -1  -2   0  264.86   21.17
  -1  -2   0  235.68   20.34
  -1  -2   0  222.98   22.84
  -1  -2   0  249.69   20.34
   1   2   0  265.65   21.16
   1   2   0  216.38   22.30
   1   2   0  218.65   20.34
   1   2   0  270.15   19.54
  -2  -2   0    0.61    0.09
  -2  -2   0    0.47    0.12
  -2  -2   0    0.74    0.11
  -2  -2   0    0.76    0.14
  -2  -2   0    0.62    0.09
   2   2   0    0.86    0.17
   2   2   0    0.41    0.08
   2   2   0    0.53    0.08
   2   2   0    0.69    0.10
  -3  -2   0    6.21    0.58
  -3  -2   0    4.17    0.56
   3   2   0    5.74    0.48
  -4  -2   0   34.18    2.97
  -4  -2   0   28.84    3.09
  -5  -2   0   16.63    1.55
  -5  -2   0   14.16    1.64
  -6  -2   0   16.67    2.08
  -6  -2   0   22.30    2.00
  -6  -2   0   21.28    2.04
  -7  -2   0    3.45    0.60
  -7  -2   0    3.26    0.62
  -5   3   0    8.91    1.04
  -5   3   0   10.41    1.11
  -5   3   0    7.77    0.92
  -5   3   0    8.47    0.91
  -4   3   0    0.72    0.26
  -4   3   0    0.94    0.33
  -4   3   0    1.08    0.28
  -4   3   0    1.00    0.26
   3  -3   0   19.55    1.68
   3  -3   0   16.68    1.52
  -3   3   0   17.18    1.54
  -3   3   0   17.99    1.73
  -3   3   0   15.87    1.68
  -3   3   0   13.93    1.56
   2  -3   0  175.63   14.54
   2  -3   0  165.52   13.98
  -2   3   0  179.55   14.54
  -2   3   0  163.73   13.98
  -2   3   0  175.35   15.27
  -2   3   0  137.05   14.52
   1  -3   0  116.46   11.04
   1  -3   0  121.33   10.20
   1  -3   0  119.71   10.61
  -1   3   0  131.38   10.62
  -1   3   0  106.62   10.20
  -1   3   0  130.53   11.13
   0  -3   0   36.45    2.84
   0  -3   0   32.57    2.95
   0  -3   0   30.37    2.95
   0  -3   0   30.02    3.09
   0   3   0   29.05    3.05
   0   3   0   38.71    2.85
   0   3   0   35.44    3.19
  -1  -3   0   13.53    1.35
  -1  -3   0   15.37    1.29
  -1  -3   0   12.56    1.35
   1   3   0   12.45    1.24
   1   3   0   15.18    1.37
   1   3   0   15.48    1.20
  -2  -3   0  230.94   19.42
  -2  -3   0  195.24   18.64
  -2  -3   0  216.96   19.56
  -2  -3   0  201.45   17.92
  -2  -3   0  234.87   18.65
   2   3   0  194.32   17.92
   2   3   0  223.99   17.21
  -3  -3   0  177.46   13.65
  -3  -3   0  152.63   14.81
  -3  -3   0  173.99   15.01
   3   3   0  170.66   13.13
   3   3   0  140.08   13.65
  -4  -3   0   34.25    3.36
  -4  -3   0   38.11    3.40
  -4  -3   0   37.44    2.95
   4   3   0   34.40    2.94
  -5  -3   0    5.83    0.64
  -5  -3   0    4.83    0.64
  -5  -3   0    5.63    0.73
  -5  -3   0    5.51    0.63
  -6  -3   0   19.49    2.25
  -6  -3   0   21.98    2.11
  -6  -3   0   20.56    2.13
  -6  -3   0   23.64    2.16
  -7  -3   0   38.87    3.91
  -7  -3   0   45.78    3.94
  -7  -3   0   36.56    4.05
  -5   4   0   37.50    3.71
  -5   4   0   38.34    3.31
  -5   4   0   35.18    3.40
  -4   4   0   42.99    4.34
  -4   4   0   53.96    4.49
  -4   4   0   39.82    4.09
   3  -4   0   28.63    2.52
   3  -4   0   26.81    2.29
  -3   4   0   25.73    2.38
  -3   4   0   22.17    2.29
  -3   4   0   25.52    2.57
  -3   4   0   24.89    2.50
   2  -4   0    4.14    0.49
   2  -4   0    3.87    0.52
   2  -4   0    3.71    0.48
  -2   4   0    3.81    0.51
  -2   4   0    4.51    0.53
  -2   4   0    4.29    0.50
  -2   4   0    3.13    0.49
   1  -4   0   28.50    2.92
   1  -4   0   29.33    2.80
  -1   4   0   28.22    2.90
  -1   4   0   33.21    2.71
  -1   4   0   33.63    2.80
  -1   4   0   33.06    3.03
   0  -4   0   96.95    9.03
   0  -4   0   83.16    8.25
   0  -4   0  110.55    8.60
   0   4   0   98.47    9.27
   0   4   0   99.21    8.96
  -1  -4   0   64.26    5.76
  -1  -4   0   70.86    5.54
  -1  -4   0   53.59    5.80
  -1  -4   0   55.94    5.32
  -1  -4   0   65.79    5.55
   1   4   0   68.02    5.33
   1   4   0   64.00    5.52
   1   4   0   64.79    5.97
   1   4   0   57.44    5.11
  -2  -4   0    6.21    0.63
  -2  -4   0    5.25    0.58
  -2  -4   0    6.11    0.57
  -2  -4   0    5.58    0.59
  -2  -4   0    6.55    0.61
  -2  -4   0    6.22    0.57
   2   4   0    4.99    0.54
   2   4   0    5.40    0.57
   2   4   0    6.07    0.58
  -3  -4   0    5.89    0.56
  -3  -4   0    6.40    0.59
  -3  -4   0    5.76    0.59
  -3  -4   0    7.32    0.67
  -3  -4   0    6.00    0.65
  -3  -4   0    6.11    0.56
  -3  -4   0    5.59    0.58
  -3  -4   0    5.64    0.58
   3   4   0    5.45    0.55
   3   4   0    5.55    0.54
  -4  -4   0   23.74    1.80
  -4  -4   0   21.03    2.01
  -4  -4   0   18.17    2.02
  -4  -4   0   20.51    2.00
  -4  -4   0   21.43    1.79
   4   4   0   20.46    1.77
  -5  -4   0   43.22    3.98
  -5  -4   0   41.79    4.03
  -6  -4   0   38.29    3.90
  -6  -4   0   45.80    3.88
  -6  -4   0   35.16    3.88
  -6  -4   0   45.64    4.12
  -7  -4   0    4.94    0.63
  -7  -4   0    3.04    0.70
  -4   5   0    4.54    0.63
  -4   5   0    3.44    0.64
  -4   5   0    4.15    0.64
  -4   5   0    3.16    0.52
   3  -5   0   12.19    1.16
   3  -5   0   12.58    1.27
  -3   5   0   11.68    1.18
  -3   5   0   10.09    1.22
  -3   5   0   10.25    1.25
  -3   5   0   11.78    1.20
  -2   5   0   67.43    6.26
  -2   5   0   66.71    5.79
   1  -5   0   93.28    9.22
   1  -5   0  103.80    8.86
   1  -5   0   96.43    8.51
  -1   5   0  107.40    8.54
   0  -5   0   46.96    4.32
   0  -5   0   42.60    4.48
   0   5   0   48.60    4.48
   0   5   0   53.44    4.64
   0   5   0   57.99    4.87
   0   5   0   52.01    4.34
  -1  -5   0    2.05    0.32
  -1  -5   0    1.94    0.29
  -1  -5   0    2.58    0.35
  -1  -5   0    2.43    0.33
  -1  -5   0    2.14    0.33
   1   5   0    2.31    0.32
   1   5   0    2.08    0.31
   1   5   0    1.69    0.29
   1   5   0    2.06    0.34
  -2  -5   0   65.54    6.77
  -2  -5   0   72.25    6.77
  -2  -5   0   87.93    6.52
   2   5   0   66.55    6.75
   2   5   0   89.34    6.27
   2   5   0   79.83    6.52
  -3  -5   0   73.11    7.58
  -3  -5   0   88.75    7.93
  -3  -5   0   89.48    7.61
   3   5   0   92.01    7.01
   3   5   0   88.62    7.30
  -4  -5   0   22.19    2.22
  -4  -5   0   26.93    2.14
  -4  -5   0   25.89    2.39
  -4  -5   0   24.96    2.37
  -4  -5   0   23.80    2.24
  -5  -5   0    3.40    0.47
  -5  -5   0    3.18    0.44
  -6  -5   0    2.54    0.43
  -7  -5   0   10.47    1.31
   3  -6   0   19.50    1.94
   3  -6   0   16.34    1.73
  -3   6   0   18.24    1.85
  -3   6   0   18.32    1.79
  -3   6   0   19.37    1.99
   2  -6   0   30.45    2.94
   2  -6   0   29.24    2.66
  -2   6   0   28.64    2.81
  -2   6   0   28.70    2.69
  -2   6   0   30.44    3.00
   1  -6   0    7.01    0.75
   1  -6   0    5.33    0.66
  -1   6   0    4.75    0.67
  -1   6   0    4.76    0.67
   0  -6   0   18.40    1.57
   0  -6   0   15.17    1.67
   0  -6   0   15.65    1.60
   0   6   0   17.17    1.51
   0   6   0   16.01    1.56
   0   6   0   17.13    1.72
  -1  -6   0   49.67    5.19
  -1  -6   0   59.00    5.03
  -1  -6   0   59.08    4.82
  -1  -6   0   61.50    5.24
   1   6   0   53.50    4.82
   1   6   0   52.82    4.62
  -2  -6   0   52.65    4.14
  -2  -6   0   40.67    4.28
  -2  -6   0   54.48    4.48
   2   6   0   51.25    3.97
   2   6   0   40.86    4.11
  -3  -6   0   32.18    3.09
  -3  -6   0   30.37    2.85
  -3  -6   0   31.40    3.12
   3   6   0   37.48    2.75
  -4  -6   0    2.81    0.42
  -4  -6   0    3.85    0.42
  -4  -6   0    4.16    0.51
   4   6   0    3.75    0.41
  -5  -6   0   34.76    3.31
  -5  -6   0   36.24    2.97
  -5  -6   0   33.09    3.11
  -6  -6   0   38.64    3.68
   2  -7   0   25.15    2.07
   2  -7   0   22.51    2.25
  -2   7   0   16.99    2.20
  -2   7   0   22.46    2.08
   1  -7   0   39.74    3.42
   1  -7   0   32.50    3.08
  -1   7   0   34.49    3.12
  -1   7   0   33.61    3.44
  -1   7   0   31.96    2.97
   0  -7   0    4.80    0.64
   0  -7   0    5.74    0.70
   0  -7   0    5.11    0.69
   0   7   0    5.33    0.62
   0   7   0    5.67    0.68
   0   7   0    3.72    0.62
  -1  -7   0    0.51    0.27
  -1  -7   0    0.71    0.24
  -1  -7   0    0.46    0.20
  -1  -7   0    0.43    0.22
   1   7   0    0.47    0.21
   1   7   0    0.29    0.21
  -2  -7   0    9.81    1.01
  -2  -7   0    9.00    0.94
  -2  -7   0    8.88    1.01
   2   7   0    8.40    0.89
   2   7   0   10.25    0.97
  -3  -7   0   30.86    2.63
  -3  -7   0   27.98    2.84
  -3  -7   0   29.78    2.74
   3   7   0   29.89    2.52
  -4  -7   0   12.84    1.14
  -4  -7   0   10.91    1.06
  -4  -7   0    9.65    1.18
   4   7   0   11.15    1.02
  -5  -7   0    2.05    0.41
  -5  -7   0    2.48    0.32
  -5  -7   0    2.48    0.36
  -6  -7   0    0.51    0.26
  -6  -7   0    0.56    0.20
   0  -8   0   11.54    1.23
   0  -8   0   11.16    1.34
   0   8   0   11.84    1.33
   0   8   0   12.19    1.28
   0   8   0   11.23    1.19
  -1  -8   0   20.72    2.12
  -1  -8   0   19.12    2.20
  -1  -8   0   22.80    2.07
   1   8   0   21.58    2.06
   1   8   0   25.68    2.00
  -2  -8   0   19.63    1.94
  -2  -8   0   19.16    1.86
  -2  -8   0   20.40    2.02
   2   8   0   20.33    1.79
  -3  -8   0    7.93    0.91
  -3  -8   0    8.22    0.90
  -3  -8   0    8.25    0.95
   3   8   0    8.57    0.86
  -4  -8   0    0.46    0.20
  -4  -8   0    0.75    0.27
  -4  -8   0    0.52    0.23
  -5  -8   0   13.52    1.51
  -5  -8   0   17.81    1.77
  -5  -8   0   20.55    1.66
  -5  -8   1    1.72    0.34
  -5  -8   1    1.55    0.28
  -5  -8   1    1.09    0.31
  -4  -8   1    6.96    0.78
  -4  -8   1    6.31    0.72
  -4  -8   1    6.41    0.79
   3   8  -1   22.15    1.83
  -3  -8   1   23.25    2.00
  -3  -8   1   17.38    1.87
  -3  -8   1   19.77    2.05
   2   8  -1   38.94    3.41
  -2  -8   1   39.67    3.56
  -2  -8   1   41.71    3.71
   1   8  -1    6.94    0.78
   1   8  -1    6.99    0.84
  -1  -8   1    6.70    0.79
  -1  -8   1    8.01    0.89
  -1  -8   1    5.76    0.82
   0   8  -1    0.08    0.22
   0   8  -1   -0.44    0.25
   0  -8   1    0.38    0.21
   0  -8   1    0.37    0.20
  -6  -7   1    0.05    0.14
  -5  -7   1   22.78    1.85
  -5  -7   1   22.12    1.95
  -5  -7   1   17.36    2.06
   4   7  -1   40.76    3.15
  -4  -7   1   40.23    3.27
  -4  -7   1   38.16    3.58
  -4  -7   1   31.32    3.38
   3   7  -1   32.37    2.74
  -3  -7   1   28.80    3.08
  -3  -7   1   36.39    2.99
   2   7  -1    0.00    0.18
   2   7  -1    0.16    0.14
  -2  -7   1    0.22    0.14
  -2  -7   1    0.22    0.15
  -2  -7   1    0.10    0.17
   1   7  -1   19.48    1.81
  -1  -7   1   22.32    1.83
  -1  -7   1   18.84    1.87
  -1  -7   1   16.90    1.92
   0   7  -1   69.53    5.77
   0   7  -1   67.66    6.42
   0   7  -1   73.94    5.54
   0  -7   1   70.04    6.24
   0  -7   1   55.09    5.97
   0  -7   1   62.43    5.73
  -1   7  -1   28.59    2.44
  -1   7  -1   28.31    2.79
  -1   7  -1   30.61    2.56
   1  -7   1   27.63    2.52
   1  -7   1   22.35    2.69
  -2   7  -1    6.81    0.89
  -2   7  -1    6.94    0.84
  -2   7  -1    7.89    0.95
   2  -7   1    6.76    0.95
   2  -7   1    7.53    0.89
  -6  -6   1   12.28    1.29
  -5  -6   1    2.41    0.28
  -5  -6   1    2.22    0.32
  -5  -6   1    2.70    0.43
   4   6  -1    2.45    0.32
  -4  -6   1    2.37    0.39
  -4  -6   1    2.26    0.30
  -4  -6   1    1.50    0.29
   3   6  -1   16.91    1.46
  -3  -6   1   17.74    1.68
  -3  -6   1   15.98    1.52
   2   6  -1   28.45    2.58
   2   6  -1   35.47    2.71
  -2  -6   1   31.33    2.70
  -2  -6   1   31.83    2.91
  -2  -6   1   31.56    2.81
  -2  -6   1   26.35    2.88
   1   6  -1   37.73    2.66
  -1  -6   1   33.54    2.96
  -1  -6   1   26.14    2.84
  -1  -6   1   27.02    2.95
  -1  -6   1   31.78    2.75
   0   6  -1    4.06    0.53
   0   6  -1    3.67    0.51
   0   6  -1    4.37    0.50
   0  -6   1    3.60    0.52
   0  -6   1    3.70    0.51
   0  -6   1    3.11    0.48
  -1   6  -1    8.28    0.92
  -1   6  -1    7.97    0.96
   1  -6   1    8.63    0.90
  -2   6  -1   26.72    2.30
  -2   6  -1   20.67    2.11
  -2   6  -1   24.16    2.36
  -2   6  -1   25.67    2.22
   2  -6   1   21.05    2.09
   2  -6   1   18.27    2.26
  -3   6  -1   33.58    3.66
  -3   6  -1   37.82    3.32
  -3   6  -1   34.80    3.40
   3  -6   1   40.56    3.61
   3  -6   1   36.93    3.29
  -7  -5   1   18.20    2.06
  -6  -5   1    0.79    0.20
  -5  -5   1   36.89    3.48
   4   5  -1   91.49    6.49
  -4  -5   1   73.88    7.31
  -4  -5   1   74.51    6.98
  -4  -5   1   76.33    7.00
  -4  -5   1   82.63    6.71
  -4  -5   1   78.37    7.38
   3   5  -1   63.37    4.49
  -3  -5   1   60.18    5.09
  -3  -5   1   60.81    4.87
  -3  -5   1   49.13    4.84
  -3  -5   1   48.82    4.65
  -3  -5   1   46.46    5.05
   2   5  -1    2.07    0.28
   2   5  -1    2.18    0.31
   2   5  -1    2.53    0.31
  -2  -5   1    2.13    0.28
  -2  -5   1    1.89    0.30
  -2  -5   1    2.55    0.31
  -2  -5   1    2.83    0.36
  -2  -5   1    1.79    0.32
   1   5  -1   21.63    1.84
   1   5  -1   21.29    1.88
   1   5  -1   21.24    1.76
  -1  -5   1   18.39    1.94
  -1  -5   1   21.39    1.97
  -1  -5   1   20.62    1.92
  -1  -5   1   20.26    1.82
  -1  -5   1   19.25    1.89
   0   5  -1   71.52    7.04
   0   5  -1   71.82    6.79
   0   5  -1   72.56    6.05
   0   5  -1   67.60    6.29
   0   5  -1   76.51    6.53
   0  -5   1   83.06    6.56
   0  -5   1   67.23    6.80
   0  -5   1   80.50    6.30
  -1   5  -1   58.76    5.28
  -1   5  -1   56.31    5.10
  -1   5  -1   61.18    5.72
  -1   5  -1   61.26    5.50
   1  -5   1   58.50    5.09
  -2   5  -1   16.72    1.45
  -2   5  -1   15.76    1.50
  -2   5  -1   13.84    1.44
  -2   5  -1   15.13    1.57
   2  -5   1   14.67    1.40
   2  -5   1   12.63    1.52
  -3   5  -1   -0.01    0.21
  -3   5  -1    0.03    0.19
   3  -5   1   -0.27    0.14
   3  -5   1   -0.15    0.18
  -4   5  -1    4.20    0.73
  -4   5  -1    4.30    0.65
  -4   5  -1    5.13    0.69
  -4   5  -1    5.14    0.65
  -7  -4   1    7.05    0.82
  -7  -4   1    5.75    0.95
  -6  -4   1   16.07    1.72
  -6  -4   1   17.68    1.92
  -6  -4   1   18.64    1.81
  -6  -4   1   18.16    1.78
   5   4  -1   19.06    1.62
  -5  -4   1   18.35    1.86
  -5  -4   1   20.24    1.89
   4   4  -1    2.62    0.34
  -4  -4   1    3.49    0.42
  -4  -4   1    3.03    0.39
  -4  -4   1    3.21    0.31
   3   4  -1   17.77    1.56
   3   4  -1   18.88    1.51
  -3  -4   1   19.77    1.63
  -3  -4   1   19.84    1.57
  -3  -4   1   18.81    1.57
  -3  -4   1   18.16    1.73
  -3  -4   1   15.84    1.68
  -3  -4   1   15.38    1.62
   2   4  -1  103.54    9.03
   2   4  -1  112.55    9.39
   2   4  -1  116.33    9.89
  -2  -4   1  118.10    9.88
  -2  -4   1  103.34    9.40
  -2  -4   1   89.35    9.39
   1   4  -1   91.31    8.72
   1   4  -1  105.60    8.38
   1   4  -1  107.27    9.06
  -1  -4   1  103.99    9.43
  -1  -4   1   91.06    9.07
  -1  -4   1  115.62    9.08
  -1  -4   1  108.53    8.72
   0   4  -1   45.78    4.19
   0   4  -1   46.76    4.34
   0   4  -1   46.86    4.52
   0   4  -1   51.56    4.70
   0  -4   1   51.90    4.19
   0  -4   1   49.01    4.36
   0  -4   1   51.39    4.54
   0  -4   1   51.84    4.56
   0  -4   1   45.81    4.36
  -1   4  -1    0.33    0.16
  -1   4  -1    0.42    0.15
  -1   4  -1    0.17    0.15
  -1   4  -1    0.21    0.14
   1  -4   1    0.16    0.15
   1  -4   1    0.40    0.16
   1  -4   1    0.36    0.16
  -2   4  -1   40.44    2.93
  -2   4  -1   30.25    3.22
  -2   4  -1   32.55    2.99
  -2   4  -1   29.93    3.12
  -3   4  -1  111.61    9.82
  -3   4  -1   94.84   10.58
  -3   4  -1  121.06    9.48
   3  -4   1  109.86    9.44
   3  -4   1  120.22   10.26
  -4   4  -1   37.30    3.09
  -4   4  -1   36.71    3.44
  -4   4  -1   34.86    3.17
  -4   4  -1   29.37    3.33
  -5   4  -1    2.21    0.53
  -5   4  -1    1.99    0.42
  -5   4  -1    3.16    0.53
  -5   4  -1    2.02    0.42
  -7  -3   1    4.07    0.66
  -7  -3   1    4.93    0.64
  -7  -3   1    4.00    0.60
  -6  -3   1    3.34    0.61
  -6  -3   1    3.23    0.46
  -6  -3   1    2.67    0.41
  -5  -3   1   95.74    8.30
  -5  -3   1   90.12    8.67
  -5  -3   1   85.17    8.40
   4   3  -1  109.02    9.18
  -4  -3   1  118.37   10.37
   3   3  -1   32.97    2.89
   3   3  -1   32.24    2.98
  -3  -3   1   34.58    3.11
  -3  -3   1   35.49    3.27
  -3  -3   1   34.01    3.30
  -3  -3   1   36.51    2.99
  -3  -3   1   40.98    2.99
   2   3  -1    3.48    0.36
   2   3  -1    3.39    0.34
   2   3  -1    3.70    0.35
   2   3  -1    3.27    0.33
  -2  -3   1    3.53    0.35
  -2  -3   1    3.31    0.34
  -2  -3   1    2.79    0.34
  -2  -3   1    3.34    0.38
  -2  -3   1    3.16    0.35
  -2  -3   1    3.49    0.34
   1   3  -1   -0.08    0.08
   1   3  -1   -0.06    0.09
   1   3  -1    0.30    0.13
   1   3  -1   -0.17    0.04
  -1  -3   1   -0.04    0.09
  -1  -3   1    0.00    0.08
  -1  -3   1   -0.06    0.08
  -1  -3   1   -0.03    0.09
  -1  -3   1   -0.01    0.09
  -1  -3   1   -0.04    0.08
   0   3  -1  111.62    9.19
   0   3  -1   98.36    9.99
   0  -3   1  102.64    9.56
   0  -3   1  106.95    9.55
   0  -3   1  118.09    9.19
   0  -3   1  116.96   10.05
  -1   3  -1   82.19    6.25
  -1   3  -1   76.40    6.02
  -1   3  -1   73.43    6.25
   1  -3   1   59.59    6.50
   1  -3   1   67.69    6.01
   1  -3   1   66.02    6.25
  -2   3  -1   28.93    3.15
  -2   3  -1   32.98    2.93
  -2   3  -1   31.26    2.83
  -2   3  -1   29.94    3.08
  -2   3  -1   37.02    2.95
   2  -3   1   35.76    3.09
   2  -3   1   31.08    2.93
   2  -3   1   34.67    2.83
  -3   3  -1   33.11    3.32
  -3   3  -1   31.26    2.96
  -3   3  -1   33.61    3.07
   3  -3   1   35.70    2.96
   3  -3   1   36.27    3.22
  -4   3  -1    1.18    0.33
  -4   3  -1    0.55    0.23
  -4   3  -1    0.69    0.22
  -4   3  -1    0.72    0.25
  -5   3  -1   39.45    3.50
  -5   3  -1   40.58    3.82
  -5   3  -1   34.81    3.74
  -5   3  -1   38.76    3.39
  -7  -2   1    5.66    0.76
  -7  -2   1    5.78    0.84
  -6  -2   1   38.65    4.52
  -6  -2   1   52.75    4.32
  -5  -2   1   91.36    8.93
  -5  -2   1   94.56    8.54
  -4  -2   1   64.78    6.92
  -4  -2   1   79.57    6.64
   3   2  -1   29.75    2.55
  -3  -2   1   34.76    2.55
  -3  -2   1   28.58    2.88
   2   2  -1  207.54   17.56
   2   2  -1  236.55   19.81
  -2  -2   1  244.45   20.04
  -2  -2   1  235.59   19.01
  -2  -2   1  209.64   18.27
  -2  -2   1  197.93   18.27
  -2  -2   1  222.32   19.01
  -2  -2   1  192.60   17.55
   1   2  -1  481.94   36.45
   1   2  -1  366.94   37.90
   1   2  -1  429.52   36.45
   1   2  -1  465.28   35.03
  -1  -2   1  461.76   36.45
  -1  -2   1  423.15   39.84
  -1  -2   1  399.94   34.99
  -1  -2   1  505.52   40.04
  -1  -2   1  384.85   36.44
   0   2  -1  331.86   31.14
   0   2  -1  301.62   29.93
   0   2  -1  379.20   29.93
   0   2  -1  363.52   32.38
   0   2  -1  343.95   31.13
   0  -2   1  396.73   31.14
   0  -2   1  364.55   29.93
   0  -2   1  393.89   33.60
   0  -2   1  342.08   32.80
   0  -2   1  393.36   29.94
   0  -2   1  323.29   31.13
  -1   2  -1   35.16    3.27
  -1   2  -1   39.28    3.27
  -1   2  -1   40.55    3.15
  -1   2  -1   43.11    3.53
  -1   2  -1   31.57    3.42
  -1   2  -1   39.02    3.15
   1  -2   1   32.31    3.41
   1  -2   1   38.63    3.28
   1  -2   1   36.58    3.15
   1  -2   1   32.14    3.26
  -2   2  -1   86.48    6.58
  -2   2  -1   74.57    6.32
  -2   2  -1   74.69    6.91
  -2   2  -1   78.86    7.09
   2  -2   1   68.77    6.84
   2  -2   1   65.14    6.31
  -3   2  -1  156.70   15.55
  -3   2  -1  177.98   15.97
  -3   2  -1  158.43   14.22
   3  -2   1  186.32   14.22
   3  -2   1  165.93   14.78
  -4   2  -1   71.34    6.51
  -4   2  -1   72.20    6.38
  -4   2  -1   67.11    5.80
  -4   2  -1   69.81    6.01
   4  -2   1   59.89    5.77
  -5   2  -1   10.91    1.22
  -5   2  -1    9.91    1.01
  -5   2  -1    9.55    1.05
  -5   2  -1   11.76    1.18
  -6   2  -1    0.87    0.23
  -6   2  -1    0.53    0.25
  -6   2  -1    0.40    0.28
  -6   2  -1    1.09    0.39
  -7  -1   1   15.23    1.71
  -7  -1   1   16.92    1.80
  -6  -1   1    0.31    0.19
  -5  -1   1    8.17    0.97
  -4  -1   1   45.31    3.82
  -3  -1   1   69.75    5.84
  -3  -1   1   65.43    6.86
  -3  -1   1   79.96    6.05
   2   1  -1  166.27   13.81
   2   1  -1  167.25   13.81
   2   1  -1  155.55   13.28
  -2  -1   1  151.50   13.81
  -2  -1   1  184.77   13.83
   1   1  -1   18.69    1.45
   1   1  -1   18.76    1.40
   1   1  -1   15.55    1.45
  -1  -1   1   14.84    1.57
  -1  -1   1   19.04    1.45
  -1  -1   1   15.98    1.50
  -1  -1   1   18.70    1.45
  -1  -1   1   15.91    1.40
  -1  -1   1   15.84    1.51
   0   1  -1    7.12    0.60
   0   1  -1    5.61    0.59
   0   1  -1    6.22    0.55
   0   1  -1    6.91    0.62
   0   1  -1    6.15    0.63
   0   1  -1    7.45    0.57
   0   1  -1    5.96    0.61
   0   1  -1    6.80    0.58
   0  -1   1    5.38    0.59
   0  -1   1    7.03    0.61
   0  -1   1    6.88    0.62
   0  -1   1    6.65    0.59
   0  -1   1    6.57    0.64
  -1   1  -1  287.58   21.64
  -1   1  -1  287.93   22.51
  -1   1  -1  278.73   23.42
  -1   1  -1  248.63   23.63
  -1   1  -1  218.69   24.27
   1  -1   1  218.54   24.28
   1  -1   1  255.39   22.51
   1  -1   1  268.29   21.63
   1  -1   1  262.27   21.64
  -2   1  -1  247.90   19.59
  -2   1  -1  213.37   18.82
  -2   1  -1  225.64   18.83
   2  -1   1  211.83   18.82
  -3   1  -1   89.23    7.18
  -3   1  -1   78.68    7.87
  -3   1  -1   87.85    7.47
  -3   1  -1   77.78    7.18
  -3   1  -1   92.33    8.09
   3  -1   1   81.38    7.45
   3  -1   1   88.80    7.18
  -4   1  -1    0.06    0.11
  -4   1  -1    0.11    0.19
  -4   1  -1    0.18    0.12
  -4   1  -1    0.43    0.17
  -4   1  -1    0.11    0.12
   4  -1   1    0.08    0.10
  -5   1  -1   22.42    2.37
  -5   1  -1   29.90    2.31
  -5   1  -1   24.18    2.61
  -5   1  -1   29.34    2.62
  -6   1  -1   59.63    5.99
  -6   1  -1   58.89    5.58
  -6   1  -1   69.88    6.13
  -6   1  -1   63.84    5.37
  -7   0   1    3.89    0.67
  -7   0   1    3.63    0.62
  -7   0   1    2.77    0.43
  -6   0   1   28.28    2.99
  -6   0   1   37.95    2.88
  -6   0   1   34.65    3.38
  -5   0   1   81.91    7.21
  -5   0   1   69.52    7.86
  -5   0   1   92.08    6.93
  -5   0   1   83.36    7.21
   4   0  -1   51.36    4.37
  -4   0   1   55.66    4.38
  -4   0   1   50.16    4.55
  -4   0   1   49.29    4.56
  -4   0   1   52.04    4.38
   3   0  -1   10.58    0.86
  -3   0   1    8.84    0.90
  -3   0   1    9.20    0.90
  -3   0   1   10.89    1.06
  -3   0   1    9.54    0.87
   2   0  -1  311.31   23.94
   2   0  -1  252.03   23.94
   2   0  -1  284.21   24.90
  -2   0   1  305.93   24.90
  -2   0   1  241.64   23.94
  -2   0   1  308.12   23.94
  -2   0   1  299.70   26.92
   1   0  -1    1.31    0.27
   1   0  -1    1.33    0.20
   1   0  -1    1.47    0.21
   1   0  -1    1.88    0.21
  -1   0   1    1.72    0.22
  -1   0   1    1.61    0.20
  -1   0   1    1.80    0.21
  -1   0   1    1.79    0.27
  -1   0   1    1.86    0.22
   0   0  -1  133.64    9.71
   0   0  -1  105.47   10.09
   0   0  -1  124.05   10.90
   0   0  -1  114.31   10.10
   0   0  -1   99.79   10.59
   0   0   1  118.22   10.90
   0   0   1  122.29   10.09
   0   0   1  114.65    9.71
   0   0   1  130.83    9.32
   0   0   1  102.39   10.63
   0   0   1  116.73   10.59
   0   0   1  107.89   10.10
  -1   0  -1   21.98    1.69
  -1   0  -1   18.21    1.76
  -1   0  -1   21.74    1.91
   1   0   1   18.41    1.69
   1   0   1   18.84    1.76
   1   0   1   19.40    1.91
   1   0   1   21.68    1.69
  -2   0  -1    0.54    0.11
  -2   0  -1    0.46    0.11
  -2   0  -1    0.90    0.13
  -2   0  -1    0.77    0.17
  -2   0  -1    0.86    0.12
   2   0   1    0.67    0.12
   2   0   1    0.55    0.11
   2   0   1    0.86    0.19
  -3   0  -1  107.23    8.09
  -3   0  -1   77.80    7.77
  -3   0  -1   81.62    8.77
  -3   0  -1  105.38    7.77
  -3   0  -1   79.98    8.08
   3   0   1  102.91    7.77
  -4   0  -1   13.53    1.51
  -4   0  -1   19.56    1.47
  -4   0  -1   17.61    1.46
  -5   0  -1   21.62    1.79
  -5   0  -1   20.42    2.07
  -5   0  -1   22.24    1.87
  -5   0  -1   20.47    2.10
  -5   0  -1   18.51    1.86
  -6   0  -1    8.22    0.82
  -6   0  -1    9.17    1.00
  -6   0  -1    7.74    1.01
  -6   0  -1    8.15    0.76
  -7   0  -1    1.62    0.45
  -7   0  -1    1.01    0.38
  -6   1   1    9.56    0.96
  -6   1   1    8.50    1.09
  -6   1   1   10.17    1.13
  -6   1   1    9.11    0.90
  -5   1   1    0.52    0.15
  -5   1   1    0.50    0.17
  -5   1   1    0.48    0.24
   4  -1  -1   40.26    3.19
  -4   1   1   36.34    3.31
  -4   1   1   32.63    3.32
  -4   1   1   39.23    3.19
   3  -1  -1   63.65    5.13
   3  -1  -1   64.12    5.34
  -3   1   1   56.75    5.14
  -3   1   1   49.37    5.34
  -3   1   1   66.79    5.35
  -3   1   1   63.36    5.81
   2  -1  -1  222.27   19.58
   2  -1  -1  236.68   18.82
   2  -1  -1  216.38   18.09
  -2   1   1  203.35   18.82
  -2   1   1  186.01   18.09
  -2   1   1  226.74   20.34
  -2   1   1  210.04   18.83
  -2   1   1  225.80   18.10
   1  -1  -1  191.42   17.02
   1  -1  -1  207.36   15.53
   1  -1  -1  188.42   15.52
  -1   1   1  191.40   15.52
  -1   1   1  154.94   16.14
  -1   1   1  178.37   15.52
  -1   1   1  184.63   16.15
   0  -1  -1    2.70    0.33
   0  -1  -1    3.67    0.34
   0  -1  -1    3.97    0.33
   0  -1  -1    3.32    0.32
   0   1   1    3.04    0.36
   0   1   1    2.76    0.36
   0   1   1    3.02    0.32
   0   1   1    2.70    0.32
   0   1   1    3.46    0.34
  -1  -1  -1  891.60   74.45
  -1  -1  -1  751.30   67.79
  -1  -1  -1  699.56   70.52
  -1  -1  -1  852.42   73.48
  -1  -1  -1  874.06   67.81
  -1  -1  -1  821.03   70.54
  -1  -1  -1  722.88   74.07
   1   1   1  829.81   73.46
   1   1   1  765.90   67.80
   1   1   1  898.02   65.09
   1   1   1  809.59   74.41
  -4  -1  -1    1.22    0.28
  -4  -1  -1    1.86    0.23
  -5  -1  -1   61.87    5.78
  -5  -1  -1   57.74    5.61
  -6  -1  -1   30.26    3.48
  -6  -1  -1   40.72    3.45
  -7  -1  -1   14.87    1.61
  -7  -1  -1   14.43    1.61
  -6   2   1   31.06    2.97
  -6   2   1   28.39    2.67
  -6   2   1   29.18    2.93
  -6   2   1   27.62    2.57
  -5   2   1   58.68    5.00
  -5   2   1   49.23    5.06
  -5   2   1   50.12    4.48
  -5   2   1   50.61    4.65
   4  -2  -1   28.81    2.77
  -4   2   1   35.55    2.80
  -4   2   1   25.76    3.13
  -4   2   1   38.16    2.92
   3  -2  -1    2.32    0.30
   3  -2  -1    2.20    0.30
   3  -2  -1    2.84    0.34
  -3   2   1    1.44    0.29
  -3   2   1    2.09    0.31
  -3   2   1    2.87    0.36
  -3   2   1    1.58    0.28
   2  -2  -1   77.71    8.33
   2  -2  -1   87.80    7.69
  -2   2   1  101.86    8.66
  -2   2   1   97.82    7.72
   1  -2  -1  107.02   11.74
   1  -2  -1  134.05   10.72
  -1   2   1  126.17   11.15
  -1   2   1  146.52   10.73
  -1   2   1  118.53   12.03
  -1   2   1  121.56   10.72
  -1   2   1  138.91   11.17
   0  -2  -1  162.91   15.80
   0  -2  -1  178.62   16.43
   0  -2  -1  183.42   15.18
   0  -2  -1  166.86   15.18
   0  -2  -1  170.46   17.04
   0   2   1  205.26   16.65
   0   2   1  194.57   15.19
   0   2   1  176.92   15.79
   0   2   1  194.68   17.05
   0   2   1  154.96   15.79
   0   2   1  205.21   16.43
   0   2   1  178.98   15.18
  -1  -2  -1   76.23    8.19
  -1  -2  -1   97.86    7.77
  -1  -2  -1   96.89    7.47
  -1  -2  -1   88.38    7.76
  -1  -2  -1   90.09    7.46
  -1  -2  -1   89.34    8.09
   1   2   1   74.37    7.46
   1   2   1   89.30    8.09
   1   2   1   97.76    7.46
   1   2   1   94.58    7.76
   1   2   1   82.67    7.76
  -2  -2  -1   13.26    1.44
  -2  -2  -1   16.52    1.45
  -2  -2  -1   16.00    1.43
  -2  -2  -1   14.53    1.29
   2   2   1   14.75    1.29
   2   2   1   15.41    1.24
  -3  -2  -1   30.37    2.93
  -3  -2  -1   32.01    2.91
  -4  -2  -1   93.94    9.68
  -4  -2  -1  104.25    9.41
  -4  -2  -1  106.98    8.21
  -5  -2  -1   75.73    6.79
  -5  -2  -1   69.63    7.00
  -6  -2  -1   17.36    2.10
  -6  -2  -1   23.76    2.09
  -7  -2  -1    0.21    0.28
  -5   3   1    2.30    0.48
  -5   3   1    2.55    0.43
  -5   3   1    2.46    0.41
  -5   3   1    2.79    0.53
  -4   3   1   27.45    2.61
  -4   3   1   25.83    2.44
  -4   3   1   26.35    2.65
  -4   3   1   25.70    2.35
   3  -3  -1   86.69    8.08
   3  -3  -1   95.25    7.47
  -3   3   1   91.35    7.47
  -3   3   1   76.94    7.74
  -3   3   1   89.06    8.38
   2  -3  -1  214.58   17.73
   2  -3  -1  210.81   18.44
  -2   3   1  207.44   18.44
   1  -3  -1   56.82    4.71
   1  -3  -1   52.64    5.16
   1  -3  -1   59.50    4.91
  -1   3   1   51.31    4.90
  -1   3   1   61.29    4.92
  -1   3   1   49.98    4.72
  -1   3   1   56.30    5.29
   0  -3  -1    7.48    0.76
   0  -3  -1    7.52    0.73
   0  -3  -1    7.92    0.77
   0  -3  -1    8.42    0.79
   0   3   1    7.01    0.76
   0   3   1    7.14    0.74
   0   3   1    9.11    0.84
  -1  -3  -1   42.85    3.96
  -1  -3  -1   43.12    3.95
  -1  -3  -1   51.10    4.13
  -1  -3  -1   45.51    3.80
  -1  -3  -1   41.22    3.80
   1   3   1   45.27    3.81
  -2  -3  -1  310.60   26.58
  -2  -3  -1  326.77   26.58
  -2  -3  -1  349.84   29.17
  -2  -3  -1  350.87   28.79
  -2  -3  -1  274.26   27.64
  -2  -3  -1  275.41   27.65
   2   3   1  335.00   27.64
  -3  -3  -1   94.10    8.36
  -3  -3  -1   89.99    7.58
  -3  -3  -1   92.15    7.57
  -3  -3  -1   97.92    8.26
  -3  -3  -1   80.38    8.29
   3   3   1   76.33    7.57
   3   3   1  102.05    7.29
  -4  -3  -1    1.59    0.25
  -4  -3  -1    0.81    0.21
  -4  -3  -1    1.41    0.17
  -4  -3  -1    1.38    0.25
  -5  -3  -1   14.39    1.39
  -5  -3  -1   11.11    1.36
  -5  -3  -1   14.42    1.39
  -5  -3  -1   15.22    1.49
  -6  -3  -1    7.20    0.86
  -6  -3  -1    7.45    0.86
  -6  -3  -1    6.71    0.96
  -6  -3  -1    9.09    0.91
  -7  -3  -1   11.20    1.28
  -7  -3  -1   10.57    1.27
  -7  -3  -1   14.36    1.42
  -5   4   1   12.12    1.31
  -5   4   1   10.48    1.15
  -5   4   1   11.78    1.19
  -5   4   1    9.97    1.28
  -4   4   1   18.69    1.72
  -4   4   1   15.92    1.83
  -4   4   1   19.44    1.85
  -4   4   1   16.07    1.64
   3  -4  -1   22.89    2.13
   3  -4  -1   26.23    2.34
  -3   4   1   20.71    2.12
  -3   4   1   24.90    2.33
   2  -4  -1    0.92    0.23
   2  -4  -1    0.74    0.22
   2  -4  -1    0.58    0.20
  -2   4   1    0.49    0.20
  -2   4   1    0.63    0.22
  -2   4   1    0.56    0.22
  -2   4   1    0.80    0.23
   1  -4  -1   30.05    2.71
   1  -4  -1   32.78    2.95
   1  -4  -1   31.14    2.96
   1  -4  -1   28.78    2.81
  -1   4   1   30.84    2.92
  -1   4   1   31.60    2.72
  -1   4   1   30.79    3.04
  -1   4   1   32.72    2.82
   0  -4  -1  154.42   12.22
   0  -4  -1  145.46   13.21
   0  -4  -1  152.65   12.72
   0   4   1  143.13   12.22
   0   4   1  129.97   13.28
  -1  -4  -1  240.87   19.26
  -1  -4  -1  200.87   20.03
  -1  -4  -1  208.96   19.26
  -1  -4  -1  229.57   20.27
  -1  -4  -1  211.26   18.51
   1   4   1  231.29   18.52
  -2  -4  -1   30.50    2.75
  -2  -4  -1   27.21    2.61
  -2  -4  -1   32.69    2.52
  -2  -4  -1   27.25    2.62
   2   4   1   31.91    2.42
   2   4   1   28.47    2.60
   2   4   1   26.74    2.51
  -3  -4  -1   14.21    1.62
  -3  -4  -1   17.25    1.45
  -3  -4  -1   14.93    1.45
  -3  -4  -1   18.64    1.53
   3   4   1   18.21    1.46
   3   4   1   16.72    1.39
  -4  -4  -1   54.07    4.74
  -4  -4  -1   43.88    4.29
  -4  -4  -1   56.06    4.30
  -4  -4  -1   50.45    4.73
  -5  -4  -1   45.39    4.04
  -5  -4  -1   36.77    3.98
  -5  -4  -1   45.95    4.00
  -6  -4  -1   63.19    5.66
  -6  -4  -1   52.85    5.56
  -6  -4  -1   63.95    5.87
  -7  -4  -1    0.05    0.20
  -7  -4  -1   -0.02    0.27
   4  -5  -1    7.92    0.93
  -4   5   1    7.50    0.93
  -4   5   1    7.79    0.87
  -4   5   1    6.45    0.85
  -4   5   1    6.22    0.90
   3  -5  -1   49.79    3.83
   3  -5  -1   40.90    4.13
  -3   5   1   48.23    4.29
  -3   5   1   35.89    4.11
  -3   5   1   40.55    3.81
  -3   5   1   45.31    3.96
   2  -5  -1   50.69    4.53
   2  -5  -1   47.21    4.91
  -2   5   1   56.82    4.56
  -2   5   1   49.50    4.90
  -2   5   1   57.11    4.71
   1  -5  -1   17.98    1.74
   1  -5  -1   13.89    1.57
   1  -5  -1   20.49    1.68
  -1   5   1   18.31    1.61
  -1   5   1   17.95    1.65
  -1   5   1   18.31    1.80
  -1   5   1   15.04    1.66
   0  -5  -1    4.29    0.53
   0  -5  -1    5.44    0.56
   0  -5  -1    4.57    0.54
   0   5   1    4.23    0.53
   0   5   1    3.15    0.53
   0   5   1    4.89    0.47
   0   5   1    4.66    0.54
  -1  -5  -1   25.92    2.33
  -1  -5  -1   27.42    2.24
  -1  -5  -1   22.27    2.26
  -1  -5  -1   19.93    2.13
   1   5   1   24.66    2.22
   1   5   1   25.88    2.41
   1   5   1   24.39    2.15
  -2  -5  -1   21.16    2.15
  -2  -5  -1   26.05    2.26
  -2  -5  -1   23.08    2.34
  -2  -5  -1   26.86    2.25
   2   5   1   26.01    2.08
   2   5   1   24.27    2.16
   2   5   1   25.36    2.23
  -3  -5  -1   54.55    4.78
  -3  -5  -1   50.04    4.56
  -3  -5  -1   46.00    4.54
  -3  -5  -1   50.12    4.37
  -3  -5  -1   54.51    4.81
   3   5   1   50.65    4.20
   3   5   1   53.91    4.38
  -4  -5  -1    9.68    1.04
  -4  -5  -1   12.30    1.17
  -4  -5  -1   12.48    1.18
  -4  -5  -1   10.90    1.06
  -4  -5  -1    9.73    0.99
   4   5   1   12.69    0.98
  -5  -5  -1    0.48    0.19
  -5  -5  -1    0.39    0.19
  -6  -5  -1    4.00    0.55
  -7  -5  -1    9.10    1.01
  -7  -5  -1    7.30    1.06
   3  -6  -1    8.14    0.88
   3  -6  -1    7.54    0.94
  -3   6   1    6.55    0.91
  -3   6   1    7.17    0.89
   2  -6  -1    1.74    0.39
   2  -6  -1    2.03    0.40
  -2   6   1    1.51    0.37
  -2   6   1    1.60    0.36
   1  -6  -1   11.84    1.23
   1  -6  -1    9.89    1.10
  -1   6   1   10.41    1.13
  -1   6   1   12.02    1.26
   0  -6  -1   74.57    7.20
   0  -6  -1   83.63    7.18
   0  -6  -1   73.19    6.61
   0  -6  -1   68.26    6.86
   0   6   1   78.23    6.63
   0   6   1   85.98    7.43
  -1  -6  -1   90.50    7.92
  -1  -6  -1   77.59    8.62
  -1  -6  -1  106.32    8.26
  -1  -6  -1   98.58    8.57
   1   6   1   92.41    7.93
   1   6   1   86.25    7.60
   1   6   1  100.82    8.89
  -2  -6  -1    1.87    0.29
  -2  -6  -1    1.75    0.34
  -2  -6  -1    2.00    0.33
  -2  -6  -1    1.75    0.31
   2   6   1    2.12    0.34
   2   6   1    2.22    0.33
  -3  -6  -1    6.53    0.69
  -3  -6  -1    5.72    0.76
  -3  -6  -1    7.88    0.75
  -3  -6  -1    7.08    0.73
   3   6   1    6.61    0.65
  -4  -6  -1   37.44    3.02
  -4  -6  -1   34.60    2.87
  -4  -6  -1   30.95    3.15
  -4  -6  -1   33.48    3.16
   4   6   1   29.92    2.75
  -5  -6  -1   38.62    3.33
  -5  -6  -1   39.57    3.49
  -6  -6  -1    2.99    0.52
   2  -7  -1   22.01    2.01
   2  -7  -1   25.16    2.26
  -2   7   1   19.93    2.02
  -2   7   1   17.78    2.19
   1  -7  -1   45.81    4.05
   1  -7  -1   53.58    4.47
  -1   7   1   43.76    4.52
  -1   7   1   41.23    4.06
   0  -7  -1    0.26    0.15
   0  -7  -1   -0.14    0.18
   0   7   1    0.11    0.20
   0   7   1    0.06    0.21
   0   7   1    0.24    0.19
  -1  -7  -1    1.37    0.31
  -1  -7  -1    1.11    0.28
  -1  -7  -1    1.14    0.31
  -1  -7  -1    1.30    0.27
   1   7   1    1.40    0.30
   1   7   1    0.89    0.29
  -2  -7  -1   19.69    1.84
  -2  -7  -1   19.87    1.98
  -2  -7  -1   16.66    1.94
  -2  -7  -1   21.69    1.94
   2   7   1   22.34    1.78
   2   7   1   21.10    1.86
  -3  -7  -1   29.83    2.54
  -3  -7  -1   28.08    2.76
  -3  -7  -1   29.85    2.65
   3   7   1   26.53    2.42
  -4  -7  -1   44.99    3.70
  -4  -7  -1   41.45    3.86
   4   7   1   41.65    3.55
  -5  -7  -1    3.00    0.53
  -5  -7  -1    3.18    0.45
  -5  -7  -1    3.63    0.39
  -6  -7  -1    2.88    0.52
   0  -8  -1   31.40    2.77
   0  -8  -1   28.72    2.51
   0   8   1   26.13    2.76
   0   8   1   28.16    2.53
   0   8   1   21.45    2.35
  -1  -8  -1   24.91    2.75
  -1  -8  -1   30.25    2.67
  -1  -8  -1   33.43    2.92
   1   8   1   26.67    2.65
   1   8   1   31.26    2.56
  -2  -8  -1    7.84    0.87
  -2  -8  -1    6.75    0.78
  -2  -8  -1    5.77    0.79
   2   8   1    7.38    0.77
  -3  -8  -1    0.23    0.22
  -3  -8  -1    0.31    0.17
  -3  -8  -1    0.28    0.21
   3   8   1    0.61    0.20
  -4  -8  -1    7.36    0.82
  -4  -8  -1    7.86    0.80
  -4  -8  -1    7.10    0.89
  -5  -8  -1   13.82    1.24
  -5  -8  -1   11.13    1.39
  -5  -8  -1   14.23    1.32
  -5  -8   2   -0.24    0.14
  -5  -8   2   -0.18    0.12
  -5  -8   2    0.16    0.14
   4   8  -2    3.45    0.49
  -4  -8   2    3.68    0.45
  -4  -8   2    3.02    0.52
  -4  -8   2    3.25    0.48
   3   8  -2   12.28    1.24
  -3  -8   2   14.25    1.37
  -3  -8   2   13.37    1.31
   2   8  -2   19.58    1.96
  -2  -8   2   22.88    2.24
  -2  -8   2   24.98    2.17
  -2  -8   2   21.66    2.06
   1   8  -2    3.60    0.56
   1   8  -2    4.58    0.58
  -1  -8   2    3.17    0.56
  -1  -8   2    3.98    0.60
  -1  -8   2    3.90    0.64
   0   8  -2    0.33    0.23
   0   8  -2   -0.48    0.21
   0  -8   2   -0.55    0.20
   0  -8   2   -0.17    0.24
  -6  -7   2   14.70    1.39
  -5  -7   2   31.88    2.60
  -5  -7   2   29.24    2.72
  -5  -7   2   28.11    2.88
   4   7  -2   12.80    1.07
  -4  -7   2   11.87    1.21
  -4  -7   2    9.69    1.07
  -4  -7   2   11.76    1.15
   3   7  -2    2.90    0.41
  -3  -7   2    2.36    0.40
  -3  -7   2    2.93    0.46
  -3  -7   2    3.00    0.41
   2   7  -2    8.55    1.00
   2   7  -2   10.38    0.99
  -2  -7   2   12.48    1.07
  -2  -7   2   10.37    1.10
  -2  -7   2   10.03    1.07
   1   7  -2   25.12    2.22
   1   7  -2   24.91    2.12
  -1  -7   2   24.39    2.29
  -1  -7   2   20.82    2.36
  -1  -7   2   25.86    2.22
   0   7  -2   43.18    3.35
   0   7  -2   37.19    3.17
   0   7  -2   33.96    3.66
   0  -7   2   36.21    3.30
   0  -7   2   35.98    3.59
  -1   7  -2    8.44    1.02
  -1   7  -2    9.02    0.96
  -1   7  -2    9.32    1.00
   1  -7   2    9.02    1.06
   1  -7   2    7.54    0.93
  -2   7  -2   -0.37    0.25
  -2   7  -2    0.20    0.16
  -2   7  -2   -0.26    0.20
   2  -7   2    0.17    0.15
   2  -7   2   -0.45    0.17
  -5  -6   2    0.26    0.18
  -5  -6   2    0.34    0.15
  -5  -6   2    0.32    0.12
   4   6  -2    7.72    0.74
  -4  -6   2    8.53    0.77
  -4  -6   2    8.44    0.87
  -4  -6   2    6.60    0.78
   3   6  -2   30.06    2.62
  -3  -6   2   31.64    2.73
  -3  -6   2   33.79    2.85
  -3  -6   2   29.53    2.96
   2   6  -2   77.26    6.51
   2   6  -2   66.30    6.23
  -2  -6   2   88.10    6.78
  -2  -6   2   83.79    6.51
  -2  -6   2   66.30    7.05
  -2  -6   2   77.34    7.03
   1   6  -2   65.79    5.24
   1   6  -2   60.98    5.01
  -1  -6   2   67.12    5.66
  -1  -6   2   49.69    5.20
   0   6  -2   19.47    1.51
   0   6  -2   16.65    1.70
   0   6  -2   17.05    1.56
   0  -6   2   16.74    1.55
   0  -6   2   13.58    1.57
   0  -6   2   15.93    1.67
  -1   6  -2   40.08    3.31
  -1   6  -2   39.73    3.66
  -1   6  -2   36.46    3.16
   1  -6   2   35.81    3.27
   1  -6   2   33.04    3.54
  -2   6  -2   35.59    3.54
  -2   6  -2   37.44    3.30
  -2   6  -2   42.33    3.70
  -2   6  -2   35.84    3.42
   2  -6   2   36.68    3.72
   2  -6   2   42.95    3.44
  -3   6  -2   22.95    2.03
  -3   6  -2   20.69    2.06
  -3   6  -2   18.26    2.18
  -3   6  -2   21.12    1.94
  -3   6  -2   19.96    2.14
   3  -6   2   21.13    1.98
   3  -6   2   23.35    2.19
  -7  -5   2    1.13    0.39
   5   5  -2   37.63    2.79
  -5  -5   2   28.86    3.11
   4   5  -2   38.43    3.47
  -4  -5   2   40.81    3.57
  -4  -5   2   43.86    3.73
  -4  -5   2   45.30    3.74
  -4  -5   2   41.38    3.92
   3   5  -2    4.18    0.45
   3   5  -2    4.23    0.46
  -3  -5   2    4.51    0.47
  -3  -5   2    4.86    0.47
  -3  -5   2    4.24    0.52
  -3  -5   2    4.78    0.49
  -3  -5   2    3.68    0.47
   2   5  -2   15.09    1.64
   2   5  -2   21.40    1.73
  -2  -5   2   20.45    1.74
  -2  -5   2   17.65    1.65
  -2  -5   2   19.00    1.79
   1   5  -2   17.69    1.77
   1   5  -2   22.66    1.73
   1   5  -2   20.44    1.84
  -1  -5   2   20.92    1.90
  -1  -5   2   21.03    1.79
  -1  -5   2   16.92    1.84
   0   5  -2   55.30    4.69
   0   5  -2   50.83    5.45
   0   5  -2   62.55    5.07
   0   5  -2   65.34    5.26
   0  -5   2   52.30    4.87
   0  -5   2   54.50    5.08
  -1   5  -2   33.06    2.59
  -1   5  -2   33.20    2.77
  -1   5  -2   33.16    2.86
  -1   5  -2   26.71    2.67
   1  -5   2   24.40    2.74
   1  -5   2   35.94    2.94
   1  -5   2   26.15    2.65
  -2   5  -2   19.50    1.75
  -2   5  -2   17.00    1.76
  -2   5  -2   20.25    1.93
  -2   5  -2   18.03    1.82
   2  -5   2   17.02    1.71
   2  -5   2   20.04    1.90
  -3   5  -2    2.38    0.44
  -3   5  -2    2.51    0.44
  -3   5  -2    1.96    0.41
  -3   5  -2    2.41    0.44
   3  -5   2    2.55    0.44
   3  -5   2    3.16    0.51
  -4   5  -2   24.38    2.06
  -4   5  -2   21.09    2.09
  -4   5  -2   18.87    2.18
  -4   5  -2   22.32    2.25
  -7  -4   2   29.46    3.22
  -7  -4   2   31.73    3.02
  -6  -4   2   31.52    3.23
   5   4  -2   20.00    1.70
  -5  -4   2   19.87    1.92
  -5  -4   2   19.87    1.94
   4   4  -2    1.89    0.28
  -4  -4   2    1.51    0.22
  -4  -4   2    1.50    0.20
  -4  -4   2    1.80    0.23
  -4  -4   2    1.86    0.28
  -4  -4   2    1.88    0.28
   3   4  -2   87.10    6.64
   3   4  -2   94.71    6.91
  -3  -4   2   87.70    7.18
  -3  -4   2   77.33    7.48
  -3  -4   2   75.20    6.90
  -3  -4   2   69.14    7.16
   2   4  -2  295.05   21.44
   2   4  -2  228.00   24.42
   2   4  -2  231.54   22.31
   2   4  -2  260.42   23.21
  -2  -4   2  296.80   23.22
  -2  -4   2  272.15   24.45
  -2  -4   2  298.81   23.23
  -2  -4   2  274.28   22.33
  -2  -4   2  239.52   22.31
   1   4  -2  134.80   13.12
   1   4  -2  143.22   12.63
   1   4  -2  152.74   12.13
  -1  -4   2  151.95   13.80
  -1  -4   2  154.97   12.63
  -1  -4   2  148.58   13.66
  -1  -4   2  174.36   13.15
  -1  -4   2  140.63   13.13
   0   4  -2    3.73    0.40
   0   4  -2    3.31    0.37
   0   4  -2    3.13    0.39
   0   4  -2    2.74    0.39
   0   4  -2    3.65    0.43
   0  -4   2    3.01    0.41
   0  -4   2    3.88    0.43
   0  -4   2    2.79    0.38
   0  -4   2    3.92    0.42
  -1   4  -2   59.05    5.14
  -1   4  -2   49.88    5.74
  -1   4  -2   69.60    5.57
  -1   4  -2   61.32    5.32
   1  -4   2   60.33    5.13
  -2   4  -2   95.93    8.28
  -2   4  -2   85.14    7.89
  -2   4  -2   89.06    7.62
  -2   4  -2   88.62    8.52
   2  -4   2   84.49    8.24
   2  -4   2   98.14    7.91
   2  -4   2   84.59    7.59
  -3   4  -2   46.07    4.68
  -3   4  -2   52.01    4.22
  -3   4  -2   45.70    4.34
  -3   4  -2   50.32    4.58
   3  -4   2   45.36    4.18
   3  -4   2   51.45    4.56
  -4   4  -2    8.79    1.03
  -4   4  -2    7.32    0.91
  -4   4  -2    8.37    0.91
  -4   4  -2    8.91    0.98
  -5   4  -2    0.39    0.22
  -5   4  -2    0.57    0.27
  -5   4  -2    0.30    0.23
  -7  -3   2    1.42    0.39
  -7  -3   2    1.20    0.39
  -6  -3   2    0.13    0.16
  -6  -3   2    0.06    0.26
  -5  -3   2   24.99    2.48
  -5  -3   2   23.31    2.32
   4   3  -2   60.57    5.05
  -4  -3   2   63.25    5.76
   3   3  -2  124.70    8.99
  -3  -3   2   99.12    9.69
  -3  -3   2  108.99    9.32
  -3  -3   2  125.04   10.23
  -3  -3   2  103.89    9.69
  -3  -3   2  105.24    9.31
   2   3  -2    1.22    0.18
   2   3  -2    1.11    0.18
   2   3  -2    1.18    0.18
  -2  -3   2    0.97    0.17
  -2  -3   2    1.25    0.19
  -2  -3   2    1.35    0.20
  -2  -3   2    1.33    0.18
  -2  -3   2    1.59    0.19
  -2  -3   2    1.25    0.19
  -2  -3   2    1.25    0.19
   1   3  -2   19.99    1.91
   1   3  -2   21.20    2.00
   1   3  -2   19.95    1.78
   1   3  -2   25.84    1.86
  -1  -3   2   18.93    1.98
  -1  -3   2   23.86    1.86
  -1  -3   2   18.10    1.91
  -1  -3   2   23.47    2.00
  -1  -3   2   21.91    1.98
   0   3  -2   84.99    7.75
   0   3  -2   76.83    6.64
   0   3  -2   89.78    7.56
   0   3  -2   80.54    7.51
   0  -3   2   76.84    7.19
   0  -3   2   82.00    7.48
  -1   3  -2  233.03   17.63
  -1   3  -2  221.50   18.49
  -1   3  -2  188.78   17.62
  -1   3  -2  196.34   19.01
  -1   3  -2  185.46   16.95
   1  -3   2  198.26   18.35
   1  -3   2  172.91   17.62
   1  -3   2  217.58   16.95
  -2   3  -2   35.38    3.39
  -2   3  -2   34.51    3.14
  -2   3  -2   29.66    3.03
  -2   3  -2   31.75    3.30
  -2   3  -2   36.42    3.16
   2  -3   2   38.62    3.16
   2  -3   2   37.59    3.31
   2  -3   2   37.31    3.04
  -3   3  -2    0.94    0.22
  -3   3  -2    0.41    0.18
  -3   3  -2    0.59    0.20
  -3   3  -2    0.75    0.20
   3  -3   2    0.71    0.18
   3  -3   2    1.01    0.22
  -4   3  -2   30.08    2.88
  -4   3  -2   27.92    2.57
  -4   3  -2   33.33    2.67
  -4   3  -2   24.57    2.81
  -5   3  -2   53.26    5.28
  -5   3  -2   58.69    5.39
  -5   3  -2   54.02    4.96
  -7  -2   2   28.03    2.70
  -7  -2   2   25.13    2.80
  -6  -2   2   33.24    3.38
  -5  -2   2   24.91    2.24
  -5  -2   2   21.61    2.40
  -4  -2   2   14.11    1.41
  -4  -2   2   15.46    1.55
   3   2  -2   87.57    7.91
   3   2  -2  107.40    8.21
  -3  -2   2  100.04    8.20
  -3  -2   2  104.61    8.91
  -3  -2   2   89.39    8.21
   2   2  -2   67.99    5.85
   2   2  -2   60.01    5.63
   2   2  -2   62.39    6.11
   2   2  -2   66.66    5.43
  -2  -2   2   72.32    6.17
  -2  -2   2   67.22    5.63
  -2  -2   2   77.59    5.86
  -2  -2   2   71.34    5.42
  -2  -2   2   63.16    6.16
  -2  -2   2   60.05    5.85
   1   2  -2  112.06    9.24
   1   2  -2  105.50    9.23
   1   2  -2  124.78    8.87
   1   2  -2   96.14   10.07
   1   2  -2  107.19    9.61
  -1  -2   2  120.52    8.88
  -1  -2   2  106.25   10.08
  -1  -2   2  125.75    9.24
  -1  -2   2   96.78    9.24
  -1  -2   2  114.37    9.61
  -1  -2   2   94.67    9.60
  -1  -2   2  115.56    9.99
   0   2  -2    0.72    0.15
   0   2  -2    1.30    0.18
   0   2  -2    1.35    0.18
   0   2  -2    1.46    0.18
   0   2  -2    1.27    0.18
   0   2  -2    0.93    0.15
   0   2  -2    1.24    0.18
   0   2  -2    0.90    0.15
   0   2  -2    1.05    0.15
   0  -2   2    0.79    0.15
   0  -2   2    1.13    0.18
   0  -2   2    1.34    0.18
   0  -2   2    1.29    0.18
   0  -2   2    1.49    0.17
   0  -2   2    0.62    0.15
   0  -2   2    0.90    0.15
  -1   2  -2   38.01    3.31
  -1   2  -2   41.02    3.60
  -1   2  -2   41.03    3.31
  -1   2  -2   35.48    3.42
  -1   2  -2   39.08    3.43
   1  -2   2   34.08    3.29
   1  -2   2   41.58    3.44
  -2   2  -2   11.84    1.13
  -2   2  -2   11.21    1.21
  -2   2  -2   12.79    1.13
  -2   2  -2   12.61    1.20
  -2   2  -2   11.34    1.10
   2  -2   2   13.20    1.20
   2  -2   2   11.88    1.09
  -3   2  -2   53.80    4.49
  -3   2  -2   51.28    4.74
  -3   2  -2   42.09    4.31
  -3   2  -2   54.24    4.49
  -3   2  -2   45.43    4.83
   3  -2   2   51.27    4.31
   3  -2   2   55.98    4.48
  -4   2  -2   31.09    2.71
  -4   2  -2   27.43    2.61
  -4   2  -2   33.09    2.95
   4  -2   2   28.36    2.60
  -5   2  -2    5.20    0.61
  -5   2  -2    3.01    0.61
  -5   2  -2    4.05    0.54
  -5   2  -2    4.35    0.50
  -6   2  -2    3.14    0.60
  -6   2  -2    3.40    0.50
  -6   2  -2    2.93    0.46
  -6   2  -2    2.54    0.41
  -7  -1   2    4.20    0.67
  -7  -1   2    2.94    0.62
  -6  -1   2    0.43    0.22
  -5  -1   2   13.07    1.15
  -5  -1   2   13.54    1.46
   4   1  -2  150.50   12.95
  -4  -1   2  156.12   12.95
  -4  -1   2  157.13   12.97
   3   1  -2  143.96   13.24
  -3  -1   2  152.90   13.26
  -3  -1   2  177.59   13.25
   2   1  -2   15.70    1.38
   2   1  -2   16.64    1.35
  -2  -1   2   15.23    1.60
  -2  -1   2   18.16    1.44
  -2  -1   2   13.97    1.44
  -2  -1   2   16.68    1.38
  -2  -1   2   15.30    1.39
  -2  -1   2   17.36    1.50
   1   1  -2   38.90    2.99
   1   1  -2   39.03    2.98
   1   1  -2   32.05    3.09
   1   1  -2   33.27    2.87
   1   1  -2   36.84    3.22
   1   1  -2   33.85    3.10
  -1  -1   2   32.23    3.26
  -1  -1   2   29.51    3.09
  -1  -1   2   35.77    2.98
  -1  -1   2   39.12    2.98
  -1  -1   2   35.15    3.25
  -1  -1   2   35.58    3.21
   0   1  -2  351.87   29.06
   0   1  -2  382.99   29.07
   0   1  -2  318.55   27.88
   0  -1   2  334.95   29.04
   0  -1   2  340.28   31.71
   0  -1   2  324.63   32.58
   0  -1   2  377.11   29.08
  -1   1  -2  538.01   48.03
  -1   1  -2  528.20   46.17
  -1   1  -2  603.50   46.17
  -1   1  -2  503.87   48.02
  -1   1  -2  592.58   50.45
   1  -1   2  488.91   50.42
   1  -1   2  564.25   51.86
   1  -1   2  559.26   46.16
   1  -1   2  573.59   46.18
   1  -1   2  562.28   48.01
  -2   1  -2   83.29    7.38
  -2   1  -2   80.92    7.76
  -2   1  -2   88.25    7.09
  -2   1  -2   87.52    7.96
  -2   1  -2   76.45    7.37
  -2   1  -2   93.88    7.10
   2  -1   2   79.08    7.97
   2  -1   2   84.71    7.09
  -3   1  -2    3.04    0.32
  -3   1  -2    2.93    0.35
  -3   1  -2    3.47    0.43
  -3   1  -2    3.33    0.35
  -3   1  -2    3.20    0.35
  -3   1  -2    2.76    0.38
   3  -1   2    3.01    0.33
   3  -1   2    3.18    0.34
  -4   1  -2   42.88    4.18
  -4   1  -2   43.30    4.46
  -4   1  -2   48.31    4.19
   4  -1   2   54.35    4.03
  -5   1  -2   50.39    5.32
  -5   1  -2   56.93    4.72
  -5   1  -2   58.86    5.26
  -6   1  -2   23.95    2.14
  -6   1  -2   25.40    2.48
  -6   1  -2   23.94    2.24
  -7   0   2   31.22    2.66
  -7   0   2   25.88    2.99
  -7   0   2   30.01    2.96
  -6   0   2   55.68    4.85
  -6   0   2   40.72    4.14
  -6   0   2   51.75    4.34
  -5   0   2    7.12    0.74
  -5   0   2    7.60    0.90
  -5   0   2    7.17    0.69
   4   0  -2    1.04    0.15
  -4   0   2    0.80    0.17
  -4   0   2    0.68    0.24
  -4   0   2    0.77    0.14
  -4   0   2    1.18    0.17
  -4   0   2    0.95    0.18
   3   0  -2   46.11    4.17
   3   0  -2   48.57    4.01
  -3   0   2   50.44    4.18
  -3   0   2   47.20    4.02
  -3   0   2   47.67    4.59
  -3   0   2   43.41    4.18
  -3   0   2   48.96    4.02
   2   0  -2  303.50   28.70
  -2   0   2  337.51   29.86
  -2   0   2  337.25   31.07
  -2   0   2  391.34   27.58
  -2   0   2  344.98   28.71
  -2   0   2  341.99   32.27
  -2   0   2  344.31   28.71
   1   0  -2  144.91   12.60
   1   0  -2  144.62   12.12
   1   0  -2  145.81   12.12
   1   0  -2  139.12   13.29
   1   0  -2  139.94   12.61
  -1   0   2  133.30   13.10
  -1   0   2  151.77   13.29
  -1   0   2  160.83   12.61
  -1   0   2  154.92   12.12
  -1   0   2  130.38   12.61
   0   0  -2   31.84    3.18
   0   0  -2   33.01    3.26
   0   0  -2   31.64    3.03
   0   0  -2   31.54    2.91
   0   0   2   35.63    3.19
   0   0   2   37.69    3.26
   0   0   2   37.68    3.03
   0   0   2   33.67    2.92
   0   0   2   36.02    2.80
  -1   0  -2   17.95    1.49
  -1   0  -2   17.70    1.29
  -1   0  -2   13.23    1.40
  -1   0  -2   14.17    1.35
  -1   0  -2   14.05    1.35
  -1   0  -2   13.11    1.51
   1   0   2   15.89    1.35
   1   0   2   17.21    1.40
   1   0   2   17.40    1.40
   1   0   2   17.67    1.35
   1   0   2   14.74    1.51
   1   0   2   12.88    1.48
  -2   0  -2   43.17    3.53
  -2   0  -2   33.83    3.82
  -2   0  -2   44.23    3.74
  -2   0  -2   37.65    3.53
  -2   0  -2   35.08    3.39
  -2   0  -2   40.18    3.39
   2   0   2   42.38    3.39
   2   0   2   43.22    3.53
   2   0   2   42.86    3.40
  -3   0  -2  236.85   25.16
  -3   0  -2  302.90   22.39
  -3   0  -2  280.69   24.51
  -3   0  -2  258.22   23.28
  -3   0  -2  257.98   23.28
  -4   0  -2  145.83   12.23
  -4   0  -2  148.85   11.76
  -4   0  -2  142.55   12.23
  -4   0  -2  121.42   12.90
  -4   0  -2  130.13   13.25
  -4   0  -2  150.48   11.76
  -5   0  -2   23.06    2.13
  -5   0  -2   26.56    2.39
  -5   0  -2   22.07    2.34
  -5   0  -2   23.10    2.14
  -5   0  -2   23.97    2.04
  -6   0  -2    0.39    0.13
  -6   0  -2   -0.08    0.27
  -6   0  -2    0.43    0.19
  -6   0  -2    0.55    0.17
  -7   0  -2   29.97    3.11
  -7   0  -2   31.86    2.81
  -6   1   2    3.02    0.61
  -6   1   2    3.38    0.49
  -6   1   2    3.38    0.42
  -5   1   2   15.71    1.54
  -5   1   2   12.76    1.33
  -5   1   2   14.06    1.28
   4  -1  -2  150.33   12.25
  -4   1   2  161.85   13.84
  -4   1   2  139.55   12.75
  -4   1   2  131.81   12.26
   3  -1  -2  187.02   17.93
   3  -1  -2  219.20   17.25
  -3   1   2  212.60   17.26
  -3   1   2  204.32   19.42
  -3   1   2  233.36   17.95
  -3   1   2  195.88   17.96
  -3   1   2  187.01   17.25
   2  -1  -2   81.32    7.03
   2  -1  -2   85.93    7.32
  -2   1   2   85.40    7.04
  -2   1   2   81.26    7.04
  -2   1   2   85.40    7.93
  -2   1   2   92.50    7.33
  -2   1   2   79.13    7.31
  -2   1   2   77.49    7.60
   1  -1  -2  162.58   16.69
   1  -1  -2  192.25   17.35
   1  -1  -2  186.09   16.69
   1  -1  -2  201.55   16.05
   1  -1  -2  162.89   17.59
   1  -1  -2  194.40   16.04
  -1   1   2  208.36   16.69
  -1   1   2  174.94   16.05
  -1   1   2  194.73   17.34
  -1   1   2  208.21   16.69
  -1   1   2  219.07   18.03
   0  -1  -2   15.82    1.26
   0  -1  -2   13.13    1.21
   0  -1  -2   12.26    1.25
   0  -1  -2   12.36    1.31
   0  -1  -2   13.08    1.33
   0  -1  -2   15.35    1.21
   0   1   2   14.25    1.21
   0   1   2   13.36    1.20
   0   1   2   16.18    1.34
   0   1   2   15.65    1.26
   0   1   2   14.17    1.26
   0   1   2   12.24    1.31
   0   1   2   15.53    1.30
  -1  -1  -2  474.25   41.36
  -1  -1  -2  388.88   42.24
  -1  -1  -2  424.61   39.16
  -1  -1  -2  481.41   37.66
  -1  -1  -2  516.34   40.87
  -1  -1  -2  412.40   41.13
  -1  -1  -2  502.76   37.67
   1   1   2  434.26   37.66
   1   1   2  487.21   39.16
   1   1   2  434.68   41.11
   1   1   2  382.46   41.25
   1   1   2  456.25   37.67
  -2  -1  -2   75.48    6.95
  -3  -1  -2    5.06    0.59
  -3  -1  -2    5.37    0.57
  -4  -1  -2   12.74    1.44
  -4  -1  -2   15.59    1.42
  -5  -1  -2   13.95    1.28
  -5  -1  -2    9.53    1.21
  -6  -1  -2   33.19    2.92
  -6  -1  -2   26.21    2.93
  -7  -1  -2   12.18    1.37
  -6   2   2   14.84    1.44
  -6   2   2   13.30    1.60
  -6   2   2   15.47    1.39
  -6   2   2   14.93    1.62
  -5   2   2   25.45    2.56
  -5   2   2   30.43    2.48
   4  -2  -2   14.75    1.31
  -4   2   2   11.63    1.36
  -4   2   2   15.97    1.54
  -4   2   2   15.34    1.33
   3  -2  -2    2.31    0.32
   3  -2  -2    2.24    0.33
   3  -2  -2    2.39    0.30
  -3   2   2    2.51    0.36
  -3   2   2    2.56    0.38
  -3   2   2    2.27    0.32
  -3   2   2    2.00    0.30
   2  -2  -2   48.91    3.99
   2  -2  -2   47.53    4.33
  -2   2   2   47.65    4.00
  -2   2   2   49.71    4.15
  -2   2   2   41.04    4.48
  -2   2   2   46.13    4.17
   1  -2  -2  220.20   17.56
   1  -2  -2  161.16   15.99
   1  -2  -2  208.22   16.65
  -1   2   2  214.65   16.01
  -1   2   2  162.72   17.95
  -1   2   2  177.51   16.65
   0  -2  -2  232.25   17.80
   0  -2  -2  217.18   19.26
   0  -2  -2  195.47   18.51
   0   2   2  197.04   18.52
   0   2   2  187.55   19.51
   0   2   2  200.18   19.42
   0   2   2  224.36   19.98
   0   2   2  245.40   17.81
   0   2   2  204.52   17.80
   0   2   2  219.62   19.26
  -1  -2  -2  143.46   11.69
  -1  -2  -2  126.50   11.23
  -1  -2  -2  144.69   12.17
  -1  -2  -2  127.31   12.33
  -1  -2  -2  134.50   11.23
   1   2   2  145.30   11.68
   1   2   2  131.58   11.23
   1   2   2  136.72   12.17
   1   2   2  127.44   12.60
   1   2   2  139.33   11.23
   1   2   2  115.42   11.68
  -2  -2  -2    1.78    0.26
  -2  -2  -2    1.85    0.21
  -2  -2  -2    1.50    0.21
  -2  -2  -2    2.26    0.24
  -2  -2  -2    2.02    0.20
  -2  -2  -2    2.33    0.21
  -2  -2  -2    2.53    0.29
   2   2   2    2.19    0.21
  -3  -2  -2  174.59   16.94
  -3  -2  -2  191.43   16.88
  -3  -2  -2  186.21   16.75
  -4  -2  -2  160.63   16.54
  -4  -2  -2  184.53   16.96
  -4  -2  -2  193.16   16.49
  -5  -2  -2   21.06    2.26
  -5  -2  -2   23.47    2.19
  -6  -2  -2    0.77    0.31
  -6  -2  -2    0.87    0.27
  -6  -2  -2    1.18    0.31
  -7  -2  -2   10.24    1.14
  -7  -2  -2    9.98    1.13
  -7  -2  -2    8.86    1.08
  -7  -2  -2    9.06    1.11
  -5   3   2    6.68    0.92
  -5   3   2    8.05    0.92
  -5   3   2    6.27    0.78
  -5   3   2    7.69    0.79
  -4   3   2   76.78    5.87
  -4   3   2   64.72    6.08
  -4   3   2   63.40    6.58
   3  -3  -2   59.55    4.38
   3  -3  -2   51.19    4.74
  -3   3   2   48.60    4.91
  -3   3   2   51.28    4.39
  -3   3   2   43.78    4.54
   2  -3  -2   13.40    1.33
   2  -3  -2   13.94    1.22
   2  -3  -2   16.12    1.28
  -2   3   2   13.53    1.24
  -2   3   2   13.23    1.26
  -2   3   2   10.41    1.34
  -2   3   2   12.45    1.28
   1  -3  -2    0.00    0.09
   1  -3  -2   -0.01    0.10
   1  -3  -2   -0.06    0.09
   1  -3  -2   -0.05    0.10
  -1   3   2   -0.03    0.10
  -1   3   2    0.05    0.10
  -1   3   2   -0.04    0.13
  -1   3   2   -0.18    0.10
   0  -3  -2  102.50   11.07
   0  -3  -2  123.82   10.52
   0  -3  -2  123.65   10.94
   0  -3  -2  126.67   10.11
   0   3   2  126.66   10.12
   0   3   2  105.15   10.52
   0   3   2  132.43   11.36
  -1  -3  -2   62.94    5.69
  -1  -3  -2   61.85    5.69
  -1  -3  -2   80.47    5.48
  -1  -3  -2   63.55    6.01
   1   3   2   59.51    5.69
   1   3   2   60.00    6.14
  -2  -3  -2   67.44    5.06
  -2  -3  -2   61.19    5.50
  -2  -3  -2   57.45    5.05
  -2  -3  -2   54.93    5.26
  -2  -3  -2   59.49    5.58
   2   3   2   60.15    5.06
   2   3   2   58.58    4.85
  -3  -3  -2    7.80    0.77
  -3  -3  -2    5.60    0.74
  -3  -3  -2    6.97    0.64
   3   3   2    8.43    0.62
   3   3   2    7.03    0.64
  -4  -3  -2    7.71    0.90
  -4  -3  -2    8.79    0.93
  -4  -3  -2   11.08    0.97
  -5  -3  -2   36.49    3.60
  -5  -3  -2   39.74    3.76
  -6  -3  -2   18.00    1.77
  -6  -3  -2   16.95    1.86
  -6  -3  -2   18.03    1.78
  -6  -3  -2   16.40    1.74
  -7  -3  -2   17.82    1.81
  -7  -3  -2   17.25    1.83
  -7  -3  -2   18.96    1.93
  -7  -3  -2   16.36    1.82
  -5   4   2   23.77    2.62
  -5   4   2   22.24    2.31
  -5   4   2   28.42    2.61
  -5   4   2   26.99    2.42
  -4   4   2   25.43    2.74
  -4   4   2   26.99    2.44
  -4   4   2   28.25    2.68
   3  -4  -2    0.00    0.13
   3  -4  -2   -0.31    0.13
  -3   4   2    0.10    0.15
  -3   4   2   -0.22    0.18
  -3   4   2   -0.20    0.15
   2  -4  -2   49.61    3.84
   2  -4  -2   48.72    3.99
  -2   4   2   38.05    3.83
  -2   4   2   41.95    3.98
  -2   4   2   43.01    4.30
   1  -4  -2  162.22   12.46
   1  -4  -2  152.74   12.96
   1  -4  -2  166.93   13.50
   1  -4  -2  132.73   13.63
  -1   4   2  142.79   13.98
  -1   4   2  129.01   12.45
   0  -4  -2   70.72    6.04
   0  -4  -2   58.87    5.80
   0  -4  -2   64.20    5.58
   0  -4  -2   74.23    6.12
   0   4   2   60.08    5.80
  -1  -4  -2   20.45    1.72
  -1  -4  -2   14.66    1.55
  -1  -4  -2   17.46    1.62
  -1  -4  -2   15.97    1.62
   1   4   2   18.02    1.75
   1   4   2   19.32    1.62
   1   4   2   18.01    1.57
  -2  -4  -2    8.40    0.81
  -2  -4  -2    8.65    0.85
  -2  -4  -2    8.21    0.81
   2   4   2    8.48    0.81
   2   4   2   10.42    0.84
   2   4   2    8.50    0.78
  -3  -4  -2   90.36    8.98
  -3  -4  -2   97.69    9.35
  -3  -4  -2  119.90    8.98
  -3  -4  -2  113.16    9.35
  -3  -4  -2  116.76    9.78
   3   4   2  103.58    8.98
  -4  -4  -2   94.82    8.06
  -4  -4  -2   97.19    8.93
  -5  -4  -2    2.53    0.41
  -5  -4  -2    2.92    0.42
  -5  -4  -2    3.00    0.44
  -6  -4  -2    0.44    0.20
  -6  -4  -2    0.13    0.23
  -6  -4  -2    0.20    0.20
  -6  -4  -2    0.71    0.29
  -7  -4  -2    5.54    0.77
  -7  -4  -2    5.60    0.73
  -7  -4  -2    5.25    0.85
  -7  -4  -2    5.98    0.74
   4  -5  -2   19.82    1.86
  -4   5   2   16.42    1.89
  -4   5   2   17.66    1.86
  -4   5   2   16.50    1.69
  -4   5   2   17.27    1.75
   3  -5  -2   24.54    2.49
   3  -5  -2   23.73    2.27
  -3   5   2   24.57    2.35
  -3   5   2   25.20    2.47
  -3   5   2   24.64    2.29
  -3   5   2   26.77    2.57
   2  -5  -2   30.35    3.19
   2  -5  -2   36.51    2.96
  -2   5   2   30.21    3.16
  -2   5   2   37.19    3.32
  -2   5   2   27.81    3.02
  -2   5   2   38.27    2.98
   1  -5  -2   15.37    1.45
   1  -5  -2   17.00    1.58
   1  -5  -2   14.43    1.49
   1  -5  -2   14.62    1.56
  -1   5   2   16.06    1.52
  -1   5   2   12.27    1.59
  -1   5   2   17.78    1.52
  -1   5   2   16.73    1.47
   0  -5  -2    0.58    0.18
   0  -5  -2    0.63    0.20
   0  -5  -2    0.49    0.14
   0  -5  -2    0.50    0.21
   0   5   2    0.52    0.13
   0   5   2    0.59    0.16
   0   5   2    0.20    0.16
   0   5   2    0.70    0.23
  -1  -5  -2   57.35    5.40
  -1  -5  -2   60.67    5.63
  -1  -5  -2   62.37    5.20
   1   5   2   64.83    5.21
   1   5   2   59.30    5.39
   1   5   2   60.73    5.83
  -2  -5  -2  111.98   10.19
  -2  -5  -2  119.19    9.80
  -2  -5  -2  105.71   10.18
  -2  -5  -2  119.21   10.73
   2   5   2  113.61    9.40
   2   5   2  126.17   10.17
  -3  -5  -2   59.34    4.90
  -3  -5  -2   59.86    5.11
   3   5   2   53.68    4.69
  -4  -5  -2    7.30    0.79
  -4  -5  -2    9.83    0.86
  -4  -5  -2    9.69    0.86
  -4  -5  -2    7.20    0.92
  -4  -5  -2    9.43    0.98
   4   5   2    9.39    0.78
  -5  -5  -2    5.58    0.69
  -6  -5  -2   45.51    4.25
  -6  -5  -2   44.11    4.31
  -7  -5  -2   23.59    2.43
  -7  -5  -2   21.66    2.24
   3  -6  -2    2.42    0.49
   3  -6  -2    2.20    0.47
  -3   6   2    2.16    0.47
  -3   6   2    1.42    0.38
   2  -6  -2   21.66    2.03
   2  -6  -2   22.39    2.23
  -2   6   2   21.65    2.27
  -2   6   2   21.09    2.04
   1  -6  -2   56.31    5.22
  -1   6   2   58.49    5.41
  -1   6   2   51.21    4.80
   0  -6  -2   57.79    5.10
   0  -6  -2   56.97    4.89
   0  -6  -2   48.83    4.69
   0   6   2   53.56    4.70
  -1  -6  -2   14.32    1.57
  -1  -6  -2   18.17    1.71
  -1  -6  -2   17.27    1.71
  -1  -6  -2   18.76    1.66
   1   6   2   17.55    1.60
  -2  -6  -2    0.21    0.16
  -2  -6  -2    0.29    0.15
  -2  -6  -2    0.39    0.16
  -2  -6  -2    0.33    0.16
   2   6   2    0.02    0.14
   2   6   2    0.25    0.16
  -3  -6  -2   24.90    2.17
  -3  -6  -2   22.14    2.06
  -3  -6  -2   22.87    1.98
   3   6   2   19.18    1.88
  -4  -6  -2   35.46    3.17
  -4  -6  -2   28.60    2.85
  -4  -6  -2   33.47    3.16
  -4  -6  -2   32.26    2.98
   4   6   2   35.94    2.75
  -5  -6  -2   18.92    1.57
  -5  -6  -2   17.28    1.48
  -5  -6  -2   13.65    1.67
  -6  -6  -2    4.15    0.59
   2  -7  -2    6.57    0.93
   2  -7  -2    8.31    0.93
  -2   7   2    8.26    1.02
  -2   7   2    7.49    0.94
   1  -7  -2   35.17    3.32
   1  -7  -2   35.44    3.04
  -1   7   2   30.06    3.02
   0  -7  -2    0.37    0.23
   0  -7  -2    0.50    0.24
   0  -7  -2    0.44    0.22
   0   7   2    0.06    0.19
   0   7   2    0.34    0.22
  -1  -7  -2   16.08    1.63
  -1  -7  -2   18.02    1.62
  -1  -7  -2   14.04    1.51
   1   7   2   16.06    1.47
   1   7   2   17.01    1.71
   1   7   2   15.45    1.54
  -2  -7  -2   72.40    5.81
  -2  -7  -2   69.85    5.57
  -2  -7  -2   68.83    6.05
  -2  -7  -2   61.31    6.01
   2   7   2   55.17    5.31
   2   7   2   60.39    5.56
  -3  -7  -2   19.02    1.62
  -3  -7  -2   18.70    1.79
  -3  -7  -2   16.43    1.67
   3   7   2   15.97    1.53
  -4  -7  -2    7.36    0.89
  -4  -7  -2    8.28    0.84
  -4  -7  -2    7.51    0.78
  -5  -7  -2    5.91    0.76
  -5  -7  -2    5.44    0.64
  -5  -7  -2    6.46    0.62
  -6  -7  -2   17.33    1.80
   0  -8  -2   22.07    2.00
   0  -8  -2   19.66    1.80
   0   8   2   15.42    1.91
   0   8   2   19.18    1.81
   0   8   2   16.16    1.68
  -1  -8  -2   13.66    1.40
  -1  -8  -2   15.29    1.55
  -1  -8  -2   13.74    1.44
   1   8   2   14.58    1.43
   1   8   2   12.77    1.33
  -2  -8  -2    1.01    0.27
  -2  -8  -2    1.04    0.31
  -2  -8  -2    0.68    0.25
   2   8   2    0.98    0.32
  -3  -8  -2    1.54    0.34
  -3  -8  -2    1.16    0.33
  -3  -8  -2    1.49    0.32
   3   8   2    1.64    0.35
  -4  -8  -2    5.82    0.72
  -4  -8  -2    5.93    0.79
  -4  -8  -2    6.45    0.71
  -5  -8  -2   13.33    1.51
  -5  -8  -2   15.55    1.41
  -5  -8  -2   13.21    1.31
   4   8  -3   16.50    1.54
  -4  -8   3   16.70    1.74
  -4  -8   3   17.15    1.68
  -4  -8   3   18.39    1.62
   3   8  -3   25.77    2.22
  -3  -8   3   24.44    2.40
  -3  -8   3   26.17    2.32
   2   8  -3   10.23    1.00
  -2  -8   3    9.86    1.02
  -2  -8   3    8.50    1.07
  -2  -8   3    9.70    1.05
   1   8  -3    0.28    0.17
   1   8  -3   -0.18    0.19
  -1  -8   3   -0.27    0.18
  -1  -8   3   -0.01    0.19
  -1  -8   3    0.04    0.17
   0   8  -3   17.85    1.64
   0   8  -3   16.65    1.56
   0  -8   3   15.20    1.75
   0  -8   3   15.80    1.62
  -6  -7   3   18.99    1.78
  -5  -7   3   11.48    1.21
  -5  -7   3   10.62    1.12
  -5  -7   3   11.80    1.06
   4   7  -3    2.10    0.34
  -4  -7   3    1.37    0.32
  -4  -7   3    2.03    0.34
  -4  -7   3    1.71    0.29
   3   7  -3    1.25    0.26
  -3  -7   3    0.93    0.24
  -3  -7   3    1.28    0.31
  -3  -7   3    1.24    0.28
   2   7  -3   21.27    1.90
   2   7  -3   22.14    1.84
  -2  -7   3   19.56    1.96
  -2  -7   3   19.95    1.89
   1   7  -3   19.24    2.03
   1   7  -3   23.66    1.98
  -1  -7   3   24.99    2.14
  -1  -7   3   21.58    2.21
   0   7  -3   20.35    2.12
   0   7  -3   25.70    2.07
   0  -7   3   21.45    2.31
   0  -7   3   25.33    2.15
  -1   7  -3    3.49    0.55
  -1   7  -3    2.29    0.46
  -1   7  -3    3.05    0.49
   1  -7   3    3.78    0.58
   1  -7   3    4.94    0.62
  -2   7  -3    1.20    0.36
  -2   7  -3    0.55    0.32
  -2   7  -3    0.99    0.36
   2  -7   3    0.52    0.33
   2  -7   3    1.61    0.45
  -5  -6   3    1.80    0.32
  -5  -6   3    1.33    0.24
  -5  -6   3    1.45    0.23
   4   6  -3   65.20    5.26
  -4  -6   3   62.36    5.45
  -4  -6   3   60.10    5.67
  -4  -6   3   68.83    5.95
   3   6  -3   52.74    4.99
  -3  -6   3   67.53    5.43
  -3  -6   3   63.64    5.22
  -3  -6   3   60.18    5.64
   2   6  -3   29.38    2.25
   2   6  -3   26.72    2.15
  -2  -6   3   22.55    2.21
  -2  -6   3   25.62    2.40
  -2  -6   3   21.66    2.29
   1   6  -3    3.96    0.50
   1   6  -3    4.29    0.52
  -1  -6   3    4.01    0.52
  -1  -6   3    4.55    0.57
  -1  -6   3    4.04    0.54
   0   6  -3    5.29    0.61
   0   6  -3    5.49    0.65
   0  -6   3    5.43    0.66
   0  -6   3    5.07    0.67
   0  -6   3    5.60    0.64
  -1   6  -3   68.79    5.84
  -1   6  -3   67.36    6.50
  -1   6  -3   78.82    5.63
   1  -6   3   60.96    5.81
   1  -6   3   62.55    6.32
  -2   6  -3   39.20    3.79
  -2   6  -3   33.47    3.37
  -2   6  -3   47.26    3.59
  -2   6  -3   39.47    3.93
  -2   6  -3   39.05    3.72
   2  -6   3   35.79    3.82
   2  -6   3   45.80    3.56
  -3   6  -3    2.90    0.48
  -3   6  -3    3.65    0.56
  -3   6  -3    3.42    0.55
  -3   6  -3    2.98    0.52
  -3   6  -3    2.27    0.48
   3  -6   3    3.11    0.57
   3  -6   3    2.97    0.51
  -7  -5   3    1.10    0.37
  -6  -5   3   12.44    1.46
   5   5  -3   25.53    2.24
  -5  -5   3   24.52    2.26
  -5  -5   3   28.23    2.37
  -5  -5   3   26.78    2.50
   4   5  -3   11.74    0.99
  -4  -5   3   10.12    0.97
  -4  -5   3   13.01    1.04
  -4  -5   3    8.44    1.07
   3   5  -3   15.29    1.21
   3   5  -3   12.23    1.23
  -3  -5   3   15.89    1.38
  -3  -5   3   12.24    1.28
   2   5  -3   10.08    0.88
   2   5  -3    9.57    0.92
   2   5  -3    9.79    0.85
   2   5  -3    8.80    0.89
  -2  -5   3    9.79    0.94
  -2  -5   3    7.57    0.89
  -2  -5   3    8.93    0.87
   1   5  -3   94.84    7.83
   1   5  -3   89.20    7.53
   1   5  -3   78.96    7.22
  -1  -5   3   92.75    7.53
  -1  -5   3   88.35    7.82
  -1  -5   3   88.23    8.14
   0   5  -3  153.78   12.58
   0   5  -3  157.56   14.09
   0   5  -3  140.99   12.06
   0   5  -3  154.74   13.07
   0   5  -3  149.31   13.66
   0  -5   3  155.84   13.61
   0  -5   3  130.12   13.05
  -1   5  -3    8.27    0.81
  -1   5  -3    8.42    0.87
  -1   5  -3    7.83    0.83
  -1   5  -3    7.41    0.80
  -1   5  -3    6.28    0.75
   1  -5   3    7.72    0.87
   1  -5   3    8.95    0.84
   1  -5   3    6.13    0.77
  -2   5  -3   -0.41    0.16
  -2   5  -3    0.14    0.17
  -2   5  -3    0.09    0.15
  -2   5  -3    0.21    0.15
  -2   5  -3   -0.13    0.19
   2  -5   3    0.16    0.15
   2  -5   3    0.12    0.14
  -3   5  -3   33.52    3.35
  -3   5  -3   33.57    3.21
  -3   5  -3   36.16    3.13
  -3   5  -3   34.31    3.00
   3  -5   3   34.64    3.37
   3  -5   3   37.14    3.11
  -4   5  -3   31.50    2.89
  -4   5  -3   31.62    2.70
  -4   5  -3   31.91    3.03
  -4   5  -3   31.08    2.78
  -4   5  -3   27.25    3.06
  -7  -4   3   16.65    1.93
  -6  -4   3    6.80    0.94
   5   4  -3    2.63    0.36
  -5  -4   3    2.56    0.35
   4   4  -3   74.64    5.41
  -4  -4   3   66.65    6.10
  -4  -4   3   62.55    5.77
  -4  -4   3   65.94    5.79
  -4  -4   3   60.17    5.55
   3   4  -3   65.21    6.25
   3   4  -3   81.09    6.03
  -3  -4   3   66.15    6.50
  -3  -4   3   78.55    6.26
  -3  -4   3   78.82    6.50
  -3  -4   3   74.62    6.25
   2   4  -3   12.88    1.07
   2   4  -3   11.78    1.14
   2   4  -3   12.43    1.10
  -2  -4   3   14.12    1.12
  -2  -4   3   11.64    1.14
  -2  -4   3   12.04    1.19
  -2  -4   3   10.18    1.13
  -2  -4   3   13.07    1.11
  -2  -4   3   12.30    1.16
   1   4  -3    0.07    0.09
   1   4  -3    0.07    0.08
   1   4  -3   -0.09    0.09
   1   4  -3    0.08    0.11
   1   4  -3    0.12    0.09
  -1  -4   3    0.06    0.09
  -1  -4   3   -0.06    0.06
  -1  -4   3   -0.09    0.06
  -1  -4   3   -0.01    0.10
  -1  -4   3    0.18    0.11
   0   4  -3    5.71    0.61
   0   4  -3    6.02    0.65
   0   4  -3    7.36    0.65
   0   4  -3    6.84    0.66
   0   4  -3    6.07    0.69
   0  -4   3    6.14    0.66
   0  -4   3    7.05    0.70
   0  -4   3    5.26    0.63
   0  -4   3    6.35    0.66
  -1   4  -3   33.37    3.04
  -1   4  -3   26.74    2.81
  -1   4  -3   30.24    2.71
  -1   4  -3   35.27    2.93
   1  -4   3   29.37    3.06
   1  -4   3   33.93    2.83
   1  -4   3   37.83    2.94
  -2   4  -3   40.93    3.42
  -2   4  -3   36.11    3.15
  -2   4  -3   29.40    3.03
  -2   4  -3   38.46    3.30
   2  -4   3   30.76    3.14
   2  -4   3   33.54    3.04
  -3   4  -3   19.82    2.27
  -3   4  -3   25.80    2.14
  -3   4  -3   24.87    2.36
  -3   4  -3   22.70    2.18
   3  -4   3   26.04    2.31
   3  -4   3   21.99    2.10
  -4   4  -3    3.91    0.58
  -4   4  -3    3.35    0.51
  -4   4  -3    4.93    0.66
  -5   4  -3    2.18    0.42
  -5   4  -3    2.14    0.44
  -5   4  -3    1.62    0.45
  -5   4  -3    2.04    0.37
  -7  -3   3    1.04    0.40
  -6  -3   3   25.04    2.64
  -5  -3   3   43.47    4.02
  -5  -3   3   43.32    4.29
   4   3  -3   54.97    4.59
  -4  -3   3   57.10    5.22
  -4  -3   3   50.99    4.73
  -4  -3   3   61.29    4.73
  -4  -3   3   56.02    5.15
  -3  -3   3   54.52    5.24
  -3  -3   3   54.32    5.52
  -3  -3   3   67.87    5.05
  -3  -3   3   56.07    5.04
  -3  -3   3   66.06    5.25
   2   3  -3   33.30    2.84
   2   3  -3   34.84    2.73
   2   3  -3   33.22    2.63
  -2  -3   3   29.04    2.72
  -2  -3   3   32.68    2.83
  -2  -3   3   33.87    2.73
  -2  -3   3   32.68    2.83
  -2  -3   3   29.93    2.97
  -2  -3   3   27.71    2.94
   1   3  -3  271.55   19.12
   1   3  -3  196.68   21.78
   1   3  -3  249.49   19.91
  -1  -3   3  253.40   21.53
  -1  -3   3  222.15   20.70
  -1  -3   3  228.10   19.90
  -1  -3   3  259.07   20.70
  -1  -3   3  219.68   19.91
   0   3  -3  237.06   24.69
   0   3  -3  267.77   24.02
   0   3  -3  274.52   24.11
   0   3  -3  254.65   21.14
   0  -3   3  262.36   22.02
   0  -3   3  270.47   22.90
   0  -3   3  255.20   22.90
   0  -3   3  278.21   23.83
  -1   3  -3  130.02   13.48
  -1   3  -3  158.75   12.51
  -1   3  -3  142.36   12.03
  -1   3  -3  165.39   12.52
  -1   3  -3  129.14   13.10
  -1   3  -3  122.99   11.54
   1  -3   3  168.06   13.05
   1  -3   3  127.42   12.01
  -2   3  -3   13.63    1.19
  -2   3  -3   10.73    1.18
  -2   3  -3   11.05    1.26
  -2   3  -3   10.70    1.15
  -2   3  -3   14.53    1.26
   2  -3   3   12.33    1.15
   2  -3   3   13.04    1.26
   2  -3   3   14.57    1.20
  -3   3  -3   65.13    6.01
  -3   3  -3   71.45    5.81
  -3   3  -3   70.85    6.49
  -3   3  -3   73.46    6.34
   3  -3   3   61.46    5.78
   3  -3   3   65.37    6.28
  -4   3  -3   77.43    6.74
  -4   3  -3   68.95    6.37
  -4   3  -3   69.32    6.87
  -5   3  -3    7.70    0.86
  -5   3  -3    6.37    0.78
  -5   3  -3    7.89    0.98
  -5   3  -3    8.16    0.90
  -7  -2   3   30.33    3.17
  -6  -2   3    2.01    0.46
  -5  -2   3    1.12    0.36
  -5  -2   3    1.48    0.25
   4   2  -3   22.26    2.00
  -4  -2   3   25.04    2.21
  -4  -2   3   26.86    2.01
  -4  -2   3   20.18    2.36
  -4  -2   3   22.56    1.99
   3   2  -3   94.06    7.52
  -3  -2   3   95.39    7.80
  -3  -2   3   88.86    7.79
   2   2  -3  276.26   21.24
   2   2  -3  233.53   22.97
   2   2  -3  230.76   22.08
  -2  -2   3  233.29   23.19
  -2  -2   3  253.37   22.08
  -2  -2   3  267.25   21.23
  -2  -2   3  279.21   22.09
   1   2  -3   63.15    5.80
  -1  -2   3   54.53    5.81
  -1  -2   3   69.67    5.74
  -1  -2   3   69.89    5.32
  -1  -2   3   64.67    5.32
  -1  -2   3   65.48    5.53
  -1  -2   3   54.02    5.52
   0   2  -3    1.15    0.20
   0   2  -3    1.60    0.21
   0   2  -3    1.68    0.22
   0   2  -3    1.56    0.22
   0   2  -3    1.93    0.22
   0  -2   3    1.55    0.21
   0  -2   3    1.35    0.20
   0  -2   3    1.76    0.22
   0  -2   3    1.62    0.21
   0  -2   3    1.19    0.20
   0  -2   3    1.65    0.22
   0  -2   3    1.39    0.21
  -1   2  -3  119.14    9.33
  -1   2  -3   92.23    8.96
  -1   2  -3  105.07    9.32
  -1   2  -3   93.34    8.60
   1  -2   3  109.97    8.96
   1  -2   3  108.56    9.71
   1  -2   3  117.32    9.32
  -2   2  -3  227.69   19.47
  -2   2  -3  216.59   19.46
  -2   2  -3  210.90   18.72
  -2   2  -3  202.20   20.99
  -2   2  -3  239.23   20.45
   2  -2   3  236.28   20.26
   2  -2   3  228.29   18.71
  -3   2  -3  103.26    9.48
  -3   2  -3   94.22    9.49
  -3   2  -3  119.38    9.15
  -3   2  -3  100.67    9.99
  -3   2  -3  105.38   10.24
   3  -2   3  115.53    9.49
   3  -2   3  119.03    9.13
  -4   2  -3   30.93    3.08
  -4   2  -3   33.46    3.12
  -4   2  -3   32.54    2.89
  -4   2  -3   32.26    2.79
   4  -2   3   30.53    2.77
  -5   2  -3    0.11    0.20
  -5   2  -3    0.64    0.20
  -5   2  -3    0.19    0.18
  -5   2  -3   -0.49    0.23
  -6   2  -3   44.53    4.24
  -6   2  -3   47.28    4.07
  -6   2  -3   49.88    4.57
  -7  -1   3    1.62    0.45
  -6  -1   3   15.37    1.71
  -5  -1   3  100.76    9.42
  -5  -1   3   97.42    8.24
  -5  -1   3   96.01    8.58
  -4  -1   3  100.89    8.15
  -4  -1   3   97.97    8.17
  -4  -1   3   90.45    8.48
  -4  -1   3   98.54    8.49
   3   1  -3   48.42    4.23
  -3  -1   3   52.97    4.23
  -3  -1   3   51.80    4.25
  -3  -1   3   46.63    4.41
  -3  -1   3   51.13    4.85
   2   1  -3   27.25    2.35
   2   1  -3   30.96    2.43
   2   1  -3   29.26    2.52
  -2  -1   3   29.12    2.61
  -2  -1   3   31.89    2.78
  -2  -1   3   26.51    2.66
  -2  -1   3   29.23    2.53
  -2  -1   3   24.32    2.43
   1   1  -3  206.61   20.43
   1   1  -3  206.76   18.91
   1   1  -3  249.73   19.67
   1   1  -3  199.12   20.65
   1   1  -3  247.45   18.17
  -1  -1   3  214.69   20.70
  -1  -1   3  240.38   20.65
  -1  -1   3  249.25   19.66
  -1  -1   3  195.83   19.66
  -1  -1   3  248.03   18.91
   0   1  -3  164.03   14.69
   0   1  -3  186.14   13.59
   0   1  -3  165.61   14.13
   0   1  -3  148.60   13.04
   0   1  -3  140.16   13.58
   0   1  -3  152.07   14.13
   0  -1   3  142.49   14.69
   0  -1   3  172.09   14.14
   0  -1   3  158.62   13.04
   0  -1   3  147.98   14.83
   0  -1   3  185.98   13.59
   0  -1   3  179.98   13.59
  -1   1  -3   65.95    5.97
  -1   1  -3   53.52    5.54
  -1   1  -3   65.13    5.12
  -1   1  -3   58.50    5.33
  -1   1  -3   58.78    5.33
  -1   1  -3   66.80    5.54
  -1   1  -3   65.04    5.83
  -1   1  -3   69.96    5.79
   1  -1   3   59.84    5.96
   1  -1   3   61.14    5.33
   1  -1   3   59.56    5.82
   1  -1   3   66.79    5.77
   1  -1   3   67.18    5.54
   1  -1   3   67.17    5.54
  -2   1  -3   25.48    2.66
  -2   1  -3   32.82    2.77
  -2   1  -3   32.76    2.93
  -2   1  -3   35.54    2.98
  -2   1  -3   28.17    2.77
   2  -1   3   29.55    2.66
   2  -1   3   30.34    2.99
   2  -1   3   35.21    2.77
  -3   1  -3    9.83    0.87
  -3   1  -3    9.03    0.88
  -3   1  -3    9.57    0.91
  -3   1  -3   11.02    0.92
   3  -1   3    8.74    0.87
   3  -1   3    9.60    0.90
  -4   1  -3   48.56    4.60
  -4   1  -3   51.34    4.98
  -4   1  -3   54.55    4.43
  -4   1  -3   49.04    4.59
   4  -1   3   56.48    4.42
  -5   1  -3   24.21    2.30
  -5   1  -3   27.38    2.41
  -5   1  -3   28.15    2.63
  -6   1  -3   13.62    1.36
  -6   1  -3   11.76    1.16
  -6   1  -3   11.63    1.40
  -6   1  -3   13.48    1.25
  -6   0   3   26.13    2.46
  -6   0   3   23.43    2.01
  -6   0   3   20.46    2.10
  -5   0   3    9.83    0.90
  -5   0   3    9.64    0.96
   4   0  -3    1.18    0.18
  -4   0   3    0.68    0.24
  -4   0   3    1.41    0.19
  -4   0   3    1.21    0.20
  -4   0   3    1.12    0.19
   3   0  -3   27.77    2.12
  -3   0   3   21.27    2.20
  -3   0   3   24.98    2.21
  -3   0   3   26.25    2.47
  -3   0   3   21.11    2.12
  -3   0   3   27.29    2.29
   2   0  -3  109.46    9.33
   2   0  -3  104.57    9.70
  -2   0   3  114.53    9.33
  -2   0   3  113.31    9.71
  -2   0   3  109.57   10.53
  -2   0   3  114.80    9.71
   1   0  -3  810.38   81.82
   1   0  -3  783.33   79.86
   1   0  -3  800.65   75.82
   1   0  -3  808.50   72.87
   1   0  -3  827.44   72.85
  -1   0   3  760.87   81.91
  -1   0   3  865.73   75.78
  -1   0   3  911.13   72.90
  -1   0   3  934.60   72.90
  -1   0   3  911.76   79.86
  -1   0   3  963.11   79.60
  -1   0   3  933.10   70.02
  -1   0   3 1000.00   75.87
   0   0  -3   52.14    4.50
   0   0  -3   50.89    5.25
   0   0  -3   61.27    4.88
   0   0  -3   59.46    5.13
   0   0  -3   57.07    4.69
   0   0   3   57.51    5.14
   0   0   3   49.42    4.50
  -1   0  -3  161.55   12.50
  -1   0  -3  129.73   12.50
  -1   0  -3  134.66   13.00
  -1   0  -3  142.89   11.99
   1   0   3  154.27   12.50
   1   0   3  169.09   13.66
   1   0   3  162.63   13.00
   1   0   3  145.02   11.99
   1   0   3  142.35   12.50
  -2   0  -3  168.82   13.18
  -2   0  -3  177.45   14.42
  -2   0  -3  131.85   13.70
  -2   0  -3  137.76   13.17
  -2   0  -3  163.77   13.71
   2   0   3  133.19   14.79
   2   0   3  173.32   13.18
   2   0   3  170.90   13.70
   2   0   3  157.96   13.17
  -3   0  -3  106.51    9.37
  -3   0  -3  106.59    9.01
  -3   0  -3  108.51   10.14
  -3   0  -3  106.96    9.38
   3   0   3  107.68    9.01
  -4   0  -3   51.84    4.87
  -4   0  -3   52.29    5.39
  -4   0  -3   58.20    5.07
  -4   0  -3   61.11    5.52
  -4   0  -3   63.48    5.08
   4   0   3   59.00    4.87
  -5   0  -3    1.30    0.28
  -5   0  -3    1.32    0.22
  -5   0  -3    1.38    0.19
  -5   0  -3    1.59    0.23
  -5   0  -3    0.83    0.26
  -6   0  -3   17.71    1.83
  -6   0  -3   19.38    1.82
  -6   0  -3   17.05    1.53
  -6   0  -3   16.22    1.61
  -7   0  -3   18.24    1.84
  -7   0  -3   23.01    2.15
  -6   1   3   15.31    1.59
  -6   1   3   19.46    1.71
  -6   1   3   19.36    1.97
  -5   1   3   36.53    4.03
  -5   1   3   40.75    3.53
  -5   1   3   45.03    3.70
   4  -1  -3   62.26    5.37
  -4   1   3   62.15    5.61
  -4   1   3   67.42    6.13
  -4   1   3   61.88    5.38
   3  -1  -3   22.82    2.06
   3  -1  -3   22.57    2.13
  -3   1   3   24.73    2.06
  -3   1   3   22.73    2.15
  -3   1   3   27.91    2.08
  -3   1   3   22.28    2.14
   2  -1  -3   -0.02    0.07
   2  -1  -3   -0.10    0.07
   2  -1  -3   -0.03    0.07
  -2   1   3   -0.04    0.08
  -2   1   3    0.03    0.09
  -2   1   3   -0.05    0.09
  -2   1   3    0.24    0.13
  -2   1   3    0.01    0.07
  -2   1   3   -0.02    0.08
   1  -1  -3  435.62   36.32
   1  -1  -3  368.35   36.32
   1  -1  -3  491.54   34.93
   1  -1  -3  413.23   38.28
  -1   1   3  379.49   36.32
  -1   1   3  435.15   34.92
  -1   1   3  386.94   39.38
  -1   1   3  425.99   37.76
   0  -1  -3   14.70    1.56
   0  -1  -3   19.55    1.69
   0  -1  -3   18.86    1.51
   0  -1  -3   18.85    1.63
   0  -1  -3   16.67    1.51
   0  -1  -3   15.12    1.66
   0  -1  -3   15.02    1.64
   0   1   3   14.98    1.57
   0   1   3   17.38    1.57
   0   1   3   19.84    1.65
   0   1   3   19.36    1.63
   0   1   3   17.79    1.51
   0   1   3   17.23    1.69
  -1  -1  -3  124.08   13.35
  -1  -1  -3  142.45   12.38
  -1  -1  -3  138.70   13.07
  -1  -1  -3  128.73   11.91
  -1  -1  -3  143.69   12.90
  -1  -1  -3  154.96   12.39
  -1  -1  -3  137.06   11.91
   1   1   3  119.87   13.00
   1   1   3  157.74   11.91
   1   1   3  121.97   13.35
   1   1   3  147.57   12.39
   1   1   3  161.90   11.42
   1   1   3  145.27   12.39
   1   1   3  161.88   11.91
  -2  -1  -3   17.68    1.50
  -2  -1  -3   13.66    1.35
  -2  -1  -3   18.01    1.35
   2   1   3   17.03    1.36
   2   1   3   12.75    1.50
  -3  -1  -3   14.21    1.28
  -3  -1  -3   12.38    1.31
  -3  -1  -3   13.22    1.12
   3   1   3   12.41    1.12
  -4  -1  -3   38.48    3.63
  -5  -1  -3   41.98    3.99
  -6  -1  -3   34.30    3.02
  -6  -1  -3   27.42    3.03
  -7  -1  -3    7.03    0.96
  -6   2   3   34.48    3.06
  -6   2   3   32.83    3.52
  -6   2   3   36.45    3.19
  -5   2   3   20.96    2.26
  -5   2   3   26.00    2.20
  -5   2   3   27.14    2.56
   4  -2  -3   -0.05    0.10
  -4   2   3    0.05    0.15
  -4   2   3    0.09    0.13
  -4   2   3    0.02    0.18
   3  -2  -3   57.37    5.25
   3  -2  -3   59.24    5.05
   3  -2  -3   64.42    5.48
  -3   2   3   51.93    5.25
  -3   2   3   62.54    5.73
  -3   2   3   61.41    5.07
   2  -2  -3  234.36   19.26
   2  -2  -3  192.48   18.51
   2  -2  -3  236.08   20.05
  -2   2   3  207.43   19.27
  -2   2   3  213.01   18.51
  -2   2   3  216.85   19.26
  -2   2   3  244.15   20.82
   1  -2  -3  191.92   18.06
   1  -2  -3  201.67   17.81
   1  -2  -3  176.06   17.13
   1  -2  -3  209.47   16.47
  -1   2   3  207.27   17.14
  -1   2   3  228.11   18.51
  -1   2   3  168.62   17.13
  -1   2   3  187.32   16.47
   0  -2  -3    7.56    0.83
   0  -2  -3    8.80    0.79
   0  -2  -3    9.55    0.76
   0  -2  -3    8.59    0.78
   0  -2  -3    8.94    0.75
   0   2   3    7.87    0.84
   0   2   3    7.51    0.81
   0   2   3    8.15    0.78
   0   2   3    7.25    0.80
   0   2   3    7.76    0.78
  -1  -2  -3   90.36    8.61
  -1  -2  -3  105.72    9.04
  -1  -2  -3   97.47    8.28
  -1  -2  -3   99.27    8.28
  -1  -2  -3  103.87    8.62
  -1  -2  -3   88.48    8.97
   1   2   3  100.68    8.62
   1   2   3   95.41    9.11
   1   2   3  105.50    8.28
  -2  -2  -3  302.66   23.23
  -2  -2  -3  275.70   25.38
  -2  -2  -3  257.14   24.16
  -2  -2  -3  282.34   25.51
  -2  -2  -3  259.19   24.17
  -2  -2  -3  237.61   23.23
   2   2   3  279.27   23.23
   2   2   3  292.01   24.16
   2   2   3  312.27   25.39
  -3  -2  -3  109.80   10.33
  -3  -2  -3  112.25   10.27
  -3  -2  -3  113.37   10.22
  -4  -2  -3   14.76    1.49
  -4  -2  -3   14.71    1.43
  -4  -2  -3   14.08    1.45
  -5  -2  -3   -0.03    0.14
  -5  -2  -3    0.01    0.15
  -5  -2  -3    0.07    0.14
  -6  -2  -3   13.79    1.44
  -6  -2  -3   12.28    1.42
  -6  -2  -3   14.52    1.48
  -7  -2  -3   13.96    1.55
  -7  -2  -3   14.28    1.55
  -5   3   3   10.22    1.17
  -5   3   3   12.72    1.25
  -5   3   3   13.79    1.42
  -4   3   3   44.27    3.90
  -4   3   3   34.32    3.56
  -4   3   3   39.66    3.44
   3  -3  -3   57.65    5.33
   3  -3  -3   60.24    5.79
  -3   3   3   64.72    6.03
  -3   3   3   60.05    5.36
  -3   3   3   70.41    5.60
   2  -3  -3   24.44    2.11
   2  -3  -3   22.20    2.29
  -2   3   3   23.30    2.22
  -2   3   3   23.06    2.12
  -2   3   3   25.60    2.39
  -2   3   3   25.26    2.20
   1  -3  -3    2.50    0.38
   1  -3  -3    3.78    0.39
   1  -3  -3    2.70    0.35
   1  -3  -3    2.45    0.33
  -1   3   3    2.90    0.39
  -1   3   3    3.00    0.36
  -1   3   3    2.90    0.39
  -1   3   3    3.03    0.37
   0  -3  -3  152.96   12.31
   0  -3  -3  161.44   12.97
   0  -3  -3  137.18   11.82
   0  -3  -3  141.73   12.79
   0   3   3  119.71   12.30
   0   3   3  136.12   11.82
   0   3   3  135.28   12.88
  -1  -3  -3  164.49   13.12
  -1  -3  -3  157.10   13.12
  -1  -3  -3  156.29   14.40
  -1  -3  -3  156.25   13.65
  -1  -3  -3  174.23   13.66
   1   3   3  132.79   13.65
   1   3   3  152.60   13.12
  -2  -3  -3  300.43   26.10
  -2  -3  -3  302.35   27.55
  -2  -3  -3  271.66   25.08
  -2  -3  -3  324.29   25.09
  -2  -3  -3  289.21   27.38
   2   3   3  309.60   25.09
  -3  -3  -3    9.53    0.96
  -3  -3  -3   10.37    0.96
  -3  -3  -3   12.32    1.10
  -3  -3  -3   11.89    1.09
  -3  -3  -3   11.41    1.03
  -3  -3  -3    8.75    0.91
  -3  -3  -3   11.00    0.92
  -4  -3  -3    7.92    0.97
  -4  -3  -3   10.01    0.98
  -4  -3  -3    9.74    0.94
  -5  -3  -3  117.89   10.51
  -5  -3  -3   99.63   10.75
  -5  -3  -3  121.46   10.44
  -6  -3  -3   68.69    6.14
  -6  -3  -3   55.67    6.28
  -6  -3  -3   70.35    6.10
  -7  -3  -3   13.49    1.41
  -7  -3  -3   14.83    1.43
  -7  -3  -3   10.42    1.35
  -5   4   3   23.30    2.30
  -5   4   3   23.09    2.24
  -5   4   3   25.74    2.50
  -5   4   3   25.55    2.58
   4  -4  -3    2.10    0.41
  -4   4   3    1.43    0.35
  -4   4   3    1.99    0.40
  -4   4   3    2.07    0.43
   3  -4  -3   44.22    4.11
   3  -4  -3   40.15    3.76
  -3   4   3   44.76    3.94
  -3   4   3   44.18    4.26
   2  -4  -3   60.77    4.99
   2  -4  -3   57.07    5.42
  -2   4   3   60.00    5.62
  -2   4   3   53.98    5.00
  -2   4   3   58.69    5.21
   1  -4  -3   92.16    8.60
   1  -4  -3   99.38    8.17
  -1   4   3   98.39    8.82
  -1   4   3   80.09    7.84
   0  -4  -3   47.82    3.96
   0  -4  -3   46.02    4.11
   0  -4  -3   45.25    3.80
   0   4   3   39.70    4.11
   0   4   3   42.95    3.81
  -1  -4  -3   28.98    2.29
  -1  -4  -3   21.35    2.37
  -1  -4  -3   26.33    2.19
  -1  -4  -3   22.20    2.39
   1   4   3   28.80    2.47
   1   4   3   23.10    2.18
  -2  -4  -3   18.80    1.52
  -2  -4  -3   14.93    1.44
  -2  -4  -3   14.68    1.50
   2   4   3   17.58    1.46
  -3  -4  -3   43.16    3.36
  -3  -4  -3   41.92    3.50
  -3  -4  -3   33.98    3.34
  -3  -4  -3   38.84    3.68
  -3  -4  -3   36.69    3.73
   3   4   3   42.63    3.36
   3   4   3   38.27    3.21
  -4  -4  -3   73.87    7.39
  -4  -4  -3   91.18    7.32
  -4  -4  -3   77.08    6.94
  -4  -4  -3   79.84    7.30
  -4  -4  -3   75.02    6.66
  -5  -4  -3   21.93    2.21
  -5  -4  -3   20.68    2.18
  -5  -4  -3   24.10    2.15
  -6  -4  -3    1.80    0.44
  -6  -4  -3    1.68    0.36
  -6  -4  -3    1.71    0.39
  -6  -4  -3    1.82    0.36
  -7  -4  -3    3.76    0.61
  -7  -4  -3    4.12    0.74
  -7  -4  -3    3.60    0.64
  -7  -4  -3    3.86    0.64
   4  -5  -3   16.41    2.04
  -4   5   3   21.57    2.12
  -4   5   3   23.51    2.23
  -4   5   3   21.76    2.00
  -4   5   3   19.11    1.92
   3  -5  -3   43.61    4.08
   3  -5  -3   53.24    4.49
  -3   5   3   45.49    4.10
  -3   5   3   45.38    4.44
  -3   5   3   45.22    4.60
  -3   5   3   47.63    4.26
   2  -5  -3   24.93    2.54
   2  -5  -3   26.28    2.34
  -2   5   3   28.06    2.37
  -2   5   3   28.57    2.44
  -2   5   3   22.03    2.59
   1  -5  -3   -0.12    0.15
   1  -5  -3    0.05    0.12
   1  -5  -3   -0.10    0.11
   1  -5  -3   -0.26    0.16
  -1   5   3    0.04    0.15
  -1   5   3    0.01    0.18
  -1   5   3   -0.23    0.15
   0  -5  -3   39.99    3.65
   0  -5  -3   40.72    3.38
   0   5   3   35.14    3.38
   0   5   3   37.10    3.50
   0   5   3   41.40    3.81
  -1  -5  -3  104.87    9.03
  -1  -5  -3  102.37    9.12
  -1  -5  -3  104.00    8.67
  -1  -5  -3   98.31    8.32
   1   5   3  101.35    8.65
   1   5   3   88.72    9.33
   1   5   3   88.39    8.33
  -2  -5  -3   73.57    6.29
  -2  -5  -3   76.40    6.57
  -2  -5  -3   67.06    6.03
  -2  -5  -3   80.31    6.64
   2   5   3   65.15    5.79
   2   5   3   74.09    6.26
   2   5   3   61.24    6.03
  -3  -5  -3    1.44    0.31
  -3  -5  -3    1.86    0.33
  -3  -5  -3    1.21    0.23
  -3  -5  -3    1.91    0.27
  -3  -5  -3    2.28    0.31
   3   5   3    2.00    0.28
   3   5   3    2.25    0.25
  -4  -5  -3    8.14    0.82
  -4  -5  -3    7.91    0.95
  -4  -5  -3    8.51    0.83
  -4  -5  -3    8.46    0.93
  -4  -5  -3    8.30    0.78
   4   5   3    9.27    0.75
  -5  -5  -3   27.75    2.74
  -6  -5  -3   17.38    1.60
  -6  -5  -3   12.51    1.50
  -7  -5  -3    2.07    0.49
  -7  -5  -3    2.36    0.44
   3  -6  -3    1.49    0.47
   3  -6  -3    1.47    0.34
  -3   6   3    1.55    0.39
  -3   6   3    1.23    0.42
   2  -6  -3   25.67    2.44
   2  -6  -3   19.66    2.17
  -2   6   3   23.68    2.48
  -2   6   3   27.30    2.25
   1  -6  -3   29.51    2.67
   1  -6  -3   26.82    2.43
  -1   6   3   28.96    2.45
  -1   6   3   22.41    2.70
   0  -6  -3   19.04    1.52
   0  -6  -3   13.73    1.58
   0  -6  -3   16.45    1.55
   0   6   3   13.34    1.64
   0   6   3   17.07    1.52
  -1  -6  -3    3.56    0.54
  -1  -6  -3    4.37    0.55
  -1  -6  -3    4.42    0.55
  -1  -6  -3    3.97    0.52
   1   6   3    3.71    0.52
   1   6   3    4.96    0.59
  -2  -6  -3    0.99    0.25
  -2  -6  -3    0.99    0.25
  -2  -6  -3    1.06    0.24
  -2  -6  -3    0.73    0.24
   2   6   3    1.37    0.25
   2   6   3    1.65    0.28
  -3  -6  -3   21.50    1.92
  -3  -6  -3   17.25    1.87
  -3  -6  -3   16.62    1.71
  -3  -6  -3   20.64    1.80
   3   6   3   20.13    1.64
  -4  -6  -3   43.34    3.41
  -4  -6  -3   45.64    3.56
  -4  -6  -3   31.42    3.72
   4   6   3   37.45    3.27
  -5  -6  -3   28.78    2.44
  -5  -6  -3   28.71    2.64
  -5  -6  -3   22.63    2.63
  -5  -6  -3   26.97    2.31
  -6  -6  -3    1.10    0.29
   2  -7  -3   14.36    1.48
   2  -7  -3   12.34    1.31
  -2   7   3   12.13    1.32
  -2   7   3   11.51    1.46
   1  -7  -3    0.48    0.28
   1  -7  -3    0.29    0.24
  -1   7   3   -0.22    0.23
  -1   7   3    0.36    0.21
   0  -7  -3   17.32    1.83
   0  -7  -3   18.89    1.74
   0   7   3   18.20    1.73
  -1  -7  -3   39.10    3.48
  -1  -7  -3   40.00    3.35
  -1  -7  -3   30.22    3.45
   1   7   3   32.55    3.20
   1   7   3   40.16    3.61
  -2  -7  -3   48.83    5.12
  -2  -7  -3   54.07    4.91
  -2  -7  -3   52.93    4.73
  -2  -7  -3   59.59    5.13
   2   7   3   54.46    4.53
   2   7   3   57.78    4.74
  -3  -7  -3    1.67    0.34
  -3  -7  -3    1.68    0.33
  -3  -7  -3    1.89    0.38
  -3  -7  -3    1.36    0.30
   3   7   3    1.40    0.27
  -4  -7  -3    5.11    0.57
  -4  -7  -3    4.55    0.65
  -4  -7  -3    5.53    0.63
  -5  -7  -3    7.27    0.85
  -5  -7  -3    7.78    0.76
  -5  -7  -3    5.94    0.66
  -6  -7  -3   20.76    1.68
  -6  -7  -3   14.38    1.81
   0  -8  -3   30.17    2.73
   0   8   3   29.27    2.74
   0   8   3   29.18    3.02
  -1  -8  -3    7.71    0.90
  -1  -8  -3    8.02    0.92
  -1  -8  -3    7.89    0.90
  -1  -8  -3    6.00    0.90
   1   8   3    7.95    0.97
   1   8   3    8.68    0.92
   1   8   3    8.50    0.86
  -2  -8  -3   -0.13    0.15
  -2  -8  -3   -0.11    0.19
  -2  -8  -3    0.43    0.19
   2   8   3    0.18    0.16
  -3  -8  -3   17.73    1.77
  -3  -8  -3   18.71    1.62
  -3  -8  -3   14.75    1.65
   3   8   3   16.74    1.53
  -4  -8  -3   32.05    2.69
  -4  -8  -3   29.47    2.96
  -4  -8  -3   28.64    2.80
  -5  -8  -3   15.74    1.42
  -5  -8  -3   13.94    1.51
  -5  -8  -3   12.66    1.29
   4   8  -4   16.86    1.51
  -4  -8   4   16.92    1.57
  -4  -8   4   16.13    1.63
   3   8  -4   17.05    1.59
  -3  -8   4   19.40    1.81
  -3  -8   4   17.28    1.65
  -3  -8   4   16.11    1.70
   2   8  -4   -0.09    0.20
  -2  -8   4    0.29    0.17
  -2  -8   4   -0.34    0.17
   1   8  -4    6.51    0.71
   1   8  -4    4.86    0.73
  -1  -8   4    5.97    0.76
  -1  -8   4    5.64    0.74
  -1  -8   4    6.31    0.80
   0   8  -4   19.29    1.72
   0   8  -4   16.71    1.61
   0  -8   4   18.82    1.71
   0  -8   4   14.41    1.78
  -5  -7   4   15.09    1.33
  -5  -7   4   16.01    1.49
  -5  -7   4   12.49    1.38
   4   7  -4    0.57    0.21
  -4  -7   4    0.36    0.19
  -4  -7   4    0.32    0.16
  -4  -7   4    0.51    0.19
   3   7  -4   10.32    1.03
  -3  -7   4   12.36    1.14
  -3  -7   4   10.27    1.07
   2   7  -4   28.57    2.33
   2   7  -4   24.60    2.39
  -2  -7   4   25.56    2.50
  -2  -7   4   29.46    2.43
  -2  -7   4   26.31    2.61
   1   7  -4   33.00    3.38
   1   7  -4   45.50    3.57
  -1  -7   4   43.13    3.56
  -1  -7   4   40.44    3.68
  -1  -7   4   39.72    3.84
   0   7  -4   14.48    1.44
   0   7  -4   13.21    1.48
   0  -7   4   19.00    1.69
   0  -7   4   16.22    1.51
  -1   7  -4    0.39    0.29
  -1   7  -4    0.38    0.23
  -1   7  -4    0.29    0.28
   1  -7   4    0.28    0.26
   1  -7   4    0.58    0.28
  -2   7  -4   17.09    1.81
  -2   7  -4   23.13    1.80
  -2   7  -4   16.73    1.94
   2  -7   4   20.30    1.99
   2  -7   4   17.61    1.79
   5   6  -4    9.60    0.90
  -5  -6   4    8.92    0.82
  -5  -6   4    9.67    0.95
  -5  -6   4    7.07    0.85
   4   6  -4   41.39    3.43
  -4  -6   4   38.32    3.84
  -4  -6   4   40.49    3.54
  -4  -6   4   44.08    3.70
   3   6  -4   15.59    1.35
  -3  -6   4   15.41    1.45
  -3  -6   4   14.55    1.50
   2   6  -4    0.51    0.16
   2   6  -4    0.35    0.18
  -2  -6   4    0.49    0.18
  -2  -6   4    0.25    0.16
  -2  -6   4    0.38    0.13
   1   6  -4   24.66    1.96
   1   6  -4   25.61    2.04
  -1  -6   4   22.53    2.09
  -1  -6   4   21.47    2.01
  -1  -6   4   18.19    2.16
   0   6  -4    5.22    0.56
   0   6  -4    3.83    0.55
   0  -6   4    3.86    0.58
   0  -6   4    4.94    0.59
   0  -6   4    4.88    0.58
  -1   6  -4   35.29    2.83
  -1   6  -4   31.18    3.24
  -1   6  -4   31.54    2.94
   1  -6   4   33.97    2.94
  -2   6  -4   17.56    1.86
  -2   6  -4   18.62    1.66
  -2   6  -4   14.49    1.68
  -2   6  -4   19.03    1.80
   2  -6   4   19.38    1.72
   2  -6   4   18.47    1.87
  -3   6  -4    1.57    0.34
  -3   6  -4    1.32    0.29
  -3   6  -4    1.21    0.40
  -3   6  -4    1.16    0.34
   3  -6   4    0.99    0.34
   3  -6   4    1.45    0.30
  -7  -5   4    9.20    1.23
  -6  -5   4   33.83    3.47
   5   5  -4   49.25    4.14
  -5  -5   4   50.77    4.41
  -5  -5   4   54.68    4.63
  -5  -5   4   44.73    4.23
   4   5  -4    6.89    0.65
  -4  -5   4    6.25    0.64
  -4  -5   4    5.32    0.66
  -4  -5   4    6.01    0.60
   3   5  -4   26.69    2.28
   3   5  -4   28.50    2.38
  -3  -5   4   26.68    2.56
  -3  -5   4   24.32    2.45
  -3  -5   4   29.87    2.38
   2   5  -4  108.19    9.25
   2   5  -4  121.53    9.64
  -2  -5   4  115.57    9.64
  -2  -5   4  111.08   10.42
   1   5  -4   58.71    4.70
   1   5  -4   54.75    4.52
  -1  -5   4   50.77    4.51
  -1  -5   4   45.57    4.67
  -1  -5   4   53.77    4.89
   0   5  -4   74.75    6.32
   0   5  -4   66.74    5.61
   0  -5   4   70.73    6.07
   0  -5   4   57.84    6.31
   0  -5   4   71.18    5.84
  -1   5  -4    0.61    0.24
  -1   5  -4    0.74    0.21
  -1   5  -4    0.79    0.22
  -1   5  -4    0.89    0.20
  -1   5  -4    0.68    0.22
   1  -5   4    0.79    0.23
   1  -5   4    0.97    0.27
   1  -5   4    0.87    0.24
  -2   5  -4   29.64    2.73
  -2   5  -4   28.16    2.44
  -2   5  -4   26.81    2.54
  -2   5  -4   23.05    2.60
   2  -5   4   31.03    2.78
   2  -5   4   31.96    2.55
  -3   5  -4   46.80    4.79
  -3   5  -4   55.78    4.17
  -3   5  -4   56.14    4.69
  -3   5  -4   42.18    4.44
   3  -5   4   46.08    4.28
  -4   5  -4   13.87    1.23
  -4   5  -4   10.02    1.29
  -4   5  -4   11.97    1.23
  -4   5  -4   12.80    1.31
  -4   5  -4   12.25    1.34
  -7  -4   4    4.73    0.87
  -6  -4   4   -0.01    0.20
   5   4  -4   13.36    1.27
  -5  -4   4   14.93    1.39
   4   4  -4   38.53    3.20
  -4  -4   4   40.53    3.55
  -4  -4   4   39.32    3.40
  -4  -4   4   37.25    3.27
  -4  -4   4   39.19    3.40
  -4  -4   4   34.90    3.57
   3   4  -4   82.37    6.37
  -3  -4   4   79.87    6.61
  -3  -4   4   75.00    7.15
  -3  -4   4   69.20    6.59
  -3  -4   4   85.10    6.87
  -3  -4   4   77.50    6.87
   2   4  -4   72.47    7.53
   2   4  -4   79.33    6.96
  -2  -4   4   82.95    7.83
  -2  -4   4   91.55    7.54
  -2  -4   4   97.27    7.29
  -2  -4   4   91.95    7.54
   1   4  -4    0.27    0.10
   1   4  -4    0.33    0.13
   1   4  -4    0.25    0.12
   1   4  -4    0.27    0.13
   1   4  -4    0.40    0.11
  -1  -4   4    0.30    0.09
  -1  -4   4    0.51    0.15
  -1  -4   4    0.23    0.13
  -1  -4   4    0.20    0.12
  -1  -4   4    0.35    0.13
   0   4  -4   28.99    2.97
   0   4  -4   34.33    2.88
   0   4  -4   34.35    3.09
   0   4  -4   35.51    2.77
   0  -4   4   32.91    3.11
   0  -4   4   32.90    2.98
  -1   4  -4  124.03   12.03
  -1   4  -4  138.14   11.49
  -1   4  -4  141.20   10.62
  -1   4  -4  137.41   12.38
  -1   4  -4  111.15   11.04
   1  -4   4  140.29   11.05
   1  -4   4  123.84   11.48
  -2   4  -4  134.14   11.69
  -2   4  -4  113.03   11.12
  -2   4  -4  124.14   10.29
  -2   4  -4  112.76   12.00
   2  -4   4  132.29   11.14
   2  -4   4  129.59   11.61
   2  -4   4  141.17   10.72
  -3   4  -4   20.03    1.86
  -3   4  -4   21.74    2.10
  -3   4  -4   20.44    2.00
  -3   4  -4   21.20    1.94
   3  -4   4   22.31    2.10
   3  -4   4   21.66    1.93
  -4   4  -4    6.41    0.73
  -4   4  -4    5.01    0.67
  -4   4  -4    6.09    0.67
  -4   4  -4    4.42    0.64
  -4   4  -4    5.72    0.77
  -5   4  -4   23.19    2.16
  -5   4  -4   24.64    2.25
  -5   4  -4   24.77    2.51
  -5   4  -4   25.15    2.36
  -7  -3   4    5.49    0.87
  -6  -3   4   54.79    5.43
  -5  -3   4   87.11    8.18
  -5  -3   4   92.35    8.64
   4   3  -4    8.22    0.71
   4   3  -4    7.89    0.73
  -4  -3   4    7.05    0.73
  -4  -3   4    7.18    0.70
  -4  -3   4    7.88    0.73
  -4  -3   4    7.40    0.76
   3   3  -4   26.90    2.36
  -3  -3   4   29.07    2.44
  -3  -3   4   30.05    2.54
  -3  -3   4   26.33    2.44
  -3  -3   4   26.98    2.34
  -3  -3   4   24.54    2.34
   2   3  -4   76.25    6.45
   2   3  -4   73.15    6.19
  -2  -3   4   79.10    6.45
  -2  -3   4   83.22    7.07
  -2  -3   4   72.09    6.95
  -2  -3   4   69.00    6.43
  -2  -3   4   82.01    6.70
   1   3  -4  161.56   13.03
   1   3  -4  158.51   12.51
   1   3  -4  132.90   13.54
  -1  -3   4  165.09   13.55
  -1  -3   4  172.70   13.55
  -1  -3   4  133.55   14.20
  -1  -3   4  161.43   14.09
   0   3  -4   26.30    2.21
   0   3  -4   27.77    2.13
   0   3  -4   24.29    2.04
   0   3  -4   21.12    2.28
   0   3  -4   25.31    2.29
   0  -3   4   20.17    2.19
   0  -3   4   25.30    2.12
   0  -3   4   25.18    2.30
   0  -3   4   24.99    2.20
  -1   3  -4    0.82    0.18
  -1   3  -4    0.80    0.18
  -1   3  -4    0.92    0.18
  -1   3  -4    0.88    0.18
  -1   3  -4    0.49    0.15
  -1   3  -4    0.90    0.18
   1  -3   4    0.86    0.16
   1  -3   4    0.97    0.22
   1  -3   4    0.86    0.18
  -2   3  -4    6.64    0.66
  -2   3  -4    4.57    0.56
  -2   3  -4    4.71    0.61
  -2   3  -4    6.62    0.62
  -2   3  -4    6.05    0.63
   2  -3   4    5.62    0.65
   2  -3   4    6.59    0.61
   2  -3   4    5.96    0.61
  -3   3  -4   11.17    1.11
  -3   3  -4    8.54    1.00
  -3   3  -4   10.32    1.10
  -3   3  -4   12.54    1.07
   3  -3   4   10.28    1.00
  -4   3  -4   57.81    5.39
  -4   3  -4   55.25    5.10
  -4   3  -4   65.45    5.51
  -4   3  -4   49.91    4.90
  -5   3  -4   11.75    1.23
  -5   3  -4    9.51    1.24
  -5   3  -4   11.29    1.11
  -5   3  -4   11.73    1.16
  -7  -2   4   25.40    2.73
  -6  -2   4    1.55    0.40
  -5  -2   4    0.34    0.13
  -5  -2   4    0.21    0.25
  -4  -2   4   28.12    3.03
  -4  -2   4   32.35    2.73
  -4  -2   4   28.37    2.59
  -4  -2   4   32.63    2.60
   3   2  -4   72.99    6.38
   3   2  -4   74.93    6.62
  -3  -2   4   74.84    6.89
  -3  -2   4   92.36    6.63
  -3  -2   4   92.14    6.90
  -3  -2   4   71.30    7.24
  -3  -2   4   71.23    6.62
   2   2  -4  148.14   12.35
   2   2  -4  156.02   12.84
  -2  -2   4  132.47   13.32
  -2  -2   4  132.79   12.33
  -2  -2   4  165.90   12.85
   1   2  -4   32.48    2.99
   1   2  -4   35.09    2.87
   1   2  -4   36.66    3.27
  -1  -2   4   34.84    2.99
  -1  -2   4   36.56    3.11
  -1  -2   4   38.26    3.22
  -1  -2   4   33.35    2.98
  -1  -2   4   32.58    3.11
   0   2  -4    2.77    0.30
   0   2  -4    3.02    0.32
   0   2  -4    2.79    0.33
   0   2  -4    3.20    0.33
   0   2  -4    3.24    0.34
   0  -2   4    2.41    0.31
   0  -2   4    2.95    0.32
   0  -2   4    2.86    0.33
   0  -2   4    2.10    0.32
   0  -2   4    2.76    0.32
  -1   2  -4   90.64    9.49
  -1   2  -4  117.31    8.36
  -1   2  -4  110.19    8.71
  -1   2  -4   93.57    9.05
  -1   2  -4  107.46    9.06
   1  -2   4  110.58    8.71
   1  -2   4   96.84    9.04
   1  -2   4  100.18    9.42
  -2   2  -4  314.96   26.60
  -2   2  -4  304.70   24.67
  -2   2  -4  236.01   22.75
  -2   2  -4  273.06   24.66
  -2   2  -4  315.59   25.91
   2  -2   4  249.16   24.65
   2  -2   4  279.87   23.71
   2  -2   4  288.76   25.66
  -3   2  -4   23.15    2.18
  -3   2  -4   19.86    2.33
  -3   2  -4   27.20    2.33
  -3   2  -4   24.57    2.18
  -3   2  -4   20.90    2.09
   3  -2   4   25.74    2.10
   3  -2   4   27.46    2.18
  -4   2  -4   10.48    1.12
  -4   2  -4    9.43    1.03
  -4   2  -4   10.22    1.14
  -4   2  -4   11.48    1.02
   4  -2   4   11.48    1.01
  -5   2  -4   27.13    2.40
  -5   2  -4   25.14    2.69
  -5   2  -4   27.79    2.51
  -5   2  -4   29.12    2.71
  -6   2  -4    9.95    1.08
  -6   2  -4   10.71    1.05
  -6   2  -4   11.99    1.30
  -7  -1   4    8.48    1.14
  -6  -1   4   47.57    3.78
  -6  -1   4   35.49    4.20
  -5  -1   4   30.78    3.15
  -5  -1   4   32.06    2.78
  -5  -1   4   30.41    2.66
   4   1  -4    5.86    0.49
  -4  -1   4    5.70    0.53
  -4  -1   4    5.41    0.53
  -4  -1   4    4.25    0.48
  -4  -1   4    4.33    0.64
   3   1  -4    0.07    0.07
  -3  -1   4    0.13    0.07
  -3  -1   4    0.08    0.07
  -3  -1   4    0.14    0.09
  -3  -1   4    0.00    0.08
  -3  -1   4    0.01    0.07
  -3  -1   4    0.47    0.20
   2   1  -4   59.46    4.65
   2   1  -4   49.29    4.31
   2   1  -4   54.55    4.47
  -2  -1   4   50.63    4.88
  -2  -1   4   47.53    4.66
  -2  -1   4   60.03    5.07
  -2  -1   4   57.94    4.48
  -2  -1   4   44.42    4.48
  -2  -1   4   52.43    4.65
   1   1  -4  184.86   20.44
   1   1  -4  246.99   20.21
   1   1  -4  231.57   18.71
  -1  -1   4  230.21   18.71
  -1  -1   4  230.03   17.97
  -1  -1   4  205.07   19.45
  -1  -1   4  233.06   19.47
   0   1  -4  196.71   20.88
   0   1  -4  227.96   19.84
   0   1  -4  237.57   19.07
   0   1  -4  239.72   18.31
   0   1  -4  221.54   20.83
   0   1  -4  231.22   19.84
   0  -1   4  195.17   19.84
   0  -1   4  210.69   20.83
   0  -1   4  249.65   18.31
   0  -1   4  243.46   19.08
   0  -1   4  240.88   19.84
   0  -1   4  237.28   20.64
  -1   1  -4   35.28    2.87
  -1   1  -4   34.87    2.77
  -1   1  -4   35.22    3.07
  -1   1  -4   31.49    3.02
  -1   1  -4   34.36    2.65
  -1   1  -4   32.75    2.87
   1  -1   4   29.28    2.75
   1  -1   4   32.43    2.87
   1  -1   4   28.04    2.86
   1  -1   4   30.34    2.65
  -2   1  -4    8.64    0.85
  -2   1  -4    9.97    0.82
  -2   1  -4   10.12    0.91
  -2   1  -4    9.61    0.82
  -2   1  -4    8.38    0.89
  -2   1  -4    9.75    0.85
   2  -1   4    9.94    0.91
   2  -1   4    7.52    0.83
   2  -1   4    7.27    0.81
  -3   1  -4   36.85    3.73
  -3   1  -4   44.84    3.96
  -3   1  -4   48.16    3.60
  -3   1  -4   44.98    4.02
  -3   1  -4   40.13    3.59
  -3   1  -4   43.50    3.74
   3  -1   4   40.56    3.59
   3  -1   4   38.63    3.72
  -4   1  -4   73.85    6.58
  -4   1  -4   78.44    6.59
  -4   1  -4   76.35    6.33
  -4   1  -4   79.25    6.97
   4  -1   4   66.13    6.31
  -5   1  -4   64.08    5.17
  -5   1  -4   56.83    4.64
  -5   1  -4   45.11    5.19
  -5   1  -4   52.75    4.82
  -6   1  -4   11.86    1.41
  -6   1  -4   12.99    1.17
  -6   1  -4   12.63    1.24
  -6   0   4   31.70    2.94
  -6   0   4   32.78    3.33
  -6   0   4   32.71    2.80
  -5   0   4    0.86    0.21
  -5   0   4    0.64    0.23
  -5   0   4    0.72    0.17
   4   0  -4   75.69    5.90
  -4   0   4   63.22    5.90
  -4   0   4   75.52    6.15
  -4   0   4   64.68    6.14
   3   0  -4  247.80   21.43
  -3   0   4  283.66   24.16
  -3   0   4  255.70   21.43
  -3   0   4  277.74   22.31
  -3   0   4  219.14   22.30
  -3   0   4  251.17   23.17
   2   0  -4  110.23    8.82
   2   0  -4   99.56    9.16
  -2   0   4  118.65    9.18
  -2   0   4  101.19    8.82
  -2   0   4  107.10    9.17
  -2   0   4  102.49    9.94
  -2   0   4  100.69    9.50
  -2   0   4   99.06    8.81
   1   0  -4    5.00    0.47
   1   0  -4    3.60    0.46
   1   0  -4    4.15    0.54
   1   0  -4    5.01    0.46
   1   0  -4    5.46    0.50
   1   0  -4    4.27    0.48
  -1   0   4    5.23    0.51
  -1   0   4    4.25    0.51
  -1   0   4    5.17    0.47
  -1   0   4    5.59    0.47
  -1   0   4    5.69    0.50
   0   0  -4  169.97   16.83
   0   0  -4  167.06   15.40
   0   0  -4  182.67   15.41
   0   0  -4  186.40   16.02
   0   0  -4  183.09   14.79
   0   0  -4  181.86   16.02
   0   0  -4  206.15   16.89
   0   0   4  166.37   17.27
   0   0   4  182.03   16.83
   0   0   4  162.53   15.41
   0   0   4  208.16   16.03
   0   0   4  196.27   16.89
   0   0   4  194.81   15.41
  -1   0  -4  150.76   15.34
  -1   0  -4  186.08   13.42
  -1   0  -4  192.15   14.01
  -1   0  -4  146.45   15.28
   1   0   4  183.84   14.56
   1   0   4  168.98   13.42
   1   0   4  158.82   13.99
   1   0   4  148.48   15.29
  -2   0  -4  236.80   22.18
  -2   0  -4  273.28   25.93
  -2   0  -4  301.15   24.05
  -2   0  -4  295.41   23.12
  -2   0  -4  280.53   25.27
   2   0   4  269.67   23.11
  -3   0  -4   37.23    3.16
  -3   0  -4   33.55    2.91
  -3   0  -4   37.71    3.04
  -3   0  -4   34.34    3.16
  -3   0  -4   36.56    3.35
   3   0   4   35.19    3.03
  -4   0  -4    2.43    0.34
  -4   0  -4    2.72    0.29
  -4   0  -4    2.61    0.31
  -4   0  -4    3.05    0.33
  -4   0  -4    2.86    0.42
  -4   0  -4    2.44    0.29
   4   0   4    2.62    0.28
  -5   0  -4   15.95    1.40
  -5   0  -4   17.77    1.48
  -5   0  -4   17.81    1.65
  -5   0  -4   14.42    1.46
  -5   0  -4   14.21    1.60
  -6   0  -4   17.85    1.68
  -6   0  -4   20.43    1.91
  -6   0  -4   17.03    1.59
  -7   0  -4   13.22    1.51
  -6   1   4   11.40    1.14
  -6   1   4   13.89    1.47
  -6   1   4   11.86    1.20
  -5   1   4   47.50    4.55
  -5   1   4   59.22    4.78
   4  -1  -4   27.52    2.25
  -4   1   4   24.70    2.60
  -4   1   4   25.28    2.36
  -4   1   4   25.49    2.25
   3  -1  -4    8.44    0.89
   3  -1  -4   10.34    0.87
  -3   1   4   10.31    1.06
  -3   1   4    9.02    0.88
  -3   1   4    9.04    0.91
  -3   1   4   10.27    0.89
   2  -1  -4   39.33    3.73
   2  -1  -4   38.29    4.02
   2  -1  -4   51.06    4.12
   2  -1  -4   42.54    3.88
  -2   1   4   42.42    3.89
  -2   1   4   39.42    3.88
  -2   1   4   50.88    4.25
  -2   1   4   48.32    4.01
   1  -1  -4  116.80   10.25
   1  -1  -4  122.91   10.64
   1  -1  -4  110.11    9.86
  -1   1   4  109.52   10.25
  -1   1   4  131.04    9.86
  -1   1   4  135.98   11.09
  -1   1   4  102.52   10.64
  -1   1   4  111.43   10.26
  -1   1   4  116.09    9.86
   0  -1  -4  676.71   70.86
   0  -1  -4  884.03   74.80
   0  -1  -4  866.17   68.15
   0  -1  -4  888.20   73.71
   0  -1  -4  846.66   74.43
   0   1   4  712.46   74.60
   0   1   4  875.18   76.59
   0   1   4  834.65   70.95
   0   1   4  779.01   73.66
   0   1   4  707.64   68.12
   0   1   4  880.15   70.85
  -1  -1  -4  332.07   34.04
  -1  -1  -4  423.20   32.73
  -1  -1  -4  394.76   35.75
  -1  -1  -4  406.90   36.74
  -1  -1  -4  412.88   32.78
  -1  -1  -4  342.13   35.89
   1   1   4  402.45   35.75
   1   1   4  395.09   35.90
   1   1   4  439.20   34.12
   1   1   4  422.28   32.76
   1   1   4  378.11   36.75
   1   1   4  345.69   34.04
  -2  -1  -4    0.04    0.11
  -2  -1  -4    0.05    0.09
  -2  -1  -4    0.12    0.10
  -2  -1  -4    0.01    0.06
  -2  -1  -4    0.21    0.09
   2   1   4    0.07    0.06
   2   1   4   -0.08    0.07
   2   1   4    0.09    0.07
  -3  -1  -4    9.47    0.75
  -3  -1  -4    8.43    0.72
  -3  -1  -4    7.61    0.70
  -3  -1  -4    6.87    0.83
  -3  -1  -4    7.54    0.81
  -3  -1  -4    8.70    0.84
   3   1   4    7.55    0.71
  -4  -1  -4  141.24   15.55
  -4  -1  -4  180.26   13.81
  -4  -1  -4  162.43   13.82
  -4  -1  -4  175.36   15.17
  -5  -1  -4  103.76    8.49
  -5  -1  -4   79.38    8.67
  -6  -1  -4    6.05    0.82
  -6  -1  -4    6.67    0.77
  -7  -1  -4   -0.26    0.21
  -7  -1  -4   -0.65    0.24
  -6   2   4   17.13    1.52
  -6   2   4   14.37    1.56
  -6   2   4   17.00    1.82
  -5   2   4    1.27    0.30
  -5   2   4    1.13    0.37
  -5   2   4    1.28    0.25
  -4   2   4   17.93    1.66
  -4   2   4   18.66    1.92
   3  -2  -4  124.27    9.97
  -3   2   4  123.54    9.58
  -3   2   4   96.76   10.78
  -3   2   4  108.70    9.97
   2  -2  -4  102.83    8.74
   2  -2  -4  102.58    8.40
   2  -2  -4  100.93    9.23
  -2   2   4   83.33    8.40
  -2   2   4  106.54    8.76
  -2   2   4  101.46    9.47
   1  -2  -4   79.39    7.09
   1  -2  -4   74.22    6.71
   1  -2  -4   72.09    6.45
  -1   2   4   79.98    6.72
   0  -2  -4    7.40    0.75
   0  -2  -4    7.71    0.72
   0  -2  -4    7.11    0.69
   0   2   4    6.59    0.66
   0   2   4    6.96    0.69
   0   2   4    7.50    0.69
   0   2   4    5.51    0.73
   0   2   4    7.93    0.72
  -1  -2  -4   52.44    5.11
  -1  -2  -4   49.46    4.75
  -1  -2  -4   52.22    4.57
  -1  -2  -4   58.16    4.99
   1   2   4   58.88    4.56
   1   2   4   52.76    5.12
  -2  -2  -4  140.20   12.06
  -2  -2  -4  130.80   11.48
  -2  -2  -4  135.26   11.04
   2   2   4  130.87   11.03
   2   2   4  120.10   11.47
  -3  -2  -4   51.86    4.98
  -3  -2  -4   53.16    4.52
  -3  -2  -4   48.04    5.01
  -3  -2  -4   55.33    4.53
   3   2   4   59.35    4.52
  -4  -2  -4   49.39    4.50
  -4  -2  -4   44.49    4.36
  -4  -2  -4   46.59    4.41
  -5  -2  -4    3.02    0.44
  -5  -2  -4    2.79    0.43
  -5  -2  -4    2.74    0.45
  -6  -2  -4   14.77    1.53
  -6  -2  -4   13.62    1.52
  -6  -2  -4   14.88    1.51
  -7  -2  -4   25.86    2.74
  -7  -2  -4   28.71    2.73
  -5   3   4   30.85    3.07
  -5   3   4   27.53    2.66
  -5   3   4   31.18    2.80
  -4   3   4   42.74    3.92
  -4   3   4   50.35    4.46
  -4   3   4   42.44    4.08
   3  -3  -4   24.35    2.65
   3  -3  -4   26.13    2.45
  -3   3   4   32.99    2.50
  -3   3   4   30.04    2.80
  -3   3   4   26.73    2.58
   2  -3  -4    0.07    0.11
   2  -3  -4   -0.01    0.12
   2  -3  -4    0.15    0.15
   2  -3  -4    0.14    0.15
  -2   3   4   -0.05    0.13
  -2   3   4    0.08    0.12
  -2   3   4   -0.01    0.11
  -2   3   4    0.18    0.13
   1  -3  -4   72.36    6.21
   1  -3  -4   63.11    6.45
  -1   3   4   78.74    6.47
  -1   3   4   80.62    7.00
  -1   3   4   76.08    6.49
  -1   3   4   69.46    6.22
   0  -3  -4  197.67   15.96
   0  -3  -4  185.72   15.34
   0  -3  -4  185.78   16.82
   0   3   4  188.93   16.73
   0   3   4  196.80   15.97
   0   3   4  165.61   17.21
   0   3   4  157.02   15.33
  -1  -3  -4  115.85   10.51
  -1  -3  -4  133.60    9.71
  -1  -3  -4  116.01    9.70
  -1  -3  -4  117.25   10.66
  -1  -3  -4  115.08   10.09
  -1  -3  -4   99.34   10.56
  -1  -3  -4  117.11   10.09
   1   3   4  117.79    9.70
   1   3   4  121.93   10.56
   1   3   4  104.58   10.09
   1   3   4  109.82   10.89
  -2  -3  -4    4.90    0.45
  -2  -3  -4    3.96    0.42
  -2  -3  -4    4.58    0.54
  -2  -3  -4    4.07    0.42
  -2  -3  -4    4.11    0.44
  -2  -3  -4    4.75    0.44
  -2  -3  -4    3.64    0.48
   2   3   4    3.58    0.41
   2   3   4    4.11    0.43
   2   3   4    4.18    0.43
  -3  -3  -4   67.97    6.92
  -3  -3  -4   83.24    6.65
  -3  -3  -4   76.96    6.92
  -3  -3  -4   89.17    7.29
  -3  -3  -4   86.60    6.66
  -3  -3  -4   72.89    7.35
   3   3   4   76.35    6.64
  -4  -3  -4   50.04    4.99
  -4  -3  -4   55.17    5.05
  -4  -3  -4   56.47    5.02
  -5  -3  -4   36.92    3.15
  -5  -3  -4   30.29    3.17
  -5  -3  -4   32.00    3.26
  -6  -3  -4    2.76    0.46
  -6  -3  -4    2.37    0.49
  -6  -3  -4    3.13    0.53
  -6  -3  -4    3.46    0.56
  -7  -3  -4    0.37    0.30
  -7  -3  -4    0.99    0.23
  -7  -3  -4    0.63    0.31
   4  -4  -4    0.97    0.29
  -4   4   4    1.11    0.33
  -4   4   4    1.07    0.35
  -4   4   4    0.87    0.28
   3  -4  -4   28.10    2.32
   3  -4  -4   25.16    2.51
  -3   4   4   26.15    2.42
  -3   4   4   25.21    2.33
  -3   4   4   23.74    2.61
   2  -4  -4   43.79    3.24
  -2   4   4   32.82    3.62
  -2   4   4   34.26    3.23
   1  -4  -4   35.48    3.12
   1  -4  -4   31.11    2.87
   1  -4  -4   31.64    2.99
  -1   4   4   34.48    3.02
  -1   4   4   32.35    3.24
  -1   4   4   33.27    2.89
   0  -4  -4   38.22    3.18
   0  -4  -4   31.89    3.05
   0  -4  -4   35.20    3.30
   0   4   4   34.80    3.05
   0   4   4   37.42    3.44
   0   4   4   34.42    3.19
  -1  -4  -4   21.59    2.00
  -1  -4  -4   21.82    1.98
  -1  -4  -4   19.67    1.87
   1   4   4   16.96    1.91
   1   4   4   22.35    1.89
   1   4   4   21.91    1.81
  -2  -4  -4   57.62    5.86
  -2  -4  -4   76.13    5.65
  -2  -4  -4   66.25    6.13
  -2  -4  -4   57.99    5.86
   2   4   4   75.04    5.64
  -3  -4  -4   92.16    7.01
  -3  -4  -4   71.67    7.28
  -3  -4  -4   76.62    7.29
  -3  -4  -4   75.40    7.62
  -3  -4  -4   93.88    7.77
  -3  -4  -4   89.77    7.01
  -3  -4  -4   96.43    7.66
   3   4   4   83.73    6.71
   3   4   4   70.60    7.00
  -4  -4  -4    7.24    0.74
  -4  -4  -4    7.30    0.73
  -4  -4  -4    9.13    0.88
  -4  -4  -4    7.51    0.69
  -4  -4  -4    7.57    0.79
  -4  -4  -4    8.10    0.88
  -5  -4  -4   27.76    2.53
  -5  -4  -4   26.50    2.46
  -5  -4  -4   23.03    2.51
  -6  -4  -4   15.91    1.48
  -6  -4  -4   16.08    1.54
  -6  -4  -4   12.02    1.47
  -6  -4  -4   13.11    1.55
  -7  -4  -4   42.87    3.88
  -7  -4  -4   37.19    3.88
   4  -5  -4   43.51    4.28
  -4   5   4   44.28    4.11
  -4   5   4   47.89    4.50
  -4   5   4   45.90    4.33
  -4   5   4   42.37    3.96
   3  -5  -4   20.99    2.44
   3  -5  -4   24.53    2.26
  -3   5   4   25.64    2.29
  -3   5   4   27.69    2.59
  -3   5   4   25.08    2.35
   2  -5  -4    0.46    0.22
   2  -5  -4    0.99    0.32
  -2   5   4    0.17    0.20
  -2   5   4    0.07    0.26
  -2   5   4    0.76    0.26
   1  -5  -4   42.89    4.16
   1  -5  -4   46.06    4.39
   1  -5  -4   40.98    4.33
   1  -5  -4   45.35    4.00
  -1   5   4   43.67    4.02
  -1   5   4   51.84    4.20
  -1   5   4   52.87    4.53
   0  -5  -4  136.07   11.85
   0  -5  -4  144.76   12.49
   0  -5  -4  133.25   11.39
   0  -5  -4  136.07   12.32
   0   5   4  141.84   11.86
   0   5   4  116.56   11.39
  -1  -5  -4   38.36    4.08
  -1  -5  -4   46.21    4.14
  -1  -5  -4   47.50    3.78
   1   5   4   39.69    3.77
   1   5   4   46.89    3.93
  -2  -5  -4    9.22    0.87
  -2  -5  -4    9.10    0.96
  -2  -5  -4    8.97    0.90
  -2  -5  -4    8.25    0.95
   2   5   4    9.48    0.88
  -3  -5  -4    2.89    0.36
  -3  -5  -4    2.91    0.44
  -3  -5  -4    3.00    0.39
  -3  -5  -4    3.00    0.46
   3   5   4    3.13    0.33
   3   5   4    2.97    0.35
  -4  -5  -4   25.40    2.38
  -4  -5  -4   24.47    2.43
  -4  -5  -4   26.14    2.22
   4   5   4   22.33    2.01
  -5  -5  -4   52.69    4.53
  -5  -5  -4   41.64    4.41
  -6  -5  -4   10.71    1.19
  -6  -5  -4    9.86    1.14
  -7  -5  -4    4.30    0.65
   3  -6  -4    5.93    0.68
   3  -6  -4    6.19    0.82
  -3   6   4    5.54    0.79
  -3   6   4    4.20    0.71
   2  -6  -4   26.43    3.01
   2  -6  -4   32.03    2.80
  -2   6   4   31.39    2.81
  -2   6   4   33.82    3.17
   1  -6  -4   54.46    4.68
   1  -6  -4   52.32    5.11
  -1   6   4   48.74    4.68
  -1   6   4   59.89    5.29
   0  -6  -4   25.39    2.91
   0  -6  -4   27.22    2.79
   0  -6  -4   31.26    2.70
   0  -6  -4   33.79    2.93
   0   6   4   29.33    2.71
   0   6   4   35.49    3.07
  -1  -6  -4    1.27    0.31
  -1  -6  -4    2.11    0.36
  -1  -6  -4    2.11    0.38
  -1  -6  -4    1.82    0.33
   1   6   4    2.24    0.40
   1   6   4    2.18    0.36
  -2  -6  -4   68.26    5.44
  -2  -6  -4   56.68    5.64
  -2  -6  -4   63.92    5.92
   2   6   4   64.98    5.44
  -3  -6  -4   52.62    5.52
  -3  -6  -4   60.24    5.85
  -3  -6  -4   68.52    5.82
  -3  -6  -4   61.56    5.32
   3   6   4   68.81    5.10
  -4  -6  -4   28.12    2.51
  -4  -6  -4   27.26    2.62
  -4  -6  -4   31.87    2.82
  -5  -6  -4    0.57    0.25
  -5  -6  -4    0.07    0.11
  -5  -6  -4    0.12    0.14
  -5  -6  -4    0.31    0.20
  -6  -6  -4    5.14    0.72
   2  -7  -4    4.77    0.64
  -2   7   4    4.10    0.66
   1  -7  -4    6.88    0.92
   1  -7  -4   10.29    1.11
  -1   7   4    8.51    1.00
  -1   7   4    9.03    1.09
   0  -7  -4   20.01    2.18
   0  -7  -4   21.48    2.03
   0   7   4   24.13    2.30
   0   7   4   21.27    2.04
  -1  -7  -4   12.17    1.17
  -1  -7  -4   10.76    1.19
  -1  -7  -4   10.59    1.22
  -1  -7  -4   12.57    1.26
   1   7   4   12.10    1.18
   1   7   4   11.02    1.27
  -2  -7  -4   17.87    1.64
  -2  -7  -4   16.84    1.57
  -2  -7  -4   15.47    1.66
  -2  -7  -4   17.24    1.70
   2   7   4   18.44    1.58
   2   7   4   13.80    1.46
  -3  -7  -4    7.73    0.81
  -3  -7  -4    5.42    0.67
  -3  -7  -4    5.75    0.72
  -3  -7  -4    5.80    0.73
   3   7   4    6.61    0.66
  -4  -7  -4    0.88    0.23
  -4  -7  -4    1.11    0.33
  -4  -7  -4    0.86    0.23
  -4  -7  -4    1.12    0.28
  -5  -7  -4    6.31    0.78
  -5  -7  -4    5.45    0.66
  -5  -7  -4    6.04    0.62
  -6  -7  -4   23.34    2.10
  -6  -7  -4   18.10    1.85
   0  -8  -4    9.74    1.13
   0  -8  -4    9.75    1.22
   0   8   4   11.38    1.18
   0   8   4   11.65    1.30
  -1  -8  -4    0.63    0.24
  -1  -8  -4    0.27    0.27
  -1  -8  -4    0.38    0.22
   1   8   4    0.26    0.25
   1   8   4    0.39    0.19
   1   8   4    0.23    0.26
  -2  -8  -4   10.29    1.11
  -2  -8  -4    8.17    0.99
  -2  -8  -4    9.02    1.05
  -2  -8  -4    9.29    1.08
   2   8   4   10.75    1.00
  -3  -8  -4   33.10    3.25
  -3  -8  -4   39.07    3.15
  -3  -8  -4   34.02    3.41
   3   8   4   34.55    2.99
  -4  -8  -4    7.84    0.91
  -4  -8  -4    8.15    0.86
  -4  -8  -4    8.60    1.01
  -5  -8  -4    0.93    0.26
  -5  -8  -4    1.40    0.33
  -5  -8  -4    1.29    0.30
   4   8  -5    5.09    0.62
  -4  -8   5    5.34    0.62
  -4  -8   5    4.50    0.64
  -4  -8   5    4.87    0.61
   3   8  -5    1.11    0.29
  -3  -8   5    1.71    0.34
  -3  -8   5    2.22    0.43
  -3  -8   5    1.93    0.36
   2   8  -5    9.84    1.04
  -2  -8   5   10.52    1.09
  -2  -8   5   10.73    1.19
  -2  -8   5   10.39    1.13
   1   8  -5    8.08    0.93
   1   8  -5    8.16    0.95
  -1  -8   5    8.42    0.97
  -1  -8   5    9.95    1.08
   0   8  -5   14.57    1.48
   0   8  -5   15.60    1.54
   0  -8   5   16.58    1.56
   0  -8   5   14.58    1.66
  -5  -7   5    1.63    0.29
  -5  -7   5    1.77    0.33
   4   7  -5    5.86    0.64
  -4  -7   5    5.38    0.62
  -4  -7   5    6.10    0.69
  -4  -7   5    5.40    0.66
   3   7  -5   40.93    3.28
  -3  -7   5   39.28    3.42
  -3  -7   5   36.59    3.53
   2   7  -5   47.49    4.17
   2   7  -5   48.01    4.01
  -2  -7   5   44.26    4.32
  -2  -7   5   51.18    4.53
  -2  -7   5   48.65    4.18
   1   7  -5    9.76    1.09
   1   7  -5   10.00    1.06
  -1  -7   5   12.65    1.14
  -1  -7   5   11.51    1.14
  -1  -7   5   11.03    1.21
   0   7  -5    1.05    0.34
   0   7  -5    1.70    0.33
   0  -7   5    1.25    0.32
   0  -7   5    0.97    0.27
  -1   7  -5   10.29    1.09
  -1   7  -5   10.77    1.16
   1  -7   5   11.64    1.26
   1  -7   5   10.59    1.14
  -2   7  -5   28.93    2.52
  -2   7  -5   27.18    2.72
  -2   7  -5   27.93    2.41
   2  -7   5   22.73    2.66
   2  -7   5   27.15    2.49
  -6  -6   5    4.39    0.52
   5   6  -5   15.48    1.56
  -5  -6   5   18.03    1.62
  -5  -6   5   17.40    1.54
   4   6  -5   37.38    3.35
  -4  -6   5   36.12    3.44
  -4  -6   5   45.39    3.62
  -4  -6   5   40.93    3.74
   3   6  -5   19.53    1.76
  -3  -6   5   19.62    1.97
  -3  -6   5   22.55    1.84
  -3  -6   5   19.87    1.90
   2   6  -5   12.19    1.06
   2   6  -5   11.05    1.01
  -2  -6   5   12.18    1.09
  -2  -6   5    8.62    1.10
  -2  -6   5   10.26    1.04
   1   6  -5   45.34    4.10
   1   6  -5   47.45    3.95
  -1  -6   5   49.17    4.45
  -1  -6   5   54.38    4.13
  -1  -6   5   40.96    4.24
   0   6  -5   50.62    4.52
   0   6  -5   62.61    4.74
   0  -6   5   48.68    4.87
   0  -6   5   52.25    5.11
   0  -6   5   58.63    4.72
  -1   6  -5   48.87    4.19
  -1   6  -5   54.88    4.72
  -1   6  -5   49.06    4.85
  -1   6  -5   51.52    4.38
   1  -6   5   45.80    4.35
  -2   6  -5   12.07    1.15
  -2   6  -5   11.47    1.18
  -2   6  -5   10.96    1.20
  -2   6  -5   11.66    1.26
   2  -6   5   11.01    1.16
   2  -6   5   11.27    1.26
  -3   6  -5   -0.12    0.23
  -3   6  -5    0.47    0.23
  -3   6  -5   -0.30    0.25
  -3   6  -5    0.94    0.27
   3  -6   5    0.38    0.18
   3  -6   5    0.15    0.23
  -6  -5   5   18.21    2.02
   5   5  -5    2.97    0.44
  -5  -5   5    3.37    0.38
  -5  -5   5    2.59    0.35
   4   5  -5    1.80    0.32
  -4  -5   5    1.71    0.28
  -4  -5   5    2.03    0.28
  -4  -5   5    1.95    0.31
   3   5  -5   68.32    5.12
   3   5  -5   60.40    4.91
  -3  -5   5   56.40    5.49
  -3  -5   5   62.34    5.09
  -3  -5   5   51.90    5.28
   2   5  -5   54.34    4.75
  -2  -5   5   56.68    4.76
   1   5  -5   10.09    1.05
   1   5  -5   10.43    1.05
   1   5  -5   10.35    0.98
   1   5  -5   10.73    1.01
  -1  -5   5   10.65    1.01
  -1  -5   5   11.06    1.05
   0   5  -5    0.10    0.16
   0   5  -5    0.07    0.12
   0   5  -5    0.12    0.13
   0   5  -5   -0.14    0.13
   0  -5   5    0.00    0.13
   0  -5   5    0.12    0.11
   0  -5   5    0.25    0.18
  -1   5  -5    1.70    0.30
  -1   5  -5    1.38    0.29
  -1   5  -5    1.16    0.25
  -1   5  -5    1.72    0.28
  -1   5  -5    1.44    0.29
   1  -5   5    1.14    0.26
   1  -5   5    1.40    0.28
   1  -5   5    1.01    0.26
  -2   5  -5   14.09    1.51
  -2   5  -5   18.47    1.68
  -2   5  -5   17.01    1.47
  -2   5  -5   17.86    1.64
  -2   5  -5   14.29    1.56
   2  -5   5   16.59    1.66
   2  -5   5   14.47    1.50
  -3   5  -5   33.42    3.62
  -3   5  -5   37.14    3.15
  -3   5  -5   40.68    3.30
  -3   5  -5   34.30    3.38
  -3   5  -5   37.38    3.55
   3  -5   5   37.69    3.55
   3  -5   5   37.91    3.27
  -4   5  -5    9.67    1.12
  -4   5  -5    9.42    1.03
  -4   5  -5    8.95    1.03
  -4   5  -5   10.58    1.05
  -4   5  -5    8.98    1.09
  -7  -4   5    4.16    0.81
  -6  -4   5    0.47    0.27
   5   4  -5   18.64    1.72
  -5  -4   5   19.23    1.71
  -5  -4   5   21.91    2.11
   4   4  -5   61.29    5.14
  -4  -4   5   67.63    5.51
  -4  -4   5   66.28    5.51
  -4  -4   5   54.33    5.29
   3   4  -5   52.94    4.76
   3   4  -5   54.36    4.94
  -3  -4   5   60.39    4.93
  -3  -4   5   60.76    5.14
  -3  -4   5   58.64    5.13
  -3  -4   5   60.70    5.32
   2   4  -5   13.15    1.26
   2   4  -5   12.84    1.13
   2   4  -5   12.97    1.18
   2   4  -5   13.05    1.22
  -2  -4   5   13.49    1.22
  -2  -4   5   12.04    1.16
  -2  -4   5   12.90    1.21
   1   4  -5   43.02    3.64
   1   4  -5   38.20    3.77
   1   4  -5   45.60    3.50
   1   4  -5   37.75    3.94
  -1  -4   5   43.11    3.77
  -1  -4   5   46.93    3.78
   0   4  -5   89.94    7.70
   0   4  -5   87.56    8.37
   0   4  -5   80.83    7.39
   0   4  -5   97.28    8.01
   0  -4   5   86.12    7.69
   0  -4   5  102.31    8.35
   0  -4   5   92.55    8.00
  -1   4  -5   96.11    7.50
  -1   4  -5   95.70    8.50
  -1   4  -5   92.66    7.81
   1  -4   5   82.27    8.45
   1  -4   5   96.68    8.12
   1  -4   5   88.39    7.80
  -2   4  -5    8.42    0.89
  -2   4  -5    6.65    0.90
  -2   4  -5    8.43    0.92
  -2   4  -5    8.26    0.85
  -2   4  -5    9.46    0.85
   2  -4   5    8.64    0.85
   2  -4   5   10.73    0.96
  -3   4  -5    1.11    0.29
  -3   4  -5    1.02    0.26
  -3   4  -5    0.80    0.24
  -3   4  -5    1.30    0.26
  -3   4  -5    0.93    0.27
   3  -4   5    1.18    0.26
  -4   4  -5   17.40    1.89
  -4   4  -5   21.37    1.76
  -4   4  -5   18.08    1.66
  -4   4  -5   16.12    1.87
  -4   4  -5   20.25    1.82
  -5   4  -5   19.90    1.73
  -5   4  -5   19.37    1.67
  -5   4  -5   16.83    1.76
  -5   4  -5   16.01    1.87
  -7  -3   5   16.11    1.85
  -6  -3   5   23.52    2.52
  -5  -3   5    6.08    0.81
  -5  -3   5    5.88    0.55
   4   3  -5    0.69    0.19
  -4  -3   5    0.59    0.13
  -4  -3   5    0.60    0.16
  -4  -3   5    0.99    0.18
  -4  -3   5    0.62    0.17
  -4  -3   5    0.36    0.20
   3   3  -5   48.44    3.74
   3   3  -5   44.86    3.85
  -3  -3   5   50.44    3.84
  -3  -3   5   46.22    3.85
  -3  -3   5   39.17    3.98
  -3  -3   5   42.96    4.00
  -3  -3   5   44.22    4.14
   2   3  -5  104.01    8.07
   2   3  -5   90.10    7.74
  -2  -3   5  100.65    8.38
  -2  -3   5   90.17    8.37
  -2  -3   5  102.34    8.69
  -2  -3   5   85.77    8.04
   1   3  -5   85.80    6.52
   1   3  -5   81.78    6.25
   1   3  -5   75.34    6.77
   1   3  -5   62.82    7.09
  -1  -3   5   68.29    6.76
  -1  -3   5   86.18    6.77
  -1  -3   5   79.02    6.51
   0   3  -5   41.00    3.31
   0   3  -5   37.43    3.58
   0   3  -5   39.97    3.45
   0   3  -5   42.44    3.59
   0  -3   5   33.16    3.42
   0  -3   5   37.08    3.31
   0  -3   5   38.94    3.43
  -1   3  -5    0.49    0.16
  -1   3  -5    0.51    0.14
  -1   3  -5    0.40    0.15
  -1   3  -5    0.39    0.14
  -1   3  -5    0.31    0.13
  -1   3  -5    0.28    0.14
   1  -3   5    0.51    0.14
   1  -3   5    0.68    0.17
   1  -3   5    0.42    0.14
  -2   3  -5   54.14    4.31
  -2   3  -5   51.90    4.13
  -2   3  -5   50.74    4.69
  -2   3  -5   51.27    4.47
  -2   3  -5   43.08    4.78
   2  -3   5   44.33    4.44
   2  -3   5   50.99    4.29
   2  -3   5   55.33    4.66
  -3   3  -5   85.22    7.81
  -3   3  -5   84.78    8.46
  -3   3  -5  100.89    8.90
  -3   3  -5   98.80    9.11
  -3   3  -5  103.94    8.16
   3  -3   5  102.59    8.15
  -4   3  -5   60.38    5.08
  -4   3  -5   56.89    5.65
  -4   3  -5   57.58    5.27
  -4   3  -5   54.21    4.86
  -4   3  -5   66.11    5.58
  -5   3  -5    4.09    0.66
  -5   3  -5    3.80    0.51
  -5   3  -5    3.16    0.50
  -5   3  -5    4.75    0.53
  -7  -2   5   15.78    1.84
  -6  -2   5    0.13    0.22
  -5  -2   5   60.34    5.19
  -5  -2   5   46.66    4.42
  -5  -2   5   55.12    4.64
  -5  -2   5   49.47    4.64
  -4  -2   5  182.82   15.72
  -4  -2   5  171.44   17.75
  -4  -2   5  189.42   16.99
  -4  -2   5  210.58   16.38
  -4  -2   5  181.96   16.37
   3   2  -5   60.38    4.75
   3   2  -5   55.44    4.91
  -3  -2   5   65.81    4.92
  -3  -2   5   56.98    5.27
  -3  -2   5   51.28    5.11
  -3  -2   5   58.42    5.57
  -3  -2   5   64.41    5.36
  -3  -2   5   50.79    4.91
   2   2  -5   17.16    1.54
   2   2  -5   18.99    1.58
   2   2  -5   14.20    1.48
  -2  -2   5   17.73    1.49
  -2  -2   5   16.25    1.56
  -2  -2   5   16.87    1.53
  -2  -2   5   16.92    1.55
   1   2  -5   92.72    7.74
   1   2  -5   94.28    7.43
   1   2  -5   95.52    8.45
  -1  -2   5   90.48    7.73
  -1  -2   5   98.87    8.05
  -1  -2   5   93.15    7.73
  -1  -2   5   77.42    8.34
   0   2  -5  641.82   51.39
   0   2  -5  598.22   49.40
   0   2  -5  549.26   47.42
   0   2  -5  600.90   53.95
   0   2  -5  617.77   51.39
   0  -2   5  552.37   51.38
   0  -2   5  591.78   51.38
   0  -2   5  587.16   53.58
   0  -2   5  572.92   49.39
  -1   2  -5   33.90    3.53
  -1   2  -5   43.97    3.41
  -1   2  -5   35.37    3.26
  -1   2  -5   43.69    3.54
  -1   2  -5   38.46    3.70
  -1   2  -5   33.04    3.77
   1  -2   5   46.80    3.69
   1  -2   5   39.99    3.53
   1  -2   5   46.36    3.80
   1  -2   5   37.11    3.40
  -2   2  -5   32.53    3.04
  -2   2  -5   35.10    2.78
  -2   2  -5   31.18    3.08
  -2   2  -5   29.65    2.66
  -2   2  -5   36.95    2.90
  -2   2  -5   26.78    2.88
   2  -2   5   31.15    2.87
   2  -2   5   34.84    2.78
  -3   2  -5    0.23    0.12
  -3   2  -5    0.25    0.12
  -3   2  -5    0.27    0.15
  -3   2  -5    0.21    0.13
  -3   2  -5    0.15    0.16
  -3   2  -5    0.11    0.12
   3  -2   5    0.18    0.12
   3  -2   5   -0.03    0.11
  -4   2  -5    8.95    0.82
  -4   2  -5    8.00    0.78
  -4   2  -5    7.55    0.84
  -4   2  -5    7.77    0.88
  -4   2  -5    9.27    0.95
   4  -2   5    8.32    0.80
  -5   2  -5   56.13    4.80
  -5   2  -5   52.62    4.33
  -5   2  -5   48.17    4.15
  -5   2  -5   45.45    4.49
  -5   2  -5   49.13    4.84
  -6   2  -5    7.32    0.79
  -6   2  -5    6.66    0.99
  -6   2  -5    7.84    0.86
  -7  -1   5    5.33    0.63
  -6  -1   5   27.04    2.39
  -6  -1   5   25.02    2.75
  -5  -1   5   38.06    3.51
  -5  -1   5   39.27    3.93
  -5  -1   5   40.55    3.36
   4   1  -5   31.41    2.39
  -4  -1   5   26.05    2.49
  -4  -1   5   27.43    2.56
  -4  -1   5   27.61    2.48
  -4  -1   5   26.00    2.37
   3   1  -5   10.82    1.05
   3   1  -5   12.07    1.03
  -3  -1   5   11.98    1.07
  -3  -1   5   12.14    1.09
  -3  -1   5   11.24    1.05
  -3  -1   5   10.47    1.07
  -3  -1   5   11.93    1.03
  -3  -1   5   12.14    1.25
   2   1  -5   69.12    6.58
   2   1  -5   91.06    7.13
   2   1  -5   69.71    6.84
  -2  -1   5   87.18    7.49
  -2  -1   5   89.98    7.15
  -2  -1   5   79.72    7.13
  -2  -1   5   85.62    7.74
  -2  -1   5   77.64    6.86
   1   1  -5  175.87   16.50
   1   1  -5  166.56   17.34
   1   1  -5  212.11   17.12
   1   1  -5  187.14   15.88
   1   1  -5  206.39   15.25
  -1  -1   5  163.54   15.87
  -1  -1   5  202.38   16.51
  -1  -1   5  210.31   16.52
  -1  -1   5  177.29   17.37
   0   1  -5  251.35   25.92
   0   1  -5  320.36   23.67
   0   1  -5  306.04   24.63
   0   1  -5  247.71   25.86
   0   1  -5  310.20   22.72
   0  -1   5  280.97   23.68
   0  -1   5  253.46   25.86
   0  -1   5  303.24   24.62
   0  -1   5  290.51   23.67
   0  -1   5  262.45   25.93
  -1   1  -5   62.90    5.07
  -1   1  -5   49.85    5.31
  -1   1  -5   55.65    4.87
  -1   1  -5   56.63    4.88
  -1   1  -5   60.77    4.67
   1  -1   5   64.24    5.07
   1  -1   5   54.50    4.86
   1  -1   5   55.04    4.67
  -2   1  -5   52.35    4.32
  -2   1  -5   50.55    4.63
  -2   1  -5   49.14    3.98
  -2   1  -5   42.88    4.54
  -2   1  -5   47.40    4.15
  -2   1  -5   48.54    4.16
   2  -1   5   48.45    4.15
   2  -1   5   51.74    4.32
  -3   1  -5  171.24   14.72
  -3   1  -5  138.44   13.44
  -3   1  -5  163.23   15.07
  -3   1  -5  168.58   13.99
  -3   1  -5  178.74   12.91
   3  -1   5  140.29   13.44
  -4   1  -5   94.12   10.63
  -4   1  -5  103.43    9.32
  -4   1  -5  125.77   10.90
  -4   1  -5  127.71   10.12
  -4   1  -5  121.64   10.12
   4  -1   5  118.58    9.71
  -5   1  -5    9.76    0.95
  -5   1  -5    8.38    1.04
  -5   1  -5    9.35    0.86
  -5   1  -5    9.56    1.00
  -5   1  -5    9.42    0.89
  -6   1  -5    2.74    0.39
  -6   1  -5    2.75    0.36
  -6   1  -5    1.90    0.46
  -6   0   5   -0.05    0.28
  -6   0   5    0.14    0.14
  -6   0   5    0.16    0.11
  -5   0   5   29.31    2.63
  -5   0   5   31.74    2.77
   4   0  -5   59.80    4.58
  -4   0   5   47.94    4.76
  -4   0   5   47.57    4.57
  -4   0   5   60.38    4.79
   3   0  -5  117.60    9.60
   3   0  -5  102.71    9.24
  -3   0   5  104.25    9.95
  -3   0   5  117.80    9.25
  -3   0   5  118.09    9.63
  -3   0   5  100.46    9.23
  -3   0   5  107.44   10.45
   2   0  -5   24.62    2.74
   2   0  -5   26.83    2.59
   2   0  -5   31.87    2.51
  -2   0   5   29.61    2.61
  -2   0   5   28.69    2.51
  -2   0   5   30.11    2.87
  -2   0   5   33.14    2.62
  -2   0   5   29.44    2.51
   1   0  -5    1.00    0.18
   1   0  -5    0.65    0.15
   1   0  -5    0.67    0.19
   1   0  -5    0.82    0.16
   1   0  -5    0.85    0.17
  -1   0   5    0.70    0.16
  -1   0   5    0.69    0.16
  -1   0   5    0.88    0.17
  -1   0   5    0.74    0.16
  -1   0   5    0.65    0.19
  -1   0   5    1.09    0.18
   0   0  -5   39.99    3.81
   0   0  -5   47.99    3.49
   0   0  -5   42.58    3.81
   0   0  -5   41.78    3.62
   0   0  -5   37.20    3.33
   0   0   5   40.05    3.62
   0   0   5   38.68    3.81
   0   0   5   43.33    3.49
   0   0   5   43.90    3.50
   0   0   5   38.52    3.81
   0   0   5   38.31    3.34
   0   0   5   39.32    3.62
  -1   0  -5  161.88   12.70
  -1   0  -5  134.34   12.17
  -1   0  -5  149.60   13.21
  -1   0  -5  164.45   13.21
  -1   0  -5  162.66   12.71
   1   0   5  146.91   12.17
   1   0   5  159.70   12.70
   1   0   5  140.26   13.92
   1   0   5  140.60   13.21
  -2   0  -5  118.83   10.68
  -2   0  -5  127.73    9.83
  -2   0  -5  123.71   11.23
  -2   0  -5  117.19   10.67
  -2   0  -5  115.85   10.26
   2   0   5  129.56   10.26
  -3   0  -5   56.72    4.80
  -3   0  -5   45.41    4.46
  -3   0  -5   50.75    4.11
  -3   0  -5   51.19    4.46
  -3   0  -5   49.05    4.72
  -3   0  -5   46.30    4.29
  -3   0  -5   51.07    4.29
   3   0   5   55.04    4.46
   3   0   5   50.04    4.28
  -4   0  -5    0.61    0.22
  -4   0  -5    1.14    0.18
  -4   0  -5    1.22    0.21
  -4   0  -5    1.33    0.21
  -4   0  -5    1.10    0.19
  -4   0  -5    1.29    0.18
   4   0   5    1.12    0.17
  -5   0  -5   14.39    1.34
  -5   0  -5   14.05    1.48
  -5   0  -5   15.54    1.46
  -5   0  -5   13.20    1.27
  -6   0  -5   39.06    4.20
  -6   0  -5   47.41    3.77
  -6   0  -5   44.62    3.93
  -7   0  -5   19.94    1.81
  -7   0  -5   18.26    2.04
  -6   1   5   14.34    1.69
  -6   1   5   15.84    1.47
  -6   1   5   13.75    1.36
  -5   1   5   73.92    6.23
  -5   1   5   69.91    6.79
  -5   1   5   65.77    5.95
   4  -1  -5   33.27    2.90
  -4   1   5   33.85    2.90
   3  -1  -5    6.81    0.65
   3  -1  -5    7.66    0.68
  -3   1   5    5.58    0.65
  -3   1   5    7.15    0.70
  -3   1   5    7.98    0.83
  -3   1   5    6.07    0.68
   2  -1  -5  179.68   18.16
   2  -1  -5  204.01   16.82
  -2   1   5  215.55   17.50
  -2   1   5  187.15   16.80
  -2   1   5  220.77   18.93
  -2   1   5  195.54   16.84
   1  -1  -5  103.60    7.56
   1  -1  -5   79.20    7.85
   1  -1  -5   86.45    8.28
  -1   1   5   80.98    8.48
  -1   1   5   96.98    7.57
  -1   1   5   99.76    7.56
  -1   1   5   87.65    7.86
  -1   1   5   81.20    7.86
   0  -1  -5  110.74    9.51
   0  -1  -5   92.11    9.39
   0  -1  -5   95.80    8.70
   0  -1  -5  101.04    9.05
   0  -1  -5  104.28    9.55
   0  -1  -5  102.19    9.05
   0  -1  -5  113.40    8.71
   0   1   5  111.64    8.35
   0   1   5  104.99    9.40
   0   1   5  107.91    8.70
   0   1   5  103.79    8.71
   0   1   5  102.86    9.05
   0   1   5   96.63    9.05
   0   1   5  101.13    9.51
  -1  -1  -5   15.81    1.34
  -1  -1  -5   14.29    1.49
  -1  -1  -5   15.68    1.34
  -1  -1  -5   15.96    1.40
  -1  -1  -5   12.69    1.46
  -1  -1  -5   15.61    1.46
   1   1   5   15.77    1.34
   1   1   5   14.54    1.47
   1   1   5   14.17    1.27
   1   1   5   16.81    1.41
   1   1   5   17.77    1.47
  -2  -1  -5  147.36   10.79
  -2  -1  -5  120.80   11.33
  -2  -1  -5  110.28   11.37
  -2  -1  -5  107.26   10.78
  -2  -1  -5  137.02   10.37
   2   1   5  117.57   10.36
  -3  -1  -5  120.61   12.55
  -3  -1  -5  121.21   11.86
  -3  -1  -5  149.32   11.87
  -3  -1  -5  132.05   11.40
  -3  -1  -5  140.68   12.50
   3   1   5  151.75   11.42
  -4  -1  -5   30.02    2.33
  -4  -1  -5   30.67    2.62
  -4  -1  -5   24.27    2.33
   4   1   5   24.83    2.33
  -5  -1  -5    7.48    0.80
  -5  -1  -5    7.08    0.83
  -6  -1  -5    0.96    0.29
  -6  -1  -5    1.10    0.34
  -7  -1  -5    6.23    0.83
  -7  -1  -5    5.30    0.83
  -6   2   5    1.24    0.26
  -6   2   5    1.13    0.33
  -6   2   5    0.33    0.23
  -5   2   5    9.12    0.97
  -5   2   5   10.56    1.16
  -5   2   5    7.67    0.89
  -4   2   5   31.30    3.49
  -4   2   5   38.05    3.07
  -4   2   5   35.68    3.21
   3  -2  -5   43.41    3.55
   3  -2  -5   43.29    3.83
  -3   2   5   41.43    3.55
  -3   2   5   36.50    3.69
   2  -2  -5   19.88    1.47
   2  -2  -5   18.14    1.53
   2  -2  -5   13.68    1.60
  -2   2   5   14.42    1.66
  -2   2   5   16.82    1.47
  -2   2   5   15.01    1.51
  -2   2   5   16.48    1.52
   1  -2  -5   44.96    4.32
   1  -2  -5   53.76    4.49
   1  -2  -5   44.82    4.17
  -1   2   5   46.85    4.68
  -1   2   5   53.84    4.35
   0  -2  -5   29.36    2.92
   0  -2  -5   28.68    2.71
   0  -2  -5   30.64    2.95
   0  -2  -5   34.15    2.82
   0   2   5   31.04    2.71
   0   2   5   36.12    3.05
  -1  -2  -5   55.76    4.38
  -1  -2  -5   59.62    4.80
  -1  -2  -5   43.35    4.83
  -1  -2  -5   50.51    4.90
   1   2   5   47.86    4.55
   1   2   5   55.76    4.38
   1   2   5   48.99    4.77
  -2  -2  -5  231.88   18.93
  -2  -2  -5  194.64   20.51
  -2  -2  -5  205.07   20.67
  -2  -2  -5  208.07   19.69
  -2  -2  -5  248.44   19.69
  -2  -2  -5  252.89   20.81
   2   2   5  240.07   19.68
  -3  -2  -5   79.91    6.85
  -3  -2  -5   76.48    6.19
  -3  -2  -5   79.40    6.45
  -3  -2  -5   68.29    6.19
  -3  -2  -5   70.35    6.79
  -3  -2  -5   67.50    6.45
  -4  -2  -5   -0.02    0.11
  -4  -2  -5    0.22    0.15
  -4  -2  -5    0.07    0.06
  -4  -2  -5    0.26    0.15
  -5  -2  -5   51.03    4.69
  -5  -2  -5   43.11    4.59
  -5  -2  -5   51.38    4.57
  -6  -2  -5   27.62    2.74
  -7  -2  -5   16.75    1.90
  -7  -2  -5   19.61    1.92
  -5   3   5   55.55    4.56
  -5   3   5   45.94    4.71
  -5   3   5   55.63    5.19
  -4   3   5   32.70    3.08
  -4   3   5   31.07    2.94
  -4   3   5   36.26    3.37
   3  -3  -5    2.72    0.39
   3  -3  -5    3.06    0.43
  -3   3   5    3.13    0.49
  -3   3   5    2.91    0.41
  -3   3   5    2.50    0.43
   2  -3  -5   60.76    5.92
   2  -3  -5   59.55    5.82
   2  -3  -5   60.16    5.59
   2  -3  -5   61.16    5.38
  -2   3   5   64.24    5.39
  -2   3   5   65.96    5.63
  -2   3   5   70.04    6.08
   1  -3  -5  161.20   12.15
   1  -3  -5  154.59   12.64
  -1   3   5  132.50   13.64
  -1   3   5  138.27   12.15
  -1   3   5  134.23   12.64
   0  -3  -5  132.16   11.54
   0  -3  -5  119.17   11.98
   0  -3  -5  160.48   11.54
   0  -3  -5  128.59   11.08
   0   3   5  129.05   11.09
   0   3   5  120.21   11.53
  -1  -3  -5   24.51    2.18
  -1  -3  -5   23.42    2.22
  -1  -3  -5   21.24    2.06
  -1  -3  -5   22.43    2.00
  -1  -3  -5   23.14    2.15
  -1  -3  -5   23.66    2.08
   1   3   5   20.37    2.23
   1   3   5   24.36    2.16
   1   3   5   22.14    1.99
   1   3   5   24.41    2.08
  -2  -3  -5   18.68    1.84
  -2  -3  -5   19.24    1.68
  -2  -3  -5   16.86    1.75
  -2  -3  -5   16.88    1.62
  -2  -3  -5   18.92    1.79
  -2  -3  -5   17.05    1.68
  -2  -3  -5   19.28    1.62
   2   3   5   18.24    1.68
   2   3   5   20.16    1.62
   2   3   5   20.10    1.74
  -3  -3  -5   50.51    4.15
  -3  -3  -5   44.01    3.98
  -3  -3  -5   53.12    4.40
  -3  -3  -5   42.90    4.35
  -3  -3  -5   46.94    4.14
  -3  -3  -5   45.39    4.44
  -3  -3  -5   52.84    3.99
   3   3   5   41.63    3.97
  -4  -3  -5   54.28    4.52
  -4  -3  -5   52.62    5.00
  -4  -3  -5   46.58    5.01
  -4  -3  -5   57.46    4.53
  -4  -3  -5   51.40    5.06
   4   3   5   58.43    4.52
  -5  -3  -5   42.12    3.83
  -5  -3  -5   37.48    3.88
  -5  -3  -5   40.59    3.82
  -6  -3  -5   10.66    1.20
  -6  -3  -5   10.30    1.15
  -6  -3  -5   10.38    1.21
  -6  -3  -5   11.20    1.19
  -7  -3  -5   -0.38    0.18
  -7  -3  -5   -0.22    0.23
  -7  -3  -5    0.22    0.21
   4  -4  -5    6.41    0.81
  -4   4   5    7.39    0.94
  -4   4   5    6.07    0.77
  -4   4   5    8.03    0.82
   3  -4  -5   52.39    5.47
   3  -4  -5   59.37    5.05
  -3   4   5   53.34    5.06
  -3   4   5   64.60    5.31
  -3   4   5   63.88    5.74
   2  -4  -5  108.90    9.23
   2  -4  -5   97.12    8.38
   2  -4  -5   88.03    9.07
  -2   4   5   91.53    8.74
  -2   4   5  104.57    8.41
  -2   4   5  102.65    9.45
   1  -4  -5   10.40    1.23
   1  -4  -5   13.63    1.31
   1  -4  -5   13.15    1.39
  -1   4   5   13.91    1.34
  -1   4   5   16.09    1.28
  -1   4   5   14.84    1.43
   0  -4  -5    0.21    0.13
   0  -4  -5    0.20    0.13
   0  -4  -5    0.10    0.15
   0  -4  -5    0.21    0.12
   0   4   5    0.17    0.16
   0   4   5    0.26    0.14
   0   4   5    0.00    0.11
  -1  -4  -5  108.50    8.98
  -1  -4  -5  104.76    8.85
  -1  -4  -5   92.37    8.49
  -1  -4  -5   93.01    8.15
   1   4   5   86.34    9.16
   1   4   5   94.74    8.16
  -2  -4  -5  153.26   13.64
  -2  -4  -5  172.26   14.20
  -2  -4  -5  153.77   14.86
   2   4   5  162.16   14.20
   2   4   5  173.74   14.85
   2   4   5  165.16   15.32
   2   4   5  155.56   13.64
  -3  -4  -5  168.24   14.87
  -3  -4  -5  153.29   14.87
  -3  -4  -5  188.61   15.60
  -3  -4  -5  176.13   15.75
  -3  -4  -5  173.19   14.29
   3   4   5  169.53   14.29
   3   4   5  162.45   13.70
  -4  -4  -5   10.81    1.07
  -4  -4  -5   10.67    1.01
  -4  -4  -5    9.90    0.96
  -4  -4  -5   11.72    1.19
  -4  -4  -5   11.64    1.02
  -5  -4  -5   14.87    1.69
  -5  -4  -5   19.46    1.80
  -5  -4  -5   18.82    1.79
  -6  -4  -5   32.43    3.40
  -6  -4  -5   39.37    3.43
  -6  -4  -5   34.26    3.49
  -6  -4  -5   34.61    3.35
  -7  -4  -5    9.35    1.15
  -7  -4  -5   10.03    1.17
  -4   5   5    7.05    0.94
  -4   5   5    6.52    0.87
  -4   5   5    6.09    0.82
   3  -5  -5    2.63    0.43
   3  -5  -5    2.77    0.51
  -3   5   5    2.19    0.48
  -3   5   5    1.61    0.43
  -3   5   5    2.60    0.45
   2  -5  -5    4.85    0.63
   2  -5  -5    6.41    0.77
  -2   5   5    5.58    0.68
  -2   5   5    5.76    0.75
  -2   5   5    4.97    0.68
   1  -5  -5   16.76    1.54
   1  -5  -5   17.38    1.64
   1  -5  -5   13.11    1.44
   1  -5  -5   18.79    1.63
  -1   5   5   12.51    1.46
  -1   5   5   13.59    1.51
  -1   5   5   19.06    1.70
   0  -5  -5   43.44    3.63
   0  -5  -5   43.49    3.78
   0  -5  -5   43.98    3.93
   0  -5  -5   43.01    3.99
   0   5   5   36.44    4.07
   0   5   5   40.44    3.64
  -1  -5  -5   56.86    4.82
  -1  -5  -5   61.08    5.03
  -1  -5  -5   60.93    5.31
  -1  -5  -5   48.36    5.22
   1   5   5   58.06    4.83
   1   5   5   52.34    5.01
  -2  -5  -5    4.11    0.47
  -2  -5  -5    4.83    0.56
  -2  -5  -5    3.97    0.54
  -2  -5  -5    3.64    0.49
   2   5   5    4.58    0.54
   2   5   5    3.90    0.47
  -3  -5  -5    9.66    1.08
  -3  -5  -5   10.51    1.00
  -3  -5  -5    9.29    0.94
  -3  -5  -5   10.98    1.12
   3   5   5   10.65    0.90
   3   5   5   10.08    0.95
  -4  -5  -5   10.79    1.08
  -4  -5  -5    9.41    0.95
  -4  -5  -5    9.23    0.89
  -4  -5  -5   10.10    1.11
  -5  -5  -5   22.08    2.21
  -5  -5  -5   21.39    1.86
  -6  -5  -5   27.85    2.73
  -6  -5  -5   27.21    2.77
  -7  -5  -5    2.18    0.45
  -7  -5  -5    0.96    0.40
   3  -6  -5   26.66    2.99
  -3   6   5   29.97    2.79
  -3   6   5   34.66    3.18
   2  -6  -5   47.10    4.82
   2  -6  -5   52.69    4.45
  -2   6   5   46.65    4.45
  -2   6   5   56.27    5.03
   1  -6  -5   12.41    1.24
   1  -6  -5   13.16    1.36
   1  -6  -5   12.08    1.34
  -1   6   5   12.96    1.28
  -1   6   5   11.67    1.39
   0  -6  -5    3.42    0.52
   0  -6  -5    2.98    0.46
   0  -6  -5    2.91    0.44
   0  -6  -5    3.57    0.47
   0   6   5    3.67    0.51
   0   6   5    3.26    0.57
  -1  -6  -5   25.46    2.89
  -1  -6  -5   30.12    2.66
  -1  -6  -5   31.48    2.78
  -1  -6  -5   33.39    2.91
   1   6   5   36.13    3.03
   1   6   5   24.60    2.65
  -2  -6  -5   37.55    3.90
  -2  -6  -5   39.21    3.55
  -2  -6  -5   48.33    3.73
  -2  -6  -5   38.21    3.88
   2   6   5   39.28    3.56
   2   6   5   43.14    4.00
  -3  -6  -5   37.71    3.53
  -3  -6  -5   40.37    3.36
  -3  -6  -5   31.33    3.19
   3   6   5   38.83    3.08
  -4  -6  -5    1.92    0.34
  -4  -6  -5    2.24    0.42
  -4  -6  -5    2.67    0.47
  -4  -6  -5    1.91    0.30
  -5  -6  -5    5.71    0.80
  -5  -6  -5    6.00    0.77
  -5  -6  -5    6.95    0.68
  -5  -6  -5    6.38    0.62
  -6  -6  -5    3.71    0.59
  -6  -6  -5    2.75    0.53
   1  -7  -5    8.65    1.02
   1  -7  -5    7.27    0.88
  -1   7   5    7.08    0.99
  -1   7   5    7.69    0.92
   0  -7  -5   45.20    3.85
   0  -7  -5   35.66    3.50
   0  -7  -5   39.40    3.84
   0   7   5   38.44    3.53
  -1  -7  -5   38.57    3.94
  -1  -7  -5   43.38    4.12
  -1  -7  -5   47.61    4.17
  -1  -7  -5   42.72    3.80
   1   7   5   44.18    4.27
   1   7   5   43.23    3.82
  -2  -7  -5    3.49    0.51
  -2  -7  -5    3.28    0.53
  -2  -7  -5    2.68    0.49
  -2  -7  -5    2.94    0.46
   2   7   5    3.20    0.47
  -3  -7  -5    4.60    0.58
  -3  -7  -5    5.22    0.57
  -3  -7  -5    4.68    0.60
  -3  -7  -5    3.51    0.58
   3   7   5    4.12    0.49
  -4  -7  -5   31.64    3.09
  -4  -7  -5   38.03    3.44
  -4  -7  -5   36.74    3.44
  -4  -7  -5   35.92    3.24
  -5  -7  -5   30.95    2.55
  -5  -7  -5   29.57    2.67
  -5  -7  -5   25.99    2.84
  -6  -7  -5    3.62    0.53
  -6  -7  -5    2.56    0.39
   0  -8  -5    0.37    0.18
   0   8   5    0.36    0.20
  -1  -8  -5   11.30    1.21
  -1  -8  -5   12.63    1.26
  -1  -8  -5    8.43    1.09
   1   8   5   11.92    1.30
   1   8   5   10.23    1.14
  -2  -8  -5    8.66    0.99
  -2  -8  -5    8.92    0.97
  -2  -8  -5    9.41    0.99
  -2  -8  -5    6.73    0.86
   2   8   5    7.31    0.83
  -3  -8  -5   13.55    1.49
  -3  -8  -5   12.78    1.34
  -3  -8  -5   14.88    1.43
  -4  -8  -5    4.70    0.65
  -4  -8  -5    5.45    0.71
  -4  -8  -5    4.03    0.57
   4   8  -6    5.91    0.72
  -4  -8   6    7.16    0.80
  -4  -8   6    6.63    0.80
  -4  -8   6    5.78    0.72
   3   8  -6    3.05    0.51
  -3  -8   6    3.75    0.59
  -3  -8   6    4.29    0.53
  -3  -8   6    3.18    0.52
   2   8  -6   10.41    1.04
  -2  -8   6   10.04    1.05
  -2  -8   6   10.35    1.11
  -2  -8   6   10.20    1.17
   1   8  -6   24.94    2.36
   1   8  -6   27.72    2.29
  -1  -8   6   25.28    2.37
  -1  -8   6   24.10    2.55
   0   8  -6   20.06    2.21
   0   8  -6   24.36    2.33
   0  -8   6   28.52    2.37
   0  -8   6   27.65    2.57
   5   7  -6    2.76    0.47
  -5  -7   6    2.08    0.34
  -5  -7   6    2.21    0.40
   4   7  -6   16.41    1.35
  -4  -7   6   13.30    1.41
  -4  -7   6   13.59    1.33
   3   7  -6   19.22    1.80
  -3  -7   6   20.08    1.87
  -3  -7   6   21.56    2.03
  -3  -7   6   20.72    1.95
   2   7  -6   15.95    1.46
  -2  -7   6   14.87    1.56
  -2  -7   6   19.18    1.68
  -2  -7   6   14.72    1.50
   1   7  -6   -0.10    0.18
   1   7  -6    0.18    0.19
  -1  -7   6    0.10    0.19
  -1  -7   6    0.10    0.19
  -1  -7   6    0.13    0.18
   0   7  -6    6.47    0.78
   0   7  -6    6.43    0.75
   0  -7   6    7.06    0.85
   0  -7   6    6.72    0.79
  -1   7  -6   10.22    1.00
  -1   7  -6    9.61    1.04
   1  -7   6    7.59    1.07
   1  -7   6   10.98    1.07
  -2   7  -6   12.05    1.31
  -2   7  -6   12.28    1.26
   2  -7   6   14.11    1.35
   2  -7   6   11.94    1.43
  -6  -6   6   14.16    1.38
   5   6  -6   27.57    2.47
  -5  -6   6   31.16    2.50
  -5  -6   6   26.25    2.58
   4   6  -6   17.33    1.76
  -4  -6   6   19.61    1.88
  -4  -6   6   21.33    1.95
  -4  -6   6   21.68    1.81
   3   6  -6    0.01    0.13
  -3  -6   6    0.14    0.10
  -3  -6   6   -0.04    0.13
  -3  -6   6   -0.05    0.12
   2   6  -6    8.97    0.90
   2   6  -6    9.33    0.88
  -2  -6   6    9.59    0.98
  -2  -6   6    8.97    0.90
  -2  -6   6    8.10    0.92
   1   6  -6   45.13    4.12
   1   6  -6   50.95    3.98
  -1  -6   6   49.09    4.14
  -1  -6   6   44.30    4.46
  -1  -6   6   48.46    4.29
   0   6  -6   32.53    3.18
   0   6  -6   35.91    3.31
   0  -6   6   42.91    3.34
   0  -6   6   39.88    3.45
   0  -6   6   37.81    3.61
  -1   6  -6   11.29    1.10
  -1   6  -6   11.83    1.15
  -1   6  -6    9.60    1.15
   1  -6   6   11.97    1.15
   1  -6   6   12.70    1.27
  -2   6  -6    3.33    0.52
  -2   6  -6    3.54    0.51
  -2   6  -6    3.33    0.51
  -2   6  -6    3.33    0.53
   2  -6   6    3.03    0.54
   2  -6   6    3.21    0.52
  -3   6  -6   19.41    2.00
  -3   6  -6   17.43    1.82
  -3   6  -6   17.99    1.95
  -3   6  -6   20.00    1.79
   3  -6   6   19.84    2.01
   3  -6   6   20.61    1.86
  -6  -5   6    6.81    0.98
   5   5  -6    6.53    0.72
  -5  -5   6    7.15    0.70
  -5  -5   6    5.89    0.66
   4   5  -6    5.80    0.69
  -4  -5   6    8.38    0.74
  -4  -5   6    6.11    0.67
  -4  -5   6    6.75    0.71
   3   5  -6   24.73    1.90
  -3  -5   6   20.82    1.94
  -3  -5   6   20.61    2.02
   2   5  -6   60.43    5.75
   2   5  -6   70.79    6.51
   2   5  -6   75.23    6.02
  -2  -5   6   74.76    6.49
  -2  -5   6   69.77    6.24
  -2  -5   6   71.81    6.00
   1   5  -6   73.90    6.12
   1   5  -6   77.68    5.88
   1   5  -6   76.47    6.38
  -1  -5   6   72.93    6.62
  -1  -5   6   66.84    6.12
  -1  -5   6   62.83    6.34
   0   5  -6   16.14    1.67
   0   5  -6   19.35    1.63
   0   5  -6   16.97    1.56
   0  -5   6   19.70    1.69
   0  -5   6   17.19    1.76
   0  -5   6   17.03    1.62
  -1   5  -6   32.49    3.06
  -1   5  -6   33.39    3.18
  -1   5  -6   32.93    2.94
  -1   5  -6   36.54    3.30
   1  -5   6   35.54    3.07
   1  -5   6   36.85    3.34
   1  -5   6   36.34    3.18
  -2   5  -6   38.08    4.17
  -2   5  -6   45.30    4.30
  -2   5  -6   48.54    3.74
  -2   5  -6   46.15    4.03
  -2   5  -6   45.35    3.88
   2  -5   6   43.83    3.87
   2  -5   6   43.64    4.20
  -3   5  -6   44.33    4.21
  -3   5  -6   37.91    3.77
  -3   5  -6   42.30    4.11
  -3   5  -6   45.10    3.95
  -3   5  -6   43.74    3.64
   3  -5   6   44.89    3.79
  -4   5  -6    6.08    0.76
  -4   5  -6    4.74    0.67
  -4   5  -6    4.48    0.66
  -4   5  -6    5.02    0.74
  -6  -4   6   23.98    2.57
   5   4  -6   70.31    5.98
  -5  -4   6   71.50    6.44
  -5  -4   6   71.43    6.16
  -5  -4   6   78.17    7.08
  -4  -4   6   62.61    6.22
  -4  -4   6   68.99    5.79
  -4  -4   6   72.87    6.01
   3   4  -6    0.13    0.12
   3   4  -6    0.13    0.12
  -3  -4   6    0.00    0.12
  -3  -4   6    0.15    0.09
  -3  -4   6   -0.01    0.08
  -3  -4   6   -0.02    0.09
   2   4  -6   36.42    3.10
   2   4  -6   41.99    3.52
   2   4  -6   37.24    3.23
  -2  -4   6   34.82    3.34
  -2  -4   6   35.30    3.46
  -2  -4   6   34.92    3.21
  -2  -4   6   41.60    3.36
   1   4  -6  158.07   12.43
   1   4  -6  163.78   12.93
   1   4  -6  141.94   11.92
  -1  -4   6  140.01   12.41
  -1  -4   6  141.44   12.90
  -1  -4   6  146.10   12.91
  -1  -4   6  140.47   13.42
   0   4  -6   76.75    6.08
   0   4  -6   58.83    5.58
   0   4  -6   73.07    5.84
   0  -4   6   66.65    5.83
   0  -4   6   67.22    6.05
  -1   4  -6   32.80    2.80
  -1   4  -6   35.22    3.15
  -1   4  -6   28.29    2.89
  -1   4  -6   37.62    3.04
   1  -4   6   37.48    3.18
   1  -4   6   33.14    2.91
   1  -4   6   29.58    3.00
  -2   4  -6    0.54    0.20
  -2   4  -6    0.32    0.17
  -2   4  -6    0.21    0.15
  -2   4  -6    0.47    0.20
  -2   4  -6    0.25    0.20
   2  -4   6    0.50    0.19
   2  -4   6    0.33    0.17
  -3   4  -6    4.52    0.57
  -3   4  -6    4.74    0.55
  -3   4  -6    5.52    0.63
  -3   4  -6    4.87    0.63
  -3   4  -6    4.10    0.59
   3  -4   6    4.67    0.57
  -4   4  -6   29.54    2.70
  -4   4  -6   30.78    2.99
  -4   4  -6   33.24    2.83
  -4   4  -6   29.13    2.59
  -4   4  -6   27.91    2.95
  -5   4  -6   20.25    1.94
  -5   4  -6   18.69    1.76
  -5   4  -6   19.30    1.83
  -5   4  -6   19.32    2.05
  -7  -3   6   14.87    1.74
  -6  -3   6   19.12    2.11
  -5  -3   6    7.60    0.95
  -5  -3   6    7.11    0.75
  -5  -3   6    7.00    0.67
   4   3  -6    0.13    0.15
  -4  -3   6    0.55    0.17
  -4  -3   6    0.18    0.11
  -4  -3   6    0.64    0.17
  -4  -3   6    0.19    0.19
  -4  -3   6    0.29    0.09
   3   3  -6   51.90    4.31
   3   3  -6   51.85    4.17
  -3  -3   6   42.32    4.28
  -3  -3   6   48.74    4.28
  -3  -3   6   52.15    4.46
  -3  -3   6   52.13    4.47
  -3  -3   6   53.46    4.60
   2   3  -6  168.42   16.28
   2   3  -6  146.80   14.31
   2   3  -6  189.94   15.50
  -2  -3   6  196.01   14.91
  -2  -3   6  165.84   15.50
  -2  -3   6  169.61   14.89
  -2  -3   6  188.15   15.50
  -2  -3   6  193.23   16.09
   1   3  -6  144.72   11.00
   1   3  -6  138.36   11.92
   1   3  -6  125.23   11.45
  -1  -3   6  147.55   11.92
  -1  -3   6  122.52   12.37
  -1  -3   6  138.14   11.45
   0   3  -6   11.94    1.18
   0   3  -6   14.02    1.23
   0   3  -6   10.56    1.13
   0   3  -6   13.03    1.10
   0  -3   6   12.41    1.17
   0  -3   6   12.72    1.18
   0  -3   6   11.43    1.22
   0  -3   6   13.56    1.15
  -1   3  -6   69.49    5.17
  -1   3  -6   68.45    4.96
  -1   3  -6   56.38    5.36
  -1   3  -6   55.70    5.36
   1  -3   6   52.83    5.14
  -2   3  -6  111.57   10.35
  -2   3  -6  106.44    9.47
  -2   3  -6  113.24    9.85
  -2   3  -6  112.92    9.09
   2  -3   6  112.14    9.47
   2  -3   6  111.46   10.25
   2  -3   6  116.44    9.85
  -3   3  -6   58.40    5.36
  -3   3  -6   61.93    6.12
  -3   3  -6   66.00    5.61
  -3   3  -6   72.98    5.84
   3  -3   6   68.74    5.61
  -4   3  -6    5.78    0.69
  -4   3  -6    6.58    0.71
  -4   3  -6    5.86    0.77
  -4   3  -6    7.07    0.77
  -4   3  -6    6.61    0.76
  -5   3  -6    1.36    0.34
  -5   3  -6    1.21    0.30
  -5   3  -6    1.35    0.30
  -5   3  -6    0.91    0.25
  -7  -2   6    0.50    0.31
  -6  -2   6   14.13    1.34
  -6  -2   6   14.24    1.65
  -5  -2   6   32.12    2.88
  -5  -2   6   24.12    2.49
  -5  -2   6   28.06    2.37
  -4  -2   6   66.07    5.29
  -4  -2   6   55.45    5.67
  -4  -2   6   57.78    6.04
  -4  -2   6   60.73    5.52
  -4  -2   6   72.11    5.53
   3   2  -6   17.74    1.63
   3   2  -6   19.70    1.68
   3   2  -6   20.11    1.60
  -3  -2   6   14.98    1.62
  -3  -2   6   17.57    1.63
  -3  -2   6   19.03    1.70
  -3  -2   6   18.98    1.75
  -3  -2   6   21.25    1.90
  -3  -2   6   16.03    1.69
  -3  -2   6   20.33    1.72
   2   2  -6    3.07    0.33
   2   2  -6    2.24    0.27
   2   2  -6    2.60    0.32
   2   2  -6    3.00    0.35
  -2  -2   6    2.60    0.31
  -2  -2   6    2.72    0.31
  -2  -2   6    2.29    0.31
  -2  -2   6    2.59    0.28
  -2  -2   6    2.23    0.27
  -2  -2   6    2.69    0.34
   1   2  -6   11.16    0.97
   1   2  -6    9.79    1.03
   1   2  -6   11.36    0.98
   1   2  -6   10.90    0.91
   1   2  -6    9.50    0.94
  -1  -2   6   11.81    0.99
  -1  -2   6    9.91    0.93
  -1  -2   6    7.81    0.92
   0   2  -6  113.18   11.57
   0   2  -6  130.26   11.58
   0   2  -6  135.45   10.61
   0   2  -6  118.25   10.17
   0   2  -6  119.77   11.02
   0   2  -6  136.77   11.02
   0  -2   6  127.88   10.59
  -1   2  -6   93.59    8.12
  -1   2  -6   88.31    7.44
  -1   2  -6   88.39    7.73
  -1   2  -6   92.84    7.14
   1  -2   6   85.26    8.03
   1  -2   6   76.66    8.31
   1  -2   6   90.87    7.43
   1  -2   6   88.62    7.73
  -2   2  -6   34.72    3.23
  -2   2  -6   36.10    3.40
  -2   2  -6   33.55    3.44
  -2   2  -6   36.29    3.23
  -2   2  -6   39.24    3.12
  -2   2  -6   38.83    2.98
   2  -2   6   39.50    3.23
   2  -2   6   30.91    3.09
  -3   2  -6    0.58    0.18
  -3   2  -6    0.60    0.17
  -3   2  -6    0.61    0.19
  -3   2  -6    0.81    0.17
  -3   2  -6    0.84    0.23
   3  -2   6    0.89    0.18
   3  -2   6    0.59    0.14
  -4   2  -6    1.37    0.28
  -4   2  -6    0.96    0.23
  -4   2  -6    0.77    0.20
  -4   2  -6    0.90    0.28
  -4   2  -6    1.00    0.22
   4  -2   6    1.15    0.22
  -5   2  -6   86.37    8.04
  -5   2  -6   88.22    7.61
  -5   2  -6   80.59    7.01
  -5   2  -6   88.21    7.31
  -6   2  -6   29.61    2.73
  -6   2  -6   25.35    2.49
  -6   2  -6   25.67    2.38
  -6  -1   6   52.60    4.31
  -6  -1   6   43.42    4.80
  -6  -1   6   47.40    4.10
  -5  -1   6   15.27    1.65
  -5  -1   6   15.87    1.41
  -5  -1   6   13.59    1.31
   4   1  -6    2.69    0.31
  -4  -1   6    1.86    0.32
  -4  -1   6    2.59    0.33
  -4  -1   6    2.63    0.30
  -4  -1   6    2.70    0.47
   3   1  -6  142.66   10.88
   3   1  -6  118.97   11.29
  -3  -1   6  135.31   12.28
  -3  -1   6  128.42   11.31
  -3  -1   6  129.43   10.87
  -3  -1   6  119.69   10.89
  -3  -1   6  130.16   11.32
   2   1  -6  199.18   15.62
   2   1  -6  174.74   16.89
   2   1  -6  219.19   17.79
   2   1  -6  181.18   16.25
  -2  -1   6  198.03   18.28
  -2  -1   6  180.42   16.27
  -2  -1   6  193.61   16.26
  -2  -1   6  201.07   16.91
   1   1  -6  134.66    9.72
   1   1  -6  137.87   10.51
   1   1  -6  111.16   10.11
   1   1  -6  113.43   11.04
   1   1  -6  114.94   11.04
  -1  -1   6  139.18   10.12
  -1  -1   6  122.76   11.34
  -1  -1   6  104.36   11.04
  -1  -1   6  102.90   10.11
   0   1  -6   12.39    1.16
   0   1  -6   11.96    1.17
   0   1  -6   12.52    1.21
   0   1  -6   14.61    1.12
   0   1  -6   10.77    1.04
   0  -1   6   10.82    1.12
   0  -1   6   11.76    1.08
   0  -1   6   12.58    1.17
   0  -1   6   12.79    1.14
  -1   1  -6  110.86   10.88
  -1   1  -6  146.14   10.90
  -1   1  -6  124.20   10.43
  -1   1  -6  128.03   11.32
  -1   1  -6  115.02   11.88
  -1   1  -6  124.21   11.32
  -1   1  -6  132.20   11.92
   1  -1   6  134.01   12.17
   1  -1   6  150.12   10.89
  -2   1  -6   81.44    8.30
  -2   1  -6   89.93    8.14
  -2   1  -6   79.75    7.13
  -2   1  -6   97.34    7.74
  -2   1  -6   92.80    7.45
  -2   1  -6   86.42    7.74
   2  -1   6   77.58    7.72
   2  -1   6  100.81    7.44
  -3   1  -6   88.73    7.32
  -3   1  -6   83.69    6.74
  -3   1  -6   91.78    7.04
  -3   1  -6   79.68    7.85
  -3   1  -6   83.75    7.32
  -3   1  -6   77.24    7.03
  -3   1  -6   83.00    7.71
   3  -1   6   85.75    7.02
   3  -1   6   80.21    7.87
   3  -1   6   78.07    7.29
  -4   1  -6    8.26    0.73
  -4   1  -6    8.55    0.83
  -4   1  -6    8.36    0.90
  -4   1  -6    6.78    0.79
  -4   1  -6    7.64    0.76
   4  -1   6    7.79    0.75
  -5   1  -6    3.65    0.42
  -5   1  -6    4.02    0.58
  -5   1  -6    3.28    0.44
  -6   1  -6    6.07    0.65
  -6   1  -6    6.75    0.72
  -6   1  -6    5.03    0.83
  -6   0   6    2.27    0.58
  -6   0   6    2.47    0.41
  -6   0   6    2.70    0.35
  -5   0   6   14.06    1.63
  -5   0   6   15.04    1.40
   4   0  -6   58.62    4.62
  -4   0   6   57.18    4.62
  -4   0   6   44.55    5.26
  -4   0   6   55.07    4.81
   3   0  -6   37.67    3.40
   3   0  -6   41.82    3.52
  -3   0   6   41.25    3.90
  -3   0   6   36.43    3.39
  -3   0   6   41.53    3.54
   2   0  -6    6.18    0.68
   2   0  -6    6.93    0.63
   2   0  -6    7.21    0.65
  -2   0   6    5.49    0.73
  -2   0   6    6.30    0.62
  -2   0   6    6.37    0.66
   1   0  -6    8.96    0.90
   1   0  -6    7.99    0.83
   1   0  -6   10.79    0.98
   1   0  -6    9.53    0.94
   1   0  -6    9.14    0.87
  -1   0   6   11.04    0.89
  -1   0   6    9.98    0.90
  -1   0   6    9.15    0.87
  -1   0   6    9.22    0.91
   0   0  -6  183.04   18.67
   0   0  -6  199.30   17.78
   0   0  -6  236.98   16.41
   0   0  -6  194.74   18.73
   0   0  -6  205.81   17.77
   0   0   6  220.98   17.79
   0   0   6  208.06   17.10
   0   0   6  207.53   17.78
   0   0   6  197.36   18.73
   0   0   6  183.13   19.16
  -1   0  -6  266.13   19.83
  -1   0  -6  226.76   21.49
  -1   0  -6  245.91   22.65
  -1   0  -6  211.69   20.67
  -1   0  -6  273.21   20.67
  -1   0  -6  260.05   21.50
   1   0   6  227.06   19.82
   1   0   6  260.91   21.51
  -2   0  -6   44.93    3.54
  -2   0  -6   40.81    3.69
  -2   0  -6   39.35    3.88
  -2   0  -6   41.18    3.68
   2   0   6   40.76    3.38
   2   0   6   37.55    3.68
   2   0   6   46.97    3.55
  -3   0  -6   -0.03    0.08
  -3   0  -6    0.00    0.10
  -3   0  -6    0.08    0.08
  -3   0  -6    0.16    0.13
  -3   0  -6   -0.08    0.07
  -3   0  -6    0.01    0.08
  -3   0  -6    0.01    0.09
   3   0   6    0.21    0.08
   3   0   6    0.02    0.07
  -4   0  -6   57.95    4.61
  -4   0  -6   47.10    4.94
  -4   0  -6   54.85    4.61
  -4   0  -6   49.30    4.23
  -4   0  -6   52.56    4.88
   4   0   6   51.06    4.41
  -5   0  -6   91.37    7.68
  -5   0  -6   88.05    7.55
  -5   0  -6   67.43    6.82
  -5   0  -6   76.92    7.11
  -6   0  -6   44.33    4.41
  -6   0  -6   46.48    4.12
  -6   0  -6   47.09    3.95
  -7   0  -6    0.27    0.34
  -7   0  -6    0.52    0.19
  -6   1   6   34.50    3.37
  -6   1   6   29.17    2.98
  -6   1   6   33.77    2.85
  -5   1   6   21.96    2.51
  -5   1   6   24.54    2.14
  -5   1   6   25.46    2.27
  -4   1   6    1.06    0.22
  -4   1   6    0.92    0.27
  -4   1   6    1.38    0.23
   3  -1  -6   35.84    3.41
   3  -1  -6   36.91    3.29
  -3   1   6   44.51    3.45
  -3   1   6   36.35    3.43
  -3   1   6   37.18    3.29
  -3   1   6   39.59    3.77
  -2   1   6  309.07   29.26
  -2   1   6  304.13   27.08
  -2   1   6  271.93   27.07
  -2   1   6  341.86   26.03
  -2   1   6  324.78   28.11
   1  -1  -6   71.37    5.65
   1  -1  -6   68.12    5.43
   1  -1  -6   60.55    5.83
  -1   1   6   58.65    5.65
  -1   1   6   60.04    5.64
  -1   1   6   65.66    5.83
   0  -1  -6   17.45    1.80
   0  -1  -6   17.34    1.70
   0  -1  -6   21.47    1.71
   0  -1  -6   16.97    1.64
   0  -1  -6   17.98    1.79
   0  -1  -6   16.97    1.74
   0  -1  -6   18.45    1.82
   0   1   6   19.44    1.70
   0   1   6   20.06    1.64
   0   1   6   21.21    1.83
  -1  -1  -6    0.09    0.12
  -1  -1  -6    0.20    0.11
  -1  -1  -6    0.20    0.08
  -1  -1  -6    0.08    0.10
  -1  -1  -6    0.32    0.12
  -1  -1  -6    0.13    0.14
   1   1   6    0.64    0.12
   1   1   6    0.11    0.09
   1   1   6    0.09    0.07
   1   1   6    0.27    0.11
  -2  -1  -6   32.25    2.78
  -2  -1  -6   32.14    2.78
  -2  -1  -6   31.27    2.67
  -2  -1  -6   28.76    2.66
  -2  -1  -6   33.56    2.53
   2   1   6   28.69    2.67
   2   1   6   31.35    2.77
  -3  -1  -6  152.29   11.25
  -3  -1  -6  115.20   12.37
  -3  -1  -6  119.28   11.26
  -3  -1  -6  139.28   11.71
  -3  -1  -6  137.03   12.33
   3   1   6  139.89   11.26
  -4  -1  -6   69.86    5.54
  -4  -1  -6   59.56    6.12
  -4  -1  -6   68.89    6.20
  -4  -1  -6   57.40    6.07
  -4  -1  -6   70.08    5.51
  -5  -1  -6   18.30    1.57
  -5  -1  -6   15.64    1.52
  -5  -1  -6   14.03    1.33
  -5  -1  -6   13.66    1.39
  -5  -1  -6   15.14    1.38
  -6  -1  -6   -0.29    0.20
  -6  -1  -6   -0.03    0.17
  -7  -1  -6   15.08    1.66
  -7  -1  -6   15.07    1.67
  -5   2   6    6.21    0.82
  -5   2   6    5.21    0.68
  -5   2   6    4.48    0.59
  -4   2   6   62.99    5.24
  -4   2   6   59.09    5.47
   3  -2  -6  115.76   10.63
  -3   2   6  117.23    9.85
   2  -2  -6   23.17    2.26
   2  -2  -6   28.04    2.52
   2  -2  -6   23.61    2.43
  -2   2   6   24.98    2.27
  -2   2   6   28.49    2.38
  -2   2   6   28.01    2.37
   1  -2  -6    5.66    0.54
   1  -2  -6    6.28    0.55
   1  -2  -6    4.65    0.53
   1  -2  -6    4.92    0.59
  -1   2   6    4.51    0.54
  -1   2   6    5.89    0.57
  -1   2   6    3.82    0.58
  -1   2   6    5.53    0.53
   0  -2  -6  179.39   16.06
   0  -2  -6  173.93   14.63
   0  -2  -6  150.12   15.20
   0   2   6  172.71   16.41
   0   2   6  176.52   15.22
   0   2   6  192.09   14.63
  -1  -2  -6  273.11   22.38
  -1  -2  -6  280.00   23.29
  -1  -2  -6  273.99   24.58
  -1  -2  -6  242.47   23.27
  -1  -2  -6  253.86   25.10
  -1  -2  -6  278.63   22.39
  -2  -2  -6  217.02   18.53
  -2  -2  -6  194.33   16.53
  -2  -2  -6  195.06   17.20
  -2  -2  -6  163.56   18.15
  -2  -2  -6  199.13   16.53
  -2  -2  -6  205.84   17.20
   2   2   6  217.68   17.19
   2   2   6  201.22   15.85
   2   2   6  178.80   16.53
  -3  -2  -6    7.03    0.59
  -3  -2  -6    5.66    0.66
  -3  -2  -6    6.58    0.64
  -3  -2  -6    5.83    0.62
  -3  -2  -6    5.71    0.58
  -3  -2  -6    6.08    0.69
   3   2   6    6.64    0.58
  -4  -2  -6   27.89    2.60
  -4  -2  -6   30.38    2.62
  -4  -2  -6   26.37    2.40
  -4  -2  -6   24.76    2.28
  -4  -2  -6   25.72    2.56
   4   2   6   26.54    2.28
  -5  -2  -6   42.97    4.06
  -5  -2  -6   42.96    4.15
  -6  -2  -6   33.89    3.22
  -6  -2  -6   32.63    3.26
  -7  -2  -6    0.89    0.32
  -7  -2  -6    0.73    0.27
  -5   3   6   11.23    1.36
  -5   3   6   11.84    1.19
  -5   3   6    9.98    1.12
  -4   3   6    0.78    0.32
  -4   3   6    1.05    0.27
  -4   3   6    1.01    0.27
   3  -3  -6    9.13    0.90
   3  -3  -6    6.57    0.79
  -3   3   6    8.65    0.91
  -3   3   6    9.39    1.00
  -3   3   6    7.75    0.83
   2  -3  -6   35.53    3.41
   2  -3  -6   35.53    3.08
   2  -3  -6   37.66    3.34
   2  -3  -6   33.14    3.20
  -2   3   6   37.41    3.49
  -2   3   6   31.65    3.21
  -2   3   6   37.54    3.10
   1  -3  -6   61.94    5.42
   1  -3  -6   61.33    5.30
   1  -3  -6   60.09    4.92
  -1   3   6   49.82    5.11
  -1   3   6   64.47    5.55
  -1   3   6   48.56    4.91
   0  -3  -6   14.99    1.62
   0  -3  -6   17.06    1.76
   0  -3  -6   19.40    1.71
   0  -3  -6   19.82    1.70
   0  -3  -6   15.89    1.80
   0   3   6   20.75    1.71
   0   3   6   20.89    1.85
   0   3   6   19.21    1.64
  -1  -3  -6   17.32    1.58
  -1  -3  -6   16.66    1.64
  -1  -3  -6   17.96    1.58
  -1  -3  -6   14.41    1.64
  -1  -3  -6   18.52    1.71
   1   3   6   18.87    1.58
   1   3   6   16.16    1.51
  -2  -3  -6    0.64    0.14
  -2  -3  -6    0.55    0.14
  -2  -3  -6    0.76    0.20
  -2  -3  -6    0.67    0.16
  -2  -3  -6    0.66    0.23
  -2  -3  -6    0.61    0.13
  -2  -3  -6    0.79    0.16
   2   3   6    0.72    0.16
   2   3   6    0.59    0.13
   2   3   6    0.97    0.16
  -3  -3  -6   66.22    6.47
  -3  -3  -6   70.36    6.49
  -3  -3  -6   73.19    6.17
  -3  -3  -6   81.54    5.94
  -3  -3  -6   65.13    6.56
   3   3   6   64.39    5.91
  -4  -3  -6   73.17    6.95
  -4  -3  -6   87.45    7.25
  -4  -3  -6   91.92    7.26
  -4  -3  -6   92.56    7.66
  -4  -3  -6   77.48    7.71
   4   3   6   74.06    6.95
  -5  -3  -6   16.01    1.55
  -5  -3  -6   15.19    1.58
  -5  -3  -6   14.86    1.50
  -5  -3  -6   13.46    1.52
  -6  -3  -6    0.74    0.22
  -6  -3  -6    0.46    0.29
  -6  -3  -6    0.32    0.21
  -7  -3  -6   11.19    1.26
  -7  -3  -6   12.04    1.27
  -7  -3  -6   10.23    1.30
  -4   4   6   40.27    3.87
  -4   4   6   44.43    3.74
  -4   4   6   41.57    4.23
   3  -4  -6   44.09    4.11
   3  -4  -6   45.29    4.47
  -3   4   6   45.30    4.67
  -3   4   6   53.01    4.16
  -3   4   6   49.63    4.33
   2  -4  -6   19.81    1.98
   2  -4  -6   21.12    1.83
   2  -4  -6   16.53    1.99
  -2   4   6   21.28    1.84
  -2   4   6   18.21    2.06
  -2   4   6   24.03    1.97
   1  -4  -6    3.21    0.46
   1  -4  -6    3.16    0.42
   1  -4  -6    2.62    0.41
   1  -4  -6    3.10    0.42
  -1   4   6    2.86    0.43
  -1   4   6    3.36    0.42
  -1   4   6    3.43    0.48
   0  -4  -6   94.02    7.75
   0  -4  -6   80.28    7.13
   0  -4  -6   95.26    7.86
   0   4   6   87.23    7.15
   0   4   6   76.86    8.02
   0   4   6   71.92    7.43
  -1  -4  -6  137.09   11.24
  -1  -4  -6  136.96   11.41
  -1  -4  -6  134.17   10.79
  -1  -4  -6  118.54   10.35
  -1  -4  -6  116.32   10.78
   1   4   6  108.11   10.78
   1   4   6  109.30   10.36
  -2  -4  -6    9.83    0.92
  -2  -4  -6    8.89    0.91
  -2  -4  -6    9.02    0.98
  -2  -4  -6    8.82    0.87
  -2  -4  -6   10.79    0.94
   2   4   6    7.94    0.90
   2   4   6    8.34    0.86
   2   4   6    9.80    0.91
   2   4   6   10.58    0.99
  -3  -4  -6   19.63    2.17
  -3  -4  -6   23.75    2.01
  -3  -4  -6   19.84    2.13
  -3  -4  -6   19.04    1.98
  -3  -4  -6   23.13    2.08
  -3  -4  -6   22.50    1.91
   3   4   6   25.15    1.92
  -4  -4  -6    7.64    0.77
  -4  -4  -6    8.71    0.98
  -4  -4  -6    8.17    0.81
  -4  -4  -6    9.82    0.83
  -4  -4  -6    8.62    0.95
  -5  -4  -6   14.39    1.50
  -5  -4  -6   14.90    1.43
  -5  -4  -6   13.21    1.49
  -6  -4  -6   17.13    1.69
  -6  -4  -6   13.90    1.57
  -6  -4  -6   16.27    1.66
  -7  -4  -6    2.26    0.48
  -7  -4  -6    1.97    0.51
   3  -5  -6    0.17    0.19
   3  -5  -6   -0.20    0.15
  -3   5   6    0.20    0.18
  -3   5   6    0.03    0.18
   2  -5  -6   28.05    2.45
   2  -5  -6   28.48    2.68
  -2   5   6   24.93    2.55
   1  -5  -6   78.39    6.72
   1  -5  -6   72.40    6.43
   1  -5  -6   67.35    7.07
   1  -5  -6   74.52    6.97
  -1   5   6   76.32    6.46
  -1   5   6   82.85    6.75
   0  -5  -6   44.82    3.91
   0  -5  -6   44.10    3.77
   0  -5  -6   42.07    3.61
   0   5   6   42.10    3.78
   0   5   6   41.74    3.62
   0   5   6   34.61    4.05
  -1  -5  -6   14.06    1.55
  -1  -5  -6   18.18    1.65
  -1  -5  -6   17.15    1.75
  -1  -5  -6   16.49    1.73
   1   5   6   17.42    1.79
   1   5   6   21.13    1.60
  -2  -5  -6    9.37    1.14
  -2  -5  -6   10.39    1.13
  -2  -5  -6   11.20    1.07
   2   5   6   11.57    1.02
   2   5   6   11.09    1.15
  -3  -5  -6   80.23    6.22
  -3  -5  -6   78.67    6.89
  -3  -5  -6   61.19    6.45
  -4  -5  -6  139.95   11.63
  -4  -5  -6  123.82   12.17
  -4  -5  -6  133.76   12.36
  -4  -5  -6  132.51   11.16
  -5  -5  -6    5.85    0.55
  -5  -5  -6    5.87    0.75
  -5  -5  -6    5.37    0.60
  -5  -5  -6    6.66    0.81
  -6  -5  -6    1.59    0.42
  -6  -5  -6    1.69    0.45
  -7  -5  -6   11.41    1.33
  -7  -5  -6   10.96    1.32
   2  -6  -6   11.20    1.24
   2  -6  -6   14.73    1.45
  -2   6   6   12.46    1.43
  -2   6   6   11.63    1.29
   1  -6  -6   -0.08    0.17
   1  -6  -6    0.04    0.15
   1  -6  -6    0.26    0.19
  -1   6   6   -0.19    0.16
  -1   6   6    0.00    0.18
   0  -6  -6    7.33    0.85
   0  -6  -6    5.99    0.85
   0  -6  -6    8.93    0.90
   0  -6  -6    7.87    0.82
   0   6   6    8.07    0.95
   0   6   6    6.73    0.81
  -1  -6  -6   26.20    2.68
  -1  -6  -6   32.56    2.95
  -1  -6  -6   30.00    2.97
  -1  -6  -6   29.64    2.81
   1   6   6   34.55    3.07
  -2  -6  -6   27.32    2.45
  -2  -6  -6   25.80    2.55
  -2  -6  -6   24.68    2.68
  -2  -6  -6   28.85    2.73
   2   6   6   32.47    2.78
   2   6   6   27.20    2.46
  -3  -6  -6   17.26    1.50
  -3  -6  -6   18.24    1.70
  -3  -6  -6   15.78    1.68
  -3  -6  -6   14.04    1.55
   3   6   6   16.79    1.42
  -4  -6  -6    1.35    0.35
  -4  -6  -6    1.61    0.39
  -4  -6  -6    1.14    0.24
  -5  -6  -6    3.57    0.40
  -5  -6  -6    3.76    0.60
  -5  -6  -6    3.53    0.45
  -5  -6  -6    3.34    0.60
  -6  -6  -6   15.88    1.85
  -6  -6  -6   18.88    1.85
   1  -7  -6   37.83    3.56
   1  -7  -6   39.77    3.90
   1  -7  -6   39.81    3.91
  -1   7   6   40.61    3.60
  -1   7   6   41.86    4.06
   0  -7  -6   27.88    2.43
   0  -7  -6   19.81    2.34
   0   7   6   26.93    2.24
   0   7   6   20.72    2.44
  -1  -7  -6   15.48    1.60
  -1  -7  -6   16.27    1.63
  -1  -7  -6   14.42    1.46
   1   7   6   13.26    1.47
   1   7   6   16.83    1.68
  -2  -7  -6    0.60    0.23
  -2  -7  -6    0.87    0.30
  -2  -7  -6    1.28    0.34
  -2  -7  -6    0.78    0.25
  -3  -7  -6   18.72    2.16
  -3  -7  -6   20.12    2.18
  -3  -7  -6   21.03    2.06
  -3  -7  -6   23.03    1.98
   3   7   6   25.36    1.90
  -4  -7  -6   18.68    1.77
  -4  -7  -6   17.40    1.55
  -4  -7  -6   14.54    1.59
  -5  -7  -6   17.04    1.69
  -5  -7  -6   16.06    1.50
  -5  -7  -6   12.83    1.61
  -5  -7  -6   15.65    1.41
  -6  -7  -6   -0.19    0.23
  -6  -7  -6    0.02    0.16
  -1  -8  -6   11.95    1.20
  -1  -8  -6    8.52    1.17
  -1  -8  -6   12.21    1.25
   1   8   6   11.44    1.30
   1   8   6   12.66    1.23
  -2  -8  -6   17.49    1.75
  -2  -8  -6   17.31    1.67
  -2  -8  -6   18.30    1.82
  -2  -8  -6   17.11    1.78
   2   8   6   15.93    1.57
  -3  -8  -6   18.86    1.78
  -3  -8  -6   18.07    1.81
  -3  -8  -6   13.31    1.57
  -3  -8  -6   18.18    1.71
  -4  -8  -6    4.97    0.70
  -4  -8  -6    4.99    0.61
  -4  -8  -6    4.54    0.62
   3   8  -7    5.33    0.67
  -3  -8   7    6.12    0.74
  -3  -8   7    5.42    0.67
  -3  -8   7    4.74    0.67
   2   8  -7   21.03    2.02
  -2  -8   7   24.20    2.31
  -2  -8   7   22.67    2.12
  -2  -8   7   23.05    2.20
   1   8  -7   19.69    1.72
   1   8  -7   18.23    1.78
  -1  -8   7   20.48    1.95
  -1  -8   7   15.60    1.72
   5   7  -7    4.98    0.58
  -5  -7   7    3.95    0.52
  -5  -7   7    4.47    0.55
   4   7  -7   27.48    2.45
  -4  -7   7   27.93    2.63
  -4  -7   7   29.02    2.52
   3   7  -7    8.60    0.88
  -3  -7   7    8.80    0.90
  -3  -7   7    8.74    0.94
  -3  -7   7    8.50    0.95
   2   7  -7   12.08    1.25
  -2  -7   7   14.41    1.32
  -2  -7   7   13.94    1.43
  -2  -7   7   13.74    1.37
   1   7  -7    0.14    0.21
   1   7  -7    0.00    0.17
  -1  -7   7    0.38    0.18
  -1  -7   7    0.22    0.18
   0   7  -7   16.84    1.47
   0   7  -7   15.48    1.50
   0  -7   7   13.47    1.48
   0  -7   7   15.72    1.63
  -1   7  -7   33.34    3.37
  -1   7  -7   43.51    3.57
   1  -7   7   39.00    3.84
   1  -7   7   43.58    3.57
  -6  -6   7   21.48    2.20
  -6  -6   7   27.28    2.61
   5   6  -7   17.73    1.62
  -5  -6   7   15.12    1.60
  -5  -6   7   20.57    1.70
   4   6  -7    1.93    0.37
  -4  -6   7    1.58    0.29
  -4  -6   7    1.63    0.33
   3   6  -7   13.57    1.19
  -3  -6   7   11.05    1.25
  -3  -6   7   14.50    1.23
  -3  -6   7   12.34    1.30
   2   6  -7   46.29    4.25
   2   6  -7   55.23    4.45
  -2  -6   7   52.71    4.43
  -2  -6   7   50.89    4.79
   1   6  -7   33.55    3.55
   1   6  -7   45.71    3.45
  -1  -6   7   43.78    3.71
   0   6  -7   13.34    1.27
   0  -6   7   12.65    1.37
   0  -6   7   11.94    1.26
   0  -6   7   14.00    1.31
  -1   6  -7   -0.08    0.17
  -1   6  -7   -0.15    0.14
  -1   6  -7   -0.10    0.17
   1  -6   7   -0.02    0.18
   1  -6   7   -0.14    0.13
  -2   6  -7    3.77    0.59
  -2   6  -7    4.22    0.56
  -2   6  -7    4.43    0.63
   2  -6   7    4.66    0.64
   2  -6   7    4.67    0.66
  -3   6  -7   14.10    1.44
  -3   6  -7   15.92    1.54
  -3   6  -7   14.32    1.60
   3  -6   7   16.65    1.55
  -6  -5   7   11.55    1.41
  -6  -5   7   11.06    1.14
   5   5  -7    3.85    0.55
  -5  -5   7    4.06    0.47
  -5  -5   7    3.64    0.49
  -4  -5   7   35.66    3.26
  -4  -5   7   36.66    3.14
   3   5  -7   87.80    7.23
  -3  -5   7   91.13    7.76
  -3  -5   7   71.02    7.47
  -3  -5   7   88.80    7.19
   2   5  -7    5.69    0.58
   2   5  -7    4.43    0.54
   2   5  -7    4.31    0.53
  -2  -5   7    5.38    0.57
  -2  -5   7    4.40    0.56
  -2  -5   7    4.55    0.53
   1   5  -7   21.03    1.82
   1   5  -7   19.11    1.73
   1   5  -7   18.46    1.93
  -1  -5   7   20.43    1.87
  -1  -5   7   24.15    1.98
  -1  -5   7   17.52    1.79
   0   5  -7   23.76    1.98
   0   5  -7   23.72    2.06
   0   5  -7   24.53    2.21
   0   5  -7   26.89    2.17
   0  -5   7   18.93    2.21
   0  -5   7   19.38    2.04
   0  -5   7   23.48    2.13
  -1   5  -7   58.56    6.04
  -1   5  -7   68.75    5.60
  -1   5  -7   74.12    5.84
   1  -5   7   65.20    6.31
   1  -5   7   71.14    6.05
   1  -5   7   69.67    5.83
  -2   5  -7   55.43    4.66
  -2   5  -7   55.05    5.26
  -2   5  -7   54.22    4.85
  -2   5  -7   58.50    5.06
  -2   5  -7   55.50    5.39
   2  -5   7   59.82    5.27
   2  -5   7   53.83    4.85
  -3   5  -7    2.25    0.42
  -3   5  -7    2.80    0.48
  -3   5  -7    2.60    0.44
  -3   5  -7    2.85    0.48
  -3   5  -7    2.00    0.41
   3  -5   7    2.48    0.42
  -4   5  -7    2.05    0.42
  -4   5  -7    0.96    0.40
  -4   5  -7    1.08    0.34
  -4   5  -7    1.28    0.35
  -6  -4   7   22.00    2.53
  -6  -4   7   24.80    2.20
   5   4  -7   16.73    1.42
  -5  -4   7   14.22    1.47
  -5  -4   7   14.60    1.38
  -5  -4   7   16.61    1.72
   4   4  -7    1.66    0.33
  -4  -4   7    1.95    0.31
  -4  -4   7    1.86    0.30
   3   4  -7    0.23    0.14
   3   4  -7    0.48    0.20
  -3  -4   7    0.32    0.13
  -3  -4   7    0.31    0.10
  -3  -4   7    0.16    0.12
   2   4  -7    3.90    0.45
   2   4  -7    3.44    0.40
   2   4  -7    3.49    0.42
   2   4  -7    3.33    0.38
  -2  -4   7    3.35    0.41
  -2  -4   7    2.52    0.37
  -2  -4   7    3.19    0.39
   1   4  -7   69.21    6.08
   1   4  -7   65.81    5.83
   1   4  -7   64.75    6.62
   1   4  -7   70.88    6.33
  -1  -4   7   80.10    6.33
  -1  -4   7   73.82    6.32
  -1  -4   7   70.30    6.07
  -1  -4   7   76.64    6.57
   0   4  -7   55.95    5.12
   0   4  -7   62.73    5.36
   0  -4   7   52.46    5.10
   0  -4   7   58.85    4.93
  -1   4  -7   23.03    2.38
  -1   4  -7   20.12    2.10
  -1   4  -7   28.23    2.23
  -1   4  -7   26.92    2.31
   1  -4   7   29.17    2.31
   1  -4   7   23.29    2.21
   1  -4   7   24.53    2.39
  -2   4  -7    0.81    0.24
  -2   4  -7    0.75    0.21
  -2   4  -7    0.81    0.24
  -2   4  -7    0.43    0.20
  -2   4  -7    0.42    0.15
   2  -4   7    0.57    0.16
   2  -4   7    0.53    0.19
  -3   4  -7   19.83    1.91
  -3   4  -7   20.43    1.83
  -3   4  -7   18.92    1.67
  -3   4  -7   17.44    1.89
  -3   4  -7   19.58    1.76
   3  -4   7   17.00    1.73
  -4   4  -7   40.34    3.68
  -4   4  -7   41.23    3.53
  -4   4  -7   44.47    3.85
  -4   4  -7   41.25    4.03
  -5   4  -7   11.56    1.24
  -5   4  -7   11.20    1.18
  -5   4  -7   13.66    1.35
  -5   4  -7    9.49    1.12
  -6  -3   7   12.28    1.35
  -6  -3   7    9.30    1.00
  -5  -3   7    2.61    0.33
  -5  -3   7    2.55    0.53
  -5  -3   7    2.47    0.38
   4   3  -7   80.53    7.10
  -4  -3   7   94.88    8.37
  -4  -3   7   84.66    7.67
  -4  -3   7   87.88    7.37
   3   3  -7  119.91   10.06
   3   3  -7  137.96   11.27
   3   3  -7  111.67   10.44
  -3  -3   7  111.97   10.44
  -3  -3   7  136.92   10.86
   2   3  -7   32.37    3.10
   2   3  -7   33.00    2.98
   2   3  -7   38.93    3.40
   2   3  -7   32.79    3.21
  -2  -3   7   39.51    3.10
  -2  -3   7   38.73    3.31
   1   3  -7    1.02    0.19
   1   3  -7    0.76    0.18
   1   3  -7    1.46    0.25
   1   3  -7    1.02    0.20
  -1  -3   7    0.72    0.18
  -1  -3   7    0.77    0.17
  -1  -3   7    1.17    0.21
  -1  -3   7    0.85    0.18
   0   3  -7   80.66    6.65
   0   3  -7   70.54    6.93
   0   3  -7   73.21    6.95
   0   3  -7   75.78    6.12
   0   3  -7   70.93    6.38
   0  -3   7   74.85    6.37
   0  -3   7   80.40    6.90
  -1   3  -7   98.78   10.47
  -1   3  -7  107.76   10.00
  -1   3  -7  129.35    9.24
  -1   3  -7  105.69    9.61
   1  -3   7  128.09   10.41
   1  -3   7  113.71    9.62
  -2   3  -7   32.22    2.95
  -2   3  -7   30.32    2.56
  -2   3  -7   32.08    2.92
  -2   3  -7   24.91    2.76
  -2   3  -7   33.37    2.69
  -3   3  -7    7.29    0.86
  -3   3  -7    8.32    0.93
  -3   3  -7    9.06    0.85
  -3   3  -7    8.56    0.80
  -3   3  -7    8.39    0.88
   3  -3   7    7.80    0.81
  -4   3  -7    0.09    0.20
  -4   3  -7    0.17    0.20
  -4   3  -7    0.30    0.22
  -4   3  -7    0.31    0.16
  -5   3  -7    7.18    0.82
  -5   3  -7    7.38    0.85
  -5   3  -7    7.38    0.94
  -6  -2   7   22.80    2.04
  -6  -2   7   20.61    2.36
  -5  -2   7   22.10    2.70
  -5  -2   7   26.23    2.29
  -5  -2   7   30.14    2.43
  -4  -2   7   29.16    2.49
  -4  -2   7   28.71    2.91
  -4  -2   7   24.30    2.60
  -4  -2   7   33.09    2.63
   3   2  -7    8.61    0.87
   3   2  -7    9.22    0.85
   3   2  -7   10.14    0.86
  -3  -2   7    9.43    0.91
  -3  -2   7    7.54    0.85
  -3  -2   7    8.23    0.89
  -3  -2   7   11.27    0.89
  -3  -2   7    8.28    1.00
   2   2  -7   35.63    2.92
   2   2  -7   31.36    3.03
   2   2  -7   29.49    2.76
   2   2  -7   30.65    2.67
   2   2  -7   34.32    2.86
  -2  -2   7   34.10    2.86
  -2  -2   7   28.01    2.75
  -2  -2   7   30.07    2.96
  -2  -2   7   32.77    2.76
   1   2  -7   88.56    6.80
   1   2  -7   80.95    7.41
   1   2  -7   75.19    6.51
   1   2  -7   86.57    7.05
  -1  -2   7   67.80    7.28
  -1  -2   7   77.03    7.05
  -1  -2   7   85.33    7.04
   0   2  -7  187.07   15.86
   0   2  -7  192.24   15.20
   0   2  -7  210.14   17.33
   0  -2   7  182.13   15.84
   0  -2   7  192.82   17.11
   0  -2   7  166.59   16.47
  -1   2  -7  117.68    9.13
  -1   2  -7  104.44    9.89
  -1   2  -7   96.61    9.51
  -1   2  -7  113.47    9.90
   1  -2   7  121.96    9.51
   1  -2   7  122.61   10.66
  -2   2  -7    0.33    0.14
  -2   2  -7    0.20    0.09
  -2   2  -7    0.36    0.15
  -2   2  -7    0.42    0.14
  -2   2  -7    0.33    0.14
  -2   2  -7    0.45    0.15
   2  -2   7    0.39    0.12
   2  -2   7    0.29    0.12
  -3   2  -7  141.79   11.47
  -3   2  -7  132.38   10.98
  -3   2  -7  118.82   12.51
  -3   2  -7  139.76   12.81
  -3   2  -7  137.02   11.92
   3  -2   7  144.58   11.45
  -4   2  -7   60.14    6.03
  -4   2  -7   65.70    6.12
  -4   2  -7   71.44    5.52
  -4   2  -7   59.98    5.26
  -5   2  -7   25.48    2.29
  -5   2  -7   26.95    2.57
  -5   2  -7   24.50    2.38
  -6   2  -7    0.55    0.21
  -6   2  -7    0.23    0.26
  -6   2  -7    0.38    0.32
  -6  -1   7   12.99    1.45
  -6  -1   7   11.46    1.16
  -6  -1   7   11.38    1.08
  -5  -1   7    5.49    0.63
  -5  -1   7    5.41    0.78
  -5  -1   7    5.41    0.57
  -4  -1   7   23.46    2.59
  -4  -1   7   27.32    2.34
  -4  -1   7   25.48    2.22
   3   1  -7  120.43   11.05
  -3  -1   7  139.10   12.49
  -3  -1   7  114.20   11.49
  -3  -1   7  131.33   11.05
  -3  -1   7  127.43   11.51
  -3  -1   7  156.19   11.11
   2   1  -7  103.89    7.39
   2   1  -7   94.31    7.98
   2   1  -7  101.10    8.38
   2   1  -7   85.68    7.67
  -2  -1   7   98.92    7.69
  -2  -1   7   79.83    7.97
  -2  -1   7   81.37    8.63
  -2  -1   7   80.70    7.69
   1   1  -7   36.50    3.13
   1   1  -7   33.12    3.20
   1   1  -7   36.63    3.03
   1   1  -7   35.57    3.31
   1   1  -7   32.78    3.26
  -1  -1   7   38.84    3.15
  -1  -1   7   34.15    3.28
  -1  -1   7   37.02    3.38
  -1  -1   7   31.81    3.01
   0   1  -7    2.38    0.32
   0   1  -7    2.46    0.33
   0   1  -7    2.89    0.33
   0   1  -7    2.81    0.31
   0   1  -7    2.85    0.33
   0   1  -7    2.80    0.40
   0   1  -7    2.02    0.29
   0  -1   7    2.39    0.31
   0  -1   7    2.58    0.32
   0  -1   7    1.58    0.29
   0  -1   7    2.10    0.32
  -1   1  -7  131.38   11.40
  -1   1  -7  129.46   10.00
  -1   1  -7  138.62   10.87
  -1   1  -7  109.73   10.85
   1  -1   7  133.40   10.43
   1  -1   7  101.75   10.83
  -2   1  -7   69.64    6.86
  -2   1  -7   77.56    6.33
  -2   1  -7   76.17    7.25
  -2   1  -7   86.44    6.63
  -2   1  -7   81.74    7.23
   2  -1   7   77.42    6.60
  -3   1  -7   46.93    4.44
  -3   1  -7   58.13    4.84
  -3   1  -7   52.03    4.84
  -3   1  -7   51.90    4.65
  -3   1  -7   61.01    5.17
  -3   1  -7   56.37    5.11
   3  -1   7   60.18    4.83
   3  -1   7   49.83    4.63
  -4   1  -7   17.86    1.47
  -4   1  -7   19.88    1.76
  -4   1  -7   16.26    1.61
  -4   1  -7   14.93    1.54
   4  -1   7   17.85    1.53
  -5   1  -7    6.59    0.63
  -5   1  -7    5.74    0.72
  -5   1  -7    4.90    0.63
  -6   1  -7   26.69    2.49
  -6   1  -7   28.45    2.39
  -6   1  -7   25.29    2.68
  -6   0   7    5.99    0.69
  -6   0   7    5.00    0.60
  -6   0   7    5.90    0.90
  -5   0   7   46.50    3.61
  -5   0   7   36.03    4.15
  -4   0   7   85.69    7.81
  -4   0   7   88.98    8.88
  -4   0   7  102.19    8.16
   3   0  -7   51.97    4.23
  -3   0   7   47.35    4.25
  -3   0   7   50.43    4.08
  -3   0   7   46.87    4.10
  -3   0   7   40.80    4.62
   2   0  -7   13.38    1.38
   2   0  -7   16.12    1.36
   2   0  -7   13.19    1.46
  -2   0   7   17.25    1.57
  -2   0   7   14.12    1.40
  -2   0   7   15.82    1.40
  -2   0   7   15.85    1.35
   1   0  -7  216.61   18.94
   1   0  -7  201.00   17.47
   1   0  -7  222.13   18.21
   1   0  -7  218.66   19.90
  -1   0   7  237.03   18.94
  -1   0   7  199.99   18.20
  -1   0   7  222.37   18.95
   0   0  -7  200.36   19.92
   0   0  -7  192.37   19.97
   0   0  -7  241.10   17.50
   0   0  -7  215.15   18.96
   0   0  -7  241.65   18.97
   0   0   7  229.94   20.44
   0   0   7  217.66   18.23
   0   0   7  213.90   18.97
   0   0   7  201.45   18.96
  -1   0  -7  126.55   10.28
  -1   0  -7  129.49    9.89
  -1   0  -7  107.90   10.82
  -1   0  -7  103.14    9.89
  -1   0  -7  103.13   10.27
   1   0   7  126.18    9.89
   1   0   7  125.00   10.30
  -2   0  -7    6.75    0.69
  -2   0  -7    7.96    0.71
  -2   0  -7    7.32    0.76
  -2   0  -7    7.18    0.75
  -2   0  -7    7.70    0.67
  -2   0  -7    6.98    0.62
   2   0   7    7.47    0.63
   2   0   7    5.78    0.70
   2   0   7    6.93    0.67
  -3   0  -7   57.65    5.59
  -3   0  -7   65.94    5.61
  -3   0  -7   63.29    5.40
  -3   0  -7   64.98    5.92
  -3   0  -7   63.90    5.14
  -3   0  -7   70.60    5.39
   3   0   7   54.52    5.60
   3   0   7   68.06    5.39
  -4   0  -7  102.01    8.90
  -4   0  -7  101.50    7.62
  -4   0  -7   93.24    8.28
  -4   0  -7   88.63    8.29
  -4   0  -7   94.42    7.98
   4   0   7   85.78    7.95
  -5   0  -7   19.08    1.89
  -5   0  -7   18.62    1.67
  -5   0  -7   18.33    1.73
  -6   0  -7    4.56    0.66
  -6   0  -7    3.74    0.42
  -6   0  -7    2.65    0.51
  -6   0  -7    3.59    0.46
  -7   0  -7    0.25    0.26
  -7   0  -7    0.06    0.12
  -7   0  -7    0.14    0.21
  -6   1   7    7.11    0.80
  -6   1   7    5.87    0.99
  -6   1   7    6.03    0.71
  -5   1   7    0.58    0.20
  -5   1   7    0.07    0.25
  -5   1   7    0.70    0.20
  -4   1   7   21.80    2.06
  -4   1   7   24.69    2.16
   3  -1  -7    3.40    0.39
  -3   1   7    2.66    0.41
  -3   1   7    2.87    0.39
  -3   1   7    3.93    0.53
   2  -1  -7   62.44    5.34
   2  -1  -7   65.15    5.54
   2  -1  -7   51.80    5.71
  -2   1   7   66.88    5.55
  -2   1   7   58.35    6.01
  -2   1   7   67.16    5.71
  -2   1   7   63.73    5.33
  -2   1   7   66.14    5.57
   1  -1  -7   87.71    6.89
   1  -1  -7   76.22    7.15
   1  -1  -7   86.95    7.40
   1  -1  -7   84.96    7.54
  -1   1   7   78.37    6.88
  -1   1   7   72.74    7.39
  -1   1   7   85.04    7.73
  -1   1   7   78.55    7.16
   0  -1  -7   19.90    1.99
   0  -1  -7   19.22    1.88
   0  -1  -7   20.00    1.89
   0  -1  -7   18.08    1.93
   0  -1  -7   20.03    2.00
   0   1   7   22.18    1.82
   0   1   7   22.13    1.89
   0   1   7   22.50    2.02
   0   1   7   21.75    1.88
  -1  -1  -7   77.88    7.07
  -1  -1  -7   74.91    6.35
  -1  -1  -7   77.95    6.35
  -1  -1  -7   65.13    6.92
  -1  -1  -7   66.13    6.59
  -1  -1  -7   86.81    6.99
   1   1   7   69.88    7.07
   1   1   7   83.16    6.09
   1   1   7   70.22    6.34
   1   1   7   78.53    6.60
  -2  -1  -7   24.28    2.74
  -2  -1  -7   33.22    2.60
  -2  -1  -7   28.83    2.49
  -2  -1  -7   32.56    2.37
  -2  -1  -7   24.64    2.71
  -2  -1  -7   27.81    2.49
   2   1   7   32.66    2.36
   2   1   7   27.97    2.58
   2   1   7   27.59    2.49
  -3  -1  -7   86.77    6.86
  -3  -1  -7   68.89    6.59
   3   1   7   75.57    6.84
   3   1   7   80.68    6.60
  -4  -1  -7   31.83    3.43
  -4  -1  -7   41.25    3.21
  -4  -1  -7   31.10    3.09
  -4  -1  -7   36.20    3.43
   4   1   7   40.51    3.10
  -5  -1  -7    2.75    0.33
  -5  -1  -7    2.71    0.32
  -5  -1  -7    2.82    0.33
  -5  -1  -7    2.77    0.45
  -5  -1  -7    2.43    0.45
  -6  -1  -7   11.31    1.24
  -6  -1  -7   11.11    1.27
  -7  -1  -7   28.35    2.85
  -7  -1  -7   28.23    2.88
  -5   2   7   29.19    2.58
  -5   2   7   32.71    3.04
  -5   2   7   25.51    2.69
  -4   2   7   70.25    6.09
  -4   2   7   65.90    5.82
   3  -2  -7   25.47    1.97
   3  -2  -7   20.71    2.08
  -3   2   7   19.09    2.03
  -3   2   7   20.45    2.25
  -3   2   7   24.34    1.98
   2  -2  -7    8.01    0.80
   2  -2  -7    9.24    0.84
   2  -2  -7    8.98    0.84
   2  -2  -7    9.05    0.91
  -2   2   7    8.34    0.84
  -2   2   7    9.65    0.86
  -2   2   7    6.40    0.78
  -2   2   7    6.31    0.90
   1  -2  -7  137.89   13.34
   1  -2  -7  171.49   14.40
   1  -2  -7  172.87   13.88
   1  -2  -7  155.47   14.64
  -1   2   7  176.43   15.00
  -1   2   7  134.89   13.87
  -1   2   7  160.61   13.34
   0  -2  -7  140.16   11.78
   0  -2  -7  125.06   12.37
   0  -2  -7  147.61   12.25
   0  -2  -7  117.34   11.77
   0  -2  -7  126.64   11.33
   0   2   7  144.76   11.80
   0   2   7  141.85   12.71
   0   2   7  132.87   11.33
  -1  -2  -7   21.96    2.08
  -1  -2  -7   20.36    2.15
  -1  -2  -7   24.35    2.00
  -1  -2  -7   23.97    2.19
  -1  -2  -7   26.79    2.08
  -1  -2  -7   21.56    2.22
   1   2   7   21.45    2.07
   1   2   7   22.92    2.00
   1   2   7   22.50    2.21
  -2  -2  -7    8.37    0.73
  -2  -2  -7    6.32    0.80
  -2  -2  -7    8.96    0.79
  -2  -2  -7    6.03    0.74
  -2  -2  -7    7.91    0.75
  -2  -2  -7    8.25    0.73
  -2  -2  -7    7.33    0.83
  -2  -2  -7    8.71    0.76
   2   2   7    6.26    0.65
   2   2   7    7.06    0.73
   2   2   7    8.43    0.72
  -3  -2  -7    4.93    0.54
  -3  -2  -7    5.46    0.52
  -3  -2  -7    4.73    0.51
  -3  -2  -7    6.06    0.59
  -3  -2  -7    4.94    0.61
  -3  -2  -7    5.31    0.55
   3   2   7    5.48    0.51
  -4  -2  -7   21.06    1.89
  -4  -2  -7   19.34    2.02
  -4  -2  -7   20.57    2.06
  -4  -2  -7   20.15    1.81
  -4  -2  -7   23.43    2.05
  -4  -2  -7   20.75    1.89
  -5  -2  -7   22.14    2.38
  -5  -2  -7   27.32    2.45
  -6  -2  -7   22.81    2.14
  -6  -2  -7   18.97    2.08
  -7  -2  -7    2.42    0.49
  -7  -2  -7    2.07    0.52
  -5   3   7    4.30    0.63
  -5   3   7    5.43    0.73
  -5   3   7    4.66    0.83
  -4   3   7    0.06    0.22
  -4   3   7   -0.32    0.16
  -4   3   7    0.03    0.21
   3  -3  -7   21.06    2.35
   3  -3  -7   25.12    2.20
  -3   3   7   26.17    2.54
  -3   3   7   25.24    2.33
  -3   3   7   26.15    2.22
   2  -3  -7  117.24   10.26
   2  -3  -7  108.89    9.48
  -2   3   7  104.11    9.87
  -2   3   7  109.27    9.49
  -2   3   7  120.78   10.69
   1  -3  -7  130.71   10.56
   1  -3  -7  128.22   10.95
   1  -3  -7  119.09   10.15
  -1   3   7  116.42   11.39
  -1   3   7  105.70   10.54
   0  -3  -7   19.26    1.95
   0  -3  -7   21.20    1.82
   0  -3  -7   22.75    1.77
   0   3   7   16.09    1.94
   0   3   7   18.96    1.81
   0   3   7   20.03    1.75
  -1  -3  -7   43.21    4.31
  -1  -3  -7   55.11    4.49
  -1  -3  -7   44.51    4.75
  -1  -3  -7   58.11    4.69
  -1  -3  -7   53.98    4.49
  -1  -3  -7   44.29    4.69
   1   3   7   48.42    4.30
   1   3   7   53.35    4.48
   1   3   7   53.91    4.84
  -2  -3  -7  184.20   17.36
  -2  -3  -7  210.48   16.54
  -2  -3  -7  165.69   17.46
  -2  -3  -7  209.99   16.53
  -2  -3  -7  172.67   15.89
  -2  -3  -7  175.90   15.88
  -2  -3  -7  206.10   17.24
   2   3   7  188.13   15.88
  -3  -3  -7  149.84   13.58
  -3  -3  -7  150.21   12.99
  -3  -3  -7  172.86   12.50
  -3  -3  -7  155.89   12.48
  -3  -3  -7  140.37   13.63
  -3  -3  -7  126.10   12.97
  -3  -3  -7  125.79   13.73
   3   3   7  165.96   12.47
  -4  -3  -7   37.50    3.58
  -4  -3  -7   39.27    3.40
  -4  -3  -7   31.46    3.61
  -4  -3  -7   40.58    3.41
  -4  -3  -7   41.46    3.67
  -5  -3  -7    2.69    0.40
  -5  -3  -7    2.25    0.47
  -5  -3  -7    1.89    0.40
  -5  -3  -7    2.14    0.37
  -6  -3  -7   34.52    3.19
  -6  -3  -7   36.76    3.26
  -6  -3  -7   27.23    3.20
  -7  -3  -7   22.89    2.24
  -7  -3  -7   20.48    2.29
  -7  -3  -7   22.38    2.28
  -4   4   7   29.35    2.88
  -4   4   7   31.66    3.29
  -4   4   7   34.90    3.04
   3  -4  -7   20.35    1.81
   3  -4  -7   18.87    1.95
  -3   4   7   17.49    1.90
  -3   4   7   22.08    1.85
  -3   4   7   19.00    2.08
   2  -4  -7    0.14    0.14
   2  -4  -7   -0.05    0.15
   2  -4  -7    0.04    0.10
  -2   4   7    0.07    0.15
  -2   4   7    0.07    0.17
  -2   4   7   -0.05    0.15
   1  -4  -7   12.13    1.21
   1  -4  -7   14.37    1.39
  -1   4   7   12.69    1.39
  -1   4   7   13.39    1.30
  -1   4   7   12.40    1.23
   0  -4  -7   53.01    4.71
   0  -4  -7   60.00    5.21
   0  -4  -7   55.00    5.11
   0  -4  -7   46.89    4.90
   0   4   7   55.22    4.73
   0   4   7   59.94    5.32
   0   4   7   56.11    4.93
  -1  -4  -7   54.74    5.39
  -1  -4  -7   58.75    5.73
  -1  -4  -7   69.32    5.66
  -1  -4  -7   65.04    5.20
  -1  -4  -7   59.19    5.41
   1   4   7   58.16    5.20
   1   4   7   61.31    5.41
  -2  -4  -7   21.47    1.93
  -2  -4  -7   23.22    2.02
  -2  -4  -7   21.52    2.08
  -2  -4  -7   23.98    2.14
  -2  -4  -7   17.58    1.99
   2   4   7   21.88    1.93
   2   4   7   25.64    2.17
   2   4   7   20.91    2.01
  -3  -4  -7    2.94    0.48
  -3  -4  -7    2.44    0.33
  -3  -4  -7    2.31    0.32
  -3  -4  -7    1.62    0.27
  -3  -4  -7    1.99    0.37
  -3  -4  -7    2.19    0.31
   3   4   7    2.70    0.30
  -4  -4  -7    4.30    0.45
  -4  -4  -7    4.45    0.49
  -4  -4  -7    4.27    0.62
  -4  -4  -7    4.35    0.52
  -4  -4  -7    4.55    0.61
  -4  -4  -7    5.18    0.50
  -5  -4  -7   22.56    1.93
  -5  -4  -7   23.62    2.06
  -5  -4  -7   20.78    2.27
  -5  -4  -7   25.41    2.20
  -5  -4  -7   19.48    2.24
  -6  -4  -7   50.43    5.00
  -6  -4  -7   52.56    5.09
  -6  -4  -7   56.75    5.09
  -7  -4  -7   11.02    1.27
  -7  -4  -7   10.83    1.31
   3  -5  -7   11.15    1.33
   3  -5  -7   11.22    1.22
  -3   5   7   14.14    1.31
  -3   5   7   13.87    1.47
  -3   5   7   11.76    1.27
   2  -5  -7   46.43    4.36
   2  -5  -7   48.64    4.74
   2  -5  -7   53.97    4.84
  -2   5   7   48.59    4.58
  -2   5   7   53.54    4.96
   1  -5  -7   76.25    8.08
   1  -5  -7   89.64    7.37
   1  -5  -7  101.11    8.00
  -1   5   7   74.12    8.26
  -1   5   7   84.75    7.69
  -1   5   7   91.80    7.38
   0  -5  -7   11.45    1.09
   0  -5  -7    8.11    0.97
   0  -5  -7    9.58    1.10
   0  -5  -7    9.36    1.03
   0   5   7   11.91    1.16
   0   5   7    9.40    1.05
   0   5   7   11.32    1.01
  -1  -5  -7    7.14    0.73
  -1  -5  -7    5.96    0.81
  -1  -5  -7    6.62    0.80
  -1  -5  -7    6.99    0.77
   1   5   7    7.22    0.73
   1   5   7    8.14    0.86
  -2  -5  -7   29.25    3.39
  -2  -5  -7   38.86    3.27
  -2  -5  -7   32.31    3.46
  -2  -5  -7   39.77    3.13
   2   5   7   40.37    3.13
   2   5   7   34.97    3.50
  -3  -5  -7   11.46    1.29
  -3  -5  -7   13.66    1.36
  -3  -5  -7   11.41    1.14
  -3  -5  -7   13.12    1.22
   3   5   7   12.92    1.15
  -4  -5  -7   64.52    6.74
  -4  -5  -7   69.74    6.05
  -4  -5  -7   74.68    6.32
  -4  -5  -7   76.78    6.68
  -5  -5  -7    0.05    0.10
  -5  -5  -7   -0.11    0.08
  -5  -5  -7    0.06    0.26
  -5  -5  -7    0.18    0.17
  -6  -5  -7    1.41    0.42
  -6  -5  -7    1.60    0.45
  -7  -5  -7    4.76    0.78
  -7  -5  -7    3.64    0.68
   2  -6  -7    8.25    0.99
   2  -6  -7    6.91    0.82
  -2   6   7    6.70    0.95
  -2   6   7    6.71    0.84
   1  -6  -7    0.40    0.23
   1  -6  -7    0.20    0.22
   1  -6  -7    0.29    0.22
  -1   6   7    0.59    0.22
  -1   6   7    0.04    0.20
   0  -6  -7   17.61    1.71
   0  -6  -7   15.86    1.56
   0  -6  -7   17.26    1.64
   0  -6  -7   19.11    1.77
   0   6   7   15.46    1.58
   0   6   7   14.48    1.76
  -1  -6  -7   52.26    5.12
  -1  -6  -7   46.25    4.88
  -1  -6  -7   58.00    4.72
  -1  -6  -7   61.53    5.21
   1   6   7   55.11    4.73
  -2  -6  -7   34.27    2.82
  -2  -6  -7   26.51    3.10
  -2  -6  -7   35.27    2.95
   2   6   7   27.47    2.80
   2   6   7   36.79    3.19
  -3  -6  -7    5.11    0.63
  -3  -6  -7    4.59    0.52
  -3  -6  -7    4.01    0.55
  -3  -6  -7    4.32    0.63
  -4  -6  -7    6.74    0.86
  -4  -6  -7    6.66    0.83
  -4  -6  -7    6.46    0.68
  -4  -6  -7    6.93    0.74
  -5  -6  -7   28.53    2.69
  -5  -6  -7   33.88    2.96
  -5  -6  -7   29.89    2.58
  -5  -6  -7   26.97    2.96
  -6  -6  -7   31.71    3.00
  -6  -6  -7   26.81    2.89
   1  -7  -7   24.37    2.61
   1  -7  -7   29.78    2.66
   1  -7  -7   22.14    2.36
  -1   7   7   25.41    2.42
  -1   7   7   28.02    2.75
   0  -7  -7    1.83    0.43
   0  -7  -7    2.76    0.52
   0  -7  -7    3.84    0.48
   0   7   7    2.77    0.57
   0   7   7    2.92    0.50
  -1  -7  -7    0.35    0.20
  -1  -7  -7    0.53    0.27
  -1  -7  -7    0.80    0.25
  -1  -7  -7    0.45    0.25
   1   7   7    0.55    0.27
   1   7   7    0.88    0.29
  -2  -7  -7    6.97    0.83
  -2  -7  -7    7.42    0.89
  -2  -7  -7    8.00    0.92
  -2  -7  -7    6.68    0.78
   2   7   7    7.35    0.90
  -3  -7  -7   11.02    1.25
  -3  -7  -7   14.70    1.40
  -3  -7  -7   10.71    1.33
  -3  -7  -7   13.52    1.22
  -4  -7  -7    6.21    0.77
  -4  -7  -7    4.88    0.60
  -4  -7  -7    5.74    0.74
  -4  -7  -7    4.79    0.64
  -5  -7  -7    8.48    0.82
  -5  -7  -7    9.64    1.05
  -5  -7  -7    6.75    0.84
  -5  -7  -7    9.00    1.02
  -1  -8  -7   26.61    2.58
  -1  -8  -7   24.05    2.56
  -1  -8  -7   25.29    2.36
   1   8   7   25.53    2.65
  -2  -8  -7   26.08    2.66
  -2  -8  -7   26.96    2.79
  -2  -8  -7   30.20    2.82
  -2  -8  -7   29.32    2.58
  -3  -8  -7    1.19    0.34
  -3  -8  -7    1.86    0.45
  -3  -8  -7    1.31    0.32
  -3  -8  -7    1.47    0.39
  -4  -8  -7    1.25    0.34
  -4  -8  -7    1.64    0.36
  -4  -8  -7    1.62    0.30
   3   8  -8   19.69    1.82
  -3  -8   8   21.82    1.90
  -3  -8   8   17.13    1.93
  -3  -8   8   21.87    2.05
   2   8  -8   12.12    1.17
  -2  -8   8   11.90    1.30
  -2  -8   8   13.09    1.23
  -2  -8   8   10.26    1.22
   1   8  -8   10.32    1.04
  -1  -8   8   10.06    1.06
  -1  -8   8    9.10    1.11
   5   7  -8   10.53    1.16
  -5  -7   8   11.10    1.10
  -5  -7   8   11.24    1.16
   4   7  -8   32.07    3.10
  -4  -7   8   37.80    3.21
  -4  -7   8   38.97    3.36
   3   7  -8    9.20    0.94
  -3  -7   8    8.68    1.01
  -3  -7   8    9.68    1.00
  -3  -7   8    9.19    0.95
   2   7  -8    0.15    0.19
  -2  -7   8    0.12    0.13
  -2  -7   8    0.33    0.19
  -2  -7   8    0.00    0.19
   1   7  -8   20.64    1.80
   1   7  -8   21.38    1.73
  -1  -7   8   17.73    1.91
  -1  -7   8   18.47    1.77
  -1  -7   8   16.24    1.80
   0   7  -8   21.74    2.09
   0  -7   8   25.81    2.31
   0  -7   8   20.27    2.06
  -1   7  -8   11.72    1.09
  -1   7  -8    9.26    1.09
   1  -7   8   10.27    1.17
   1  -7   8    9.39    1.04
   5   6  -8    4.37    0.54
  -5  -6   8    3.64    0.53
  -5  -6   8    4.14    0.53
   4   6  -8    1.47    0.33
  -4  -6   8    1.14    0.25
  -4  -6   8    0.89    0.22
   3   6  -8    7.72    0.85
  -3  -6   8    7.96    0.90
  -3  -6   8    8.72    0.87
  -3  -6   8    9.45    0.93
   2   6  -8   17.14    1.59
   2   6  -8   17.05    1.52
  -2  -6   8   15.87    1.68
  -2  -6   8   17.63    1.58
  -2  -6   8   17.00    1.64
   1   6  -8   24.52    2.17
   1   6  -8   25.79    2.28
  -1  -6   8   25.34    2.46
  -1  -6   8   24.16    2.34
  -1  -6   8   25.62    2.27
   0   6  -8   15.27    1.23
   0   6  -8   10.71    1.22
   0  -6   8   14.07    1.30
   0  -6   8   10.09    1.21
   0  -6   8   14.53    1.38
  -1   6  -8    0.82    0.27
  -1   6  -8    0.27    0.23
  -1   6  -8    0.67    0.22
   1  -6   8    0.55    0.24
   1  -6   8    0.69    0.20
  -2   6  -8   11.57    1.15
  -2   6  -8   10.13    1.07
  -2   6  -8   10.84    1.16
   2  -6   8    9.28    1.08
   2  -6   8   12.01    1.23
  -3   6  -8   29.48    2.64
  -3   6  -8   32.79    2.98
  -3   6  -8   27.40    2.74
  -6  -5   8    4.13    0.79
  -6  -5   8    4.09    0.55
   5   5  -8   27.71    2.41
  -5  -5   8   28.86    2.56
  -5  -5   8   26.36    2.44
   4   5  -8   50.20    4.36
  -4  -5   8   52.35    4.49
  -4  -5   8   53.48    4.66
   3   5  -8   56.57    5.21
  -3  -5   8   68.85    5.64
  -3  -5   8   63.88    5.40
   2   5  -8   12.72    1.21
   2   5  -8   12.82    1.29
   2   5  -8   12.15    1.15
  -2  -5   8   13.01    1.20
  -2  -5   8   11.75    1.24
  -2  -5   8   13.66    1.28
   1   5  -8   25.00    2.33
   1   5  -8   24.05    2.22
   1   5  -8   22.46    2.50
  -1  -5   8   28.93    2.33
  -1  -5   8   30.09    2.43
  -1  -5   8   26.82    2.51
   0   5  -8   60.93    4.65
   0   5  -8   53.80    4.83
   0   5  -8   58.34    4.45
   0   5  -8   50.46    5.02
   0  -5   8   56.65    4.81
   0  -5   8   44.74    4.99
   0  -5   8   51.09    4.62
  -1   5  -8   26.03    2.43
  -1   5  -8   27.88    2.28
  -1   5  -8   27.37    2.18
   1  -5   8   23.16    2.43
   1  -5   8   21.27    2.23
  -2   5  -8   10.31    1.10
  -2   5  -8   12.16    1.15
  -2   5  -8   11.08    1.03
  -2   5  -8   11.64    1.08
   2  -5   8    9.53    1.11
   2  -5   8    8.09    1.00
  -3   5  -8    0.64    0.26
  -3   5  -8    1.32    0.33
  -3   5  -8    1.21    0.28
  -3   5  -8    0.94    0.26
  -4   5  -8    6.24    0.75
  -4   5  -8    6.98    0.75
  -4   5  -8    5.92    0.84
  -4   5  -8    6.34    0.79
  -6  -4   8   17.38    1.97
  -6  -4   8   17.18    1.66
   5   4  -8   31.33    2.64
  -5  -4   8   28.48    2.67
  -5  -4   8   30.71    3.15
  -5  -4   8   32.24    2.82
   4   4  -8    2.05    0.36
  -4  -4   8    2.21    0.36
  -4  -4   8    2.23    0.34
   3   4  -8   24.15    1.86
   3   4  -8   15.77    1.75
  -3  -4   8   21.41    1.82
   2   4  -8  100.27    8.03
   2   4  -8   82.96    8.35
   2   4  -8   92.96    9.11
  -2  -4   8   98.13    8.34
  -2  -4   8  110.05    8.69
  -2  -4   8  106.35    9.00
   1   4  -8   52.31    4.51
   1   4  -8   58.47    4.33
   1   4  -8   43.14    4.89
   1   4  -8   55.33    4.69
  -1  -4   8   46.85    4.67
  -1  -4   8   59.39    4.51
   0   4  -8   55.78    4.16
   0   4  -8   44.01    3.95
   0   4  -8   40.16    4.48
   0   4  -8   51.18    4.31
   0  -4   8   50.19    4.13
   0  -4   8   42.11    4.28
   0  -4   8   53.47    4.48
  -1   4  -8    1.57    0.30
  -1   4  -8    1.06    0.26
  -1   4  -8    1.67    0.29
  -1   4  -8    1.91    0.29
   1  -4   8    1.70    0.31
   1  -4   8    1.12    0.26
   1  -4   8    1.53    0.31
  -2   4  -8   42.02    3.80
  -2   4  -8   52.00    3.99
  -2   4  -8   40.69    3.64
   2  -4   8   40.64    3.79
  -3   4  -8   52.03    4.23
  -3   4  -8   49.84    4.81
  -3   4  -8   47.92    4.41
   3  -4   8   53.18    4.41
  -4   4  -8   27.85    2.69
  -4   4  -8   30.05    2.35
  -4   4  -8   26.78    2.45
  -4   4  -8   23.07    2.51
  -6  -3   8    1.97    0.51
  -6  -3   8    1.70    0.31
  -5  -3   8   28.77    2.68
  -5  -3   8   27.82    3.01
  -5  -3   8   30.82    2.56
   4   3  -8   50.38    3.74
  -4  -3   8   47.76    4.41
  -4  -3   8   39.36    3.83
  -4  -3   8   41.88    4.00
   3   3  -8   58.10    4.51
  -3  -3   8   55.89    4.67
  -3  -3   8   49.53    4.78
  -3  -3   8   46.79    4.49
   2   3  -8   12.54    1.02
   2   3  -8    9.50    1.02
   2   3  -8   12.81    1.15
  -2  -3   8   11.06    1.01
  -2  -3   8   11.99    1.05
  -2  -3   8    9.89    1.05
  -2  -3   8    9.32    1.04
   1   3  -8    0.22    0.14
   1   3  -8    0.44    0.19
   1   3  -8    0.34    0.10
   1   3  -8    0.24    0.14
  -1  -3   8    0.15    0.13
  -1  -3   8    0.16    0.11
  -1  -3   8    0.34    0.13
  -1  -3   8    0.16    0.09
   0   3  -8   11.20    1.05
   0   3  -8   11.53    1.11
   0   3  -8   10.51    1.19
   0   3  -8   13.92    1.15
   0   3  -8   11.63    1.15
   0  -3   8   11.97    1.16
   0  -3   8   13.02    1.10
   0  -3   8   10.36    1.13
  -1   3  -8   68.02    5.92
  -1   3  -8   80.42    6.18
  -1   3  -8   66.09    6.44
  -1   3  -8   69.91    5.67
   1  -3   8   65.33    6.14
   1  -3   8   68.23    5.91
   1  -3   8   68.49    6.38
  -2   3  -8   90.24    8.63
  -2   3  -8  103.41    7.93
  -2   3  -8   78.60    8.21
   2  -3   8  101.74    7.91
   2  -3   8   92.27    8.22
  -3   3  -8   16.34    1.53
  -3   3  -8   15.39    1.45
  -3   3  -8   17.98    1.69
  -3   3  -8   15.91    1.63
  -3   3  -8   16.60    1.60
   3  -3   8   16.84    1.52
  -4   3  -8    1.81    0.36
  -4   3  -8    1.39    0.32
  -4   3  -8    1.83    0.30
  -4   3  -8    1.62    0.36
  -5   3  -8   14.23    1.61
  -5   3  -8   14.53    1.45
  -5   3  -8   16.17    1.54
  -6  -2   8   37.56    3.41
  -6  -2   8   37.62    3.85
  -5  -2   8   71.62    6.02
  -5  -2   8   71.32    6.30
  -5  -2   8   69.67    6.92
   4   2  -8   10.58    1.05
  -4  -2   8   11.85    1.12
  -4  -2   8   11.03    1.04
  -4  -2   8   11.17    1.28
   3   2  -8    9.32    0.83
   3   2  -8    8.75    0.82
   3   2  -8    8.35    0.85
  -3  -2   8    8.11    0.86
  -3  -2   8    8.78    0.84
  -3  -2   8    9.40    0.89
  -3  -2   8    6.94    0.95
   2   2  -8  116.99    9.38
   2   2  -8  116.48    9.73
   2   2  -8   97.71   10.23
  -2  -2   8  111.57   10.52
  -2  -2   8  117.33    9.74
  -2  -2   8   92.25    9.35
  -2  -2   8  109.74   10.21
  -2  -2   8  125.12    9.77
   1   2  -8  292.12   23.82
   1   2  -8  296.64   20.94
   1   2  -8  218.11   21.79
  -1  -2   8  278.15   23.83
  -1  -2   8  238.38   22.65
  -1  -2   8  234.48   21.78
   0   2  -8   28.34    3.18
   0   2  -8   35.65    2.79
   0   2  -8   34.27    3.15
   0   2  -8   29.52    2.92
   0  -2   8   37.58    3.05
   0  -2   8   35.64    3.02
   0  -2   8   35.08    2.91
  -1   2  -8    1.72    0.29
  -1   2  -8    2.06    0.31
  -1   2  -8    1.72    0.25
  -1   2  -8    2.06    0.30
  -1   2  -8    2.45    0.31
  -1   2  -8    2.11    0.28
   1  -2   8    2.18    0.28
   1  -2   8    1.42    0.25
  -2   2  -8   26.06    2.11
  -2   2  -8   20.98    2.39
  -2   2  -8   30.03    2.32
  -2   2  -8   25.14    2.22
  -2   2  -8   26.57    2.30
   2  -2   8   25.61    2.20
   2  -2   8   22.27    2.27
  -3   2  -8   52.28    4.60
  -3   2  -8   55.89    4.88
  -3   2  -8   44.94    4.41
  -3   2  -8   50.57    4.83
   3  -2   8   52.59    4.40
  -4   2  -8   39.07    3.87
  -4   2  -8   45.98    4.12
  -4   2  -8   47.29    3.57
  -4   2  -8   39.73    3.73
  -5   2  -8    2.67    0.39
  -5   2  -8    2.29    0.46
  -5   2  -8    1.65    0.32
  -6   2  -8    0.19    0.17
  -6   2  -8    0.56    0.31
  -6   2  -8   -0.39    0.16
  -6  -1   8   -0.27    0.20
  -6  -1   8    0.37    0.26
  -6  -1   8   -0.03    0.14
  -5  -1   8    7.14    0.80
  -5  -1   8    6.84    0.73
  -5  -1   8    9.45    1.04
  -4  -1   8   20.73    2.28
  -4  -1   8   21.15    1.95
  -4  -1   8   24.14    2.06
   3   1  -8   54.84    4.70
   3   1  -8   48.50    4.85
  -3  -1   8   63.00    4.75
  -3  -1   8   54.98    4.88
  -3  -1   8   48.47    4.67
  -3  -1   8   57.62    5.33
  -3  -1   8   58.04    4.89
   2   1  -8   17.72    1.79
   2   1  -8   21.22    1.75
   2   1  -8   17.11    1.67
   2   1  -8   21.38    1.63
  -2  -1   8   16.58    1.74
  -2  -1   8   22.00    1.93
  -2  -1   8   19.09    1.68
  -2  -1   8   16.37    1.73
   1   1  -8    1.15    0.26
   1   1  -8    1.02    0.22
   1   1  -8    1.22    0.24
   1   1  -8    1.04    0.23
   1   1  -8    1.67    0.24
   1   1  -8    1.71    0.18
  -1  -1   8    1.46    0.24
  -1  -1   8    1.18    0.24
  -1  -1   8    1.17    0.24
  -1  -1   8    0.97    0.21
   0   1  -8    1.31    0.23
   0   1  -8    0.98    0.21
   0   1  -8    0.93    0.20
   0   1  -8    1.42    0.23
   0   1  -8    1.05    0.20
   0   1  -8    1.21    0.27
   0  -1   8    1.03    0.21
   0  -1   8    1.17    0.20
   0  -1   8    1.13    0.20
  -1   1  -8  114.02    9.73
  -1   1  -8  110.23    9.27
  -1   1  -8  115.87    9.75
  -1   1  -8  110.27    8.53
   1  -1   8   90.82    8.89
   1  -1   8  111.64    9.93
   1  -1   8   85.85    9.24
  -2   1  -8  103.77   10.52
  -2   1  -8  103.51    9.19
  -2   1  -8  106.51    9.99
  -2   1  -8  130.60   10.51
   2  -1   8  115.56    9.98
   2  -1   8  123.14    9.60
  -3   1  -8   54.13    4.28
  -3   1  -8   56.96    4.95
  -3   1  -8   47.71    4.49
  -3   1  -8   47.20    4.65
  -3   1  -8   54.15    4.92
   3  -1   8   53.17    4.65
   3  -1   8   54.07    4.47
  -4   1  -8   29.78    2.45
  -4   1  -8   27.33    2.85
  -4   1  -8   33.15    2.70
  -4   1  -8   27.55    2.58
   4  -1   8   29.68    2.57
  -5   1  -8   25.46    2.06
  -5   1  -8   20.90    2.19
  -5   1  -8   19.23    1.94
  -6   1  -8   30.09    2.86
  -6   1  -8   32.52    3.23
  -6   1  -8   35.25    3.01
  -6   0   8   49.24    4.50
  -6   0   8   42.15    3.80
  -6   0   8   41.96    3.99
  -5   0   8   39.66    3.82
  -5   0   8   45.80    4.28
  -5   0   8   42.37    3.67
  -4   0   8    4.25    0.52
  -4   0   8    3.87    0.67
  -4   0   8    3.97    0.47
   3   0  -8    6.95    0.71
   3   0  -8    7.81    0.69
  -3   0   8    7.11    0.83
  -3   0   8    5.91    0.71
  -3   0   8    6.09    0.67
  -3   0   8    6.62    0.73
   2   0  -8   69.58    6.56
   2   0  -8   74.13    7.18
  -2   0   8   76.91    7.40
  -2   0   8   82.85    6.57
  -2   0   8   86.82    6.83
  -2   0   8   74.08    6.83
   1   0  -8  118.00    9.72
   1   0  -8  123.31   10.54
   1   0  -8  126.80   10.13
   1   0  -8  111.24   11.08
  -1   0   8  104.89   10.53
  -1   0   8  106.98   10.12
  -1   0   8  142.56   11.39
  -1   0   8  126.92   10.54
   0   0  -8   75.00    6.95
   0   0  -8   69.98    6.95
   0   0  -8   73.41    6.09
   0   0  -8   80.77    6.62
   0   0  -8   73.88    6.60
   0   0   8   77.49    6.36
   0   0   8   78.78    6.62
   0   0   8   70.70    7.10
  -1   0  -8    1.20    0.23
  -1   0  -8    1.40    0.24
  -1   0  -8    1.40    0.23
  -1   0  -8    1.34    0.24
  -1   0  -8    1.25    0.21
  -1   0  -8    1.08    0.23
   1   0   8    1.35    0.23
   1   0   8    1.31    0.24
  -2   0  -8   18.36    1.56
  -2   0  -8   21.47    1.73
  -2   0  -8   21.25    1.72
  -2   0  -8   16.56    1.80
  -2   0  -8   17.31    1.81
  -2   0  -8   22.08    1.65
  -2   0  -8   17.84    1.66
   2   0   8   18.07    1.65
   2   0   8   15.24    1.70
  -3   0  -8   18.88    2.05
  -3   0  -8   20.88    2.08
  -3   0  -8   23.80    1.95
  -3   0  -8   23.61    1.76
  -3   0  -8   23.96    1.87
  -3   0  -8   18.26    1.87
   3   0   8   23.52    1.87
   3   0   8   17.31    1.93
  -4   0  -8   25.37    2.50
  -4   0  -8   28.73    2.80
  -4   0  -8   30.80    2.61
  -4   0  -8   29.09    2.36
  -4   0  -8   25.16    2.76
  -4   0  -8   29.96    2.59
   4   0   8   31.34    2.49
  -5   0  -8   21.05    2.04
  -5   0  -8   22.72    2.13
  -5   0  -8   22.72    2.30
  -5   0  -8   26.85    2.36
  -6   0  -8    3.70    0.44
  -6   0  -8    4.06    0.68
  -6   0  -8    4.03    0.64
  -6   0  -8    3.68    0.49
  -6   1   8    7.51    1.15
  -6   1   8    7.71    0.82
  -6   1   8    8.15    0.93
  -5   1   8    0.08    0.25
  -5   1   8    0.30    0.23
  -5   1   8    0.38    0.18
  -4   1   8   33.47    3.50
  -4   1   8   36.06    3.05
   3  -1  -8  148.24   11.61
  -3   1   8  119.73   11.57
  -3   1   8  143.87   12.08
  -3   1   8  137.94   13.08
   2  -1  -8  129.85   12.13
   2  -1  -8  147.57   11.50
  -2   1   8  132.98   11.06
  -2   1   8  110.91   11.50
  -2   1   8  134.98   12.45
  -2   1   8  130.12   11.89
   1  -1  -8    9.35    0.89
   1  -1  -8    9.55    0.86
   1  -1  -8    8.39    0.78
   1  -1  -8    7.63    0.79
   1  -1  -8    7.10    0.76
  -1   1   8    7.44    0.86
  -1   1   8    6.96    0.76
  -1   1   8    7.83    0.80
   0  -1  -8   34.10    3.24
   0  -1  -8   35.17    3.17
   0  -1  -8   32.02    3.23
   0  -1  -8   31.22    2.96
   0  -1  -8   34.91    3.08
   0   1   8   38.15    3.09
   0   1   8   33.81    3.29
   0   1   8   34.24    2.96
  -1  -1  -8  244.38   21.51
  -1  -1  -8  223.04   20.48
  -1  -1  -8  231.49   19.69
  -1  -1  -8  249.91   22.04
  -1  -1  -8  242.99   18.88
   1   1   8  214.16   19.68
  -2  -1  -8  244.49   22.61
  -2  -1  -8  293.60   23.53
  -2  -1  -8  266.81   23.53
  -2  -1  -8  292.06   24.82
  -2  -1  -8  246.89   22.62
  -2  -1  -8  232.31   24.69
  -2  -1  -8  289.21   21.69
   2   1   8  291.15   21.68
  -3  -1  -8   43.68    4.31
  -3  -1  -8   46.28    4.06
  -3  -1  -8   43.88    4.28
  -3  -1  -8   50.11    3.90
  -3  -1  -8   42.20    4.06
   3   1   8   51.05    3.92
   3   1   8   43.33    4.05
  -4  -1  -8    2.04    0.30
  -4  -1  -8    2.71    0.34
  -4  -1  -8    2.27    0.39
  -4  -1  -8    2.38    0.41
  -4  -1  -8    2.63    0.33
   4   1   8    2.45    0.30
  -5  -1  -8   43.66    4.63
  -5  -1  -8   54.98    4.33
  -5  -1  -8   46.43    4.60
  -6  -1  -8   28.44    2.95
  -6  -1  -8   32.63    2.69
  -6  -1  -8   27.20    2.91
  -7  -1  -8   13.20    1.51
  -7  -1  -8   13.91    1.54
  -5   2   8   25.49    3.14
  -5   2   8   33.68    2.91
  -5   2   8   32.45    2.75
  -4   2   8   12.80    1.30
  -4   2   8   12.91    1.24
   3  -2  -8    4.70    0.55
   3  -2  -8    6.90    0.70
   3  -2  -8    4.79    0.55
  -3   2   8    5.08    0.62
  -3   2   8    4.53    0.55
  -3   2   8    4.57    0.68
   2  -2  -8    0.40    0.19
   2  -2  -8    0.67    0.18
   2  -2  -8    0.49    0.15
   2  -2  -8    0.75    0.17
  -2   2   8    0.36    0.16
  -2   2   8    0.43    0.18
  -2   2   8    0.74    0.20
   1  -2  -8   75.98    7.15
   1  -2  -8   76.68    6.91
   1  -2  -8   86.21    7.31
   1  -2  -8   76.39    6.66
  -1   2   8   76.62    6.92
  -1   2   8   88.10    6.94
  -1   2   8   72.84    7.46
  -1   2   8   74.04    6.64
   0  -2  -8  132.54   11.57
   0  -2  -8  109.44   11.12
   0  -2  -8  125.06   11.14
   0  -2  -8  140.03   11.72
   0  -2  -8  137.52   10.72
   0   2   8  136.75   12.01
   0   2   8  107.63   11.13
  -1  -2  -8   48.26    4.93
  -1  -2  -8   55.77    4.75
  -1  -2  -8   49.52    4.98
  -1  -2  -8   56.97    4.76
   1   2   8   58.10    4.76
   1   2   8   47.68    4.56
   1   2   8   58.23    5.09
  -2  -2  -8    1.22    0.23
  -2  -2  -8    0.98    0.21
  -2  -2  -8    1.43    0.25
  -2  -2  -8    1.40    0.25
  -2  -2  -8    1.00    0.20
  -2  -2  -8    2.27    0.36
  -2  -2  -8    1.40    0.29
  -2  -2  -8    1.59    0.20
   2   2   8    1.65    0.23
   2   2   8    1.69    0.24
   2   2   8    1.54    0.20
   2   2   8    1.58    0.21
  -3  -2  -8   11.00    0.99
  -3  -2  -8   12.70    1.16
  -3  -2  -8   10.58    1.09
  -3  -2  -8    8.44    0.98
  -3  -2  -8   10.71    1.04
   3   2   8   10.09    1.00
   3   2   8   12.67    0.99
  -4  -2  -8   89.13    7.87
  -4  -2  -8   81.55    7.45
  -4  -2  -8   83.42    7.45
  -4  -2  -8   80.55    8.01
  -4  -2  -8   79.36    7.16
   4   2   8   95.04    7.17
  -5  -2  -8   40.73    4.02
  -5  -2  -8   43.62    3.99
  -5  -2  -8   46.42    3.74
  -5  -2  -8   37.74    3.56
  -5  -2  -8   41.32    3.72
  -6  -2  -8    8.09    0.97
  -6  -2  -8    7.46    0.92
  -7  -2  -8    0.37    0.21
  -7  -2  -8   -0.19    0.28
  -5   3   8    1.19    0.34
  -5   3   8    0.04    0.37
  -5   3   8    0.77    0.23
  -4   3   8   12.96    1.41
  -4   3   8   14.64    1.57
  -4   3   8   13.32    1.33
   3  -3  -8   67.82    5.85
  -3   3   8   69.87    6.12
  -3   3   8   70.95    5.87
  -3   3   8   64.15    6.61
   2  -3  -8   78.40    6.79
   2  -3  -8   82.26    7.33
   2  -3  -8   75.80    7.48
  -2   3   8   83.88    7.66
  -2   3   8   84.83    7.09
  -2   3   8   73.15    6.80
   1  -3  -8   20.44    1.73
   1  -3  -8   16.88    1.68
   1  -3  -8   18.10    1.81
   1  -3  -8   17.77    1.63
  -1   3   8   18.21    1.70
  -1   3   8   16.24    1.82
  -1   3   8   17.84    1.63
   0  -3  -8    3.80    0.44
   0  -3  -8    3.89    0.46
   0  -3  -8    3.67    0.44
   0  -3  -8    3.05    0.49
   0   3   8    3.35    0.46
   0   3   8    3.76    0.45
   0   3   8    3.06    0.41
  -1  -3  -8  105.42    8.81
  -1  -3  -8   93.91    9.24
  -1  -3  -8   92.21    9.31
  -1  -3  -8  111.75    8.49
   1   3   8  106.11    8.47
   1   3   8   97.32    9.49
   1   3   8   94.43    8.80
  -2  -3  -8   36.33    4.15
  -2  -3  -8   44.16    3.76
  -2  -3  -8   44.23    4.10
  -2  -3  -8   40.37    3.89
   2   3   8   45.62    3.74
   2   3   8   51.30    3.90
  -3  -3  -8   18.47    1.64
  -3  -3  -8   17.10    1.50
  -3  -3  -8   15.09    1.67
  -3  -3  -8   14.46    1.49
  -3  -3  -8   15.61    1.70
  -3  -3  -8   18.10    1.56
   3   3   8   16.89    1.48
   3   3   8   17.94    1.53
  -4  -3  -8    2.43    0.38
  -4  -3  -8    2.06    0.41
  -4  -3  -8    3.24    0.32
  -4  -3  -8    2.85    0.36
  -4  -3  -8    1.87    0.40
  -4  -3  -8    2.40    0.34
  -5  -3  -8    0.13    0.22
  -5  -3  -8    0.00    0.11
  -5  -3  -8   -0.12    0.12
  -5  -3  -8    0.00    0.12
  -5  -3  -8    0.24    0.07
  -5  -3  -8    0.15    0.12
  -6  -3  -8    3.08    0.64
  -6  -3  -8    4.68    0.64
  -6  -3  -8    5.14    0.64
  -7  -3  -8    9.71    1.12
  -7  -3  -8   10.23    1.19
  -7  -3  -8    8.88    1.19
  -4   4   8   14.53    1.41
  -4   4   8   11.41    1.28
  -4   4   8   12.71    1.53
   3  -4  -8    9.99    1.15
   3  -4  -8   10.70    1.09
  -3   4   8   11.07    1.20
  -3   4   8   10.97    1.10
  -3   4   8   11.16    1.29
   2  -4  -8    3.19    0.53
   2  -4  -8    3.32    0.45
   2  -4  -8    2.67    0.45
  -2   4   8    2.77    0.50
  -2   4   8    2.32    0.41
  -2   4   8    3.69    0.55
   1  -4  -8   21.01    1.79
   1  -4  -8   20.21    1.87
   1  -4  -8   21.37    1.92
  -1   4   8   21.58    1.90
  -1   4   8   17.85    1.79
  -1   4   8   16.22    2.00
   0  -4  -8   73.70    7.37
   0  -4  -8   92.19    7.11
   0  -4  -8   78.65    7.50
   0  -4  -8   83.33    6.82
   0   4   8   78.19    7.10
   0   4   8   79.75    7.66
   0   4   8   74.65    6.82
  -1  -4  -8   64.88    6.44
  -1  -4  -8   76.78    6.09
  -1  -4  -8   70.85    6.35
  -1  -4  -8   64.10    5.84
   1   4   8   67.10    6.57
   1   4   8   67.61    6.08
  -2  -4  -8   13.74    1.42
  -2  -4  -8   12.31    1.32
  -2  -4  -8   16.11    1.48
  -2  -4  -8   14.02    1.38
   2   4   8   15.49    1.48
   2   4   8   15.03    1.38
   2   4   8   15.49    1.33
  -3  -4  -8   28.93    2.80
  -3  -4  -8   33.28    2.72
  -3  -4  -8   28.41    2.74
  -3  -4  -8   24.42    2.46
   3   4   8   27.38    2.46
  -4  -4  -8   61.56    5.78
  -4  -4  -8   59.24    6.44
  -4  -4  -8   75.68    6.35
  -4  -4  -8   71.93    6.04
  -4  -4  -8   73.40    6.40
  -5  -4  -8   49.88    4.33
  -5  -4  -8   52.81    4.53
  -5  -4  -8   53.11    4.88
  -5  -4  -8   45.73    4.89
  -5  -4  -8   54.17    4.81
  -6  -4  -8    3.39    0.51
  -6  -4  -8    4.70    0.70
  -6  -4  -8    3.40    0.63
  -7  -4  -8    2.47    0.50
  -7  -4  -8    1.75    0.50
   3  -5  -8   31.78    2.86
  -3   5   8   34.68    3.05
  -3   5   8   28.77    3.24
   2  -5  -8   22.74    2.47
   2  -5  -8   22.79    2.41
   2  -5  -8   25.59    2.24
  -2   5   8   26.01    2.56
  -2   5   8   25.39    2.38
  -2   5   8   24.55    2.26
   1  -5  -8    9.91    1.08
   1  -5  -8    6.89    0.96
   1  -5  -8    8.36    0.91
  -1   5   8   10.90    1.09
  -1   5   8    9.33    0.95
  -1   5   8    9.48    1.05
   0  -5  -8    0.08    0.15
   0  -5  -8    0.09    0.17
   0  -5  -8    0.24    0.19
   0  -5  -8    0.07    0.11
   0   5   8    0.17    0.19
   0   5   8    0.16    0.16
  -1  -5  -8   17.99    1.64
  -1  -5  -8   16.16    1.83
  -1  -5  -8   19.03    1.72
  -1  -5  -8   17.58    1.80
   1   5   8   19.38    1.88
   1   5   8   17.47    1.64
  -2  -5  -8   86.29    7.74
  -2  -5  -8   96.96    8.08
  -2  -5  -8   79.09    8.53
   2   5   8   99.46    8.71
   2   5   8   94.51    7.76
  -3  -5  -8    0.83    0.20
  -3  -5  -8    1.00    0.29
  -3  -5  -8    1.01    0.33
  -3  -5  -8    0.94    0.23
   3   5   8    1.14    0.23
  -4  -5  -8    4.80    0.53
  -4  -5  -8    5.07    0.69
  -4  -5  -8    4.57    0.70
  -4  -5  -8    6.29    0.60
  -5  -5  -8    0.13    0.21
  -5  -5  -8    0.26    0.15
  -5  -5  -8    0.71    0.29
  -5  -5  -8    0.35    0.11
  -6  -5  -8    1.07    0.32
  -6  -5  -8    0.59    0.33
   2  -6  -8   -0.26    0.26
   2  -6  -8   -0.58    0.21
   2  -6  -8   -0.03    0.20
  -2   6   8   -0.05    0.21
  -2   6   8   -0.24    0.24
   1  -6  -8   25.17    2.57
   1  -6  -8   33.34    2.92
   1  -6  -8   28.17    2.81
  -1   6   8   29.90    2.95
  -1   6   8   27.10    2.60
   0  -6  -8   79.40    6.75
   0  -6  -8   65.90    6.09
   0  -6  -8   71.00    6.61
   0   6   8   67.90    6.11
  -1  -6  -8   36.12    3.47
  -1  -6  -8   40.08    3.66
  -1  -6  -8   40.75    3.70
  -1  -6  -8   37.77    3.34
   1   6   8   35.58    3.34
  -2  -6  -8    3.63    0.53
  -2  -6  -8    4.44    0.61
  -2  -6  -8    4.45    0.63
  -2  -6  -8    4.54    0.53
   2   6   8    4.21    0.53
   2   6   8    3.81    0.55
  -3  -6  -8    4.23    0.62
  -3  -6  -8    4.19    0.54
  -3  -6  -8    3.32    0.56
  -3  -6  -8    5.19    0.54
  -4  -6  -8   21.80    2.11
  -4  -6  -8   22.98    2.10
  -4  -6  -8   17.64    1.80
  -5  -6  -8   20.16    2.29
  -5  -6  -8   24.02    2.29
  -5  -6  -8   20.77    2.05
  -5  -6  -8   23.78    1.96
  -6  -6  -8    5.91    0.89
  -6  -6  -8    5.50    0.63
  -6  -6  -8    6.42    0.86
   1  -7  -8   18.39    1.68
   1  -7  -8   17.94    1.85
   1  -7  -8   16.51    1.80
  -1   7   8   15.46    1.87
  -1   7   8   16.00    1.68
   0  -7  -8    6.89    0.90
   0  -7  -8    8.21    0.89
   0  -7  -8    8.21    0.97
   0   7   8    7.02    0.90
   0   7   8    8.16    1.03
  -1  -7  -8    0.70    0.25
  -1  -7  -8    0.77    0.31
  -1  -7  -8    1.18    0.30
  -1  -7  -8    0.53    0.26
   1   7   8    0.62    0.25
   1   7   8    0.66    0.31
  -2  -7  -8   21.56    2.18
  -2  -7  -8   20.27    2.05
  -2  -7  -8   22.42    1.98
  -2  -7  -8   19.01    2.15
   2   7   8   23.31    2.23
  -3  -7  -8   30.29    3.17
  -3  -7  -8   36.27    3.07
  -3  -7  -8   37.24    3.43
  -3  -7  -8   35.43    3.39
  -4  -7  -8   13.98    1.37
  -4  -7  -8   14.88    1.45
  -4  -7  -8   13.56    1.57
  -4  -7  -8   16.30    1.61
  -5  -7  -8    2.59    0.52
  -5  -7  -8    3.49    0.40
  -5  -7  -8    2.99    0.60
  -5  -7  -8    2.42    0.42
  -2  -8  -8    2.50    0.51
  -2  -8  -8    2.76    0.60
  -2  -8  -8    4.64    0.58
  -2  -8  -8    3.85    0.49
  -3  -8  -8    0.59    0.28
  -3  -8  -8    0.71    0.30
  -3  -8  -8    1.01    0.32
  -3  -8  -8    1.17    0.24
   4   7  -9   15.85    1.48
  -4  -7   9   14.28    1.52
  -4  -7   9   16.04    1.48
   3   7  -9    0.03    0.20
  -3  -7   9    0.39    0.22
  -3  -7   9    0.47    0.22
  -3  -7   9    0.48    0.16
   2   7  -9   11.98    1.13
  -2  -7   9   10.91    1.19
  -2  -7   9   12.35    1.17
  -2  -7   9   10.99    1.23
   1   7  -9   24.91    2.34
   1   7  -9   25.02    2.23
  -1  -7   9   26.18    2.32
  -1  -7   9   27.37    2.43
  -1  -7   9   23.06    2.49
   0   7  -9   24.63    2.39
   0   7  -9   25.10    2.28
   0  -7   9   25.09    2.38
   0  -7   9   28.87    2.61
  -1   7  -9    1.50    0.39
  -1   7  -9    1.50    0.38
   1  -7   9    2.09    0.43
   1  -7   9    1.90    0.39
   5   6  -9    0.80    0.31
  -5  -6   9    0.87    0.23
  -5  -6   9    1.02    0.23
   4   6  -9    3.99    0.53
  -4  -6   9    3.84    0.50
  -4  -6   9    4.15    0.55
   3   6  -9   39.94    4.06
  -3  -6   9   47.72    4.55
  -3  -6   9   50.60    4.24
  -3  -6   9   57.28    4.44
   2   6  -9   52.01    3.79
   2   6  -9   42.18    3.93
  -2  -6   9   52.35    3.94
  -2  -6   9   42.40    4.07
  -2  -6   9   36.79    4.19
   1   6  -9    9.16    0.98
   1   6  -9    8.59    0.93
  -1  -6   9   10.87    1.07
  -1  -6   9   10.80    0.99
  -1  -6   9    8.57    1.00
   0   6  -9    0.74    0.24
   0   6  -9    0.59    0.27
   0  -6   9    0.82    0.27
   0  -6   9    0.65    0.29
   0  -6   9    1.08    0.30
  -1   6  -9   28.54    2.45
  -1   6  -9   29.79    2.77
  -1   6  -9   27.08    2.55
   1  -6   9   26.23    2.54
   1  -6   9   28.80    2.76
  -2   6  -9   41.05    4.10
  -2   6  -9   42.60    3.65
   2  -6   9   43.42    4.12
   2  -6   9   45.06    3.82
  -6  -5   9   13.17    1.28
  -6  -5   9   11.92    1.52
   5   5  -9   24.02    2.07
  -5  -5   9   23.88    2.09
  -5  -5   9   21.44    2.45
   4   5  -9    7.99    0.86
  -4  -5   9    8.35    0.84
  -4  -5   9    7.30    0.81
   3   5  -9   12.23    1.22
  -3  -5   9   12.88    1.28
  -3  -5   9   13.74    1.25
  -3  -5   9   13.43    1.30
   2   5  -9    0.62    0.20
   2   5  -9    0.43    0.20
   2   5  -9    0.46    0.21
  -2  -5   9    0.53    0.19
  -2  -5   9    0.58    0.19
  -2  -5   9    0.46    0.14
   1   5  -9   25.07    2.00
   1   5  -9   25.53    2.10
   1   5  -9   19.94    2.22
  -1  -5   9   21.21    2.14
  -1  -5   9   23.55    2.06
   0   5  -9   44.21    3.37
   0   5  -9   33.73    3.78
   0   5  -9   44.21    3.53
   0  -5   9   44.12    3.50
   0  -5   9   42.00    3.78
   0  -5   9   32.92    3.61
  -1   5  -9   19.23    1.86
  -1   5  -9   18.92    1.66
  -1   5  -9   17.20    1.80
  -1   5  -9   18.59    1.75
   1  -5   9   20.13    1.88
   1  -5   9   17.88    1.72
  -2   5  -9   12.41    1.14
  -2   5  -9   11.31    1.24
  -2   5  -9   12.62    1.21
  -2   5  -9   11.09    1.24
   2  -5   9   11.85    1.17
  -3   5  -9   -0.16    0.21
  -3   5  -9    0.47    0.21
  -3   5  -9   -0.62    0.22
  -3   5  -9    0.10    0.23
   3  -5   9    0.31    0.20
  -6  -4   9   13.43    1.36
  -6  -4   9   14.25    1.67
   5   4  -9   12.52    1.16
  -5  -4   9   11.28    1.13
  -5  -4   9   13.42    1.45
  -5  -4   9   11.00    1.20
   4   4  -9    6.43    0.71
  -4  -4   9    6.56    0.74
  -4  -4   9    6.40    0.71
   3   4  -9   45.98    3.83
  -3  -4   9   42.04    3.94
   2   4  -9  160.96   12.65
   2   4  -9  142.93   12.12
  -2  -4   9  153.46   12.61
  -2  -4   9  140.68   13.60
   1   4  -9    8.80    0.86
   1   4  -9    8.76    0.81
   1   4  -9    8.15    0.91
   1   4  -9    8.49    0.87
  -1  -4   9    7.05    0.81
  -1  -4   9    8.66    0.87
  -1  -4   9    8.55    0.87
   0   4  -9    0.24    0.18
   0   4  -9    0.50    0.16
   0   4  -9    0.15    0.16
   0   4  -9    0.48    0.14
   0   4  -9    0.44    0.21
   0  -4   9    0.58    0.17
   0  -4   9    0.54    0.19
   0  -4   9    0.43    0.17
  -1   4  -9   28.61    2.50
  -1   4  -9   27.41    2.37
  -1   4  -9   30.95    2.61
  -1   4  -9   28.39    2.68
   1  -4   9   27.01    2.47
   1  -4   9   27.96    2.66
   1  -4   9   25.54    2.56
  -2   4  -9   38.63    3.23
  -2   4  -9   38.98    3.49
  -2   4  -9   34.48    3.33
  -2   4  -9   35.02    3.07
   2  -4   9   35.37    3.19
  -3   4  -9   24.95    2.46
  -3   4  -9   24.35    2.24
  -3   4  -9   26.42    2.57
  -3   4  -9   27.11    2.38
   3  -4   9   27.72    2.36
  -4   4  -9    3.96    0.57
  -4   4  -9    2.62    0.49
  -4   4  -9    2.84    0.43
  -4   4  -9    3.22    0.55
  -6  -3   9    4.84    0.70
  -6  -3   9    3.64    0.56
  -5  -3   9   12.23    1.17
  -5  -3   9   12.42    1.25
  -5  -3   9   13.06    1.49
   4   3  -9   29.28    2.42
  -4  -3   9   24.79    2.47
  -4  -3   9   27.80    2.87
  -4  -3   9   30.98    2.61
   3   3  -9   27.01    2.69
   3   3  -9   33.40    2.63
  -3  -3   9   32.67    3.07
  -3  -3   9   35.60    2.82
  -3  -3   9   25.76    2.68
   2   3  -9    0.43    0.17
   2   3  -9    0.32    0.16
   2   3  -9    0.23    0.19
   2   3  -9    0.72    0.18
  -2  -3   9    0.24    0.14
  -2  -3   9    0.43    0.15
  -2  -3   9    0.32    0.10
   1   3  -9   34.84    2.84
   1   3  -9   35.11    2.93
   1   3  -9   32.67    3.08
   1   3  -9   33.97    2.71
  -1  -3   9   28.93    2.90
  -1  -3   9   29.95    2.80
  -1  -3   9   31.21    2.99
   0   3  -9  100.11    8.51
   0   3  -9  104.53    9.25
   0   3  -9   99.88    8.14
   0  -3   9  111.58    8.84
   0  -3   9   94.04    9.15
   0  -3   9   91.36    8.48
  -1   3  -9   60.06    5.58
  -1   3  -9   61.07    5.59
  -1   3  -9   62.70    5.15
  -1   3  -9   56.36    4.91
  -1   3  -9   52.51    5.33
   1  -3   9   66.82    5.34
   1  -3   9   60.30    5.12
  -2   3  -9   14.84    1.37
  -2   3  -9   14.09    1.24
  -2   3  -9   14.47    1.42
  -2   3  -9   11.79    1.29
   2  -3   9   14.03    1.29
  -3   3  -9    4.66    0.53
  -3   3  -9    4.32    0.56
  -3   3  -9    4.87    0.57
  -3   3  -9    4.32    0.59
  -3   3  -9    4.83    0.63
   3  -3   9    4.73    0.55
  -4   3  -9   27.32    2.51
  -4   3  -9   32.37    2.79
  -4   3  -9   26.70    2.37
  -4   3  -9   25.58    2.59
  -5   3  -9   35.88    3.70
  -5   3  -9   38.91    3.37
  -5   3  -9   38.56    3.50
  -6  -2   9   26.41    2.24
  -6  -2   9   24.44    2.37
  -6  -2   9   25.08    2.71
  -5  -2   9    4.68    0.59
  -5  -2   9    3.06    0.65
  -5  -2   9    5.33    0.53
  -4  -2   9    8.54    0.91
  -4  -2   9   10.24    1.14
  -4  -2   9    9.84    0.98
   3   2  -9   65.89    6.29
   3   2  -9   81.09    6.08
  -3  -2   9   73.51    7.12
  -3  -2   9   75.84    6.31
   2   2  -9   67.90    6.25
   2   2  -9   67.21    5.56
   2   2  -9   67.12    5.78
   2   2  -9   66.33    5.99
   2   2  -9   69.02    6.33
  -2  -2   9   75.50    6.50
  -2  -2   9   55.09    5.99
  -2  -2   9   77.24    6.04
  -2  -2   9   65.43    6.26
   1   2  -9   34.86    2.85
   1   2  -9   34.91    3.07
   1   2  -9   31.89    3.17
   1   2  -9   40.24    3.00
  -1  -2   9   30.64    3.07
  -1  -2   9   33.04    3.17
   0   2  -9    0.08    0.13
   0   2  -9   -0.01    0.10
   0   2  -9   -0.04    0.11
   0   2  -9   -0.04    0.16
   0   2  -9   -0.01    0.09
   0  -2   9    0.02    0.10
   0  -2   9   -0.02    0.10
  -1   2  -9    1.04    0.22
  -1   2  -9    1.82    0.26
  -1   2  -9    1.06    0.24
  -1   2  -9    1.17    0.23
  -1   2  -9    1.01    0.20
  -1   2  -9    1.31    0.25
   1  -2   9    1.05    0.21
   1  -2   9    1.18    0.21
  -2   2  -9   46.56    4.20
  -2   2  -9   45.92    4.41
  -2   2  -9   52.77    4.07
  -2   2  -9   50.10    4.22
  -2   2  -9   42.58    3.85
  -2   2  -9   50.60    4.42
   2  -2   9   43.48    4.46
   2  -2   9   44.75    4.18
  -3   2  -9   24.11    2.09
  -3   2  -9   23.99    1.90
  -3   2  -9   18.71    1.98
  -3   2  -9   24.55    2.20
   3  -2   9   20.35    1.97
  -4   2  -9   37.32    3.66
  -4   2  -9   32.20    3.31
  -4   2  -9   43.02    3.49
  -4   2  -9   39.93    3.17
  -5   2  -9    4.44    0.66
  -5   2  -9    4.21    0.61
  -5   2  -9    4.50    0.58
  -6   2  -9    2.35    0.39
  -6   2  -9    2.85    0.53
  -6   2  -9    2.07    0.44
  -6  -1   9    0.29    0.14
  -6  -1   9    0.08    0.21
  -6  -1   9    0.31    0.19
  -5  -1   9   28.10    2.74
  -5  -1   9   32.46    3.09
  -5  -1   9   29.02    2.60
  -4  -1   9   89.69    8.22
  -4  -1   9   88.79    7.89
  -4  -1   9  101.26    8.97
   3   1  -9   78.60    7.26
  -3  -1   9   97.19    7.58
  -3  -1   9   81.50    7.26
  -3  -1   9   85.09    8.21
   2   1  -9   41.07    4.01
   2   1  -9   45.48    3.71
   2   1  -9   46.65    3.58
  -2  -1   9   37.66    3.85
  -2  -1   9   36.12    3.70
  -2  -1   9   46.30    3.87
  -2  -1   9   48.54    4.20
   1   1  -9   64.98    6.20
   1   1  -9   71.80    6.18
   1   1  -9   67.58    5.68
   1   1  -9   62.09    5.44
   1   1  -9   65.76    6.06
  -1  -1   9   65.88    5.91
  -1  -1   9   59.70    6.34
  -1  -1   9   62.68    5.90
  -1  -1   9   78.73    5.69
   0   1  -9  213.67   18.90
   0   1  -9  264.49   20.49
   0   1  -9  208.25   21.55
   0  -1   9  259.25   22.07
   0  -1   9  226.35   19.69
  -1   1  -9  146.46   13.64
  -1   1  -9  136.22   12.57
  -1   1  -9  181.85   14.34
  -1   1  -9  160.06   14.36
  -1   1  -9  143.96   13.13
   1  -1   9  167.14   13.64
   1  -1   9  148.74   13.11
   1  -1   9  161.32   14.65
  -2   1  -9   27.85    2.19
  -2   1  -9   26.09    2.39
  -2   1  -9   24.77    2.52
  -2   1  -9   27.39    2.53
  -2   1  -9   26.07    2.32
   2  -1   9   28.03    2.30
   2  -1   9   24.28    2.38
  -3   1  -9    4.63    0.64
  -3   1  -9    5.77    0.62
  -3   1  -9    5.01    0.53
  -3   1  -9    4.92    0.59
  -3   1  -9    6.67    0.69
   3  -1   9    6.14    0.57
  -4   1  -9   62.11    5.86
  -4   1  -9   69.50    5.58
  -4   1  -9   71.46    6.44
  -4   1  -9   71.95    6.10
  -4   1  -9   67.92    6.47
  -5   1  -9   40.88    3.37
  -5   1  -9   42.14    3.64
  -5   1  -9   30.62    3.54
  -5   1  -9   34.55    3.22
  -6   1  -9   11.92    1.22
  -6   1  -9   12.07    1.42
  -6   1  -9   14.32    1.50
  -6   1  -9   12.94    1.29
  -6   0   9   16.69    1.88
  -6   0   9   16.07    1.60
  -6   0   9   15.46    1.48
  -5   0   9   16.12    1.94
  -5   0   9   18.57    1.63
  -5   0   9   18.03    1.71
  -4   0   9   -0.09    0.12
  -4   0   9   -0.01    0.15
  -4   0   9   -0.02    0.15
   3   0  -9   18.32    1.53
   3   0  -9   18.77    1.67
  -3   0   9   13.34    1.73
  -3   0   9   16.07    1.52
   2   0  -9   48.04    4.35
   2   0  -9   60.29    4.54
  -2   0   9   47.60    4.34
  -2   0   9   51.53    4.51
  -2   0   9   45.85    4.51
   1   0  -9   71.82    5.42
   1   0  -9   55.76    5.89
   1   0  -9   60.66    5.62
   1   0  -9   65.38    5.19
   1   0  -9   58.51    5.91
   1   0  -9   56.02    5.76
  -1   0   9   74.27    5.64
  -1   0   9   66.05    5.41
   0   0  -9   66.18    5.77
   0   0  -9   62.99    5.55
   0   0  -9   67.58    5.33
   0   0   9   72.25    6.20
   0   0   9   63.18    5.78
   0   0   9   58.71    5.55
  -1   0  -9    7.19    0.65
  -1   0  -9    5.93    0.63
  -1   0  -9    6.45    0.63
  -1   0  -9    5.74    0.57
  -1   0  -9    5.79    0.67
  -1   0  -9    5.14    0.67
   1   0   9    5.25    0.60
   1   0   9    6.64    0.65
  -2   0  -9   28.09    2.46
  -2   0  -9   30.64    2.84
  -2   0  -9   31.30    2.70
  -2   0  -9   30.69    2.69
  -2   0  -9   31.84    2.62
   2   0   9   26.81    2.59
  -3   0  -9   70.64    6.67
  -3   0  -9   88.62    7.08
  -3   0  -9   85.06    6.43
  -3   0  -9   74.01    6.67
  -3   0  -9   64.15    7.01
  -3   0  -9   67.74    6.42
  -3   0  -9   75.20    6.12
   3   0   9   72.69    6.67
   3   0   9   83.17    6.43
  -4   0  -9   89.28    8.79
  -4   0  -9  103.15    7.66
  -4   0  -9   99.91    8.05
  -4   0  -9   78.68    8.82
   4   0   9  101.81    8.05
  -5   0  -9   14.52    1.43
  -5   0  -9   11.73    1.25
  -5   0  -9   13.92    1.23
  -5   0  -9   12.09    1.38
  -6   0  -9    2.87    0.55
  -6   0  -9    2.90    0.57
  -6   0  -9    3.07    0.40
  -6   0  -9    3.06    0.40
  -5   1   9   16.89    1.58
  -5   1   9   16.65    1.67
  -5   1   9   17.44    1.90
  -4   1   9   57.00    5.93
  -4   1   9   63.66    5.24
  -4   1   9   61.44    5.45
   3  -1  -9   90.77    7.89
   3  -1  -9   81.00    7.18
  -3   1   9   86.24    7.48
  -3   1   9   86.95    8.11
  -3   1   9   76.90    7.16
   2  -1  -9    9.81    0.86
   2  -1  -9    7.66    0.84
   2  -1  -9    8.54    0.92
   2  -1  -9    7.98    0.81
  -2   1   9    9.68    0.98
  -2   1   9    8.65    0.84
  -2   1   9    7.86    0.88
   1  -1  -9   23.25    2.06
   1  -1  -9   21.50    2.24
   1  -1  -9   23.49    2.27
   1  -1  -9   24.96    2.15
   1  -1  -9   23.11    2.15
  -1   1   9   22.88    2.06
  -1   1   9   21.56    2.12
  -1   1   9   25.36    2.15
   0  -1  -9   48.30    4.27
   0  -1  -9   45.04    4.35
   0  -1  -9   39.59    3.98
   0  -1  -9   46.00    4.15
   0  -1  -9   49.06    4.37
   0   1   9   46.44    3.98
   0   1   9   45.75    4.43
   0   1   9   50.84    4.15
  -1  -1  -9   53.54    4.46
  -1  -1  -9   59.55    4.95
  -1  -1  -9   52.93    4.26
  -1  -1  -9   45.00    4.86
  -1  -1  -9   53.66    4.65
   1   1   9   48.51    4.93
   1   1   9   51.29    4.46
  -2  -1  -9   32.46    2.53
  -2  -1  -9   27.60    2.66
  -2  -1  -9   29.99    2.76
  -2  -1  -9   31.13    2.90
  -2  -1  -9   33.94    2.78
  -2  -1  -9   27.98    2.93
   2   1   9   31.49    2.67
  -3  -1  -9    1.10    0.15
  -3  -1  -9    1.06    0.19
  -3  -1  -9    0.67    0.21
  -3  -1  -9    0.89    0.22
  -3  -1  -9    0.65    0.18
  -3  -1  -9    0.62    0.18
   3   1   9    0.79    0.16
   3   1   9    0.81    0.19
  -4  -1  -9    0.17    0.17
  -4  -1  -9    0.11    0.18
  -4  -1  -9    0.26    0.12
  -4  -1  -9    0.31    0.13
  -5  -1  -9   10.51    1.18
  -5  -1  -9   10.19    1.06
  -5  -1  -9   12.43    1.23
  -6  -1  -9    7.37    0.92
  -6  -1  -9    6.98    0.77
  -6  -1  -9    8.39    0.97
  -7  -1  -9    7.95    1.00
  -7  -1  -9    7.82    1.04
  -5   2   9   11.85    1.17
  -5   2   9   10.41    1.39
  -5   2   9   12.53    1.29
  -4   2   9   22.81    2.24
  -4   2   9   27.21    2.37
   3  -2  -9   13.38    1.28
   3  -2  -9   10.54    1.10
  -3   2   9   11.21    1.31
  -3   2   9   10.96    1.18
  -3   2   9   11.81    1.13
   2  -2  -9   34.31    3.26
   2  -2  -9   38.66    3.49
   2  -2  -9   33.27    3.35
   2  -2  -9   38.05    3.18
  -2   2   9   34.93    3.15
  -2   2   9   38.94    3.31
   1  -2  -9  109.04   10.77
   1  -2  -9  139.93   11.84
   1  -2  -9  129.33   11.21
   1  -2  -9  129.30   11.61
  -1   2   9  139.54   11.24
  -1   2   9  118.64   10.77
   0  -2  -9   69.49    7.09
   0  -2  -9   69.44    6.74
   0  -2  -9   83.48    6.50
   0   2   9   82.34    7.27
   0   2   9   77.92    6.76
   0   2   9   75.26    6.49
  -1  -2  -9   30.75    2.54
  -1  -2  -9   23.02    2.65
  -1  -2  -9   26.97    2.54
  -1  -2  -9   28.82    2.71
  -1  -2  -9   29.15    2.64
   1   2   9   28.15    2.44
   1   2   9   25.28    2.53
   1   2   9   30.77    2.70
  -2  -2  -9   73.18    7.25
  -2  -2  -9   72.92    6.69
  -2  -2  -9   85.10    6.96
  -2  -2  -9   66.86    7.29
  -2  -2  -9   66.55    6.94
  -2  -2  -9   80.39    7.43
  -2  -2  -9   90.32    7.39
   2   2   9   88.34    7.44
   2   2   9   73.63    6.94
   2   2   9   90.76    6.69
  -3  -2  -9  110.49    8.92
  -3  -2  -9   97.41    9.27
  -3  -2  -9  100.60    8.92
   3   2   9  113.47    8.91
  -4  -2  -9   50.46    5.24
  -4  -2  -9   49.41    4.73
  -4  -2  -9   63.51    5.22
  -4  -2  -9   59.03    4.93
  -5  -2  -9   27.06    2.32
  -5  -2  -9   22.74    2.08
  -5  -2  -9   21.28    2.23
  -5  -2  -9   21.10    1.98
  -6  -2  -9    9.07    1.04
  -6  -2  -9    8.52    1.03
  -7  -2  -9   17.47    1.90
  -7  -2  -9   18.00    1.88
  -4   3   9   34.08    3.86
  -4   3   9   41.69    3.59
  -4   3   9   39.38    3.40
   3  -3  -9   33.22    2.65
  -3   3   9   25.36    2.99
  -3   3   9   29.31    2.77
  -3   3   9   30.61    2.66
   2  -3  -9    4.45    0.54
   2  -3  -9    4.44    0.62
   2  -3  -9    5.11    0.56
  -2   3   9    3.72    0.52
  -2   3   9    4.29    0.56
  -2   3   9    4.59    0.63
   1  -3  -9    2.75    0.40
   1  -3  -9    2.85    0.41
   1  -3  -9    3.07    0.38
   1  -3  -9    2.78    0.47
  -1   3   9    3.09    0.43
  -1   3   9    2.82    0.43
  -1   3   9    2.52    0.39
   0  -3  -9   19.14    2.26
   0  -3  -9   21.35    2.12
   0  -3  -9   23.45    2.07
   0   3   9   27.09    2.16
   0   3   9   21.49    2.29
   0   3   9   26.37    2.06
  -1  -3  -9   48.49    4.30
  -1  -3  -9   55.44    4.66
  -1  -3  -9   51.67    4.75
  -1  -3  -9   57.15    4.48
  -1  -3  -9   43.99    4.67
   1   3   9   42.55    4.45
   1   3   9   51.88    4.29
  -2  -3  -9   49.74    4.84
  -2  -3  -9   58.52    4.61
  -2  -3  -9   47.16    4.90
  -2  -3  -9   51.96    4.61
   2   3   9   45.75    4.58
   2   3   9   57.11    4.43
  -3  -3  -9   30.02    2.41
  -3  -3  -9   23.90    2.49
  -3  -3  -9   27.12    2.62
  -3  -3  -9   23.62    2.65
  -3  -3  -9   30.02    2.52
   3   3   9   30.34    2.40
  -4  -3  -9    4.18    0.46
  -4  -3  -9    4.19    0.55
  -4  -3  -9    3.74    0.40
  -4  -3  -9    2.75    0.44
  -4  -3  -9    2.71    0.51
  -5  -3  -9   19.41    1.92
  -5  -3  -9   21.84    2.06
  -5  -3  -9   21.80    1.82
  -5  -3  -9   20.18    2.12
  -5  -3  -9   21.10    2.15
  -6  -3  -9   19.89    1.96
  -6  -3  -9   18.61    2.01
  -7  -3  -9   22.18    2.03
  -7  -3  -9   16.15    1.98
  -7  -3  -9   17.56    1.92
  -4   4   9   12.90    1.31
  -4   4   9   10.35    1.22
  -4   4   9   12.72    1.48
  -3   4   9    0.00    0.19
  -3   4   9   -0.09    0.18
  -3   4   9    0.06    0.22
   2  -4  -9   36.04    3.16
   2  -4  -9   35.61    3.40
  -2   4   9   31.37    3.56
  -2   4   9   37.28    3.34
  -2   4   9   38.91    3.19
   1  -4  -9   86.73    7.48
   1  -4  -9   81.91    7.17
   1  -4  -9   87.44    7.74
  -1   4   9   79.98    7.48
  -1   4   9   86.81    7.20
  -1   4   9   81.62    8.08
   0  -4  -9   99.92    8.05
   0  -4  -9  109.16    8.86
   0  -4  -9   88.05    8.68
   0  -4  -9   90.28    8.34
   0   4   9   85.77    8.35
  -1  -4  -9    2.48    0.37
  -1  -4  -9    2.03    0.38
  -1  -4  -9    2.03    0.43
  -1  -4  -9    2.10    0.34
  -1  -4  -9    2.63    0.37
   1   4   9    2.44    0.38
   1   4   9    2.76    0.40
   1   4   9    2.72    0.36
  -2  -4  -9   16.25    1.60
  -2  -4  -9   15.02    1.54
  -2  -4  -9   16.94    1.50
  -2  -4  -9   18.86    1.66
   2   4   9   12.89    1.46
   2   4   9   18.95    1.66
  -3  -4  -9   41.59    3.33
  -3  -4  -9   39.31    3.46
  -3  -4  -9   39.33    3.63
  -3  -4  -9   33.55    3.70
   3   4   9   37.82    3.31
  -4  -4  -9   23.37    2.45
  -4  -4  -9   31.65    2.85
  -4  -4  -9   27.71    2.78
  -4  -4  -9   29.24    2.71
  -4  -4  -9   31.04    2.59
  -5  -4  -9    9.65    1.13
  -5  -4  -9    8.23    0.99
  -5  -4  -9    9.85    0.87
  -5  -4  -9   10.01    0.94
  -5  -4  -9    9.59    1.13
  -6  -4  -9    0.00    0.22
  -6  -4  -9   -0.19    0.20
  -6  -4  -9    0.22    0.21
  -7  -4  -9    0.47    0.31
  -7  -4  -9    0.46    0.34
  -3   5   9   20.41    2.37
  -3   5   9   23.78    2.12
   2  -5  -9   27.39    2.47
   2  -5  -9   25.58    2.66
   2  -5  -9   31.55    2.79
  -2   5   9   25.41    2.80
  -2   5   9   26.47    2.48
   1  -5  -9    2.42    0.49
   1  -5  -9    2.60    0.38
   1  -5  -9    2.40    0.41
  -1   5   9    2.62    0.43
  -1   5   9    2.69    0.51
   0  -5  -9   -0.03    0.15
   0  -5  -9    0.25    0.20
   0  -5  -9    0.26    0.20
   0  -5  -9    0.11    0.18
   0   5   9    0.16    0.17
   0   5   9   -0.01    0.18
  -1  -5  -9   11.61    1.10
  -1  -5  -9   10.15    1.19
  -1  -5  -9    9.10    1.12
  -1  -5  -9   11.87    1.05
   1   5   9   10.04    1.03
  -2  -5  -9   95.32   10.05
  -2  -5  -9  111.76    9.51
  -2  -5  -9  115.60    9.94
  -2  -5  -9  107.48    9.13
   2   5   9   97.15    9.13
   2   5   9  119.23   10.26
  -3  -5  -9   67.29    5.95
  -3  -5  -9   62.11    5.84
  -3  -5  -9   58.59    5.33
  -3  -5  -9   62.33    5.56
  -4  -5  -9    2.96    0.55
  -4  -5  -9    2.71    0.36
  -4  -5  -9    2.75    0.51
  -4  -5  -9    2.66    0.39
  -5  -5  -9   21.77    1.84
  -5  -5  -9   21.64    2.17
  -5  -5  -9   19.70    1.93
  -6  -5  -9   19.46    2.09
   2  -6  -9   10.93    1.25
   2  -6  -9    8.34    1.03
   2  -6  -9   10.82    1.21
  -2   6   9    8.62    1.05
  -2   6   9   11.33    1.27
   1  -6  -9   23.26    2.23
   1  -6  -9   20.92    2.03
   1  -6  -9   20.44    2.26
  -1   6   9   24.47    2.35
  -1   6   9   20.31    2.05
   0  -6  -9   24.04    2.32
   0  -6  -9   25.31    2.51
   0  -6  -9   26.80    2.60
   0   6   9   23.89    2.33
   0   6   9   27.88    2.67
  -1  -6  -9    6.30    0.75
  -1  -6  -9    8.00    0.92
  -1  -6  -9    8.17    0.90
  -1  -6  -9    6.68    0.81
   1   6   9    6.42    0.78
   1   6   9    7.42    0.90
  -2  -6  -9    0.60    0.23
  -2  -6  -9    0.32    0.23
  -2  -6  -9    0.58    0.18
  -2  -6  -9    0.25    0.23
   2   6   9    0.43    0.22
   2   6   9    0.43    0.20
  -3  -6  -9   22.83    2.23
  -3  -6  -9   18.70    1.93
  -3  -6  -9   22.76    2.20
  -3  -6  -9   22.95    2.06
  -4  -6  -9    1.98    0.37
  -4  -6  -9    2.17    0.45
  -4  -6  -9    2.70    0.50
  -4  -6  -9    2.81    0.37
  -5  -6  -9    6.66    0.77
  -5  -6  -9    8.49    1.00
  -5  -6  -9    6.87    0.71
  -5  -6  -9    7.61    0.95
  -6  -6  -9    2.17    0.35
  -6  -6  -9    1.80    0.50
  -6  -6  -9    2.04    0.58
   0  -7  -9    1.98    0.46
   0  -7  -9    1.79    0.39
   0  -7  -9    0.86    0.31
   0   7   9    1.46    0.33
   0   7   9    1.85    0.47
  -1  -7  -9   15.07    1.59
  -1  -7  -9   13.61    1.43
  -1  -7  -9   14.27    1.51
  -1  -7  -9   15.02    1.61
   1   7   9   17.98    1.70
   1   7   9   13.26    1.45
  -2  -7  -9   29.39    2.84
  -2  -7  -9   29.61    2.72
  -2  -7  -9   32.94    3.05
  -2  -7  -9   25.88    2.97
   2   7   9   34.03    3.09
  -3  -7  -9   18.24    1.72
  -3  -7  -9   15.08    1.60
  -3  -7  -9   17.02    1.84
  -3  -7  -9   19.20    1.85
  -4  -7  -9    0.11    0.18
  -4  -7  -9    0.12    0.21
  -4  -7  -9   -0.30    0.17
  -4  -7  -9   -0.03    0.13
  -5  -7  -9    4.49    0.55
  -5  -7  -9    5.28    0.77
  -5  -7  -9    4.89    0.58
  -5  -7  -9    4.18    0.73
   4   7 -10    1.48    0.37
  -4  -7  10    1.28    0.33
  -4  -7  10    1.45    0.31
   3   7 -10    0.24    0.21
  -3  -7  10    0.03    0.18
  -3  -7  10   -0.10    0.23
   2   7 -10    5.70    0.65
  -2  -7  10    4.62    0.63
  -2  -7  10    5.06    0.63
  -2  -7  10    4.13    0.60
   1   7 -10   10.39    1.13
   1   7 -10   10.73    1.08
  -1  -7  10   10.86    1.19
  -1  -7  10   10.64    1.15
  -1  -7  10   10.67    1.11
   0   7 -10   20.94    1.88
   0   7 -10   20.64    1.99
   0  -7  10   21.45    1.96
   0  -7  10   20.01    2.10
  -1   7 -10    8.74    1.06
  -1   7 -10    8.62    0.99
   1  -7  10    9.40    1.03
   1  -7  10    9.81    1.11
   5   6 -10    5.46    0.66
  -5  -6  10    4.86    0.61
  -5  -6  10    4.95    0.67
   4   6 -10   11.16    1.26
  -4  -6  10   14.53    1.32
  -4  -6  10   14.35    1.36
   3   6 -10   40.66    3.41
  -3  -6  10   36.88    3.64
  -3  -6  10   42.50    3.52
   2   6 -10   15.19    1.36
   2   6 -10   16.87    1.45
  -2  -6  10   12.46    1.45
  -2  -6  10   13.17    1.43
  -2  -6  10   15.80    1.41
   1   6 -10   -0.05    0.18
   1   6 -10    0.22    0.19
  -1  -6  10    0.05    0.13
  -1  -6  10    0.12    0.14
  -1  -6  10   -0.01    0.14
   0   6 -10   14.61    1.53
   0   6 -10   17.18    1.48
   0  -6  10   15.76    1.51
   0  -6  10   16.06    1.64
  -1   6 -10   20.28    1.88
  -1   6 -10   21.45    2.00
  -1   6 -10   20.57    2.15
   1  -6  10   21.92    2.13
   1  -6  10   21.12    1.97
  -2   6 -10    6.36    0.82
  -2   6 -10    6.79    0.85
  -2   6 -10    7.44    0.80
   2  -6  10    6.68    0.81
   5   5 -10   17.93    1.62
  -5  -5  10   16.10    1.70
  -5  -5  10   17.53    1.61
  -5  -5  10   18.13    1.96
   4   5 -10   11.65    1.05
  -4  -5  10   10.61    1.04
  -4  -5  10    8.69    1.02
   3   5 -10    0.38    0.26
  -3  -5  10    1.04    0.25
  -3  -5  10    0.82    0.26
   2   5 -10   11.81    1.17
   2   5 -10   12.64    1.13
   2   5 -10   11.87    1.25
  -2  -5  10   12.53    1.15
  -2  -5  10   10.06    1.18
  -2  -5  10   12.38    1.20
   1   5 -10   52.27    4.29
   1   5 -10   50.66    3.97
   1   5 -10   44.27    3.77
  -1  -5  10   46.68    4.23
  -1  -5  10   39.03    3.91
  -1  -5  10   38.69    4.06
   0   5 -10   43.93    4.14
   0   5 -10   49.47    4.35
   0   5 -10   48.90    4.72
   0  -5  10   52.28    4.33
   0  -5  10   49.40    4.50
   0  -5  10   55.33    4.68
  -1   5 -10   11.48    1.12
  -1   5 -10   11.66    1.19
  -1   5 -10   11.89    1.27
   1  -5  10   12.05    1.26
   1  -5  10   12.50    1.18
  -2   5 -10    8.13    0.93
  -2   5 -10    7.65    0.95
  -2   5 -10    8.96    0.93
  -2   5 -10    7.27    0.84
   2  -5  10    8.44    0.88
  -3   5 -10   27.20    2.48
  -3   5 -10   30.90    2.65
  -3   5 -10   25.39    2.70
  -3   5 -10   30.76    2.84
   3  -5  10   28.87    2.59
  -6  -4  10    1.53    0.30
  -6  -4  10    1.60    0.52
   5   4 -10   13.90    1.22
  -5  -4  10   14.09    1.29
  -5  -4  10   11.34    1.18
  -5  -4  10   10.45    1.43
   4   4 -10   41.05    3.22
  -4  -4  10   38.69    3.30
  -4  -4  10   31.84    3.41
  -4  -4  10   39.83    3.78
   3   4 -10    4.94    0.66
   3   4 -10    5.97    0.65
  -3  -4  10    5.38    0.63
  -3  -4  10    6.05    0.66
   2   4 -10   63.12    6.01
  -2  -4  10   68.81    5.72
  -2  -4  10   63.81    5.89
  -2  -4  10   60.83    5.49
   1   4 -10    0.98    0.26
   1   4 -10    1.11    0.30
   1   4 -10    1.16    0.25
  -1  -4  10    1.04    0.24
  -1  -4  10    0.77    0.19
  -1  -4  10    0.79    0.22
   0   4 -10    8.13    0.80
   0   4 -10    7.60    0.83
   0   4 -10    7.47    0.85
   0   4 -10    7.93    0.78
   0   4 -10    7.80    0.91
   0  -4  10    8.98    0.86
   0  -4  10    7.13    0.80
   0  -4  10    7.94    0.84
  -1   4 -10   32.69    2.94
  -1   4 -10   31.81    2.61
  -1   4 -10   33.86    2.97
  -1   4 -10   25.12    2.82
  -1   4 -10   33.10    2.76
   1  -4  10   29.44    2.71
   1  -4  10   29.63    2.82
  -2   4 -10   19.14    1.70
  -2   4 -10   14.41    1.70
  -2   4 -10   18.27    1.53
  -2   4 -10   16.40    1.61
   2  -4  10   17.64    1.59
  -3   4 -10   23.60    2.25
  -3   4 -10   21.21    2.32
  -3   4 -10   27.00    2.46
  -3   4 -10   23.74    2.13
   3  -4  10   27.52    2.24
  -4   4 -10    2.34    0.40
  -4   4 -10    1.73    0.38
  -4   4 -10    1.75    0.41
  -4   4 -10    2.01    0.42
  -6  -3  10    9.47    1.24
  -6  -3  10   10.88    1.10
  -5  -3  10   51.48    4.78
  -5  -3  10   57.89    5.53
  -5  -3  10   58.39    5.02
   4   3 -10   66.77    5.13
  -4  -3  10   62.34    5.30
  -4  -3  10   62.83    5.52
  -4  -3  10   54.47    6.00
   3   3 -10    4.61    0.58
   3   3 -10    5.30    0.60
  -3  -3  10    5.96    0.72
  -3  -3  10    4.74    0.61
  -3  -3  10    5.81    0.62
   2   3 -10   17.48    1.61
   2   3 -10   17.74    1.77
   2   3 -10   14.32    1.53
  -2  -3  10   14.68    1.62
  -2  -3  10   19.22    1.63
  -2  -3  10   21.33    1.62
   1   3 -10  158.11   13.69
   1   3 -10  150.85   13.02
   1   3 -10  158.22   12.56
  -1  -3  10  139.50   13.48
  -1  -3  10  136.03   13.00
   0   3 -10  136.68   12.60
   0   3 -10  139.18   12.57
   0   3 -10  141.19   11.06
   0   3 -10  121.99   11.54
   0  -3  10  129.80   11.97
   0  -3  10  149.24   11.53
  -1   3 -10   29.42    2.67
  -1   3 -10   28.57    2.57
  -1   3 -10   32.30    2.50
  -1   3 -10   24.90    2.33
  -1   3 -10   28.12    2.64
   1  -3  10   23.95    2.43
  -2   3 -10    1.27    0.28
  -2   3 -10    1.06    0.26
  -2   3 -10    1.37    0.29
  -2   3 -10    1.64    0.31
  -2   3 -10    1.45    0.26
   2  -3  10    1.55    0.27
  -3   3 -10   23.53    2.14
  -3   3 -10   20.98    1.93
  -3   3 -10   23.33    2.07
  -3   3 -10   23.61    2.24
   3  -3  10   21.32    2.02
  -4   3 -10   28.89    2.70
  -4   3 -10   29.57    2.57
  -4   3 -10   24.78    2.44
  -4   3 -10   25.27    2.31
  -5   3 -10   19.43    1.81
  -5   3 -10   16.87    1.97
  -5   3 -10   20.75    1.91
  -6  -2  10    3.78    0.75
  -6  -2  10    4.73    0.51
  -6  -2  10    4.70    0.61
  -5  -2  10    0.00    0.15
  -5  -2  10   -0.08    0.19
  -5  -2  10   -0.21    0.17
  -4  -2  10    3.29    0.45
  -4  -2  10    3.76    0.62
  -4  -2  10    3.24    0.48
   3   2 -10   39.04    3.14
   3   2 -10   38.21    3.03
  -3  -2  10   30.45    3.12
  -3  -2  10   31.37    3.53
  -3  -2  10   40.50    3.28
   2   2 -10   54.26    4.31
   2   2 -10   47.86    4.12
   2   2 -10   50.25    4.71
   2   2 -10   43.73    4.61
  -2  -2  10   47.65    4.46
  -2  -2  10   56.27    4.31
   1   2 -10   56.31    4.90
   1   2 -10   62.69    4.75
   1   2 -10   51.46    5.09
  -1  -2  10   54.39    4.89
  -1  -2  10   53.38    4.71
  -1  -2  10   60.35    4.93
  -1  -2  10   48.15    5.09
   0   2 -10    1.65    0.29
   0   2 -10    2.03    0.36
   0   2 -10    1.29    0.24
   0   2 -10    1.76    0.27
   0   2 -10    1.52    0.28
   0  -2  10    1.70    0.27
   0  -2  10    1.60    0.27
  -1   2 -10   24.07    2.23
  -1   2 -10   27.24    2.40
  -1   2 -10   23.90    2.10
  -1   2 -10   24.93    2.41
   1  -2  10   25.17    2.20
   1  -2  10   24.67    2.28
  -2   2 -10  119.26    9.89
  -2   2 -10  115.21    9.44
  -2   2 -10  113.48   10.26
  -2   2 -10   98.43   10.78
   2  -2  10  127.41   10.25
   2  -2  10  125.50    9.86
  -3   2 -10   53.53    4.35
  -3   2 -10   50.51    4.75
  -3   2 -10   51.06    4.73
  -3   2 -10   46.33    4.11
  -3   2 -10   50.52    4.51
   3  -2  10   49.02    4.31
  -4   2 -10   13.33    1.16
  -4   2 -10   13.54    1.26
  -4   2 -10   11.87    1.36
  -4   2 -10   14.99    1.43
  -4   2 -10   10.82    1.27
  -5   2 -10    3.51    0.55
  -5   2 -10    4.06    0.54
  -5   2 -10    4.52    0.70
  -5   2 -10    4.58    0.72
  -6  -1  10   14.21    1.80
  -6  -1  10   15.22    1.57
  -6  -1  10   18.00    1.50
  -5  -1  10   37.84    3.78
  -5  -1  10   36.79    3.41
  -5  -1  10   36.63    3.23
  -4  -1  10   41.13    3.68
  -4  -1  10   43.50    3.84
   3   1 -10    2.37    0.37
  -3  -1  10    2.64    0.40
  -3  -1  10    2.73    0.48
  -3  -1  10    2.04    0.34
   2   1 -10   15.39    1.58
   2   1 -10   20.06    1.75
   2   1 -10   16.36    1.53
   2   1 -10   19.90    1.65
   2   1 -10   15.96    1.47
  -2  -1  10   17.04    1.60
  -2  -1  10   14.54    1.52
  -2  -1  10   16.14    1.73
  -2  -1  10   16.09    1.60
   1   1 -10   37.15    3.18
   1   1 -10   32.69    3.31
   1   1 -10   34.29    3.36
   1   1 -10   31.49    3.23
   1   1 -10   39.60    2.96
  -1  -1  10   35.79    3.08
  -1  -1  10   32.59    3.19
  -1  -1  10   37.08    3.43
  -1  -1  10   38.35    3.21
   0   1 -10   75.95    6.46
   0   1 -10   71.57    7.04
   0   1 -10   81.17    6.19
   0   1 -10   68.83    6.69
   0  -1  10   72.33    6.70
   0  -1  10   83.12    6.46
   0  -1  10   77.17    7.19
  -1   1 -10   16.09    1.67
  -1   1 -10   21.20    1.84
  -1   1 -10   20.26    1.79
  -1   1 -10   21.10    1.92
  -1   1 -10   19.00    1.84
  -1   1 -10   19.65    1.93
   1  -1  10   21.23    1.77
   1  -1  10   18.55    1.90
   1  -1  10   21.67    1.84
  -2   1 -10    5.04    0.62
  -2   1 -10    6.44    0.64
  -2   1 -10    5.21    0.66
  -2   1 -10    5.81    0.68
  -2   1 -10    6.42    0.64
  -2   1 -10    6.01    0.56
   2  -1  10    5.87    0.60
   2  -1  10    5.92    0.63
  -3   1 -10    0.31    0.22
  -3   1 -10    0.72    0.20
  -3   1 -10    0.59    0.20
  -3   1 -10    0.52    0.20
  -3   1 -10    0.44    0.16
   3  -1  10    0.47    0.15
  -4   1 -10   -0.02    0.20
  -4   1 -10    0.30    0.21
  -4   1 -10    0.12    0.13
  -4   1 -10    0.21    0.17
  -4   1 -10    0.33    0.16
  -5   1 -10   20.20    2.00
  -5   1 -10   17.09    1.76
  -5   1 -10   18.89    1.84
  -5   1 -10   21.67    2.04
  -6   1 -10   19.37    1.85
  -6   1 -10   22.73    2.18
  -6   1 -10   17.28    2.08
  -6   1 -10   21.56    1.95
  -5   0  10    8.94    0.94
  -5   0  10    9.63    1.18
  -5   0  10    9.16    1.01
  -4   0  10    2.55    0.38
  -4   0  10    2.62    0.44
  -4   0  10    2.52    0.52
  -3   0  10   28.07    2.70
  -3   0  10   30.25    2.83
  -3   0  10   34.34    3.12
   2   0 -10  127.30   10.70
   2   0 -10  122.45   10.30
  -2   0  10  124.72   11.57
  -2   0  10  117.14   10.70
  -2   0  10  116.29   10.28
   1   0 -10  101.46    7.91
   1   0 -10  102.54    8.57
   1   0 -10   85.51    9.00
   1   0 -10  112.36    8.26
   1   0 -10   81.86    8.99
  -1   0  10   84.04    8.55
  -1   0  10  109.23    8.26
  -1   0  10  101.31    8.58
   0   0 -10    0.16    0.16
   0   0 -10    0.18    0.14
   0   0 -10    0.27    0.14
   0   0 -10    0.26    0.17
   0   0 -10    0.07    0.13
   0   0  10    0.31    0.12
   0   0  10    0.21    0.16
   0   0  10    0.20    0.14
  -1   0 -10   34.15    2.95
  -1   0 -10   30.03    3.04
  -1   0 -10   34.11    3.05
  -1   0 -10   31.74    2.80
   1   0  10   35.09    2.95
   1   0  10   38.41    3.08
  -2   0 -10  127.37   13.32
  -2   0 -10  132.26   12.17
  -2   0 -10  167.00   13.30
  -2   0 -10  154.27   11.66
  -2   0 -10  139.77   12.64
  -2   0 -10  126.04   12.64
   2   0  10  163.83   12.67
   2   0  10  143.62   12.17
  -3   0 -10   89.44    7.74
  -3   0 -10   87.14    8.14
  -3   0 -10   84.58    7.46
  -3   0 -10   90.20    7.11
   3   0  10   86.96    7.77
  -4   0 -10   18.07    1.58
  -4   0 -10   15.61    1.39
  -4   0 -10   14.62    1.42
  -4   0 -10   11.86    1.50
  -5   0 -10   12.41    1.15
  -5   0 -10   10.55    1.16
  -5   0 -10   12.76    1.34
  -5   0 -10   12.87    1.32
  -6   0 -10   12.50    1.40
  -6   0 -10   13.05    1.44
  -6   0 -10   12.14    1.23
  -6   0 -10   12.73    1.20
  -5   1  10   27.20    2.72
  -5   1  10   29.57    3.05
  -5   1  10   31.09    2.63
  -4   1  10   31.95    3.04
  -4   1  10   28.57    2.74
  -4   1  10   28.11    2.61
   3  -1 -10    5.37    0.70
   3  -1 -10    6.30    0.65
  -3   1  10    6.73    0.79
  -3   1  10    4.61    0.66
  -3   1  10    5.91    0.64
   2  -1 -10    0.68    0.17
   2  -1 -10    0.36    0.17
   2  -1 -10    0.43    0.23
  -2   1  10    0.57    0.23
  -2   1  10    0.40    0.17
  -2   1  10    0.50    0.20
   1  -1 -10   27.49    2.34
   1  -1 -10   20.78    2.44
   1  -1 -10   25.47    2.25
   1  -1 -10   27.18    2.34
  -1   1  10   26.23    2.34
  -1   1  10   23.25    2.30
  -1   1  10   25.91    2.24
   0  -1 -10  114.91   10.89
   0  -1 -10  127.61   10.94
   0  -1 -10  109.53   10.37
   0  -1 -10  125.79   10.75
   0   1  10  117.57   10.38
   0   1  10  107.21    9.97
   0   1  10  122.41   11.16
  -1  -1 -10   86.90    7.29
  -1  -1 -10   75.69    7.51
  -1  -1 -10   70.15    7.00
  -1  -1 -10   85.51    6.76
  -1  -1 -10   77.01    7.38
  -1  -1 -10   78.88    6.45
   1   1  10   83.80    7.50
   1   1  10   77.27    6.75
  -2  -1 -10   15.30    1.39
  -2  -1 -10   12.88    1.48
  -2  -1 -10   13.79    1.46
  -2  -1 -10   13.65    1.38
  -2  -1 -10   16.09    1.36
  -2  -1 -10   14.57    1.25
   2   1  10   16.65    1.36
  -3  -1 -10    0.65    0.22
  -3  -1 -10    0.67    0.22
  -3  -1 -10    0.49    0.18
  -3  -1 -10    0.63    0.18
  -3  -1 -10    0.80    0.15
   3   1  10    0.73    0.16
   3   1  10    0.65    0.17
  -4  -1 -10   23.98    2.32
  -4  -1 -10   26.52    2.48
  -4  -1 -10   25.85    2.51
  -5  -1 -10   47.30    4.51
  -5  -1 -10   47.50    4.24
  -6  -1 -10   28.15    2.93
  -6  -1 -10   38.84    3.27
  -6  -1 -10   35.33    3.21
  -6  -1 -10   30.17    2.81
  -5   2  10   10.27    1.18
  -5   2  10   11.55    1.35
  -5   2  10    9.91    1.07
  -4   2  10    1.68    0.34
  -4   2  10    1.47    0.39
  -4   2  10    1.61    0.33
   3  -2 -10   50.68    4.46
   3  -2 -10   55.43    4.92
  -3   2  10   46.71    4.63
  -3   2  10   50.30    5.05
  -3   2  10   53.91    4.47
   2  -2 -10  119.29   11.61
   2  -2 -10  120.58   11.37
   2  -2 -10  131.96   10.61
  -2   2  10  139.66   10.60
  -2   2  10  113.71   11.01
   1  -2 -10   72.09    6.33
   1  -2 -10   67.28    6.13
  -1   2  10   69.20    6.62
  -1   2  10   67.29    6.15
   0  -2 -10    0.40    0.16
   0  -2 -10    0.06    0.14
   0  -2 -10    0.46    0.14
   0  -2 -10    0.31    0.16
   0  -2 -10    0.25    0.16
   0   2  10    0.40    0.15
   0   2  10    0.10    0.12
   0   2  10    0.39    0.15
  -1  -2 -10    6.95    0.82
  -1  -2 -10    7.96    0.82
  -1  -2 -10    8.34    0.81
  -1  -2 -10    9.17    0.92
  -1  -2 -10    9.01    0.86
  -1  -2 -10    6.64    0.86
   1   2  10    8.67    0.81
   1   2  10    7.62    0.83
   1   2  10    7.70    0.82
  -2  -2 -10   59.34    5.03
  -2  -2 -10   50.80    5.01
  -2  -2 -10   54.11    4.83
   2   2  10   61.14    5.02
  -3  -2 -10   48.51    4.84
  -3  -2 -10   60.64    5.10
  -3  -2 -10   53.57    5.10
  -3  -2 -10   53.62    5.16
  -3  -2 -10   62.47    4.87
   3   2  10   48.83    4.84
   3   2  10   54.00    4.65
  -4  -2 -10    5.65    0.65
  -4  -2 -10    4.50    0.54
  -4  -2 -10    5.36    0.67
  -5  -2 -10    3.36    0.41
  -5  -2 -10    3.64    0.54
  -5  -2 -10    3.61    0.55
  -5  -2 -10    3.92    0.47
  -6  -2 -10    3.00    0.42
  -6  -2 -10    3.13    0.58
  -6  -2 -10    3.03    0.52
  -7  -2 -10    2.75    0.55
  -7  -2 -10    4.76    0.66
  -4   3  10   15.94    1.55
  -4   3  10   12.73    1.62
  -4   3  10   14.39    1.41
   3  -3 -10   45.76    4.23
   3  -3 -10   54.01    4.72
  -3   3  10   45.79    4.25
  -3   3  10   49.81    4.45
   2  -3 -10    6.59    0.80
   2  -3 -10    5.62    0.68
   2  -3 -10    6.51    0.69
  -2   3  10    6.25    0.80
  -2   3  10    6.54    0.72
  -2   3  10    5.50    0.71
   1  -3 -10    0.31    0.15
   1  -3 -10    0.28    0.17
   1  -3 -10    0.34    0.15
   1  -3 -10    0.48    0.22
  -1   3  10    0.16    0.18
  -1   3  10    0.33    0.19
  -1   3  10    0.41    0.21
   0  -3 -10   50.03    4.12
   0  -3 -10   47.87    4.25
   0  -3 -10   44.73    3.96
   0   3  10   41.41    4.10
   0   3  10   45.18    4.42
   0   3  10   44.66    3.94
  -1  -3 -10  110.66   11.28
  -1  -3 -10  137.06   10.78
  -1  -3 -10  115.84   10.35
  -1  -3 -10  124.39   11.19
  -1  -3 -10  121.28   11.37
   1   3  10  125.03   10.34
   1   3  10  136.63   10.78
   1   3  10  108.43   11.57
  -2  -3 -10   86.34    7.81
  -2  -3 -10   83.28    8.27
  -2  -3 -10   79.99    7.50
   2   3  10   87.97    8.37
   2   3  10   96.00    7.80
   2   3  10   96.30    7.51
  -3  -3 -10    4.02    0.59
  -3  -3 -10    4.24    0.63
  -3  -3 -10    4.93    0.52
  -3  -3 -10    3.88    0.54
  -3  -3 -10    4.80    0.56
   3   3  10    4.67    0.49
  -4  -3 -10   13.44    1.12
  -4  -3 -10   11.59    1.17
  -4  -3 -10   11.68    1.31
  -4  -3 -10   12.24    1.23
  -4  -3 -10   10.27    1.28
  -5  -3 -10   44.05    4.45
  -5  -3 -10   48.83    4.99
  -5  -3 -10   50.97    4.67
  -5  -3 -10   61.95    5.06
  -5  -3 -10   58.28    4.95
  -6  -3 -10   33.52    3.34
  -6  -3 -10   35.68    3.43
  -7  -3 -10    0.92    0.42
  -7  -3 -10    1.35    0.39
  -7  -3 -10    1.49    0.36
   3  -4 -10   12.94    1.32
  -3   4  10   13.58    1.57
  -3   4  10   14.42    1.47
  -3   4  10   13.43    1.35
   2  -4 -10   51.82    4.39
   2  -4 -10   46.94    3.92
   2  -4 -10   44.13    4.21
  -2   4  10   43.17    3.93
  -2   4  10   37.70    4.41
  -2   4  10   45.95    4.12
   1  -4 -10   23.11    2.11
   1  -4 -10   24.54    2.25
   1  -4 -10   19.87    2.32
  -1   4  10   24.31    2.13
  -1   4  10   22.90    2.21
  -1   4  10   24.36    2.39
   0  -4 -10    2.24    0.39
   0  -4 -10    2.57    0.48
   0  -4 -10    2.22    0.39
   0  -4 -10    1.75    0.33
   0   4  10    2.45    0.39
   0   4  10    2.69    0.46
   0   4  10    2.49    0.42
  -1  -4 -10    1.56    0.31
  -1  -4 -10    1.65    0.38
  -1  -4 -10    1.59    0.31
  -1  -4 -10    1.89    0.32
  -1  -4 -10    1.94    0.35
   1   4  10    1.64    0.30
   1   4  10    2.03    0.36
  -2  -4 -10    9.85    0.98
  -2  -4 -10    8.88    1.02
  -2  -4 -10   10.26    1.01
  -2  -4 -10    9.42    1.06
   2   4  10    9.59    0.95
   2   4  10   10.83    1.06
  -3  -4 -10   36.36    2.95
  -3  -4 -10   32.90    3.30
  -3  -4 -10   32.75    3.23
  -3  -4 -10   29.92    3.19
  -3  -4 -10   34.66    3.06
   3   4  10   35.21    2.93
  -4  -4 -10   14.74    1.38
  -4  -4 -10   13.25    1.26
  -4  -4 -10   10.22    1.12
  -4  -4 -10   11.91    1.35
  -5  -4 -10    4.18    0.46
  -5  -4 -10    4.57    0.53
  -5  -4 -10    4.57    0.58
  -5  -4 -10    4.32    0.73
  -5  -4 -10    4.65    0.69
  -6  -4 -10    0.24    0.18
  -6  -4 -10    0.06    0.21
  -6  -4 -10   -0.03    0.21
  -6  -4 -10    0.05    0.12
  -3   5  10   18.96    1.77
  -3   5  10   16.22    2.00
   2  -5 -10   17.78    1.81
   2  -5 -10   16.92    1.87
   2  -5 -10   15.78    1.64
  -2   5  10   18.68    1.94
  -2   5  10   18.70    1.70
   1  -5 -10    3.66    0.51
   1  -5 -10    2.92    0.57
   1  -5 -10    2.78    0.42
  -1   5  10    3.20    0.50
  -1   5  10    4.00    0.65
   0  -5 -10   48.89    4.11
   0  -5 -10   50.76    4.56
   0  -5 -10   48.72    4.29
   0  -5 -10   51.83    4.46
   0   5  10   41.48    4.60
   0   5  10   41.66    4.10
  -1  -5 -10   51.49    5.33
  -1  -5 -10   61.84    5.04
  -1  -5 -10   59.67    4.84
  -1  -5 -10   52.92    5.24
   1   5  10   59.47    4.85
   1   5  10   49.95    5.42
  -2  -5 -10   10.20    1.21
  -2  -5 -10   12.14    1.07
  -2  -5 -10    9.27    1.14
  -2  -5 -10   10.62    1.10
   2   5  10   10.90    1.05
   2   5  10   10.85    1.16
  -3  -5 -10    2.98    0.45
  -3  -5 -10    3.82    0.54
  -3  -5 -10    3.15    0.55
  -3  -5 -10    3.28    0.44
  -4  -5 -10   12.47    1.43
  -4  -5 -10   13.27    1.20
  -4  -5 -10   12.64    1.25
  -5  -5 -10   30.14    2.42
  -5  -5 -10   24.13    2.79
  -5  -5 -10   32.05    2.83
  -5  -5 -10   25.36    2.53
  -6  -5 -10    3.55    0.44
  -6  -5 -10    3.62    0.68
  -6  -5 -10    3.09    0.61
   1  -6 -10   21.12    2.32
   1  -6 -10   22.60    2.10
   1  -6 -10   22.19    2.26
  -1   6  10   21.57    2.11
  -1   6  10   24.08    2.40
   0  -6 -10   11.17    1.25
   0  -6 -10   12.57    1.38
   0  -6 -10   12.50    1.44
   0   6  10   14.18    1.49
   0   6  10   14.46    1.32
  -1  -6 -10    1.60    0.39
  -1  -6 -10    1.54    0.33
  -1  -6 -10    1.82    0.44
  -1  -6 -10    1.75    0.35
   1   6  10    1.70    0.40
   1   6  10    1.88    0.36
  -2  -6 -10    0.16    0.23
  -2  -6 -10    0.34    0.17
  -2  -6 -10   -0.10    0.15
  -2  -6 -10    0.25    0.26
   2   6  10    0.19    0.16
   2   6  10    0.25    0.21
  -3  -6 -10   43.32    3.81
  -3  -6 -10   36.71    3.57
  -3  -6 -10   43.20    3.44
  -3  -6 -10   33.85    3.80
  -4  -6 -10   21.93    2.08
  -4  -6 -10   23.35    2.39
  -4  -6 -10   24.00    2.20
  -4  -6 -10   24.79    2.38
  -5  -6 -10   23.08    2.30
  -5  -6 -10   22.09    2.07
  -5  -6 -10   21.33    1.95
  -5  -6 -10   22.02    2.31
  -6  -6 -10    0.59    0.36
  -6  -6 -10    0.76    0.17
  -6  -6 -10    0.16    0.36
   0  -7 -10   14.71    1.55
   0  -7 -10   12.48    1.35
   0  -7 -10   12.99    1.44
   0   7  10   14.34    1.41
   0   7  10   13.08    1.57
  -1  -7 -10   21.90    2.13
  -1  -7 -10   20.51    1.94
  -1  -7 -10   19.99    2.15
   1   7  10   18.12    1.93
   1   7  10   22.50    2.22
  -2  -7 -10   16.57    1.84
  -2  -7 -10   18.10    1.76
  -2  -7 -10   16.63    1.66
  -2  -7 -10   17.92    1.88
   2   7  10   17.96    1.87
  -3  -7 -10    2.16    0.40
  -3  -7 -10    1.93    0.41
  -3  -7 -10    2.16    0.50
  -3  -7 -10    1.90    0.48
  -4  -7 -10    0.90    0.33
  -4  -7 -10    0.78    0.23
  -4  -7 -10    0.57    0.25
  -4  -7 -10    1.02    0.33
  -5  -7 -10    7.34    0.82
  -5  -7 -10    6.71    0.96
  -5  -7 -10    6.54    0.94
  -5  -7 -10    6.56    0.72
   3   7 -11    7.40    0.83
  -3  -7  11    7.02    0.84
  -3  -7  11    7.42    0.85
   2   7 -11   36.71    3.15
  -2  -7  11   37.16    3.28
  -2  -7  11   34.04    3.51
  -2  -7  11   38.85    3.42
   1   7 -11   22.74    2.29
   1   7 -11   26.11    2.21
  -1  -7  11   26.61    2.30
  -1  -7  11   23.40    2.43
   0   7 -11    0.39    0.22
   0   7 -11    0.48    0.21
   0  -7  11   -0.40    0.18
   0  -7  11   -0.25    0.15
   4   6 -11   16.74    1.65
  -4  -6  11   18.00    1.66
  -4  -6  11   17.04    1.70
   3   6 -11    5.28    0.68
  -3  -6  11    5.77    0.72
  -3  -6  11    6.09    0.69
   2   6 -11    0.28    0.21
   2   6 -11    0.03    0.19
  -2  -6  11    0.35    0.16
  -2  -6  11   -0.05    0.16
  -2  -6  11    0.15    0.21
   1   6 -11    0.06    0.24
   1   6 -11    0.18    0.21
  -1  -6  11    0.34    0.18
  -1  -6  11    0.28    0.16
  -1  -6  11    0.25    0.14
   0   6 -11   12.11    1.17
   0   6 -11    9.84    1.05
   0  -6  11    9.83    1.10
   0  -6  11   11.71    1.19
  -1   6 -11   22.12    2.35
  -1   6 -11   25.61    2.26
   1  -6  11   26.90    2.54
   1  -6  11   27.89    2.36
  -2   6 -11   13.80    1.49
  -2   6 -11   11.99    1.34
  -2   6 -11   12.85    1.28
   2  -6  11   13.85    1.34
   5   5 -11   19.91    1.71
  -5  -5  11   19.98    2.07
  -5  -5  11   16.25    1.78
  -5  -5  11   17.40    1.69
   4   5 -11    5.48    0.68
  -4  -5  11    5.64    0.72
  -4  -5  11    6.03    0.70
   3   5 -11   11.99    1.39
  -3  -5  11   15.95    1.50
  -3  -5  11   18.06    1.48
   2   5 -11   52.10    4.26
   2   5 -11   52.33    4.45
  -2  -5  11   48.37    4.57
  -2  -5  11   48.93    4.71
  -2  -5  11   52.68    4.42
   1   5 -11   52.67    5.22
   1   5 -11   66.20    5.68
   1   5 -11   60.97    5.00
  -1  -5  11   57.31    5.58
  -1  -5  11   63.59    5.42
  -1  -5  11   61.20    5.21
   0   5 -11   11.70    1.31
   0   5 -11   11.04    1.41
   0   5 -11   14.50    1.27
   0  -5  11   15.87    1.39
   0  -5  11   14.73    1.39
   0  -5  11   13.45    1.30
  -1   5 -11    0.15    0.22
  -1   5 -11    0.19    0.21
  -1   5 -11    0.18    0.19
   1  -5  11    0.27    0.19
  -2   5 -11   13.14    1.39
  -2   5 -11   13.72    1.47
  -2   5 -11   14.33    1.32
   2  -5  11   15.28    1.39
  -3   5 -11   14.48    1.38
  -3   5 -11   16.54    1.57
  -3   5 -11   13.19    1.44
  -3   5 -11   13.76    1.52
   3  -5  11   14.81    1.44
   5   4 -11    1.84    0.36
  -5  -4  11    2.21    0.40
  -5  -4  11    2.37    0.38
  -5  -4  11    1.80    0.52
   4   4 -11   41.86    3.41
  -4  -4  11   33.51    3.63
  -4  -4  11   42.65    3.51
  -4  -4  11   42.15    4.01
   3   4 -11   21.45    1.93
  -3  -4  11   23.61    2.05
  -3  -4  11   19.56    1.96
   2   4 -11   13.70    1.54
   2   4 -11   12.94    1.41
   2   4 -11   17.64    1.41
  -2  -4  11   13.78    1.40
  -2  -4  11   16.30    1.44
  -2  -4  11   15.14    1.45
   1   4 -11    0.83    0.23
   1   4 -11    0.80    0.28
   1   4 -11    0.71    0.24
  -1  -4  11    0.93    0.24
  -1  -4  11    0.86    0.23
  -1  -4  11    0.85    0.19
   0   4 -11    8.43    0.91
   0   4 -11    8.59    0.84
   0   4 -11    7.86    0.96
   0   4 -11    8.45    0.82
   0   4 -11    8.49    0.89
   0  -4  11    7.49    0.86
   0  -4  11    8.27    0.86
  -1   4 -11   80.54    7.21
  -1   4 -11   84.37    6.67
  -1   4 -11   83.54    7.24
  -1   4 -11   71.06    6.90
  -1   4 -11   75.29    6.35
   1  -4  11   70.06    6.61
  -2   4 -11   37.37    3.42
  -2   4 -11   36.88    3.68
  -2   4 -11   38.76    3.25
  -2   4 -11   39.62    3.70
   2  -4  11   40.35    3.40
  -3   4 -11    6.82    0.78
  -3   4 -11    5.84    0.70
  -3   4 -11    6.01    0.81
  -3   4 -11    5.56    0.79
   3  -4  11    7.01    0.75
  -4   4 -11    0.57    0.22
  -4   4 -11    0.48    0.34
  -4   4 -11    0.17    0.30
  -4   4 -11    0.13    0.26
  -6  -3  11   37.18    3.69
  -6  -3  11   31.94    3.17
  -5  -3  11   20.05    1.64
  -5  -3  11   12.76    1.49
  -5  -3  11   16.98    1.85
   4   3 -11    0.13    0.19
  -4  -3  11    0.16    0.17
  -4  -3  11    0.11    0.22
  -4  -3  11    0.27    0.18
   3   3 -11   19.50    1.63
  -3  -3  11   18.61    1.66
  -3  -3  11   15.21    1.71
  -3  -3  11   18.62    1.89
   2   3 -11   14.80    1.33
   2   3 -11   16.45    1.32
   2   3 -11   11.66    1.43
  -2  -3  11   15.72    1.37
  -2  -3  11   11.53    1.29
   1   3 -11   42.73    3.39
   1   3 -11   32.30    3.25
   1   3 -11   35.10    3.12
  -1  -3  11   40.39    3.37
  -1  -3  11   35.10    3.23
   0   3 -11    6.82    0.71
   0   3 -11    6.04    0.72
   0   3 -11    7.21    0.69
   0   3 -11    6.58    0.81
   0   3 -11    7.07    0.75
   0  -3  11    6.53    0.71
   0  -3  11    6.63    0.73
  -1   3 -11    2.91    0.44
  -1   3 -11    3.10    0.41
  -1   3 -11    2.91    0.46
  -1   3 -11    2.83    0.39
  -1   3 -11    3.17    0.47
   1  -3  11    2.78    0.41
   1  -3  11    2.69    0.42
  -2   3 -11    6.02    0.68
  -2   3 -11    6.53    0.72
  -2   3 -11    5.03    0.59
  -2   3 -11    5.19    0.66
  -2   3 -11    5.19    0.67
   2  -3  11    6.02    0.64
  -3   3 -11   16.76    1.83
  -3   3 -11   19.33    1.85
  -3   3 -11   21.73    1.74
  -3   3 -11   18.45    1.77
  -3   3 -11   17.86    1.59
   3  -3  11   15.21    1.64
  -4   3 -11   11.16    1.13
  -4   3 -11    8.34    0.89
  -4   3 -11    8.27    0.98
  -4   3 -11    7.57    1.03
  -4   3 -11   10.20    1.01
  -5   3 -11    3.55    0.67
  -5   3 -11    4.67    0.64
  -5   3 -11    5.31    0.81
  -5   3 -11    4.45    0.62
  -6  -2  11    6.37    0.77
  -6  -2  11    5.47    0.66
  -6  -2  11    6.90    1.11
  -5  -2  11    1.22    0.33
  -5  -2  11    1.73    0.30
  -5  -2  11    2.02    0.47
  -4  -2  11   41.83    4.41
  -4  -2  11   46.88    4.05
   3   2 -11   83.13    6.56
   3   2 -11   81.33    6.31
  -3  -2  11   73.92    6.82
  -3  -2  11   75.03    7.39
  -3  -2  11   69.90    6.55
   2   2 -11   52.56    5.06
   2   2 -11   60.65    4.53
  -2  -2  11   57.27    4.71
  -2  -2  11   48.25    5.25
   1   2 -11    2.66    0.39
   1   2 -11    2.13    0.37
   1   2 -11    3.21    0.46
   1   2 -11    2.61    0.38
   1   2 -11    3.00    0.35
  -1  -2  11    2.39    0.39
  -1  -2  11    2.78    0.40
  -1  -2  11    2.35    0.37
   0   2 -11   68.60    6.10
   0   2 -11   71.27    6.65
   0   2 -11   71.75    6.62
   0   2 -11   68.76    6.32
   0   2 -11   71.22    5.84
   0  -2  11   74.16    6.32
   0  -2  11   72.50    6.08
  -1   2 -11  102.40    8.37
  -1   2 -11  106.06    9.55
  -1   2 -11  105.56    9.54
  -1   2 -11   92.15    9.08
   1  -2  11  114.59    9.08
   1  -2  11   97.08    8.72
  -2   2 -11   59.91    4.54
  -2   2 -11   50.41    5.18
  -2   2 -11   57.60    4.79
  -2   2 -11   47.28    4.94
   2  -2  11   61.06    4.75
  -3   2 -11    5.89    0.73
  -3   2 -11    6.42    0.62
  -3   2 -11    5.43    0.68
  -3   2 -11    6.57    0.77
  -3   2 -11    5.44    0.70
   3  -2  11    6.41    0.66
  -4   2 -11    3.16    0.54
  -4   2 -11    3.48    0.42
  -4   2 -11    2.80    0.46
  -4   2 -11    2.57    0.44
  -4   2 -11    2.99    0.52
  -5   2 -11   19.50    1.89
  -5   2 -11   17.13    1.68
  -5   2 -11   16.34    1.72
  -5   2 -11   17.80    1.89
  -5  -1  11   17.87    1.65
  -5  -1  11   16.79    1.96
  -5  -1  11   18.67    1.78
  -4  -1  11   10.67    1.14
  -4  -1  11    8.32    0.92
  -4  -1  11    8.67    0.98
   3   1 -11    1.00    0.24
  -3  -1  11    0.88    0.27
  -3  -1  11    1.31    0.28
  -3  -1  11    1.06    0.25
   2   1 -11   52.52    4.33
   2   1 -11   52.00    4.50
   2   1 -11   45.06    4.75
   2   1 -11   53.34    4.16
  -2  -1  11   52.76    4.34
  -2  -1  11   44.87    4.49
   1   1 -11   24.93    2.09
   1   1 -11   24.09    2.23
   1   1 -11   23.20    1.94
   1   1 -11   23.37    2.16
   1   1 -11   21.77    2.09
  -1  -1  11   23.90    2.03
  -1  -1  11   23.38    2.24
  -1  -1  11   18.66    2.07
  -1  -1  11   19.72    2.09
   0   1 -11   98.99    8.24
   0   1 -11   92.71    7.53
   0   1 -11   83.46    7.20
   0   1 -11   83.15    7.80
   0   1 -11   86.83    8.20
   0  -1  11   83.42    7.82
   0  -1  11   95.27    8.39
   0  -1  11   83.66    7.52
  -1   1 -11   47.27    4.54
  -1   1 -11   44.08    4.31
  -1   1 -11   51.36    4.34
  -1   1 -11   47.67    3.97
  -1   1 -11   48.00    4.17
  -1   1 -11   49.88    4.54
   1  -1  11   49.20    4.16
  -2   1 -11    0.17    0.16
  -2   1 -11    0.59    0.22
  -2   1 -11    0.76    0.22
  -2   1 -11    0.31    0.17
  -2   1 -11    0.33    0.14
   2  -1  11    0.38    0.15
   2  -1  11    0.25    0.13
  -3   1 -11   81.41    7.44
  -3   1 -11   88.10    8.13
   3  -1  11   92.24    7.43
  -4   1 -11   57.32    4.42
  -4   1 -11   53.97    4.15
  -4   1 -11   42.88    4.77
  -4   1 -11   48.18    4.82
  -5   1 -11   29.14    2.67
  -5   1 -11   25.31    2.67
  -5   1 -11   25.97    2.40
  -5   1 -11   26.02    2.49
  -6   1 -11    2.32    0.52
  -6   1 -11    2.83    0.46
  -6   1 -11    3.21    0.59
  -6   1 -11    4.02    0.48
  -5   0  11    0.81    0.32
  -5   0  11    0.78    0.30
  -5   0  11    0.49    0.22
  -4   0  11   40.16    3.58
  -4   0  11   31.88    3.23
  -4   0  11   33.85    3.08
   3   0 -11   97.41    7.35
   3   0 -11   81.27    8.01
  -3   0  11   78.33    7.62
  -3   0  11   80.56    7.33
  -3   0  11   92.67    8.29
   2   0 -11   44.11    4.34
   2   0 -11   49.32    4.20
  -2   0  11   54.93    4.38
  -2   0  11   44.79    4.70
  -2   0  11   49.09    4.19
   1   0 -11   11.23    1.02
   1   0 -11   10.64    0.98
   1   0 -11    9.84    0.92
   1   0 -11    8.81    1.07
   1   0 -11    8.24    1.02
   1   0 -11    8.72    0.93
  -1   0  11   10.64    1.01
  -1   0  11   10.99    1.08
  -1   0  11   10.64    1.02
  -1   0  11   10.32    0.98
   0   0 -11   28.13    2.33
   0   0 -11   29.87    2.68
   0   0 -11   27.34    2.44
   0   0  11   25.93    2.68
   0   0  11   27.17    2.54
  -1   0 -11   93.05    7.05
  -1   0 -11   93.19    7.31
  -1   0 -11   91.45    6.73
  -1   0 -11   84.28    7.29
  -1   0 -11   80.29    7.69
  -1   0 -11   74.59    7.66
   1   0  11   70.43    7.78
   1   0  11   88.34    7.03
   1   0  11   68.85    7.28
  -2   0 -11   75.45    6.27
  -2   0 -11   66.50    5.45
  -2   0 -11   61.11    5.92
  -2   0 -11   55.67    5.91
  -2   0 -11   73.16    6.24
  -2   0 -11   69.64    5.72
  -3   0 -11    0.11    0.14
  -3   0 -11    0.28    0.12
  -3   0 -11    0.04    0.18
  -3   0 -11    0.23    0.15
  -3   0 -11    0.03    0.15
   3   0  11    0.03    0.13
  -4   0 -11    3.98    0.55
  -4   0 -11    5.22    0.68
  -4   0 -11    5.15    0.58
  -4   0 -11    5.08    0.66
  -5   0 -11    0.46    0.21
  -5   0 -11    0.14    0.21
  -5   0 -11    0.46    0.29
  -5   0 -11    0.68    0.18
  -6   0 -11    4.01    0.66
  -6   0 -11    3.47    0.51
  -6   0 -11    4.21    0.54
  -6   0 -11    3.63    0.67
  -5   1  11   16.54    1.58
  -5   1  11   16.37    1.85
  -5   1  11   16.21    1.65
  -4   1  11   23.31    2.38
  -4   1  11   30.50    2.55
  -4   1  11   26.72    2.76
   3  -1 -11   13.98    1.32
   3  -1 -11   15.13    1.46
  -3   1  11   13.90    1.30
  -3   1  11   13.08    1.37
  -3   1  11   11.98    1.47
   2  -1 -11    3.19    0.46
   2  -1 -11    3.66    0.54
  -2   1  11    3.04    0.46
  -2   1  11    3.26    0.50
  -2   1  11    3.64    0.52
   1  -1 -11   64.35    5.63
   1  -1 -11   64.13    5.30
   1  -1 -11   52.17    5.48
   1  -1 -11   55.38    5.79
  -1   1  11   59.81    5.29
  -1   1  11   65.62    5.51
  -1   1  11   69.57    5.93
   0  -1 -11  104.89    9.00
   0  -1 -11  104.93    8.99
   0  -1 -11   89.32    8.54
   0  -1 -11   95.70    8.83
   0   1  11  102.84    9.18
   0   1  11   86.10    8.20
   0   1  11   93.34    8.54
  -1  -1 -11   94.56    7.72
  -1  -1 -11   88.74    8.58
  -1  -1 -11   85.68    8.01
  -1  -1 -11   77.42    8.44
  -1  -1 -11   97.25    8.03
  -1  -1 -11   91.21    7.38
  -1  -1 -11   88.88    8.43
  -1  -1 -11  102.57    8.33
   1   1  11   93.73    7.72
   1   1  11   87.95    8.57
  -2  -1 -11   13.56    1.14
  -2  -1 -11   12.90    1.27
  -2  -1 -11   11.96    1.34
  -2  -1 -11   13.09    1.38
  -2  -1 -11   12.43    1.23
  -2  -1 -11   15.27    1.29
   2   1  11   13.06    1.23
  -3  -1 -11   35.92    2.99
  -3  -1 -11   31.29    3.16
  -3  -1 -11   31.17    3.13
  -3  -1 -11   32.53    2.87
   3   1  11   33.09    2.87
  -4  -1 -11   58.57    5.06
  -4  -1 -11   54.70    5.37
  -5  -1 -11   24.15    2.25
  -5  -1 -11   25.10    2.16
  -5  -1 -11   25.12    2.42
  -5  -1 -11   22.68    2.43
  -6  -1 -11    3.95    0.52
  -6  -1 -11    4.32    0.68
  -6  -1 -11    4.06    0.47
  -6  -1 -11    4.20    0.66
  -4   2  11   18.58    2.06
  -4   2  11   24.79    2.05
  -4   2  11   22.45    2.33
   3  -2 -11   20.52    1.75
   3  -2 -11   20.75    1.94
  -3   2  11   16.22    1.96
  -3   2  11   20.60    1.83
  -3   2  11   15.21    1.70
   2  -2 -11   20.06    1.86
   2  -2 -11   22.64    2.06
   2  -2 -11   18.10    1.91
  -2   2  11   15.83    2.05
  -2   2  11   22.31    1.86
  -2   2  11   23.23    1.96
   1  -2 -11   21.76    1.90
   1  -2 -11   17.11    1.88
   1  -2 -11   19.63    2.00
   1  -2 -11   21.48    1.84
  -1   2  11   19.22    1.90
  -1   2  11   21.96    1.83
  -1   2  11   19.59    2.03
   0  -2 -11    5.58    0.57
   0  -2 -11    4.44    0.62
   0  -2 -11    5.76    0.59
   0  -2 -11    4.96    0.59
   0  -2 -11    4.39    0.62
   0   2  11    5.18    0.60
   0   2  11    4.65    0.59
   0   2  11    4.50    0.57
  -1  -2 -11   36.31    3.28
  -1  -2 -11   38.97    3.34
  -1  -2 -11   34.41    3.06
  -1  -2 -11   32.09    3.17
   1   2  11   32.02    3.16
   1   2  11   35.41    3.05
  -2  -2 -11   24.81    2.19
  -2  -2 -11   24.15    2.33
  -2  -2 -11   20.76    2.09
  -2  -2 -11   24.99    2.30
   2   2  11   21.69    2.25
   2   2  11   25.10    2.09
  -3  -2 -11   49.17    4.39
  -3  -2 -11   47.49    4.17
  -3  -2 -11   48.99    4.38
  -3  -2 -11   45.59    4.44
   3   2  11   41.21    3.98
  -4  -2 -11    3.92    0.52
  -4  -2 -11    4.05    0.57
  -4  -2 -11    2.73    0.41
  -5  -2 -11   -0.11    0.21
  -5  -2 -11    0.31    0.22
  -5  -2 -11    0.42    0.15
  -5  -2 -11    0.22    0.17
  -6  -2 -11    6.15    0.89
  -6  -2 -11    8.17    0.91
  -4   3  11   23.30    2.54
  -4   3  11   24.14    2.22
  -4   3  11   23.93    2.35
   3  -3 -11   27.33    2.50
   3  -3 -11   26.94    2.79
  -3   3  11   28.60    2.65
  -3   3  11   28.16    2.53
   2  -3 -11    8.67    0.94
   2  -3 -11   10.35    1.10
  -2   3  11    8.87    1.01
  -2   3  11    9.20    0.97
  -2   3  11    8.69    1.07
   1  -3 -11   67.67    5.67
   1  -3 -11   71.66    5.49
   1  -3 -11   58.41    5.82
  -1   3  11   64.20    5.46
  -1   3  11   65.81    5.69
  -1   3  11   53.77    6.09
   0  -3 -11  133.08   11.42
   0  -3 -11  112.87   10.44
   0  -3 -11  129.78   11.27
   0  -3 -11  117.24   10.85
   0   3  11  134.24   10.88
   0   3  11  122.89   10.43
   0   3  11  112.20   11.69
  -1  -3 -11   20.30    1.81
  -1  -3 -11   21.69    1.95
  -1  -3 -11   17.03    1.87
  -1  -3 -11   17.97    1.85
  -1  -3 -11   16.18    1.72
   1   3  11   18.20    1.79
   1   3  11   21.01    1.91
   1   3  11   19.83    1.73
  -2  -3 -11    1.30    0.30
  -2  -3 -11    1.01    0.25
  -2  -3 -11    1.33    0.26
  -2  -3 -11    1.29    0.34
  -2  -3 -11    1.19    0.29
   2   3  11    1.06    0.21
   2   3  11    1.47    0.25
  -3  -3 -11   26.21    2.72
  -3  -3 -11   29.71    2.60
  -3  -3 -11   24.62    2.69
  -3  -3 -11   30.82    2.48
   3   3  11   28.71    2.47
  -4  -3 -11   30.74    3.04
  -4  -3 -11   32.23    2.95
  -4  -3 -11   27.35    2.99
  -4  -3 -11   31.98    2.69
  -5  -3 -11    6.35    0.71
  -5  -3 -11    5.93    0.75
  -5  -3 -11    6.63    0.64
  -5  -3 -11    6.06    0.85
  -5  -3 -11    5.91    0.81
  -6  -3 -11    3.15    0.60
  -6  -3 -11    2.93    0.59
  -6  -3 -11    3.34    0.45
  -6  -3 -11    3.58    0.59
   3  -4 -11   15.12    1.54
   3  -4 -11   13.37    1.34
  -3   4  11   11.58    1.31
  -3   4  11   11.91    1.51
  -3   4  11   13.31    1.43
   2  -4 -11   32.22    3.05
   2  -4 -11   31.74    2.73
  -2   4  11   24.82    3.05
  -2   4  11   32.55    2.76
  -2   4  11   30.34    2.86
   1  -4 -11   28.88    2.24
   1  -4 -11   22.49    2.44
   1  -4 -11   23.46    2.32
  -1   4  11   23.57    2.48
  -1   4  11   28.94    2.35
  -1   4  11   19.19    2.18
   0  -4 -11    6.58    0.80
   0  -4 -11    7.27    0.79
   0  -4 -11    6.81    0.77
   0  -4 -11    7.16    0.90
   0   4  11    6.60    0.76
   0   4  11    7.26    0.84
  -1  -4 -11    3.66    0.51
  -1  -4 -11    3.19    0.50
  -1  -4 -11    3.76    0.51
  -1  -4 -11    4.01    0.51
  -1  -4 -11    3.25    0.59
   1   4  11    3.78    0.53
   1   4  11    3.91    0.50
  -2  -4 -11   41.26    3.92
  -2  -4 -11   37.84    4.06
  -2  -4 -11   45.94    4.27
  -2  -4 -11   51.80    4.28
   2   4  11   49.41    3.93
  -3  -4 -11   73.21    6.19
  -3  -4 -11   69.74    6.73
  -3  -4 -11   76.14    6.75
  -3  -4 -11   62.07    6.82
  -3  -4 -11   79.36    6.44
   3   4  11   72.75    6.17
  -4  -4 -11   38.04    3.12
  -4  -4 -11   27.03    3.08
  -4  -4 -11   31.17    2.75
  -4  -4 -11   30.27    3.01
  -5  -4 -11   -0.12    0.20
  -5  -4 -11    0.31    0.13
  -5  -4 -11    0.05    0.14
  -5  -4 -11    0.04    0.20
  -5  -4 -11    0.31    0.22
  -6  -4 -11   17.45    2.11
  -6  -4 -11   20.15    1.86
  -6  -4 -11   22.29    2.07
   2  -5 -11    0.25    0.26
   2  -5 -11    0.10    0.14
  -2   5  11    0.12    0.20
  -2   5  11   -0.01    0.23
   1  -5 -11   29.88    2.68
   1  -5 -11   23.45    2.34
  -1   5  11   25.17    2.37
  -1   5  11   25.51    2.67
   0  -5 -11   32.42    3.15
   0  -5 -11   27.24    3.02
   0  -5 -11   32.69    2.92
   0  -5 -11   38.54    3.29
   0   5  11   33.11    2.94
   0   5  11   33.81    3.30
  -1  -5 -11   39.67    4.06
  -1  -5 -11   45.57    3.68
  -1  -5 -11   44.11    3.82
  -1  -5 -11   47.71    4.00
   1   5  11   39.67    3.67
   1   5  11   34.49    4.09
  -2  -5 -11    0.05    0.23
  -2  -5 -11    0.03    0.16
  -2  -5 -11    0.21    0.15
  -2  -5 -11    0.05    0.16
   2   5  11   -0.12    0.15
   2   5  11    0.18    0.13
  -3  -5 -11    1.59    0.38
  -3  -5 -11    1.85    0.33
  -3  -5 -11    1.86    0.35
  -3  -5 -11    2.03    0.42
  -4  -5 -11    5.85    0.64
  -4  -5 -11    6.28    0.70
  -4  -5 -11    5.68    0.82
  -5  -5 -11    7.19    0.76
  -5  -5 -11    8.30    1.00
  -5  -5 -11    6.26    0.92
  -5  -5 -11    6.21    0.68
  -6  -5 -11   18.42    1.79
  -6  -5 -11   13.70    1.42
   1  -6 -11   34.00    3.26
   1  -6 -11   32.76    3.35
   1  -6 -11   30.49    2.99
  -1   6  11   38.11    3.06
  -1   6  11   31.63    3.40
   0  -6 -11    6.10    0.74
   0  -6 -11    5.73    0.83
   0  -6 -11    6.76    0.82
   0   6  11    5.83    0.83
   0   6  11    6.91    0.78
  -1  -6 -11   10.05    1.09
  -1  -6 -11    9.25    1.16
  -1  -6 -11    9.54    1.12
  -1  -6 -11    8.95    1.02
   1   6  11   11.20    1.20
   1   6  11   10.11    1.04
  -2  -6 -11   10.70    1.19
  -2  -6 -11   10.07    1.04
  -2  -6 -11    9.20    1.08
  -2  -6 -11    9.45    1.21
   2   6  11   10.86    1.08
   2   6  11   11.09    1.19
  -3  -6 -11   27.70    2.46
  -3  -6 -11   23.33    2.75
  -3  -6 -11   31.18    2.61
  -3  -6 -11   27.60    2.74
  -4  -6 -11   11.47    1.12
  -4  -6 -11    8.96    1.17
  -4  -6 -11    9.11    1.17
  -4  -6 -11   11.63    1.04
  -5  -6 -11    0.09    0.16
  -5  -6 -11    0.03    0.19
  -5  -6 -11    0.59    0.26
  -5  -6 -11    0.20    0.27
  -1  -7 -11   12.65    1.40
  -1  -7 -11   13.67    1.31
  -1  -7 -11   11.93    1.41
   1   7  11   11.30    1.42
   1   7  11   12.90    1.32
  -2  -7 -11    5.40    0.71
  -2  -7 -11    5.51    0.70
  -2  -7 -11    5.29    0.79
  -2  -7 -11    5.60    0.85
   2   7  11    5.31    0.73
  -3  -7 -11    1.32    0.33
  -3  -7 -11    1.60    0.37
  -3  -7 -11    1.76    0.46
  -3  -7 -11    1.30    0.43
  -4  -7 -11    0.59    0.23
  -4  -7 -11    0.59    0.24
  -4  -7 -11    0.76    0.20
  -4  -7 -11    0.86    0.35
   3   7 -12   20.36    1.88
  -3  -7  12   20.39    2.01
  -3  -7  12   20.45    1.94
   2   7 -12   12.81    1.25
  -2  -7  12   12.26    1.27
  -2  -7  12   12.04    1.31
   1   7 -12   18.44    1.60
   1   7 -12   16.85    1.70
  -1  -7  12   16.71    1.74
  -1  -7  12   15.60    1.62
   0   7 -12    1.44    0.35
   0  -7  12    1.39    0.37
   4   6 -12   15.45    1.45
  -4  -6  12   13.43    1.44
  -4  -6  12   14.37    1.41
   3   6 -12   13.59    1.32
  -3  -6  12   13.87    1.36
  -3  -6  12   11.90    1.29
   2   6 -12    0.15    0.16
  -2  -6  12    0.49    0.18
  -2  -6  12   -0.11    0.18
   1   6 -12   17.12    1.69
   1   6 -12   17.03    1.60
  -1  -6  12   17.79    1.75
  -1  -6  12   18.84    1.75
  -1  -6  12   16.20    1.66
   0   6 -12   29.71    2.51
   0   6 -12   32.52    2.68
   0  -6  12   29.08    2.79
   0  -6  12   24.34    2.58
  -1   6 -12   18.49    1.67
  -1   6 -12   16.58    1.76
   1  -6  12   19.44    1.76
  -2   6 -12    2.94    0.46
  -2   6 -12    2.25    0.49
   2  -6  12    2.35    0.46
   5   5 -12    0.30    0.25
  -5  -5  12    0.08    0.21
  -5  -5  12    0.36    0.32
  -5  -5  12    0.45    0.21
   4   5 -12    9.02    0.98
  -4  -5  12   11.14    1.07
  -4  -5  12    8.05    0.93
  -4  -5  12    8.65    1.15
   3   5 -12   14.33    1.57
  -3  -5  12   17.80    1.64
  -3  -5  12   19.33    1.70
   2   5 -12   17.17    1.46
   2   5 -12   13.12    1.50
   2   5 -12   12.81    1.33
  -2  -5  12   14.39    1.43
  -2  -5  12   14.35    1.38
   1   5 -12    8.10    0.81
   1   5 -12    6.48    0.82
   1   5 -12    8.06    0.91
  -1  -5  12    8.04    0.83
  -1  -5  12    6.56    0.81
  -1  -5  12    7.31    0.81
   0   5 -12   -0.02    0.19
   0   5 -12    0.01    0.17
   0   5 -12   -0.24    0.19
   0  -5  12   -0.16    0.16
   0  -5  12    0.02    0.13
   0  -5  12    0.27    0.15
  -1   5 -12    2.97    0.44
  -1   5 -12    2.85    0.50
  -1   5 -12    3.52    0.52
   1  -5  12    2.72    0.45
  -2   5 -12    5.45    0.76
  -2   5 -12    6.29    0.72
  -2   5 -12    6.93    0.85
   2  -5  12    6.40    0.76
  -3   5 -12   12.60    1.16
  -3   5 -12   12.80    1.35
  -3   5 -12    9.10    1.19
  -3   5 -12   12.40    1.39
   5   4 -12   15.43    1.46
  -5  -4  12   15.30    1.57
  -5  -4  12   15.88    1.48
  -5  -4  12   15.45    1.79
   4   4 -12   44.20    3.62
  -4  -4  12   37.97    3.88
  -4  -4  12   45.55    3.74
  -4  -4  12   42.28    4.25
   3   4 -12   35.47    3.32
  -3  -4  12   44.53    3.61
  -3  -4  12   37.51    3.45
   2   4 -12    1.80    0.33
   2   4 -12    1.24    0.36
   2   4 -12    1.13    0.31
  -2  -4  12    1.68    0.33
  -2  -4  12    1.64    0.33
   1   4 -12   30.21    2.90
   1   4 -12   29.90    2.76
   1   4 -12   37.79    3.16
  -1  -4  12   30.89    2.87
  -1  -4  12   33.23    2.98
   0   4 -12   45.92    4.65
   0   4 -12   42.21    4.27
   0   4 -12   50.93    4.08
   0  -4  12   52.93    4.26
   0  -4  12   52.63    4.43
  -1   4 -12   56.69    4.60
  -1   4 -12   42.56    4.76
  -1   4 -12   53.16    4.73
  -1   4 -12   50.43    4.42
  -1   4 -12   51.10    4.19
   1  -4  12   48.63    4.37
  -2   4 -12    5.32    0.73
  -2   4 -12    6.00    0.72
  -2   4 -12    6.79    0.80
  -2   4 -12    5.75    0.65
  -2   4 -12    6.89    0.78
   2  -4  12    5.98    0.69
  -3   4 -12    9.15    0.97
  -3   4 -12    8.29    0.98
  -3   4 -12    8.07    0.98
  -3   4 -12    7.93    0.97
  -3   4 -12    8.16    0.85
   3  -4  12    8.22    0.88
  -4   4 -12    8.49    1.02
  -4   4 -12    7.66    1.05
  -4   4 -12    8.21    0.86
  -4   4 -12    7.81    0.97
  -4   4 -12    8.10    0.97
  -5  -3  12    6.65    0.75
  -5  -3  12    5.88    0.90
  -5  -3  12    4.61    0.66
   4   3 -12    0.87    0.29
  -4  -3  12    0.96    0.27
  -4  -3  12    1.23    0.30
  -4  -3  12    0.98    0.39
   3   3 -12   37.92    3.22
  -3  -3  12   39.08    3.34
  -3  -3  12   36.45    3.76
   2   3 -12   28.97    2.57
   2   3 -12   25.35    2.90
   2   3 -12   28.67    2.67
  -2  -3  12   32.93    2.78
  -2  -3  12   32.44    2.69
  -2  -3  12   31.23    2.98
   1   3 -12   64.24    5.59
   1   3 -12   58.73    5.34
  -1  -3  12   71.14    5.57
   0   3 -12   13.59    1.28
   0   3 -12   14.40    1.49
   0   3 -12   14.37    1.40
   0   3 -12   16.50    1.42
   0  -3  12   12.83    1.37
   0  -3  12   13.88    1.34
  -1   3 -12    0.22    0.19
  -1   3 -12    0.07    0.14
  -1   3 -12    0.33    0.14
  -1   3 -12   -0.02    0.15
  -1   3 -12    0.00    0.16
   1  -3  12   -0.03    0.14
   1  -3  12    0.01    0.15
  -2   3 -12   43.71    3.82
  -2   3 -12   39.39    3.47
  -2   3 -12   42.04    3.96
  -2   3 -12   43.84    3.99
  -2   3 -12   42.01    3.69
   2  -3  12   39.49    3.63
  -3   3 -12   47.58    4.39
  -3   3 -12   47.14    4.76
  -3   3 -12   54.13    4.57
  -3   3 -12   47.61    4.15
   3  -3  12   54.48    4.37
  -4   3 -12   38.79    3.61
  -4   3 -12   44.74    3.95
  -4   3 -12   40.21    3.40
  -4   3 -12   41.77    3.95
  -4   3 -12   37.24    3.73
  -5   3 -12    5.05    0.79
  -5  -2  12   27.30    2.74
  -5  -2  12   24.39    2.43
  -5  -2  12   25.75    2.33
  -4  -2  12   54.54    4.42
  -4  -2  12   46.67    4.99
   3   2 -12   40.19    3.34
   3   2 -12   42.64    3.47
  -3  -2  12   39.09    3.47
  -3  -2  12   37.11    3.60
  -3  -2  12   38.55    3.92
   2   2 -12   -0.02    0.16
   2   2 -12    0.02    0.13
   2   2 -12    0.25    0.21
  -2  -2  12    0.09    0.16
  -2  -2  12    0.01    0.16
  -2  -2  12    0.17    0.16
   1   2 -12   23.26    2.04
   1   2 -12   22.72    1.99
   1   2 -12   24.24    2.16
   1   2 -12   19.19    2.06
   1   2 -12   20.39    1.89
  -1  -2  12   21.63    2.17
  -1  -2  12   21.29    1.97
   0   2 -12   26.68    2.48
   0   2 -12   22.94    2.25
   0   2 -12   22.62    2.32
   0   2 -12   21.34    2.14
   0   2 -12   29.16    2.42
   0  -2  12   26.97    2.34
   0  -2  12   26.37    2.25
   0  -2  12   24.82    2.45
  -1   2 -12   36.13    3.11
  -1   2 -12   41.40    3.54
  -1   2 -12   41.10    3.39
  -1   2 -12   35.33    3.28
  -1   2 -12   33.61    3.55
   1  -2  12   33.99    3.24
   1  -2  12   38.62    3.38
  -2   2 -12   18.72    1.85
  -2   2 -12   15.96    1.76
  -2   2 -12   19.47    1.62
  -2   2 -12   22.20    1.90
  -2   2 -12   18.26    1.74
   2  -2  12   17.50    1.69
  -3   2 -12    0.21    0.16
  -3   2 -12    0.07    0.18
  -3   2 -12    0.05    0.17
  -3   2 -12    0.28    0.21
  -3   2 -12    0.12    0.15
   3  -2  12   -0.05    0.13
  -4   2 -12    4.92    0.61
  -4   2 -12    4.31    0.67
  -4   2 -12    4.86    0.66
  -4   2 -12    3.83    0.53
  -4   2 -12    4.25    0.64
  -5   2 -12    4.08    0.64
  -5   2 -12    4.79    0.60
  -5   2 -12    4.44    0.66
  -5   2 -12    3.37    0.65
  -5  -1  12   16.22    2.01
  -5  -1  12   18.83    1.72
  -5  -1  12   19.99    1.85
  -4  -1  12    4.23    0.53
  -4  -1  12    3.50    0.56
  -4  -1  12    4.31    0.68
   3   1 -12    0.13    0.19
   3   1 -12    0.39    0.17
  -3  -1  12    0.12    0.16
  -3  -1  12    0.12    0.21
  -3  -1  12    0.11    0.18
   2   1 -12   58.18    5.14
   2   1 -12   53.70    5.87
  -2  -1  12   65.57    6.03
  -2  -1  12   67.45    5.38
  -2  -1  12   67.05    5.60
   1   1 -12  117.40    9.89
   1   1 -12  110.51    9.07
   1   1 -12   99.62    9.91
  -1  -1  12  111.80    9.08
  -1  -1  12   94.41   10.13
   0   1 -12   62.31    5.33
   0   1 -12   56.96    5.07
   0   1 -12   55.92    4.90
   0   1 -12   57.24    5.35
   0  -1  12   44.84    5.06
   0  -1  12   63.07    5.43
  -1   1 -12    2.19    0.34
  -1   1 -12    2.45    0.45
  -1   1 -12    3.29    0.44
  -1   1 -12    2.66    0.38
  -1   1 -12    2.72    0.41
   1  -1  12    2.85    0.33
   1  -1  12    2.25    0.39
   1  -1  12    3.12    0.41
  -2   1 -12    1.84    0.35
  -2   1 -12    1.68    0.33
  -2   1 -12    1.53    0.30
  -2   1 -12    1.18    0.27
  -2   1 -12    1.70    0.27
   2  -1  12    1.62    0.32
   2  -1  12    1.77    0.29
  -3   1 -12   81.64    7.48
  -3   1 -12   88.99    7.86
  -3   1 -12   82.90    8.58
  -3   1 -12  106.90    8.18
  -3   1 -12   98.66    8.59
   3  -1  12   94.36    7.83
  -4   1 -12   32.72    3.11
  -4   1 -12   31.15    3.09
  -4   1 -12   31.18    2.83
  -5   1 -12    1.44    0.40
  -5   1 -12    1.40    0.37
  -5   1 -12    1.27    0.27
  -5   1 -12    1.24    0.30
  -6   1 -12    3.48    0.67
  -6   1 -12    4.36    0.50
  -6   1 -12    3.95    0.50
  -6   1 -12    2.75    0.61
  -5   0  12   14.13    1.59
  -5   0  12   13.59    1.43
  -5   0  12   13.30    1.32
  -4   0  12   33.71    3.08
  -4   0  12   31.88    2.91
   3   0 -12   28.65    2.39
   3   0 -12   31.31    2.62
  -3   0  12   23.50    2.47
  -3   0  12   24.17    2.69
  -3   0  12   24.63    2.38
   2   0 -12    0.63    0.21
   2   0 -12    0.25    0.19
  -2   0  12    0.42    0.21
  -2   0  12    0.53    0.22
  -2   0  12    0.58    0.21
   1   0 -12    6.00    0.71
   1   0 -12    7.57    0.72
   1   0 -12    5.72    0.63
   1   0 -12    5.40    0.77
   1   0 -12    6.01    0.73
   1   0 -12    6.95    0.67
  -1   0  12    5.90    0.74
  -1   0  12    8.11    0.77
  -1   0  12    7.30    0.72
   0   0 -12    9.95    1.11
   0   0 -12   10.93    0.99
   0   0 -12   12.05    1.17
   0   0 -12   11.09    1.05
   0   0  12    8.80    1.10
   0   0  12   11.41    1.10
   0   0  12   12.30    1.08
  -1   0 -12   33.22    3.01
  -1   0 -12   31.76    2.99
  -1   0 -12   33.64    2.75
   1   0  12   31.81    3.14
   1   0  12   33.51    3.01
   1   0  12   33.96    2.90
  -2   0 -12   62.78    5.86
  -2   0 -12   72.09    6.41
  -2   0 -12   64.47    6.08
  -2   0 -12   65.32    5.59
  -2   0 -12   73.59    6.44
   2   0  12   61.91    6.08
   2   0  12   79.77    5.88
  -3   0 -12   13.45    1.06
  -3   0 -12   11.50    1.17
  -3   0 -12   13.26    1.28
  -3   0 -12   10.76    1.24
  -3   0 -12   12.11    1.15
   3   0  12    9.73    1.10
  -4   0 -12    2.85    0.41
  -4   0 -12    2.37    0.39
  -4   0 -12    2.40    0.45
  -4   0 -12    2.15    0.44
  -5   0 -12   28.75    2.74
  -5   0 -12   25.70    2.43
  -5   0 -12   27.16    2.70
  -5   0 -12   27.23    2.52
  -6   0 -12   16.69    1.62
  -6   0 -12   18.91    1.86
  -6   0 -12   15.96    1.76
  -6   0 -12   15.28    1.54
  -5   1  12   28.19    2.91
  -5   1  12   29.24    2.66
  -5   1  12   25.11    2.49
  -4   1  12   11.76    1.16
  -4   1  12   10.18    1.25
  -4   1  12    9.13    1.06
   3  -1 -12    6.17    0.87
   3  -1 -12    8.54    0.85
  -3   1  12    7.46    0.81
  -3   1  12    6.57    0.86
  -3   1  12    8.89    0.96
   2  -1 -12   70.90    5.36
  -2   1  12   63.62    5.99
  -2   1  12   54.91    5.33
  -2   1  12   58.38    5.56
   1  -1 -12   97.80    8.31
   1  -1 -12   99.24    8.88
   1  -1 -12   92.84    9.09
  -1   1  12  103.36    8.65
  -1   1  12   96.57    8.30
  -1   1  12   94.95    9.28
   0  -1 -12   32.39    3.36
   0  -1 -12   35.68    3.66
   0  -1 -12   42.77    3.69
   0  -1 -12   38.09    3.50
   0  -1 -12   37.17    3.57
   0   1  12   41.97    3.51
   0   1  12   43.10    3.73
   0   1  12   36.71    3.36
  -1  -1 -12    3.04    0.41
  -1  -1 -12    3.32    0.43
  -1  -1 -12    2.61    0.38
  -1  -1 -12    2.48    0.43
  -1  -1 -12    2.49    0.45
  -1  -1 -12    2.51    0.45
   1   1  12    3.08    0.42
   1   1  12    3.35    0.42
   1   1  12    2.38    0.34
  -2  -1 -12   48.74    4.22
  -2  -1 -12   48.99    3.86
  -2  -1 -12   43.64    4.06
  -2  -1 -12   48.39    4.48
   2   1  12   48.21    4.07
   2   1  12   43.74    4.21
  -3  -1 -12   55.15    5.04
  -3  -1 -12   48.28    5.07
  -3  -1 -12   53.68    4.37
  -3  -1 -12   51.62    4.78
  -3  -1 -12   51.09    4.61
   3   1  12   61.47    4.63
  -4  -1 -12   14.40    1.49
  -4  -1 -12   12.49    1.44
  -4  -1 -12   14.20    1.36
  -4  -1 -12   14.61    1.31
  -5  -1 -12    0.69    0.21
  -5  -1 -12    0.83    0.34
  -5  -1 -12    0.61    0.19
  -5  -1 -12    0.38    0.28
  -6  -1 -12    0.58    0.27
  -6  -1 -12    0.88    0.19
  -6  -1 -12    0.70    0.21
  -6  -1 -12    0.58    0.29
  -4   2  12   19.47    1.83
  -4   2  12   19.52    1.92
  -4   2  12   18.40    2.08
   3  -2 -12   41.12    3.62
   3  -2 -12   35.92    3.27
  -3   2  12   32.04    3.38
  -3   2  12   38.31    3.28
   2  -2 -12   37.07    3.42
   2  -2 -12   33.21    3.11
  -2   2  12   37.47    3.26
  -2   2  12   32.66    3.09
   1  -2 -12    7.00    0.72
   1  -2 -12    4.54    0.71
   1  -2 -12    4.92    0.62
   1  -2 -12    6.66    0.70
  -1   2  12    6.09    0.72
  -1   2  12    6.60    0.70
  -1   2  12    6.54    0.74
   0  -2 -12    4.57    0.54
   0  -2 -12    4.47    0.56
   0  -2 -12    3.70    0.57
   0  -2 -12    3.43    0.57
   0  -2 -12    4.36    0.50
   0   2  12    3.87    0.54
   0   2  12    4.16    0.53
   0   2  12    4.26    0.53
  -1  -2 -12   72.88    6.63
  -1  -2 -12   83.62    6.73
  -1  -2 -12   67.04    6.40
  -1  -2 -12   66.94    6.15
   1   2  12   69.75    6.15
   1   2  12   70.95    6.40
  -2  -2 -12   87.19    7.74
  -2  -2 -12   79.13    7.61
  -2  -2 -12   88.23    7.69
  -2  -2 -12   80.48    7.04
   2   2  12   71.15    7.78
   2   2  12   89.78    7.03
  -3  -2 -12   37.59    3.48
  -3  -2 -12   41.60    3.80
  -3  -2 -12   39.27    3.86
   3   2  12   41.02    3.47
  -4  -2 -12    0.33    0.16
  -4  -2 -12    0.32    0.17
  -4  -2 -12    0.24    0.18
  -5  -2 -12   17.81    1.80
  -5  -2 -12   19.96    1.88
  -5  -2 -12   15.75    1.59
  -6  -2 -12   44.29    4.69
  -6  -2 -12   52.29    4.65
  -4   3  12    2.17    0.46
  -4   3  12    1.62    0.52
  -4   3  12    3.05    0.53
   3  -3 -12    1.33    0.33
   3  -3 -12    1.69    0.39
  -3   3  12    1.09    0.31
  -3   3  12    1.67    0.42
  -3   3  12    1.34    0.33
   2  -3 -12   24.37    2.20
   2  -3 -12   19.29    1.95
  -2   3  12   18.08    1.93
  -2   3  12   21.96    2.21
  -2   3  12   21.96    2.06
   1  -3 -12   29.34    2.65
   1  -3 -12   27.89    2.90
   1  -3 -12   28.68    2.76
  -1   3  12   28.93    2.94
  -1   3  12   29.84    2.75
  -1   3  12   31.81    2.65
   0  -3 -12   42.61    4.02
   0  -3 -12   47.69    3.91
   0  -3 -12   39.29    4.25
   0  -3 -12   49.03    4.16
   0  -3 -12   44.79    4.25
   0   3  12   43.72    4.04
   0   3  12   46.76    3.88
   0   3  12   41.61    4.32
  -1  -3 -12    2.82    0.48
  -1  -3 -12    2.19    0.41
  -1  -3 -12    1.80    0.36
  -1  -3 -12    2.70    0.41
  -1  -3 -12    2.33    0.39
   1   3  12    2.44    0.39
   1   3  12    2.25    0.35
  -2  -3 -12    0.41    0.22
  -2  -3 -12    0.38    0.19
  -2  -3 -12    0.32    0.19
  -2  -3 -12    0.03    0.15
  -2  -3 -12    0.25    0.13
   2   3  12    0.15    0.14
   2   3  12    0.35    0.12
  -3  -3 -12   13.64    1.42
  -3  -3 -12   15.32    1.48
  -3  -3 -12   12.31    1.39
  -3  -3 -12   14.61    1.28
  -3  -3 -12   12.15    1.32
   3   3  12   12.60    1.25
  -4  -3 -12   35.83    3.50
  -4  -3 -12   35.52    3.29
  -4  -3 -12   36.51    3.54
  -5  -3 -12    5.62    0.72
  -5  -3 -12    6.43    0.86
  -5  -3 -12    6.44    0.66
  -5  -3 -12    6.43    0.86
  -5  -3 -12    6.14    0.77
  -6  -3 -12    4.30    0.58
  -6  -3 -12    4.94    0.64
  -6  -3 -12    5.47    0.81
  -6  -3 -12    4.35    0.79
   3  -4 -12   23.50    2.38
  -3   4  12   23.18    2.27
  -3   4  12   22.30    2.13
  -3   4  12   20.57    2.40
   2  -4 -12   37.49    4.04
   2  -4 -12   42.43    3.66
  -2   4  12   43.93    3.90
  -2   4  12   41.42    3.68
   1  -4 -12   11.81    1.21
   1  -4 -12   11.66    1.34
   1  -4 -12   11.73    1.23
  -1   4  12   13.86    1.25
  -1   4  12   11.13    1.34
   0  -4 -12    4.92    0.61
   0  -4 -12    5.26    0.76
   0  -4 -12    4.74    0.62
   0  -4 -12    5.77    0.65
   0   4  12    4.38    0.60
   0   4  12    4.79    0.65
  -1  -4 -12   60.45    6.24
  -1  -4 -12   62.48    6.13
  -1  -4 -12   58.29    5.88
  -1  -4 -12   62.18    6.18
  -1  -4 -12   77.60    5.73
   1   4  12   71.02    5.69
   1   4  12   70.43    6.36
  -2  -4 -12   47.52    4.06
  -2  -4 -12   42.06    4.13
  -2  -4 -12   34.32    3.85
  -2  -4 -12   44.66    4.05
  -2  -4 -12   40.04    3.74
   2   4  12   48.04    3.74
  -3  -4 -12    5.59    0.73
  -3  -4 -12    5.81    0.68
  -3  -4 -12    5.14    0.68
  -3  -4 -12    4.70    0.62
  -3  -4 -12    6.05    0.78
  -4  -4 -12    0.96    0.36
  -4  -4 -12    0.87    0.22
  -4  -4 -12    1.07    0.38
  -4  -4 -12    0.78    0.26
  -4  -4 -12    1.01    0.24
  -5  -4 -12    6.91    1.02
  -5  -4 -12    9.63    0.84
  -5  -4 -12    8.90    0.97
  -5  -4 -12    8.13    1.05
  -5  -4 -12    7.11    0.85
  -6  -4 -12    9.28    1.11
  -6  -4 -12    8.40    0.85
  -6  -4 -12    6.14    1.03
   2  -5 -12    4.18    0.62
   2  -5 -12    3.68    0.71
  -2   5  12    4.09    0.61
  -2   5  12    3.44    0.67
   1  -5 -12   18.69    1.77
   1  -5 -12   16.45    1.52
   1  -5 -12   12.56    1.53
  -1   5  12   16.72    1.55
  -1   5  12   14.40    1.70
   0  -5 -12    8.34    1.04
   0  -5 -12    7.53    0.91
   0  -5 -12    7.42    0.87
   0   5  12    8.10    0.98
   0   5  12    7.71    0.89
  -1  -5 -12   28.46    2.35
  -1  -5 -12   23.36    2.40
  -1  -5 -12   26.42    2.53
  -1  -5 -12   24.51    2.59
   1   5  12   23.68    2.32
   1   5  12   27.12    2.62
  -2  -5 -12    2.10    0.38
  -2  -5 -12    1.71    0.42
  -2  -5 -12    1.95    0.36
  -2  -5 -12    1.41    0.34
   2   5  12    2.68    0.44
   2   5  12    1.83    0.33
  -3  -5 -12    1.97    0.38
  -3  -5 -12    1.68    0.33
  -3  -5 -12    2.10    0.45
  -3  -5 -12    1.78    0.42
  -4  -5 -12   24.99    2.66
  -4  -5 -12   27.28    2.34
  -4  -5 -12   25.83    2.44
  -5  -5 -12   23.93    2.30
  -5  -5 -12   20.49    1.90
  -5  -5 -12   20.60    2.01
  -6  -5 -12    5.55    0.62
  -6  -5 -12    5.27    0.78
  -6  -5 -12    4.16    0.69
   1  -6 -12    6.56    0.75
   1  -6 -12    6.65    0.89
  -1   6  12    5.83    0.87
  -1   6  12    6.84    0.86
   0  -6 -12    0.24    0.24
   0  -6 -12    0.76    0.28
   0  -6 -12    0.23    0.25
   0   6  12    0.53    0.23
   0   6  12    0.66    0.27
  -1  -6 -12   21.34    2.33
  -1  -6 -12   25.48    2.17
  -1  -6 -12   21.24    2.39
  -1  -6 -12   20.08    2.22
   1   6  12   26.78    2.20
   1   6  12   25.24    2.46
  -2  -6 -12   47.84    4.59
  -2  -6 -12   44.47    4.67
  -2  -6 -12   49.44    4.40
  -2  -6 -12   47.12    4.20
   2   6  12   51.24    4.73
  -3  -6 -12    3.16    0.61
  -3  -6 -12    3.44    0.53
  -3  -6 -12    3.48    0.59
  -3  -6 -12    2.81    0.46
  -4  -6 -12    0.55    0.21
  -4  -6 -12    0.49    0.25
  -4  -6 -12    0.35    0.22
  -4  -6 -12    0.44    0.31
  -5  -6 -12   -0.07    0.25
  -5  -6 -12    0.05    0.20
  -5  -6 -12   -0.35    0.17
  -1  -7 -12   18.73    1.64
  -1  -7 -12   15.91    1.75
  -1  -7 -12   16.36    1.79
   1   7  12   17.84    1.66
   1   7  12   13.34    1.76
  -2  -7 -12    1.00    0.21
  -2  -7 -12    1.26    0.33
  -2  -7 -12    1.05    0.37
  -2  -7 -12    1.33    0.47
   2   7  12    0.88    0.29
  -3  -7 -12    2.22    0.42
  -3  -7 -12    2.30    0.39
  -3  -7 -12    1.76    0.49
  -3  -7 -12    1.69    0.50
  -4  -7 -12   14.79    1.85
  -4  -7 -12   18.46    1.67
  -4  -7 -12   19.04    1.94
  -4  -7 -12   18.18    1.76
   4   6 -13   12.97    1.32
  -4  -6  13   13.94    1.41
  -4  -6  13   12.36    1.36
   3   6 -13    0.79    0.19
  -3  -6  13    0.06    0.23
  -3  -6  13    0.13    0.18
   2   6 -13   13.89    1.35
  -2  -6  13   13.32    1.38
  -2  -6  13   14.44    1.45
   1   6 -13   26.46    2.56
   1   6 -13   30.11    2.44
  -1  -6  13   25.74    2.65
  -1  -6  13   30.69    2.54
  -1  -6  13   25.37    2.59
   0   6 -13   29.65    2.76
   0   6 -13   29.92    2.60
   0  -6  13   29.80    2.72
  -1   6 -13    0.16    0.23
  -1   6 -13   -0.34    0.28
   1  -6  13    0.85    0.22
   4   5 -13    5.50    0.71
  -4  -5  13    5.55    0.71
  -4  -5  13    4.90    0.66
  -4  -5  13    5.31    0.85
   3   5 -13   25.81    2.26
  -3  -5  13   21.59    2.27
  -3  -5  13   27.79    2.40
   2   5 -13   35.30    3.06
   2   5 -13   35.06    2.74
   2   5 -13   29.67    2.81
  -2  -5  13   25.20    2.84
  -2  -5  13   30.70    2.79
   1   5 -13   11.82    1.25
   1   5 -13   10.80    1.10
   1   5 -13   10.70    1.18
  -1  -5  13   11.57    1.18
  -1  -5  13   10.59    1.13
   0   5 -13    0.22    0.25
   0   5 -13   -0.15    0.18
   0   5 -13    0.04    0.20
   0  -5  13   -0.05    0.18
  -1   5 -13   21.74    1.88
  -1   5 -13   20.65    2.15
  -1   5 -13   20.62    2.00
   1  -5  13   20.85    1.96
  -2   5 -13   53.65    4.36
  -2   5 -13   43.27    4.07
  -2   5 -13   53.04    4.68
   2  -5  13   45.60    4.26
  -3   5 -13   22.44    2.03
  -3   5 -13   19.29    2.04
  -3   5 -13   18.18    1.77
   5   4 -13   34.33    2.97
  -5  -4  13   34.29    3.04
  -5  -4  13   32.97    3.18
  -5  -4  13   34.79    3.56
   4   4 -13    3.43    0.55
  -4  -4  13    3.11    0.54
  -4  -4  13    3.76    0.49
  -4  -4  13    2.87    0.60
   3   4 -13    4.24    0.59
  -3  -4  13    4.06    0.52
  -3  -4  13    4.81    0.67
  -3  -4  13    2.78    0.51
   2   4 -13    5.80    0.74
   2   4 -13    7.95    0.90
   2   4 -13    5.97    0.76
  -2  -4  13    7.57    0.82
  -2  -4  13    7.24    0.80
   1   4 -13   32.64    3.03
   1   4 -13   36.80    3.21
  -1  -4  13   34.88    3.27
  -1  -4  13   38.53    3.18
   0   4 -13   22.66    2.09
   0   4 -13   21.30    2.24
   0   4 -13   21.51    1.96
   0  -4  13   23.75    2.12
   0  -4  13   22.04    2.04
  -1   4 -13    1.74    0.38
  -1   4 -13    1.99    0.35
  -1   4 -13    2.02    0.41
   1  -4  13    2.09    0.38
  -2   4 -13    1.05    0.35
  -2   4 -13    1.45    0.31
  -2   4 -13    1.01    0.33
  -2   4 -13    1.32    0.36
  -2   4 -13    1.21    0.33
   2  -4  13    1.19    0.32
  -3   4 -13    1.46    0.39
  -3   4 -13    1.90    0.38
  -3   4 -13    1.17    0.34
  -3   4 -13    1.51    0.41
  -3   4 -13    1.62    0.32
   3  -4  13    1.45    0.35
  -4   4 -13    6.15    0.89
  -4   4 -13    7.36    0.91
  -5  -3  13    2.26    0.43
  -5  -3  13    2.89    0.57
  -5  -3  13    2.87    0.45
   4   3 -13    0.42    0.19
  -4  -3  13    0.02    0.25
  -4  -3  13    0.16    0.22
  -4  -3  13    0.30    0.22
   3   3 -13   41.12    3.78
  -3  -3  13   48.42    3.96
  -3  -3  13   45.37    4.11
  -3  -3  13   45.02    4.45
   2   3 -13   41.83    3.70
   2   3 -13   35.66    3.22
  -2  -3  13   36.36    3.48
  -2  -3  13   38.01    3.35
   1   3 -13   27.94    2.90
   1   3 -13   38.81    3.20
   1   3 -13   29.64    2.79
  -1  -3  13   36.17    2.93
  -1  -3  13   31.57    3.01
   0   3 -13    1.08    0.28
   0   3 -13    1.38    0.24
   0   3 -13    1.48    0.38
   0   3 -13    1.29    0.30
   0   3 -13    1.21    0.27
   0  -3  13    0.74    0.23
   0  -3  13    0.99    0.26
  -1   3 -13   13.49    1.52
  -1   3 -13   15.39    1.46
  -1   3 -13   14.21    1.43
  -1   3 -13   14.40    1.42
  -1   3 -13   14.10    1.31
   1  -3  13   14.30    1.37
  -2   3 -13   38.72    4.33
  -2   3 -13   50.63    4.08
  -2   3 -13   46.20    3.82
  -2   3 -13   49.78    4.39
   2  -3  13   45.57    4.00
  -3   3 -13   14.92    1.67
  -3   3 -13   19.62    1.78
  -3   3 -13   18.91    1.84
  -3   3 -13   18.10    1.80
  -3   3 -13   16.18    1.55
   3  -3  13   17.26    1.64
  -4   3 -13    0.67    0.24
  -4   3 -13    0.40    0.24
  -4   3 -13    0.26    0.28
  -4   3 -13    0.52    0.25
  -5  -2  13   14.24    1.47
  -5  -2  13   13.54    1.37
  -5  -2  13   14.46    1.65
  -4  -2  13   13.06    1.41
  -4  -2  13   12.49    1.20
  -4  -2  13   10.50    1.22
   3   2 -13    6.23    0.66
   3   2 -13    5.67    0.66
  -3  -2  13    5.69    0.67
  -3  -2  13    5.32    0.78
  -3  -2  13    4.99    0.69
   2   2 -13    2.14    0.33
   2   2 -13    1.96    0.34
   2   2 -13    1.46    0.38
   2   2 -13    1.81    0.34
  -2  -2  13    1.82    0.40
  -2  -2  13    2.05    0.40
  -2  -2  13    2.28    0.38
   1   2 -13   18.86    1.90
   1   2 -13   23.02    2.02
   1   2 -13   20.09    1.83
  -1  -2  13   20.42    1.91
  -1  -2  13   15.90    1.79
  -1  -2  13   21.01    2.01
   0   2 -13   33.68    3.25
   0   2 -13   44.00    3.68
   0   2 -13   44.63    3.55
   0   2 -13   45.81    3.45
   0  -2  13   32.65    3.38
   0  -2  13   33.81    3.51
   0  -2  13   38.04    3.75
  -1   2 -13   35.30    3.11
  -1   2 -13   32.12    3.23
  -1   2 -13   36.11    3.03
  -1   2 -13   28.27    2.83
   1  -2  13   34.27    2.98
   1  -2  13   34.41    3.10
   1  -2  13   36.31    3.25
  -2   2 -13   11.05    1.16
  -2   2 -13   12.59    1.20
  -2   2 -13   11.34    1.07
  -2   2 -13   13.09    1.26
  -2   2 -13   10.79    1.21
   2  -2  13   10.42    1.11
  -3   2 -13    0.29    0.23
  -3   2 -13   -0.02    0.24
  -3   2 -13    0.11    0.17
  -3   2 -13    0.72    0.20
  -3   2 -13    0.14    0.23
   3  -2  13    0.29    0.16
  -4   2 -13   22.56    2.36
  -4   2 -13   20.90    2.22
  -4   2 -13   27.32    2.41
  -5   2 -13   30.98    3.08
  -5   2 -13   29.25    3.08
  -5   2 -13   32.10    2.83
  -5  -1  13    6.31    0.83
  -5  -1  13    6.34    0.74
  -5  -1  13    5.89    0.89
  -4  -1  13    9.12    1.00
  -4  -1  13    7.10    0.90
  -4  -1  13   10.09    1.12
   3   1 -13   56.53    4.69
   3   1 -13   49.98    5.06
  -3  -1  13   54.70    4.68
  -3  -1  13   48.60    4.85
  -3  -1  13   60.23    5.29
   2   1 -13   88.46    7.34
   2   1 -13   98.07    7.67
   2   1 -13   80.46    8.38
  -2  -1  13  100.71    7.99
  -2  -1  13   95.65    7.67
  -2  -1  13   75.11    8.56
   1   1 -13   23.16    2.09
   1   1 -13   20.38    2.14
   1   1 -13   22.04    1.87
   1   1 -13   19.75    1.93
  -1  -1  13   21.40    2.15
  -1  -1  13   21.46    1.95
  -1  -1  13   21.19    2.03
   0   1 -13    0.34    0.19
   0   1 -13    0.43    0.19
   0   1 -13    0.47    0.19
   0   1 -13    0.54    0.19
   0   1 -13    0.55    0.24
   0  -1  13    0.45    0.23
   0  -1  13    0.22    0.19
   0  -1  13    0.52    0.15
  -1   1 -13   71.88    6.39
  -1   1 -13   68.37    6.40
  -1   1 -13   69.72    5.59
  -1   1 -13   65.85    5.85
  -1   1 -13   69.48    6.07
   1  -1  13   76.63    6.46
   1  -1  13   57.28    6.05
   1  -1  13   64.13    5.84
  -2   1 -13   29.78    2.75
  -2   1 -13   25.05    2.50
  -2   1 -13   32.33    2.69
  -2   1 -13   31.15    2.91
  -2   1 -13   31.83    2.90
  -3   1 -13   16.50    1.80
  -3   1 -13   19.66    1.73
  -3   1 -13   20.96    1.85
  -3   1 -13   16.95    1.67
  -3   1 -13   15.12    1.53
   3  -1  13   18.29    1.65
  -4   1 -13    1.27    0.31
  -4   1 -13    1.87    0.36
  -4   1 -13    1.93    0.42
  -4   1 -13    1.75    0.37
  -5   1 -13   -0.02    0.31
  -5   1 -13    0.43    0.22
  -5   1 -13    0.07    0.27
  -5   1 -13    0.62    0.21
  -5   0  13   14.43    1.65
  -5   0  13   18.97    1.89
  -5   0  13   15.24    1.54
  -4   0  13   17.30    2.16
  -4   0  13   23.24    2.05
  -4   0  13   20.89    1.91
   3   0 -13   28.72    2.50
   3   0 -13   25.23    2.69
  -3   0  13   32.24    2.86
  -3   0  13   26.18    2.59
  -3   0  13   26.28    2.49
   2   0 -13   21.95    2.01
  -2   0  13   24.31    2.09
  -2   0  13   22.37    2.00
  -2   0  13   18.78    2.21
   1   0 -13   21.72    2.34
   1   0 -13   24.59    2.22
   1   0 -13   19.50    2.27
   1   0 -13   27.16    2.16
   1   0 -13   25.53    2.04
   1   0 -13   24.08    2.18
  -1   0  13   26.08    2.15
  -1   0  13   20.35    2.33
   0   0 -13   85.06    8.40
   0   0 -13   87.73    7.99
   0   0 -13   83.82    7.69
   0   0 -13   87.14    7.37
   0   0 -13   96.25    8.26
   0   0 -13   95.23    8.41
   0   0  13   96.86    8.02
  -1   0 -13   75.41    6.58
  -1   0 -13   65.37    6.92
  -1   0 -13   84.10    6.96
  -1   0 -13   73.30    6.05
   1   0  13   76.26    6.34
   1   0  13   75.62    7.01
   1   0  13   68.22    6.58
  -2   0 -13   29.33    2.82
  -2   0 -13   26.20    2.96
  -2   0 -13   32.37    2.58
  -2   0 -13   28.67    2.73
  -2   0 -13   32.25    3.00
   2   0  13   36.10    2.75
  -3   0 -13    6.00    0.73
  -3   0 -13    5.18    0.66
  -3   0 -13    6.63    0.75
  -3   0 -13    6.29    0.67
  -3   0 -13    5.01    0.56
   3   0  13    5.35    0.63
  -4   0 -13   40.96    3.79
  -4   0 -13   43.50    3.48
  -4   0 -13   37.03    3.57
  -4   0 -13   36.10    3.80
  -5   0 -13   36.83    3.99
  -5   0 -13   39.34    3.74
  -5   0 -13   44.58    3.99
  -5   0 -13   43.76    3.62
  -6   0 -13    7.80    0.91
  -6   0 -13    8.66    1.09
  -6   0 -13    9.06    1.08
  -6   0 -13    7.86    0.87
  -4   1  13    1.63    0.44
  -4   1  13    0.96    0.33
  -4   1  13    1.43    0.34
   3  -1 -13   23.41    2.14
   3  -1 -13   22.92    2.32
  -3   1  13   22.76    2.39
  -3   1  13   25.24    2.14
  -3   1  13   20.91    2.22
   2  -1 -13   33.66    2.88
   2  -1 -13   35.73    3.16
  -2   1  13   39.04    3.25
  -2   1  13   25.95    2.85
  -2   1  13   27.48    2.99
   1  -1 -13   28.66    2.68
   1  -1 -13   26.95    2.85
   1  -1 -13   27.72    2.59
  -1   1  13   27.81    2.59
  -1   1  13   30.71    2.71
  -1   1  13   31.58    2.88
   0  -1 -13   11.81    1.19
   0  -1 -13   11.22    1.20
   0  -1 -13   11.76    1.14
   0  -1 -13    8.82    1.08
   0  -1 -13    9.77    1.09
   0   1  13   11.83    1.14
   0   1  13   10.47    1.08
   0   1  13   13.04    1.17
  -1  -1 -13    1.90    0.43
  -1  -1 -13    3.37    0.46
  -1  -1 -13    3.31    0.50
  -1  -1 -13    3.04    0.41
  -1  -1 -13    2.52    0.41
   1   1  13    2.81    0.42
   1   1  13    2.89    0.42
   1   1  13    2.95    0.36
  -2  -1 -13    4.63    0.72
  -2  -1 -13    6.19    0.60
  -2  -1 -13    5.62    0.65
  -2  -1 -13    6.43    0.78
   2   1  13    6.26    0.66
  -3  -1 -13   30.94    3.06
  -3  -1 -13   34.55    2.79
  -3  -1 -13   35.16    2.98
  -3  -1 -13   32.73    3.29
  -3  -1 -13   35.55    3.26
   3   1  13   33.35    2.97
  -4  -1 -13   34.08    2.88
  -4  -1 -13   31.47    3.16
  -4  -1 -13   32.84    2.98
  -4  -1 -13   31.67    3.19
  -5  -1 -13   12.84    1.42
  -5  -1 -13   18.34    1.66
  -5  -1 -13   12.56    1.53
  -5  -1 -13   16.08    1.40
  -6  -1 -13    0.52    0.32
  -6  -1 -13    0.21    0.33
  -6  -1 -13    0.61    0.21
  -6  -1 -13    0.58    0.21
  -4   2  13   28.06    2.86
  -4   2  13   26.26    2.49
   3  -2 -13   32.48    3.19
   3  -2 -13   33.35    3.51
  -3   2  13   33.59    3.61
  -3   2  13   38.07    3.36
  -3   2  13   42.39    3.25
   2  -2 -13    5.28    0.77
   2  -2 -13    4.99    0.67
  -2   2  13    6.26    0.76
  -2   2  13    4.62    0.68
  -2   2  13    5.94    0.67
   1  -2 -13   12.46    1.31
   1  -2 -13   14.01    1.33
   1  -2 -13   13.01    1.42
  -1   2  13   13.20    1.38
  -1   2  13   15.38    1.34
   0  -2 -13   52.97    4.97
   0  -2 -13   53.06    4.96
   0  -2 -13   54.31    4.72
   0  -2 -13   49.15    4.52
   0  -2 -13   55.59    4.84
   0   2  13   44.02    4.70
   0   2  13   48.40    4.53
   0   2  13   59.38    5.04
  -1  -2 -13   47.28    5.29
  -1  -2 -13   59.31    5.06
  -1  -2 -13   58.15    5.21
  -1  -2 -13   58.00    4.87
   1   2  13   60.64    5.06
   1   2  13   52.28    5.36
   1   2  13   57.89    4.86
  -2  -2 -13   13.34    1.30
  -2  -2 -13   10.55    1.21
  -2  -2 -13   12.38    1.27
  -2  -2 -13   10.58    1.14
  -2  -2 -13   11.69    1.19
   2   2  13   12.24    1.14
   2   2  13   11.19    1.15
  -3  -2 -13    6.34    0.65
  -3  -2 -13    5.77    0.68
  -3  -2 -13    4.18    0.58
  -3  -2 -13    4.47    0.63
  -3  -2 -13    4.47    0.69
   3   2  13    4.56    0.56
  -4  -2 -13   12.90    1.41
  -4  -2 -13   16.45    1.59
  -4  -2 -13   16.73    1.65
  -5  -2 -13   16.80    1.78
  -5  -2 -13   20.98    1.89
  -5  -2 -13   14.97    1.57
  -6  -2 -13    2.72    0.38
  -6  -2 -13    3.44    0.62
  -6  -2 -13    2.88    0.53
   3  -3 -13    5.73    0.83
  -3   3  13    6.46    0.89
  -3   3  13    6.65    0.75
  -3   3  13    5.86    0.74
   2  -3 -13   20.43    2.22
   2  -3 -13   21.60    2.03
  -2   3  13   23.05    2.27
  -2   3  13   18.97    2.00
  -2   3  13   23.97    2.14
   1  -3 -13   13.82    1.62
   1  -3 -13   14.63    1.50
   1  -3 -13   15.28    1.50
  -1   3  13   15.92    1.64
  -1   3  13   17.55    1.51
  -1   3  13   15.10    1.54
   0  -3 -13   24.47    2.45
   0  -3 -13   23.04    2.60
   0  -3 -13   28.64    2.41
   0  -3 -13   27.98    2.52
   0  -3 -13   25.97    2.60
   0   3  13   24.44    2.62
   0   3  13   29.20    2.39
  -1  -3 -13    2.13    0.40
  -1  -3 -13    2.32    0.44
  -1  -3 -13    3.31    0.54
  -1  -3 -13    3.03    0.45
  -1  -3 -13    2.44    0.41
   1   3  13    2.20    0.37
   1   3  13    2.81    0.42
  -2  -3 -13   14.41    1.44
  -2  -3 -13   11.06    1.34
  -2  -3 -13   12.08    1.31
  -2  -3 -13   13.73    1.38
  -2  -3 -13   15.53    1.30
   2   3  13   11.75    1.32
   2   3  13   14.22    1.28
  -3  -3 -13   17.43    1.81
  -3  -3 -13   19.84    1.84
  -3  -3 -13   18.02    1.65
  -3  -3 -13   18.12    1.87
  -3  -3 -13   16.95    1.72
   3   3  13   16.39    1.63
  -4  -3 -13   42.14    3.79
  -4  -3 -13   44.16    3.45
  -4  -3 -13   40.61    3.82
  -4  -3 -13   33.72    3.58
  -4  -3 -13   36.18    3.84
  -5  -3 -13   13.08    1.28
  -5  -3 -13   13.62    1.38
  -5  -3 -13   15.18    1.48
  -5  -3 -13   13.43    1.52
  -5  -3 -13   13.13    1.54
  -6  -3 -13    0.04    0.25
  -6  -3 -13    0.13    0.26
  -6  -3 -13    0.82    0.34
  -6  -3 -13    0.78    0.24
  -3   4  13   22.58    2.15
  -3   4  13   21.20    2.38
   2  -4 -13    6.46    0.83
   2  -4 -13    4.84    0.69
  -2   4  13    5.70    0.73
  -2   4  13    4.89    0.76
   1  -4 -13    9.30    1.14
   1  -4 -13    8.88    1.02
  -1   4  13    9.37    1.14
  -1   4  13   11.66    1.10
   0  -4 -13   17.81    1.91
   0  -4 -13   18.32    2.02
   0  -4 -13   24.80    2.02
   0  -4 -13   23.54    2.17
   0   4  13   16.86    2.09
   0   4  13   24.36    1.96
  -1  -4 -13   29.31    2.81
  -1  -4 -13   29.62    3.03
  -1  -4 -13   33.66    2.92
  -1  -4 -13   31.11    3.00
  -1  -4 -13   32.09    3.10
   1   4  13   31.48    3.10
   1   4  13   31.36    2.79
  -2  -4 -13   20.03    2.09
  -2  -4 -13   21.67    2.09
  -2  -4 -13   20.38    1.95
  -2  -4 -13   22.28    2.17
  -2  -4 -13   20.39    2.01
   2   4  13   21.16    1.92
  -3  -4 -13    3.29    0.50
  -3  -4 -13    2.89    0.57
  -3  -4 -13    3.49    0.59
  -3  -4 -13    3.38    0.52
  -3  -4 -13    4.10    0.53
  -4  -4 -13    3.81    0.55
  -4  -4 -13    4.74    0.76
  -4  -4 -13    4.08    0.64
  -4  -4 -13    4.32    0.71
  -4  -4 -13    4.60    0.55
  -5  -4 -13    9.48    0.98
  -5  -4 -13    9.89    1.13
  -5  -4 -13   11.02    1.24
  -5  -4 -13   10.42    1.27
  -5  -4 -13   10.13    1.06
  -6  -4 -13    8.28    1.06
  -6  -4 -13    7.54    1.00
  -6  -4 -13    6.89    0.78
   2  -5 -13    7.11    1.12
   2  -5 -13    7.53    0.89
  -2   5  13    7.16    1.00
  -2   5  13    6.63    0.91
   1  -5 -13   49.79    4.34
   1  -5 -13   44.94    3.88
  -1   5  13   38.83    4.33
  -1   5  13   41.69    3.89
   0  -5 -13   32.29    3.19
   0  -5 -13   32.01    2.86
   0  -5 -13   30.86    3.05
   0   5  13   30.89    3.20
   0   5  13   32.11    2.88
  -1  -5 -13    3.81    0.58
  -1  -5 -13    3.64    0.61
  -1  -5 -13    4.27    0.71
  -1  -5 -13    3.92    0.56
   1   5  13    3.78    0.53
   1   5  13    3.93    0.60
  -2  -5 -13   11.61    1.22
  -2  -5 -13   11.94    1.39
  -2  -5 -13   12.37    1.27
   2   5  13   13.46    1.25
   2   5  13   11.55    1.32
  -3  -5 -13   27.99    2.83
  -3  -5 -13   32.93    3.12
  -3  -5 -13   34.97    3.20
  -3  -5 -13   31.98    2.96
  -4  -5 -13   28.13    2.55
  -4  -5 -13   26.62    2.88
  -4  -5 -13   30.64    2.68
  -5  -5 -13    2.96    0.41
  -5  -5 -13    3.42    0.68
  -5  -5 -13    3.05    0.64
  -5  -5 -13    2.78    0.47
   0  -6 -13    4.05    0.62
   0  -6 -13    5.54    0.71
   0  -6 -13    3.60    0.60
   0   6  13    4.17    0.65
   0   6  13    3.16    0.63
  -1  -6 -13    0.77    0.29
  -1  -6 -13    0.70    0.28
  -1  -6 -13    0.82    0.33
   1   6  13    0.99    0.33
   1   6  13    1.00    0.33
  -2  -6 -13   24.54    2.54
  -2  -6 -13   23.62    2.46
  -2  -6 -13   24.91    2.25
  -2  -6 -13   26.75    2.38
   2   6  13   22.41    2.48
  -3  -6 -13    9.91    1.17
  -3  -6 -13    7.56    1.06
  -3  -6 -13   10.30    1.06
  -3  -6 -13    9.61    0.98
  -4  -6 -13    1.27    0.35
  -4  -6 -13    0.95    0.28
  -4  -6 -13    1.28    0.28
  -4  -6 -13    1.38    0.44
  -5  -6 -13    1.90    0.51
  -5  -6 -13    1.48    0.33
  -5  -6 -13    1.87    0.50
  -5  -6 -13    1.57    0.31
   3   6 -14    6.04    0.76
  -3  -6  14    5.95    0.81
  -3  -6  14    7.53    0.85
   2   6 -14   11.88    1.28
  -2  -6  14   13.24    1.33
  -2  -6  14   13.37    1.37
   1   6 -14    2.15    0.44
   1   6 -14    2.14    0.49
  -1  -6  14    2.13    0.44
   0   6 -14   10.38    1.28
   0   6 -14   13.65    1.23
   0  -6  14   12.43    1.27
  -1   6 -14    0.86    0.31
  -1   6 -14    0.26    0.27
   1  -6  14    0.50    0.29
   4   5 -14   13.06    1.33
  -4  -5  14   13.53    1.58
  -4  -5  14   13.05    1.33
  -4  -5  14   12.66    1.40
   3   5 -14   22.49    2.22
  -3  -5  14   24.01    2.30
  -3  -5  14   27.39    2.40
   2   5 -14   14.39    1.50
   2   5 -14   13.44    1.40
   2   5 -14   16.53    1.61
  -2  -5  14   15.17    1.51
  -2  -5  14   13.82    1.46
   1   5 -14    0.29    0.32
   1   5 -14    0.72    0.32
   1   5 -14    1.08    0.26
  -1  -5  14    0.91    0.29
  -1  -5  14    0.88    0.29
   0   5 -14   17.56    1.96
   0   5 -14   18.77    1.72
   0   5 -14   20.42    1.87
   0  -5  14   19.18    1.80
  -1   5 -14   21.41    1.88
  -1   5 -14   19.07    2.00
  -1   5 -14   20.12    2.17
   1  -5  14   22.78    1.98
  -2   5 -14    7.12    0.83
  -2   5 -14    7.44    0.96
  -2   5 -14    8.55    0.95
   2  -5  14    7.27    0.89
   4   4 -14    0.31    0.25
  -4  -4  14    0.16    0.23
  -4  -4  14    0.16    0.22
  -4  -4  14    0.33    0.29
   3   4 -14    0.99    0.29
  -3  -4  14    0.94    0.33
  -3  -4  14    0.73    0.33
  -3  -4  14    1.06    0.33
   2   4 -14   12.43    1.28
   2   4 -14   11.22    1.15
   2   4 -14   10.30    1.13
  -2  -4  14   11.38    1.19
  -2  -4  14   10.12    1.12
   1   4 -14   19.06    1.86
   1   4 -14   19.49    1.77
   1   4 -14   19.38    1.97
  -1  -4  14   19.25    1.82
   0   4 -14   30.06    3.10
   0   4 -14   31.86    2.73
   0  -4  14   32.00    2.85
   0  -4  14   32.79    2.99
  -1   4 -14    8.74    1.15
  -1   4 -14   10.58    1.01
  -1   4 -14   11.06    1.12
   1  -4  14   10.21    1.05
  -2   4 -14    1.56    0.35
  -2   4 -14    2.11    0.42
  -2   4 -14    1.94    0.44
  -2   4 -14    1.96    0.40
   2  -4  14    2.09    0.39
  -3   4 -14   15.74    1.75
  -3   4 -14   20.18    1.88
  -3   4 -14   18.41    1.91
  -3   4 -14   17.10    1.63
  -3   4 -14   18.50    1.87
  -5  -3  14   11.35    1.29
  -5  -3  14   14.15    1.50
  -5  -3  14   11.44    1.23
   4   3 -14   35.20    3.13
  -4  -3  14   36.84    3.25
  -4  -3  14   37.44    3.40
  -4  -3  14   36.28    3.71
   3   3 -14   30.62    2.48
  -3  -3  14   25.58    2.65
  -3  -3  14   30.11    2.57
  -3  -3  14   26.68    2.88
   2   3 -14   20.35    1.98
   2   3 -14   22.93    2.20
   2   3 -14   21.59    1.92
  -2  -3  14   19.98    1.98
  -2  -3  14   23.32    2.23
  -2  -3  14   20.34    2.07
   1   3 -14   -0.28    0.18
   1   3 -14    0.11    0.17
   1   3 -14    0.13    0.20
  -1  -3  14    0.26    0.16
  -1  -3  14   -0.15    0.19
  -1  -3  14   -0.09    0.15
   0   3 -14   40.68    3.60
   0   3 -14   41.62    3.44
   0   3 -14   37.55    3.89
   0  -3  14   41.80    3.57
   0  -3  14   40.72    3.70
  -1   3 -14   26.52    2.72
  -1   3 -14   29.08    2.59
  -1   3 -14   27.95    2.43
  -1   3 -14   32.31    2.67
  -1   3 -14   24.30    2.77
   1  -3  14   29.47    2.55
  -2   3 -14   19.56    2.05
  -2   3 -14   22.25    2.11
  -2   3 -14   18.35    1.97
  -2   3 -14   20.79    1.96
  -2   3 -14   22.86    1.83
   2  -3  14   19.89    1.90
  -3   3 -14    5.56    0.75
  -3   3 -14    5.30    0.79
  -3   3 -14    5.84    0.66
  -3   3 -14    6.00    0.71
  -3   3 -14    6.23    0.82
   3  -3  14    5.85    0.71
  -4   3 -14    2.69    0.57
  -4   3 -14    2.95    0.56
  -4   3 -14    4.36    0.58
  -4   3 -14    3.41    0.62
  -5  -2  14   19.05    1.95
  -5  -2  14   19.85    2.28
  -5  -2  14   24.53    2.11
  -4  -2  14   16.79    1.91
  -4  -2  14   18.12    1.74
  -4  -2  14   17.36    1.67
   3   2 -14    6.99    0.78
  -3  -2  14    6.77    0.91
  -3  -2  14    8.78    0.86
  -3  -2  14    7.51    0.88
   2   2 -14    6.01    0.87
   2   2 -14    6.44    0.75
   2   2 -14    7.16    0.76
  -2  -2  14    6.74    0.87
  -2  -2  14    8.40    0.87
  -2  -2  14    7.10    0.78
   1   2 -14   49.11    4.60
   1   2 -14   56.42    5.26
   1   2 -14   62.11    5.19
   1   2 -14   56.05    4.82
  -1  -2  14   57.36    4.82
  -1  -2  14   52.01    5.00
  -1  -2  14   54.24    5.35
   0   2 -14   98.53    8.48
   0   2 -14   97.36    7.49
   0   2 -14   87.41    7.80
   0   2 -14   99.07    8.53
   0   2 -14   80.05    8.07
   0  -2  14   95.23    7.81
   0  -2  14   86.20    8.10
   0  -2  14   85.90    8.66
  -1   2 -14   10.84    1.22
  -1   2 -14   13.20    1.28
  -1   2 -14   12.02    1.34
  -1   2 -14   11.71    1.14
  -1   2 -14   12.63    1.23
   1  -2  14   12.46    1.21
  -2   2 -14    0.74    0.27
  -2   2 -14    0.67    0.21
  -2   2 -14    0.71    0.26
  -2   2 -14    0.88    0.25
  -2   2 -14    0.72    0.28
   2  -2  14    0.54    0.22
  -3   2 -14   17.19    1.61
  -3   2 -14   16.08    1.44
  -3   2 -14   16.52    1.70
  -3   2 -14   13.39    1.53
  -3   2 -14   17.06    1.69
   3  -2  14   15.87    1.52
  -4   2 -14   29.97    2.83
  -4   2 -14   23.69    2.63
  -4   2 -14   33.60    2.86
  -4   2 -14   26.40    2.58
  -5   2 -14   11.28    1.28
  -5   2 -14   13.51    1.32
  -5   2 -14   12.34    1.42
  -5   2 -14   13.65    1.50
  -5  -1  14    1.29    0.37
  -5  -1  14    0.81    0.30
  -5  -1  14    1.17    0.36
  -4  -1  14   13.08    1.59
  -4  -1  14   13.34    1.39
  -4  -1  14   16.10    1.50
   3   1 -14   25.01    2.76
   3   1 -14   29.52    2.62
  -3  -1  14   31.73    2.94
  -3  -1  14   28.35    2.59
  -3  -1  14   29.89    2.71
   2   1 -14   13.03    1.27
   2   1 -14   11.77    1.43
   2   1 -14   12.90    1.22
  -2  -1  14   13.86    1.29
  -2  -1  14   13.10    1.41
  -2  -1  14   12.97    1.33
   1   1 -14    5.25    0.63
   1   1 -14    5.32    0.73
   1   1 -14    4.90    0.63
   1   1 -14    5.47    0.61
  -1  -1  14    5.02    0.65
  -1  -1  14    4.73    0.62
  -1  -1  14    5.72    0.67
   0   1 -14    2.12    0.43
   0   1 -14    2.59    0.41
   0   1 -14    1.96    0.38
   0   1 -14    1.99    0.36
   0   1 -14    2.07    0.37
   0  -1  14    1.77    0.38
   0  -1  14    1.84    0.36
   0  -1  14    2.45    0.35
  -1   1 -14   12.10    1.26
  -1   1 -14   15.15    1.28
  -1   1 -14   12.37    1.37
  -1   1 -14   11.42    1.31
  -1   1 -14   11.03    1.15
   1  -1  14   13.98    1.30
   1  -1  14   14.46    1.26
   1  -1  14   10.17    1.20
  -2   1 -14   33.96    3.04
  -2   1 -14   33.85    3.30
  -2   1 -14   33.35    2.87
  -2   1 -14   34.54    3.31
   2  -1  14   34.72    3.03
  -3   1 -14   32.93    3.15
  -3   1 -14   38.61    3.18
  -3   1 -14   33.82    2.91
  -3   1 -14   30.51    2.98
  -3   1 -14   30.16    2.71
   3  -1  14   28.56    2.85
  -4   1 -14    8.62    0.99
  -4   1 -14    7.13    0.94
  -4   1 -14    8.32    0.90
  -4   1 -14    6.80    0.85
  -5   1 -14    0.38    0.24
  -5   1 -14    0.47    0.23
  -5   1 -14    0.05    0.23
  -5   1 -14   -0.07    0.17
  -4   0  14   26.65    2.91
  -4   0  14   29.19    2.72
  -4   0  14   28.65    2.57
   3   0 -14    1.01    0.30
   3   0 -14    1.06    0.29
  -3   0  14    0.94    0.28
  -3   0  14    0.82    0.27
  -3   0  14    1.01    0.30
   2   0 -14    4.37    0.67
   2   0 -14    6.39    0.70
  -2   0  14    6.42    0.75
  -2   0  14    5.51    0.70
  -2   0  14    6.99    0.78
   1   0 -14   75.80    6.30
   1   0 -14   60.73    6.83
   1   0 -14   78.67    6.91
   1   0 -14   75.98    6.03
  -1   0  14   74.27    7.02
  -1   0  14   74.86    6.29
   0   0 -14   74.69    6.59
   0   0 -14   68.86    6.77
   0   0 -14   80.01    6.92
   0   0 -14   77.46    6.93
   0   0 -14   76.27    6.35
   0   0 -14   68.87    6.06
   0   0  14   69.54    6.34
   0   0  14   82.18    6.61
   0   0  14   68.52    7.04
  -1   0 -14   29.50    2.80
  -1   0 -14   24.69    2.52
  -1   0 -14   27.34    2.62
  -1   0 -14   26.70    2.40
  -1   0 -14   27.36    2.77
   1   0  14   33.34    2.74
   1   0  14   29.96    2.65
   1   0  14   27.32    2.54
  -2   0 -14   47.44    4.77
  -2   0 -14   54.28    4.15
  -2   0 -14   45.30    4.76
  -2   0 -14   50.45    4.52
   2   0  14   52.96    4.36
  -3   0 -14    9.23    0.95
  -3   0 -14    7.60    0.94
  -3   0 -14    8.74    1.04
  -3   0 -14   10.65    1.09
  -3   0 -14    9.00    0.85
   3   0  14    9.39    0.94
  -4   0 -14    7.99    0.91
  -4   0 -14    9.63    1.06
  -4   0 -14    8.43    1.04
  -4   0 -14    9.08    0.96
  -5   0 -14    4.82    0.68
  -5   0 -14    5.32    0.79
  -5   0 -14    4.47    0.58
  -5   0 -14    5.15    0.62
  -4   1  14    4.30    0.66
  -4   1  14    3.88    0.59
  -4   1  14    3.15    0.60
   3  -1 -14   14.64    1.61
   3  -1 -14   14.79    1.49
  -3   1  14   13.96    1.56
  -3   1  14   17.34    1.70
  -3   1  14   14.88    1.48
   2  -1 -14   30.93    2.70
   2  -1 -14   31.68    2.94
  -2   1  14   29.48    2.82
  -2   1  14   27.04    2.68
   1  -1 -14   20.65    1.83
   1  -1 -14   20.28    2.01
   1  -1 -14   16.17    1.93
  -1   1  14   18.01    1.96
  -1   1  14   21.19    1.83
  -1   1  14   20.72    1.90
   0  -1 -14    0.56    0.23
   0  -1 -14    0.92    0.30
   0  -1 -14    0.81    0.20
   0  -1 -14    0.70    0.25
   0  -1 -14    0.82    0.28
   0   1  14    0.77    0.21
   0   1  14    0.68    0.25
   0   1  14    1.48    0.30
  -1  -1 -14   12.92    1.34
  -1  -1 -14   15.88    1.33
  -1  -1 -14   11.78    1.40
  -1  -1 -14   13.17    1.34
  -1  -1 -14   10.76    1.38
   1   1  14   14.34    1.30
   1   1  14   14.38    1.36
   1   1  14   14.12    1.34
  -2  -1 -14   42.05    4.20
  -2  -1 -14   46.00    3.64
  -2  -1 -14   42.49    3.83
   2   1  14   44.68    3.84
  -3  -1 -14   57.26    5.10
  -3  -1 -14   54.58    5.42
  -3  -1 -14   58.26    4.92
  -3  -1 -14   62.48    4.67
  -3  -1 -14   52.11    5.37
   3   1  14   55.93    4.91
  -4  -1 -14    6.05    0.69
  -4  -1 -14    5.91    0.71
  -4  -1 -14    6.11    0.80
  -4  -1 -14    6.41    0.86
  -5  -1 -14    0.93    0.25
  -5  -1 -14    0.98    0.33
  -5  -1 -14    1.18    0.29
  -5  -1 -14    1.20    0.36
  -6  -1 -14   18.48    1.86
  -6  -1 -14   22.46    2.15
  -6  -1 -14   19.88    1.79
  -6  -1 -14   17.62    2.01
  -4   2  14   25.65    2.42
  -4   2  14   23.03    2.22
  -4   2  14   17.75    2.03
   3  -2 -14    1.35    0.37
  -3   2  14    1.78    0.39
  -3   2  14    2.05    0.43
  -3   2  14    2.16    0.45
   2  -2 -14    3.14    0.54
   2  -2 -14    3.32    0.61
  -2   2  14    2.88    0.49
  -2   2  14    4.26    0.58
  -2   2  14    3.14    0.57
   1  -2 -14   29.34    2.70
   1  -2 -14   30.22    2.94
  -1   2  14   28.03    2.81
  -1   2  14   33.80    3.01
  -1   2  14   27.69    2.69
   0  -2 -14   55.21    4.93
   0  -2 -14   63.11    5.21
   0  -2 -14   46.91    4.71
   0  -2 -14   64.75    5.22
   0  -2 -14   51.93    5.03
   0   2  14   44.98    4.90
   0   2  14   62.88    5.26
   0   2  14   46.74    4.72
  -1  -2 -14   20.86    1.89
  -1  -2 -14   18.89    1.73
  -1  -2 -14   17.37    1.78
   1   2  14   16.92    1.83
   1   2  14   18.34    1.72
  -2  -2 -14    2.76    0.50
  -2  -2 -14    1.70    0.37
  -2  -2 -14    2.14    0.39
  -2  -2 -14    2.50    0.41
  -2  -2 -14    1.82    0.44
   2   2  14    2.05    0.37
  -3  -2 -14    2.15    0.37
  -3  -2 -14    2.14    0.38
  -3  -2 -14    2.08    0.48
  -3  -2 -14    2.11    0.43
  -3  -2 -14    1.83    0.41
   3   2  14    1.99    0.35
  -4  -2 -14    6.64    0.85
  -4  -2 -14    7.21    0.86
  -4  -2 -14    6.23    0.74
  -4  -2 -14    7.15    0.79
  -4  -2 -14    6.51    0.90
  -5  -2 -14   18.34    1.65
  -5  -2 -14   18.41    1.84
  -5  -2 -14   15.94    1.87
  -6  -2 -14   12.24    1.26
  -6  -2 -14    7.88    0.92
  -6  -2 -14   10.80    1.18
  -3   3  14   11.94    1.23
  -3   3  14   11.33    1.24
   2  -3 -14   47.38    4.64
   2  -3 -14   45.22    5.07
  -2   3  14   60.71    4.69
  -2   3  14   62.60    5.24
  -2   3  14   49.48    4.83
   1  -3 -14   35.65    3.15
   1  -3 -14   33.93    3.42
  -1   3  14   37.61    3.13
  -1   3  14   32.40    3.45
   0  -3 -14    3.27    0.45
   0  -3 -14    3.14    0.55
   0  -3 -14    2.57    0.51
   0  -3 -14    2.53    0.47
   0  -3 -14    2.90    0.48
   0   3  14    2.98    0.47
   0   3  14    2.66    0.46
  -1  -3 -14   13.08    1.33
  -1  -3 -14   11.54    1.19
  -1  -3 -14   13.74    1.25
  -1  -3 -14    9.48    1.19
  -1  -3 -14   12.76    1.30
   1   3  14   10.51    1.24
   1   3  14   12.14    1.19
  -2  -3 -14   77.23    6.37
  -2  -3 -14   76.87    6.42
  -2  -3 -14   66.24    5.88
  -2  -3 -14   59.40    6.10
   2   3  14   61.42    5.87
  -3  -3 -14   32.29    3.20
  -3  -3 -14   32.33    3.05
  -3  -3 -14   35.14    3.28
  -3  -3 -14   31.98    2.92
  -4  -3 -14    3.86    0.55
  -4  -3 -14    5.36    0.77
  -4  -3 -14    4.77    0.65
  -4  -3 -14    5.10    0.70
  -4  -3 -14    4.15    0.59
  -5  -3 -14    0.90    0.29
  -5  -3 -14    1.89    0.37
  -5  -3 -14    1.94    0.44
  -5  -3 -14    1.71    0.38
  -5  -3 -14    2.14    0.50
  -6  -3 -14    2.31    0.59
  -6  -3 -14    3.56    0.69
  -6  -3 -14    3.32    0.55
  -6  -3 -14    2.64    0.46
   2  -4 -14    0.86    0.28
   2  -4 -14    0.64    0.26
  -2   4  14    0.53    0.26
  -2   4  14    0.56    0.26
   1  -4 -14    5.67    0.71
   1  -4 -14    5.27    0.77
  -1   4  14    5.93    0.78
  -1   4  14    5.29    0.73
   0  -4 -14    6.34    0.78
   0  -4 -14    7.32    0.83
   0  -4 -14    7.26    0.94
   0   4  14    7.09    0.83
   0   4  14    5.93    0.82
  -1  -4 -14   23.82    2.26
  -1  -4 -14   23.71    2.39
  -1  -4 -14   27.68    2.52
  -1  -4 -14   25.18    2.34
  -1  -4 -14   24.14    2.43
   1   4  14   23.07    2.46
   1   4  14   23.54    2.23
  -2  -4 -14   13.59    1.32
  -2  -4 -14   11.91    1.32
  -2  -4 -14   11.74    1.28
  -2  -4 -14   11.52    1.24
  -2  -4 -14   13.85    1.41
   2   4  14   11.18    1.20
  -3  -4 -14    1.28    0.35
  -3  -4 -14    1.76    0.41
  -3  -4 -14    1.66    0.43
  -3  -4 -14    1.54    0.36
  -3  -4 -14    1.69    0.35
  -4  -4 -14    0.32    0.24
  -4  -4 -14    0.89    0.26
  -4  -4 -14   -0.02    0.18
  -4  -4 -14    0.54    0.26
  -4  -4 -14    0.17    0.27
  -5  -4 -14   14.76    1.85
  -5  -4 -14   17.32    1.88
  -5  -4 -14   18.25    1.72
  -5  -4 -14   18.37    1.62
  -5  -4 -14   17.81    1.81
   1  -5 -14   17.78    2.06
   1  -5 -14   18.86    1.84
  -1   5  14   19.92    1.88
  -1   5  14   18.89    2.06
   0  -5 -14    0.80    0.29
   0  -5 -14    0.62    0.38
   0  -5 -14    0.54    0.26
   0   5  14    0.62    0.32
   0   5  14    1.16    0.31
  -1  -5 -14    4.83    0.75
  -1  -5 -14    5.10    0.69
  -1  -5 -14    4.42    0.65
  -1  -5 -14    5.13    0.65
   1   5  14    4.96    0.69
   1   5  14    4.45    0.68
  -2  -5 -14   14.40    1.61
  -2  -5 -14   17.68    1.83
  -2  -5 -14   18.14    1.71
   2   5  14   17.19    1.77
   2   5  14   17.05    1.63
  -3  -5 -14   17.00    1.64
  -3  -5 -14   14.18    1.42
  -3  -5 -14   13.64    1.55
  -3  -5 -14   13.32    1.46
  -4  -5 -14    3.19    0.60
  -4  -5 -14    2.87    0.43
  -4  -5 -14    1.83    0.44
  -4  -5 -14    2.57    0.47
  -5  -5 -14    0.44    0.18
  -5  -5 -14   -0.13    0.29
  -5  -5 -14   -0.19    0.21
  -5  -5 -14    0.39    0.23
   0  -6 -14   30.46    2.82
   0   6  14   30.74    2.85
  -1  -6 -14   11.48    1.36
  -1  -6 -14   10.38    1.27
  -1  -6 -14   12.58    1.23
   1   6  14   10.91    1.33
   1   6  14   12.00    1.22
  -2  -6 -14   18.20    1.82
  -2  -6 -14   17.12    1.67
  -2  -6 -14   16.04    1.58
  -2  -6 -14   16.69    1.74
   2   6  14   13.39    1.70
  -3  -6 -14    0.83    0.27
  -3  -6 -14    0.32    0.23
  -3  -6 -14    0.94    0.30
  -3  -6 -14    1.04    0.35
  -4  -6 -14    6.67    0.82
  -4  -6 -14    7.34    0.95
  -4  -6 -14    6.06    0.74
  -4  -6 -14    5.82    0.84
   2   6 -15   35.93    3.20
  -2  -6  15   38.12    3.31
  -2  -6  15   34.86    3.40
   1   6 -15    9.11    1.09
   1   6 -15    8.68    0.95
  -1  -6  15    8.41    0.98
   0   6 -15    2.53    0.51
   0   6 -15    2.64    0.46
   0  -6  15    1.36    0.39
   3   5 -15    3.25    0.56
  -3  -5  15    4.11    0.67
  -3  -5  15    4.12    0.70
  -3  -5  15    4.90    0.65
   2   5 -15    0.75    0.25
   2   5 -15    0.60    0.25
  -2  -5  15    0.29    0.29
  -2  -5  15    0.02    0.26
   1   5 -15    9.68    1.15
   1   5 -15   10.66    1.11
   1   5 -15   10.85    1.23
  -1  -5  15   11.48    1.24
  -1  -5  15   11.10    1.15
   0   5 -15   12.24    1.56
   0   5 -15   16.39    1.54
   0   5 -15   15.19    1.41
   0  -5  15   15.43    1.47
  -1   5 -15   16.35    1.55
  -1   5 -15   14.75    1.40
  -1   5 -15   13.06    1.62
   1  -5  15   14.33    1.46
  -2   5 -15    6.27    0.81
  -2   5 -15    4.97    0.67
  -2   5 -15    5.25    0.74
   2  -5  15    4.64    0.70
   4   4 -15    1.87    0.44
  -4  -4  15    2.19    0.49
  -4  -4  15    2.46    0.60
  -4  -4  15    2.36    0.42
   3   4 -15    5.91    0.78
  -3  -4  15    5.80    0.80
  -3  -4  15    5.43    0.84
  -3  -4  15    7.27    0.80
   2   4 -15   30.63    2.93
   2   4 -15   31.67    3.20
   2   4 -15   32.44    2.84
  -2  -4  15   36.17    3.29
  -2  -4  15   34.58    2.96
  -2  -4  15   29.15    3.03
   1   4 -15   28.22    2.96
   1   4 -15   33.52    3.14
   1   4 -15   36.00    3.39
  -1  -4  15   37.89    3.14
  -1  -4  15   38.17    3.25
   0   4 -15   11.11    1.22
   0   4 -15   11.05    1.30
   0   4 -15   11.70    1.14
   0  -4  15   12.63    1.21
  -1   4 -15    0.42    0.29
  -1   4 -15    0.50    0.35
  -1   4 -15    0.60    0.27
   1  -4  15    0.56    0.25
  -2   4 -15   21.95    1.98
  -2   4 -15   20.94    2.28
  -2   4 -15   22.44    2.15
   2  -4  15   23.61    2.10
  -3   4 -15   12.89    1.31
  -3   4 -15   14.59    1.57
  -3   4 -15   13.02    1.45
  -3   4 -15   15.50    1.49
   4   3 -15   30.03    2.66
  -4  -3  15   31.41    2.89
  -4  -3  15   30.03    2.75
  -4  -3  15   29.73    3.14
   3   3 -15    5.19    0.67
  -3  -3  15    4.80    0.80
  -3  -3  15    5.47    0.73
  -3  -3  15    4.90    0.66
   2   3 -15    1.96    0.39
   2   3 -15    1.84    0.38
   2   3 -15    1.88    0.45
  -2  -3  15    1.38    0.36
  -2  -3  15    1.55    0.38
  -2  -3  15    1.56    0.35
   1   3 -15   -0.08    0.21
   1   3 -15    0.11    0.20
   1   3 -15   -0.15    0.20
  -1  -3  15    0.19    0.18
  -1  -3  15    0.06    0.21
  -1  -3  15    0.42    0.18
   0   3 -15    6.02    0.77
   0   3 -15    5.19    0.71
   0   3 -15    4.68    0.64
   0  -3  15    5.75    0.69
   0  -3  15    6.66    0.74
   0  -3  15    5.93    0.75
  -1   3 -15   24.59    2.48
  -1   3 -15   24.03    2.39
  -1   3 -15   20.39    2.11
  -1   3 -15   26.69    2.36
  -1   3 -15   25.00    2.29
   1  -3  15   26.01    2.25
  -2   3 -15   17.65    1.63
  -2   3 -15   16.05    1.63
  -2   3 -15   15.83    1.58
  -2   3 -15   15.80    1.45
  -2   3 -15   15.43    1.69
   2  -3  15   14.33    1.52
  -3   3 -15   14.24    1.32
  -3   3 -15   15.98    1.50
  -3   3 -15   12.96    1.44
  -3   3 -15   13.18    1.55
  -3   3 -15   15.02    1.52
   3  -3  15   13.79    1.42
  -4   3 -15    0.42    0.28
  -4   3 -15   -0.56    0.27
  -4   3 -15   -0.17    0.27
  -4  -2  15   -0.17    0.21
  -4  -2  15    0.19    0.23
  -4  -2  15    0.18    0.22
   3   2 -15   11.37    1.16
  -3  -2  15   12.75    1.38
  -3  -2  15   11.58    1.27
  -3  -2  15   12.18    1.23
   2   2 -15   52.91    4.19
   2   2 -15   47.42    4.78
   2   2 -15   52.87    4.36
  -2  -2  15   50.12    4.87
  -2  -2  15   48.63    4.36
  -2  -2  15   46.67    4.52
   1   2 -15   26.83    2.43
   1   2 -15   26.16    2.31
   1   2 -15   26.95    2.64
  -1  -2  15   26.50    2.52
  -1  -2  15   27.98    2.43
  -1  -2  15   25.20    2.65
   0   2 -15   11.26    1.17
   0   2 -15   12.66    1.19
   0   2 -15   11.00    1.09
   0   2 -15   10.44    1.23
   0  -2  15   11.47    1.20
   0  -2  15   11.09    1.15
   0  -2  15   11.03    1.19
  -1   2 -15    2.06    0.41
  -1   2 -15    2.07    0.44
  -1   2 -15    2.24    0.41
  -1   2 -15    1.67    0.32
  -1   2 -15    2.26    0.36
   1  -2  15    2.08    0.38
  -2   2 -15   20.25    2.12
  -2   2 -15   26.10    2.26
  -2   2 -15   18.23    2.22
  -2   2 -15   21.34    2.08
  -2   2 -15   24.90    1.98
   2  -2  15   22.76    2.06
  -3   2 -15   30.12    2.63
  -3   2 -15   33.52    3.05
  -3   2 -15   29.21    2.81
  -3   2 -15   31.43    2.90
  -3   2 -15   31.48    3.05
   3  -2  15   29.21    2.77
  -4   2 -15    4.87    0.68
  -4   2 -15    3.69    0.63
  -4   2 -15    3.78    0.68
  -4   2 -15    5.08    0.68
  -4  -1  15   13.31    1.35
  -4  -1  15   11.31    1.23
  -4  -1  15   11.71    1.41
  -3  -1  15   24.91    2.45
  -3  -1  15   25.38    2.65
  -3  -1  15   26.93    2.37
   2   1 -15   22.74    2.34
   2   1 -15   23.48    2.01
   2   1 -15   24.08    2.10
  -2  -1  15   23.15    2.09
  -2  -1  15   19.97    2.15
  -2  -1  15   22.36    2.32
   1   1 -15    1.44    0.31
   1   1 -15    1.41    0.29
   1   1 -15    1.52    0.37
   1   1 -15    0.83    0.24
  -1  -1  15    1.37    0.32
  -1  -1  15    1.07    0.28
  -1  -1  15    0.83    0.26
   0   1 -15   33.04    2.88
   0   1 -15   29.71    2.70
   0   1 -15   24.15    2.78
   0   1 -15   31.54    2.50
   0  -1  15   23.75    2.68
   0  -1  15   32.93    2.64
   0  -1  15   30.35    2.85
  -1   1 -15   46.37    4.27
  -1   1 -15   47.06    4.49
  -1   1 -15   47.39    3.94
  -1   1 -15   48.53    4.53
  -1   1 -15   43.28    4.12
   1  -1  15   50.63    4.14
  -2   1 -15   34.72    3.17
  -2   1 -15   32.16    3.34
  -2   1 -15   37.44    3.09
  -2   1 -15   35.35    3.34
  -2   1 -15   35.81    2.91
   2  -1  15   30.34    3.03
  -3   1 -15    5.44    0.69
  -3   1 -15    6.08    0.80
  -3   1 -15    5.66    0.70
  -3   1 -15    5.95    0.76
  -3   1 -15    5.64    0.61
   3  -1  15    5.00    0.69
  -4   1 -15    3.68    0.62
  -4   1 -15    2.84    0.49
  -4   1 -15    3.89    0.55
  -4   1 -15    3.16    0.56
  -5   1 -15   24.56    2.27
  -5   1 -15   20.69    2.06
  -5   1 -15   22.20    2.21
  -5   1 -15   17.75    1.96
  -4   0  15    4.67    0.68
  -4   0  15    5.29    0.78
  -4   0  15    4.61    0.75
   3   0 -15   12.53    1.33
  -3   0  15   10.27    1.27
  -3   0  15   14.79    1.44
  -3   0  15   11.74    1.25
   2   0 -15   27.52    2.88
  -2   0  15   34.48    3.03
  -2   0  15   33.55    2.91
  -2   0  15   33.73    3.24
   1   0 -15   28.63    2.58
   1   0 -15   22.88    2.47
  -1   0  15   28.79    2.33
  -1   0  15   26.72    2.41
  -1   0  15   21.42    2.51
   0   0 -15    6.66    0.85
   0   0 -15    6.76    0.77
   0   0 -15    7.75    0.81
   0   0 -15    6.04    0.72
   0   0 -15    6.50    0.81
   0   0 -15    6.56    0.71
   0   0  15    6.91    0.78
   0   0  15    8.30    0.80
   0   0  15    6.38    0.78
  -1   0 -15   38.34    3.31
  -1   0 -15   38.57    3.04
  -1   0 -15   37.43    3.20
  -1   0 -15   34.51    3.48
  -1   0 -15   35.07    3.50
   1   0  15   32.70    3.19
  -2   0 -15    4.48    0.68
  -2   0 -15    4.95    0.53
  -2   0 -15    3.47    0.62
  -2   0 -15    4.56    0.59
   2   0  15    5.03    0.60
  -3   0 -15   12.05    1.35
  -3   0 -15   12.76    1.12
  -3   0 -15   10.70    1.23
  -3   0 -15   11.03    1.33
  -3   0 -15   14.78    1.27
   3   0  15   12.24    1.20
  -4   0 -15   30.78    3.10
  -4   0 -15   27.70    2.89
  -4   0 -15   33.86    3.09
  -4   0 -15   32.83    2.82
  -5   0 -15   10.78    1.20
  -5   0 -15    8.34    1.12
  -5   0 -15    8.77    1.02
  -5   0 -15    9.49    1.01
  -4   1  15   11.42    1.47
  -4   1  15   16.15    1.64
  -4   1  15   13.71    1.41
   3  -1 -15   34.35    3.65
  -3   1  15   38.35    3.36
  -3   1  15   39.33    3.77
  -3   1  15   37.96    3.53
   2  -1 -15   28.58    2.85
   2  -1 -15   29.62    2.63
  -2   1  15   30.26    2.76
  -2   1  15   30.25    2.92
  -2   1  15   25.43    2.61
   1  -1 -15    8.09    0.96
   1  -1 -15    7.38    0.98
   1  -1 -15    7.95    0.89
  -1   1  15    7.32    0.89
  -1   1  15    8.45    0.94
  -1   1  15    8.49    0.95
   0  -1 -15   13.27    1.44
   0  -1 -15   12.36    1.37
   0  -1 -15   16.35    1.37
   0  -1 -15   12.03    1.33
   0  -1 -15   13.22    1.46
   0   1  15   14.96    1.35
   0   1  15   14.82    1.40
   0   1  15   11.97    1.39
  -1  -1 -15  106.42    8.07
  -1  -1 -15   89.07    8.76
  -1  -1 -15   81.69    8.33
   1   1  15   94.54    8.03
   1   1  15   98.57    8.91
  -2  -1 -15   74.14    5.82
  -2  -1 -15   57.27    6.32
  -2  -1 -15   71.28    6.39
   2   1  15   66.75    5.80
  -3  -1 -15    0.86    0.28
  -3  -1 -15    0.99    0.33
  -3  -1 -15    1.33    0.30
  -3  -1 -15    0.95    0.31
   3   1  15    0.97    0.26
  -4  -1 -15    4.03    0.54
  -4  -1 -15    3.42    0.64
  -4  -1 -15    3.51    0.61
  -4  -1 -15    3.96    0.51
  -5  -1 -15    7.43    0.94
  -5  -1 -15    6.75    0.78
  -5  -1 -15    6.08    0.85
  -5  -1 -15    6.64    0.74
   3  -2 -15    0.62    0.26
  -3   2  15   -0.03    0.25
  -3   2  15    0.11    0.25
  -3   2  15    0.14    0.26
   2  -2 -15    4.38    0.68
   2  -2 -15    5.43    0.80
  -2   2  15    4.26    0.72
  -2   2  15    5.98    0.76
  -2   2  15    5.14    0.68
   1  -2 -15   14.46    1.44
   1  -2 -15   12.52    1.32
  -1   2  15   10.98    1.29
  -1   2  15   14.37    1.43
  -1   2  15   12.81    1.38
   0  -2 -15   22.56    2.06
   0  -2 -15   22.83    2.04
   0  -2 -15   19.67    1.92
   0  -2 -15   17.09    1.81
   0  -2 -15   17.86    1.88
   0   2  15   21.35    1.99
   0   2  15   16.47    1.82
  -1  -2 -15   18.39    1.75
  -1  -2 -15   15.69    1.72
  -1  -2 -15   19.32    1.70
  -1  -2 -15   19.00    1.82
  -1  -2 -15   21.04    1.86
   1   2  15   14.20    1.75
   1   2  15   17.52    1.67
  -2  -2 -15    3.57    0.56
  -2  -2 -15    3.31    0.51
  -2  -2 -15    2.01    0.42
  -2  -2 -15    3.58    0.58
  -2  -2 -15    2.35    0.45
   2   2  15    2.92    0.45
  -3  -2 -15    9.75    1.05
  -3  -2 -15    9.76    1.15
  -3  -2 -15   10.24    1.11
  -3  -2 -15    8.64    1.11
  -3  -2 -15   10.06    1.03
  -4  -2 -15   20.44    1.76
  -4  -2 -15   15.51    1.86
  -4  -2 -15   18.10    1.85
  -4  -2 -15   19.43    1.88
  -4  -2 -15   15.13    1.65
  -5  -2 -15   20.54    2.11
  -5  -2 -15   17.39    1.80
  -5  -2 -15   21.48    2.05
  -5  -2 -15   19.17    1.89
   3  -3 -15   23.38    2.47
  -3   3  15   21.61    2.26
  -3   3  15   25.63    2.54
   2  -3 -15   12.72    1.45
   2  -3 -15   13.33    1.59
  -2   3  15   15.57    1.52
  -2   3  15   17.56    1.68
   1  -3 -15    2.08    0.45
   1  -3 -15    1.99    0.43
  -1   3  15    2.13    0.42
  -1   3  15    2.30    0.43
   0  -3 -15   13.25    1.41
   0  -3 -15   11.70    1.26
   0  -3 -15   13.20    1.29
   0  -3 -15   11.65    1.39
   0   3  15   12.63    1.27
   0   3  15   12.02    1.35
  -1  -3 -15   19.04    1.87
  -1  -3 -15   20.29    1.79
  -1  -3 -15   16.36    1.82
  -1  -3 -15   16.80    1.69
   1   3  15   16.42    1.80
   1   3  15   17.25    1.69
  -2  -3 -15   17.81    1.71
  -2  -3 -15   20.75    1.81
  -2  -3 -15   18.92    1.74
  -2  -3 -15   14.92    1.64
  -2  -3 -15   15.24    1.58
   2   3  15   12.91    1.55
  -3  -3 -15   14.82    1.56
  -3  -3 -15   13.24    1.50
  -3  -3 -15   14.34    1.49
  -3  -3 -15   14.71    1.44
  -3  -3 -15   12.45    1.35
  -4  -3 -15    0.37    0.22
  -4  -3 -15    0.44    0.27
  -4  -3 -15    0.53    0.21
  -4  -3 -15    0.39    0.25
  -4  -3 -15    0.13    0.19
  -5  -3 -15    3.36    0.56
  -5  -3 -15    2.64    0.45
  -5  -3 -15    3.50    0.66
  -5  -3 -15    2.47    0.47
  -5  -3 -15    3.73    0.66
   2  -4 -15    0.28    0.20
   2  -4 -15    0.82    0.25
  -2   4  15    0.20    0.27
  -2   4  15    0.58    0.24
   1  -4 -15   22.81    2.51
   1  -4 -15   22.68    2.30
  -1   4  15   23.78    2.30
  -1   4  15   28.70    2.59
   0  -4 -15   41.06    4.37
   0  -4 -15   53.47    4.56
   0  -4 -15   49.50    4.16
   0   4  15   44.78    4.56
   0   4  15   44.83    4.11
  -1  -4 -15   26.68    2.46
  -1  -4 -15   24.81    2.49
  -1  -4 -15   23.78    2.36
  -1  -4 -15   26.16    2.55
   1   4  15   24.93    2.34
   1   4  15   26.33    2.58
  -2  -4 -15    0.14    0.30
  -2  -4 -15   -0.23    0.18
  -2  -4 -15   -0.09    0.16
  -2  -4 -15   -0.07    0.21
  -2  -4 -15    0.43    0.22
   2   4  15   -0.13    0.16
  -3  -4 -15   30.13    2.52
  -3  -4 -15   25.57    2.41
  -3  -4 -15   23.26    2.31
  -3  -4 -15   21.58    2.47
  -4  -4 -15   19.90    2.15
  -4  -4 -15   23.65    2.30
  -4  -4 -15   22.28    2.09
  -4  -4 -15   23.75    2.37
  -4  -4 -15   23.25    2.31
  -5  -4 -15   12.52    1.60
  -5  -4 -15   15.57    1.41
  -5  -4 -15   13.57    1.59
  -5  -4 -15   14.90    1.61
  -5  -4 -15   15.22    1.47
   1  -5 -15    2.51    0.49
   1  -5 -15    2.23    0.62
  -1   5  15    2.57    0.56
  -1   5  15    2.14    0.48
   0  -5 -15    0.01    0.21
   0  -5 -15   -0.46    0.28
   0   5  15   -0.04    0.22
  -1  -5 -15    2.95    0.51
  -1  -5 -15    2.82    0.59
  -1  -5 -15    3.16    0.56
   1   5  15    3.93    0.57
   1   5  15    2.89    0.54
  -2  -5 -15    9.81    1.04
  -2  -5 -15    9.16    1.11
  -2  -5 -15    8.23    1.04
  -2  -5 -15    9.46    1.08
  -3  -5 -15   12.44    1.40
  -3  -5 -15   12.06    1.22
  -3  -5 -15   12.69    1.35
  -3  -5 -15   10.37    1.26
  -4  -5 -15    7.83    0.96
  -4  -5 -15    7.96    0.89
  -4  -5 -15    8.98    1.13
  -4  -5 -15    7.54    1.00
  -5  -5 -15    0.67    0.17
  -5  -5 -15    0.22    0.28
  -5  -5 -15   -0.08    0.24
  -5  -5 -15   -0.29    0.24
  -1  -6 -15   14.30    1.46
  -1  -6 -15   14.24    1.54
  -1  -6 -15   14.27    1.69
   1   6  15   14.36    1.47
   1   6  15   13.60    1.60
  -2  -6 -15    0.43    0.31
  -2  -6 -15   -0.16    0.26
  -2  -6 -15    0.29    0.31
  -2  -6 -15    0.40    0.26
  -3  -6 -15    8.99    1.03
  -3  -6 -15    7.88    0.92
  -3  -6 -15    8.27    1.06
  -3  -6 -15    7.01    0.96
   3   5 -16    3.00    0.56
  -3  -5  16    2.44    0.59
  -3  -5  16    2.27    0.45
  -3  -5  16    2.71    0.47
   2   5 -16   -0.58    0.25
   2   5 -16    0.48    0.26
  -2  -5  16   -0.47    0.24
  -2  -5  16    0.64    0.20
   1   5 -16    7.72    0.98
   1   5 -16    9.62    1.09
   1   5 -16    8.47    1.06
  -1  -5  16    9.80    1.06
   0   5 -16    7.60    0.98
   0   5 -16    9.02    0.91
   0   5 -16    7.17    0.97
   0  -5  16    8.51    0.95
  -1   5 -16   17.95    1.59
  -1   5 -16   16.97    1.83
  -1   5 -16   15.69    1.69
   1  -5  16   15.81    1.64
   3   4 -16   23.71    2.08
  -3  -4  16   21.37    2.39
  -3  -4  16   20.34    2.21
  -3  -4  16   24.97    2.16
   2   4 -16   24.60    2.25
   2   4 -16   18.02    1.92
   2   4 -16   25.69    2.09
  -2  -4  16   19.43    2.01
  -2  -4  16   20.93    2.11
  -2  -4  16   20.39    2.23
   1   4 -16    5.60    0.75
   1   4 -16    4.44    0.64
   1   4 -16    5.84    0.76
  -1  -4  16    5.08    0.75
  -1  -4  16    4.76    0.66
  -1  -4  16    5.21    0.71
   0   4 -16    6.19    0.76
   0   4 -16    5.63    0.79
   0   4 -16    5.33    0.77
   0  -4  16    6.01    0.77
  -1   4 -16   11.25    1.13
  -1   4 -16   11.46    1.23
  -1   4 -16   11.27    1.34
   1  -4  16   11.20    1.19
  -2   4 -16   14.68    1.46
  -2   4 -16   12.81    1.28
   2  -4  16   12.34    1.34
   4   3 -16   32.47    2.88
  -4  -3  16   32.55    3.11
  -4  -3  16   33.74    2.99
   3   3 -16    9.91    1.05
  -3  -3  16    9.44    1.22
  -3  -3  16   10.26    1.11
  -3  -3  16   10.10    1.08
   2   3 -16   -0.24    0.20
   2   3 -16   -0.20    0.23
  -2  -3  16   -0.28    0.21
  -2  -3  16    0.00    0.17
  -2  -3  16   -0.07    0.24
   1   3 -16   17.85    1.74
   1   3 -16   14.58    1.50
   1   3 -16   17.33    1.62
  -1  -3  16   14.87    1.58
  -1  -3  16   15.91    1.66
  -1  -3  16   17.05    1.72
   0   3 -16   32.65    2.78
   0   3 -16   30.80    2.63
   0   3 -16   30.49    2.98
   0  -3  16   26.87    2.72
  -1   3 -16   43.44    3.31
  -1   3 -16   37.12    3.75
  -1   3 -16   31.82    3.42
   1  -3  16   41.23    3.44
  -2   3 -16    3.86    0.59
  -2   3 -16    4.12    0.50
  -2   3 -16    3.01    0.55
  -2   3 -16    3.01    0.54
  -2   3 -16    2.52    0.56
   2  -3  16    2.93    0.51
  -3   3 -16   10.03    1.17
  -3   3 -16   10.76    1.29
  -3   3 -16   11.91    1.25
  -3   3 -16   10.18    1.06
  -3   3 -16   11.47    1.24
  -4  -2  16    1.49    0.38
  -4  -2  16    1.43    0.39
  -4  -2  16    1.32    0.42
   3   2 -16   23.19    2.13
  -3  -2  16   22.04    2.21
  -3  -2  16   25.50    2.51
  -3  -2  16   24.96    2.32
   2   2 -16   26.49    2.46
   2   2 -16   27.48    2.38
   2   2 -16   28.87    2.77
  -2  -2  16   25.43    2.58
  -2  -2  16   27.67    2.49
   1   2 -16    8.99    0.95
   1   2 -16    9.11    1.08
  -1  -2  16    9.71    1.03
  -1  -2  16    9.53    1.00
  -1  -2  16    8.39    1.02
   0   2 -16    4.50    0.62
   0   2 -16    6.13    0.68
   0   2 -16    6.02    0.78
   0   2 -16    5.27    0.68
   0  -2  16    4.38    0.64
  -1   2 -16    1.07    0.32
  -1   2 -16    0.79    0.27
  -1   2 -16    0.66    0.33
  -1   2 -16    0.82    0.30
  -1   2 -16    1.02    0.25
   1  -2  16    0.48    0.28
  -2   2 -16    5.19    0.59
  -2   2 -16    5.04    0.76
  -2   2 -16    4.77    0.69
  -2   2 -16    5.11    0.69
  -2   2 -16    4.73    0.64
   2  -2  16    4.13    0.59
  -3   2 -16   15.95    1.64
  -3   2 -16   14.45    1.58
  -3   2 -16   17.92    1.52
  -3   2 -16   17.21    1.72
  -3   2 -16   15.20    1.73
  -4   2 -16   31.94    2.82
  -4   2 -16   30.89    2.97
  -4   2 -16   26.41    2.92
  -4   2 -16   28.58    2.72
  -4  -1  16   28.99    3.12
  -4  -1  16   30.54    2.78
  -4  -1  16   31.21    2.91
  -3  -1  16   29.88    2.81
  -3  -1  16   27.94    3.02
  -3  -1  16   31.24    2.72
   2   1 -16    0.44    0.25
   2   1 -16    0.54    0.23
   2   1 -16    0.04    0.27
  -2  -1  16    0.24    0.21
  -2  -1  16    0.11    0.27
  -2  -1  16    0.41    0.24
   1   1 -16   17.84    1.56
   1   1 -16   15.74    1.62
   1   1 -16   16.85    1.72
   1   1 -16   18.86    1.84
  -1  -1  16   16.01    1.63
  -1  -1  16   16.49    1.77
  -1  -1  16   18.61    1.72
   0   1 -16   42.70    3.50
   0   1 -16   40.15    3.66
   0   1 -16   48.72    4.03
   0   1 -16   40.67    3.95
   0  -1  16   35.63    3.65
   0  -1  16   39.43    4.02
   0  -1  16   44.69    3.84
  -1   1 -16   42.55    3.73
  -1   1 -16   45.27    4.05
  -1   1 -16   39.26    4.06
  -1   1 -16   40.56    3.84
  -1   1 -16   43.26    3.55
   1  -1  16   41.61    3.72
  -2   1 -16    7.94    1.07
  -2   1 -16    9.70    1.04
  -2   1 -16    8.60    0.98
  -2   1 -16    8.25    0.87
  -2   1 -16   10.95    1.01
   2  -1  16    7.98    0.94
  -3   1 -16    4.81    0.68
  -3   1 -16    3.86    0.61
  -3   1 -16    3.38    0.57
  -3   1 -16    4.07    0.66
  -3   1 -16    3.87    0.54
   3  -1  16    4.54    0.55
  -4   1 -16    8.34    0.98
  -4   1 -16    8.66    0.97
  -4   1 -16    9.49    1.10
  -4   1 -16    8.05    1.05
  -4   0  16   -0.16    0.22
  -4   0  16   -0.38    0.28
  -4   0  16   -0.47    0.23
   3   0 -16    0.40    0.25
  -3   0  16    0.87    0.27
  -3   0  16    0.76    0.27
   2   0 -16   16.77    1.64
   2   0 -16   14.35    1.71
  -2   0  16   15.29    1.78
  -2   0  16   20.97    1.69
  -2   0  16   19.28    1.74
   1   0 -16   37.68    3.49
   1   0 -16   36.90    3.76
   1   0 -16   39.95    3.84
  -1   0  16   47.16    3.53
  -1   0  16   43.50    3.65
  -1   0  16   32.93    3.83
   0   0 -16    2.41    0.49
   0   0 -16    2.86    0.48
   0   0 -16    2.78    0.48
   0   0 -16    2.68    0.42
   0   0 -16    2.58    0.37
   0   0 -16    2.75    0.45
   0   0  16    2.38    0.43
   0   0  16    2.81    0.39
  -1   0 -16    1.65    0.41
  -1   0 -16    1.79    0.39
  -1   0 -16    1.79    0.34
   1   0  16    2.13    0.38
  -2   0 -16    5.33    0.80
  -2   0 -16    6.06    0.86
  -2   0 -16    7.54    0.69
  -2   0 -16    6.66    0.74
  -2   0 -16    6.44    0.76
   2   0  16    6.22    0.74
  -3   0 -16   28.55    2.61
  -3   0 -16   28.25    2.80
  -3   0 -16   24.21    2.75
   3   0  16   30.35    2.54
  -4   0 -16   24.12    2.71
  -4   0 -16   30.60    2.93
  -4   0 -16   34.66    3.01
  -5   0 -16    0.17    0.20
  -5   0 -16   -0.18    0.22
  -5   0 -16    0.34    0.27
   3  -1 -16   16.74    1.85
  -3   1  16   16.79    1.71
  -3   1  16   18.99    1.82
   2  -1 -16    0.26    0.32
   2  -1 -16    0.12    0.24
  -2   1  16    0.39    0.24
  -2   1  16    0.35    0.26
  -2   1  16    0.68    0.23
   1  -1 -16   12.65    1.31
   1  -1 -16   13.61    1.42
   1  -1 -16   11.59    1.44
  -1   1  16   13.45    1.40
  -1   1  16   12.70    1.37
  -1   1  16   13.32    1.33
   0  -1 -16   24.97    2.51
   0  -1 -16   23.90    2.33
   0  -1 -16   23.65    2.54
   0   1  16   28.94    2.54
   0   1  16   24.66    2.32
  -1  -1 -16    5.57    0.73
  -1  -1 -16    4.94    0.65
  -1  -1 -16    4.72    0.70
  -1  -1 -16    4.21    0.60
  -1  -1 -16    4.66    0.59
   1   1  16    5.31    0.64
  -2  -1 -16   19.74    1.93
  -2  -1 -16   20.37    1.74
  -2  -1 -16   18.31    1.83
  -2  -1 -16   16.42    1.89
  -2  -1 -16   16.58    1.76
   2   1  16   17.93    1.71
  -3  -1 -16    0.14    0.19
  -3  -1 -16    0.29    0.25
  -3  -1 -16    0.35    0.25
  -4  -1 -16    0.46    0.29
  -4  -1 -16    0.64    0.31
  -4  -1 -16    0.34    0.23
  -4  -1 -16    0.24    0.21
  -5  -1 -16    5.58    0.89
  -5  -1 -16    5.63    0.75
  -5  -1 -16    6.34    0.73
  -5  -1 -16    7.22    0.94
   3  -2 -16    1.50    0.37
  -3   2  16    1.15    0.38
  -3   2  16    1.61    0.46
  -3   2  16    0.93    0.41
   2  -2 -16   24.86    2.36
   2  -2 -16   28.36    2.59
  -2   2  16   25.60    2.49
  -2   2  16   21.57    2.31
   1  -2 -16   43.12    3.74
  -1   2  16   37.09    3.71
  -1   2  16   45.33    4.14
   0  -2 -16   30.10    3.16
   0  -2 -16   36.26    3.18
   0  -2 -16   30.04    2.89
   0   2  16   35.63    3.18
   0   2  16   27.87    2.88
  -1  -2 -16    0.52    0.28
  -1  -2 -16    0.45    0.23
  -1  -2 -16    0.16    0.20
  -1  -2 -16    0.69    0.30
  -1  -2 -16    0.36    0.24
   1   2  16    0.17    0.23
  -2  -2 -16   30.17    2.66
  -2  -2 -16   30.76    2.76
  -2  -2 -16   29.90    2.83
  -2  -2 -16   27.67    2.87
  -2  -2 -16   24.85    2.87
   2   2  16   31.67    2.65
  -3  -2 -16   41.84    4.70
  -3  -2 -16   44.30    4.31
  -3  -2 -16   57.48    4.51
  -3  -2 -16   53.74    4.69
  -4  -2 -16   27.34    2.93
  -4  -2 -16   28.38    2.87
  -4  -2 -16   30.34    2.64
  -4  -2 -16   32.00    2.74
  -4  -2 -16   26.16    2.87
  -5  -2 -16    0.21    0.31
  -5  -2 -16    0.62    0.17
  -5  -2 -16    0.14    0.26
  -5  -2 -16    0.15    0.23
  -5  -2 -16   -0.35    0.25
   2  -3 -16    3.01    0.52
   2  -3 -16    3.12    0.60
  -2   3  16    2.37    0.53
  -2   3  16    3.20    0.59
   1  -3 -16    0.28    0.21
   1  -3 -16    0.15    0.21
  -1   3  16    0.16    0.16
  -1   3  16   -0.19    0.22
   0  -3 -16    5.23    0.74
   0  -3 -16    4.46    0.63
   0  -3 -16    5.34    0.78
   0   3  16    3.84    0.64
   0   3  16    4.93    0.64
  -1  -3 -16   21.99    1.86
  -1  -3 -16   17.94    1.92
  -1  -3 -16   21.20    1.94
  -1  -3 -16   14.06    1.76
  -1  -3 -16   17.19    1.76
   1   3  16   17.62    1.75
  -2  -3 -16   10.42    1.18
  -2  -3 -16    9.74    1.27
  -2  -3 -16   11.80    1.25
  -2  -3 -16   14.02    1.29
  -2  -3 -16   12.85    1.31
   2   3  16   10.87    1.17
  -3  -3 -16   12.59    1.43
  -3  -3 -16   11.99    1.39
  -3  -3 -16   16.50    1.43
  -3  -3 -16   12.54    1.48
  -3  -3 -16   12.29    1.30
  -4  -3 -16    0.38    0.25
  -4  -3 -16    0.61    0.40
  -4  -3 -16    0.84    0.26
  -4  -3 -16    0.49    0.35
  -4  -3 -16    0.62    0.25
  -5  -3 -16    4.22    0.78
  -5  -3 -16    5.41    0.70
  -5  -3 -16    3.82    0.71
  -5  -3 -16    5.30    0.63
  -5  -3 -16    3.21    0.55
   1  -4 -16   24.40    2.68
   1  -4 -16   27.46    2.50
  -1   4  16   28.17    2.74
  -1   4  16   25.11    2.46
   0  -4 -16   13.40    1.37
   0  -4 -16   13.36    1.48
   0   4  16   11.27    1.31
   0   4  16   12.65    1.41
  -1  -4 -16    0.02    0.20
  -1  -4 -16   -0.04    0.24
  -1  -4 -16    0.44    0.17
  -1  -4 -16    0.69    0.24
  -1  -4 -16   -0.17    0.31
   1   4  16    0.09    0.22
  -2  -4 -16    0.62    0.29
  -2  -4 -16    0.26    0.26
  -2  -4 -16    0.57    0.34
  -2  -4 -16    0.97    0.28
  -2  -4 -16    0.60    0.29
   2   4  16    0.65    0.27
  -3  -4 -16   14.74    1.70
  -3  -4 -16   19.12    1.75
  -3  -4 -16   14.69    1.60
  -3  -4 -16   14.76    1.65
  -3  -4 -16   19.51    1.85
  -4  -4 -16    9.51    1.07
  -4  -4 -16   11.10    1.26
  -4  -4 -16   11.35    1.22
  -4  -4 -16    8.97    1.14
  -4  -4 -16    9.94    1.12
  -5  -4 -16    1.89    0.48
  -5  -4 -16    2.16    0.58
  -5  -4 -16    1.65    0.37
  -5  -4 -16    1.46    0.33
   0  -5 -16    1.69    0.53
   0  -5 -16    1.90    0.44
   0   5  16    1.59    0.33
   0   5  16    2.07    0.48
  -1  -5 -16   15.60    1.72
  -1  -5 -16   18.86    1.94
  -1  -5 -16   17.26    1.82
   1   5  16   18.91    1.77
  -2  -5 -16   25.21    2.49
  -2  -5 -16   26.23    2.64
  -2  -5 -16   25.92    2.56
  -2  -5 -16   25.16    2.41
  -3  -5 -16    9.70    1.08
  -3  -5 -16    8.11    1.02
  -3  -5 -16    9.51    1.14
  -3  -5 -16    7.11    0.91
  -4  -5 -16   -0.25    0.22
  -4  -5 -16    0.24    0.26
  -4  -5 -16   -0.28    0.32
  -4  -5 -16    0.88    0.21
   2   5 -17    7.44    0.88
   2   5 -17    4.83    0.81
  -2  -5  17    6.04    0.76
  -2  -5  17    4.95    0.82
  -2  -5  17    3.87    0.76
   1   5 -17   33.65    3.14
   1   5 -17   38.03    3.54
   1   5 -17   33.62    3.29
  -1  -5  17   38.21    3.30
   0   5 -17   15.51    1.73
   0   5 -17   18.65    1.66
   0   5 -17   16.62    1.82
   0  -5  17   16.91    1.71
   3   4 -17   12.95    1.31
  -3  -4  17   12.44    1.54
  -3  -4  17   12.42    1.34
  -3  -4  17   13.98    1.46
   2   4 -17    5.77    0.76
   2   4 -17    7.23    0.91
  -2  -4  17    5.56    0.80
  -2  -4  17    5.35    0.77
  -2  -4  17    5.75    0.85
   1   4 -17    2.30    0.49
   1   4 -17    2.29    0.50
   1   4 -17    3.01    0.52
  -1  -4  17    1.94    0.47
   0   4 -17    0.14    0.23
   0   4 -17    0.13    0.20
   0   4 -17    0.53    0.18
   0  -4  17   -0.23    0.21
  -1   4 -17    6.18    0.71
  -1   4 -17    4.45    0.81
  -1   4 -17    5.24    0.79
   1  -4  17    4.77    0.72
  -2   4 -17   16.44    1.82
  -2   4 -17   17.37    1.99
  -2   4 -17   19.09    1.72
   2  -4  17   20.80    1.84
   3   3 -17    0.80    0.33
  -3  -3  17    1.57    0.34
  -3  -3  17    1.32    0.34
  -3  -3  17    0.91    0.36
   2   3 -17    6.40    0.86
   2   3 -17    5.70    0.70
   2   3 -17    5.22    0.68
  -2  -3  17    5.22    0.75
  -2  -3  17    5.27    0.79
  -2  -3  17    5.54    0.76
   1   3 -17   47.91    4.18
   1   3 -17   41.81    3.66
   1   3 -17   39.20    3.81
  -1  -3  17   45.71    4.26
  -1  -3  17   39.44    3.97
  -1  -3  17   42.86    3.82
   0   3 -17   17.98    1.92
   0   3 -17   19.08    1.85
   0   3 -17   23.28    2.12
   0  -3  17   20.28    1.95
  -1   3 -17    1.88    0.38
  -1   3 -17    1.56    0.48
  -1   3 -17    1.43    0.41
   1  -3  17    1.60    0.36
  -2   3 -17    0.48    0.21
  -2   3 -17    0.30    0.31
  -2   3 -17   -0.20    0.23
   2  -3  17   -0.15    0.22
  -3   3 -17   15.87    1.53
  -3   3 -17   15.43    1.80
  -3   3 -17   16.93    1.77
  -3   3 -17   18.07    1.73
  -3   3 -17   17.07    1.74
   3   2 -17   14.55    1.48
  -3  -2  17   15.71    1.73
  -3  -2  17   15.92    1.55
  -3  -2  17   15.65    1.61
   2   2 -17   19.96    1.81
   2   2 -17   20.03    1.88
   2   2 -17   19.42    2.10
  -2  -2  17   21.19    1.98
  -2  -2  17   19.50    1.89
  -2  -2  17   19.00    2.07
   1   2 -17   10.60    1.07
   1   2 -17   10.46    1.23
   1   2 -17   10.86    1.12
  -1  -2  17   10.48    1.13
  -1  -2  17    9.62    1.14
  -1  -2  17   11.54    1.19
   0   2 -17    0.38    0.22
   0   2 -17    0.29    0.19
   0   2 -17    0.27    0.28
   0  -2  17    0.33    0.25
  -1   2 -17   15.72    1.66
  -1   2 -17   16.46    1.75
  -1   2 -17   15.67    1.48
  -1   2 -17   16.01    1.60
  -2   2 -17   25.26    2.49
  -2   2 -17   23.82    2.42
  -2   2 -17   25.77    2.67
  -2   2 -17   26.70    2.30
  -2   2 -17   30.00    2.64
   2  -2  17   24.76    2.42
  -3   2 -17   10.06    1.15
  -3   2 -17   10.20    1.26
  -3   2 -17    9.64    1.14
  -3   2 -17   12.01    1.28
  -4   2 -17    0.71    0.31
  -4   2 -17    0.50    0.28
  -4   2 -17    0.08    0.34
  -4   2 -17    0.95    0.34
  -3  -1  17   -0.12    0.25
  -3  -1  17   -0.20    0.21
  -3  -1  17    0.17    0.17
   2   1 -17    8.65    0.97
   2   1 -17   11.66    1.26
  -2  -1  17    8.42    1.03
  -2  -1  17   10.35    1.04
  -2  -1  17    8.45    1.07
   1   1 -17   21.53    2.15
   1   1 -17   21.50    2.05
   1   1 -17   17.04    1.80
   1   1 -17   21.18    1.94
  -1  -1  17   23.45    1.97
  -1  -1  17   18.77    2.09
  -1  -1  17   21.55    2.02
   0   1 -17   12.32    1.32
   0   1 -17   15.13    1.50
   0   1 -17   15.13    1.41
   0   1 -17   12.73    1.26
   0  -1  17   11.65    1.32
  -1   1 -17    4.72    0.68
  -1   1 -17    4.41    0.65
  -1   1 -17    5.36    0.63
  -1   1 -17    5.55    0.77
   1  -1  17    5.66    0.69
  -2   1 -17    0.46    0.34
  -2   1 -17    0.39    0.28
  -2   1 -17    0.72    0.27
  -2   1 -17    0.86    0.23
  -2   1 -17    0.62    0.26
   2  -1  17    0.32    0.25
  -3   1 -17    0.44    0.23
  -3   1 -17    0.24    0.28
  -3   1 -17    0.31    0.23
  -3   1 -17    0.62    0.26
  -4   1 -17    6.68    0.86
  -4   1 -17    5.57    0.85
  -4   1 -17    5.01    0.73
  -4   1 -17    4.78    0.73
  -3   0  17   19.08    2.05
  -3   0  17   19.36    1.98
  -3   0  17   24.02    2.25
   2   0 -17   49.56    4.64
  -2   0  17   50.15    4.82
  -2   0  17   58.85    5.20
  -2   0  17   52.82    4.65
   1   0 -17   31.35    2.97
   1   0 -17   25.37    2.85
   1   0 -17   26.63    2.67
  -1   0  17   33.71    2.95
  -1   0  17   28.76    2.77
  -1   0  17   31.04    2.69
   0   0 -17   -0.18    0.17
   0   0 -17    0.34    0.23
   0   0 -17    0.03    0.19
   0   0 -17    0.38    0.23
   0   0  17    0.07    0.21
  -1   0 -17   42.57    3.80
  -1   0 -17   37.40    3.29
  -1   0 -17   35.82    3.46
  -1   0 -17   38.91    3.80
   1   0  17   41.66    3.50
  -2   0 -17   39.68    4.36
  -2   0 -17   48.40    4.39
  -2   0 -17   44.99    3.98
  -2   0 -17   44.06    4.12
  -2   0 -17   49.88    3.79
   2   0  17   44.09    3.98
  -3   0 -17   14.11    1.42
  -3   0 -17   13.89    1.37
  -3   0 -17   13.74    1.53
  -3   0 -17   13.68    1.56
  -4   0 -17    3.76    0.64
  -4   0 -17    3.36    0.62
  -4   0 -17    2.58    0.49
   3  -1 -17    6.35    0.83
  -3   1  17    6.11    0.86
  -3   1  17    6.78    0.83
  -3   1  17    4.11    0.72
   2  -1 -17    0.12    0.33
   2  -1 -17    0.24    0.27
  -2   1  17    0.68    0.28
  -2   1  17    0.46    0.23
  -2   1  17    0.39    0.27
   1  -1 -17    6.07    0.81
   1  -1 -17    6.76    0.88
   1  -1 -17    6.13    0.91
  -1   1  17    7.29    0.84
  -1   1  17    6.36    0.83
   0  -1 -17   33.67    3.45
   0  -1 -17   35.77    3.51
   0  -1 -17   34.98    3.21
   0   1  17   38.48    3.21
  -1  -1 -17    5.44    0.71
  -1  -1 -17    6.32    0.81
  -1  -1 -17    5.44    0.67
  -1  -1 -17    4.60    0.70
  -1  -1 -17    5.82    0.69
   1   1  17    5.89    0.70
  -2  -1 -17   27.66    2.76
  -2  -1 -17   25.80    2.66
  -2  -1 -17   29.52    2.62
  -2  -1 -17   23.37    2.73
  -2  -1 -17   30.75    2.54
   2   1  17   28.40    2.51
  -3  -1 -17    0.06    0.21
  -3  -1 -17    0.02    0.20
  -3  -1 -17   -0.04    0.29
  -4  -1 -17    6.93    0.96
  -4  -1 -17    6.90    1.01
  -4  -1 -17    8.86    0.89
  -4  -1 -17    7.69    0.89
  -5  -1 -17   27.51    2.49
  -5  -1 -17   26.25    2.58
  -5  -1 -17   27.10    2.84
  -5  -1 -17   28.41    2.80
   2  -2 -17   26.78    2.40
   2  -2 -17   30.84    2.63
  -2   2  17   24.04    2.35
  -2   2  17   20.40    2.56
   1  -2 -17   14.19    1.50
   1  -2 -17   18.31    1.67
  -1   2  17   13.49    1.57
  -1   2  17   14.25    1.49
   0  -2 -17   -0.01    0.24
   0  -2 -17    0.18    0.24
   0  -2 -17    0.11    0.21
   0   2  17    0.11    0.16
   0   2  17    0.33    0.19
  -1  -2 -17    9.39    1.07
  -1  -2 -17    9.72    1.09
  -1  -2 -17   10.14    1.18
  -1  -2 -17    8.94    1.13
  -1  -2 -17   11.05    1.15
   1   2  17   11.16    1.11
  -2  -2 -17    6.88    0.78
  -2  -2 -17    5.95    0.83
  -2  -2 -17    7.13    0.82
  -2  -2 -17    6.11    0.79
  -2  -2 -17    5.36    0.84
   2   2  17    6.42    0.77
  -3  -2 -17    4.07    0.58
  -3  -2 -17    4.45    0.76
  -3  -2 -17    4.84    0.64
  -3  -2 -17    4.25    0.59
  -3  -2 -17    3.13    0.64
  -4  -2 -17    3.66    0.66
  -4  -2 -17    4.69    0.59
  -4  -2 -17    3.16    0.62
  -4  -2 -17    5.37    0.85
  -4  -2 -17    4.88    0.63
  -5  -2 -17    0.75    0.33
  -5  -2 -17    0.34    0.34
  -5  -2 -17    0.94    0.27
  -5  -2 -17    0.90    0.38
  -5  -2 -17    0.95    0.36
   2  -3 -17    1.96    0.46
   2  -3 -17    1.43    0.38
  -2   3  17    1.88    0.47
  -2   3  17    1.24    0.43
   1  -3 -17    4.01    0.56
   1  -3 -17    2.33    0.52
  -1   3  17    3.26    0.57
  -1   3  17    2.25    0.49
   0  -3 -17   14.85    1.72
   0  -3 -17   18.25    1.91
   0  -3 -17   21.85    1.99
   0   3  17   15.66    1.73
   0   3  17   19.49    1.89
  -1  -3 -17   44.40    4.03
  -1  -3 -17   37.94    3.69
  -1  -3 -17   33.44    3.79
  -1  -3 -17   41.94    4.04
  -1  -3 -17   49.44    3.94
   1   3  17   40.96    3.70
  -2  -3 -17   10.76    1.14
  -2  -3 -17   10.49    1.18
  -2  -3 -17    9.11    1.07
  -2  -3 -17    8.10    1.03
  -2  -3 -17   10.28    1.12
   2   3  17    9.02    1.03
  -3  -3 -17    0.28    0.22
  -3  -3 -17    0.05    0.26
  -3  -3 -17   -0.17    0.23
  -3  -3 -17    0.05    0.21
  -3  -3 -17    0.23    0.23
  -4  -3 -17   20.45    2.02
  -4  -3 -17   15.59    1.89
  -4  -3 -17   17.88    1.91
  -4  -3 -17   17.03    1.72
  -4  -3 -17   19.83    1.83
  -5  -3 -17   12.44    1.35
  -5  -3 -17    8.72    1.12
  -5  -3 -17   11.95    1.35
  -5  -3 -17   12.33    1.23
   1  -4 -17    6.23    0.82
  -1   4  17    6.14    0.81
  -1   4  17    5.98    0.78
   0  -4 -17    2.74    0.55
   0  -4 -17    2.57    0.52
   0   4  17    1.32    0.42
   0   4  17    2.24    0.48
  -1  -4 -17    1.53    0.46
  -1  -4 -17    2.18    0.39
  -1  -4 -17    2.02    0.41
  -1  -4 -17    0.89    0.33
   1   4  17    1.30    0.38
  -2  -4 -17    6.12    0.87
  -2  -4 -17    7.16    0.86
  -2  -4 -17    5.37    0.81
  -2  -4 -17    7.11    0.92
  -2  -4 -17    6.46    0.84
  -3  -4 -17    2.62    0.49
  -3  -4 -17    2.47    0.52
  -3  -4 -17    2.16    0.46
  -3  -4 -17    2.79    0.51
  -3  -4 -17    2.75    0.52
  -4  -4 -17    7.04    0.92
  -4  -4 -17    7.71    0.94
  -4  -4 -17    7.64    0.89
  -4  -4 -17    7.33    1.00
  -4  -4 -17    6.16    0.83
  -1  -5 -17   16.15    1.75
  -1  -5 -17   14.42    1.58
   1   5  17   15.94    1.59
  -2  -5 -17    9.30    1.03
  -2  -5 -17    8.86    0.99
  -2  -5 -17    6.87    1.00
  -2  -5 -17    9.19    1.14
  -3  -5 -17   -0.03    0.29
  -3  -5 -17   -0.16    0.30
  -3  -5 -17   -0.19    0.24
  -3  -5 -17    0.79    0.26
   2   4 -18    4.44    0.73
   2   4 -18    6.87    0.86
  -2  -4  18    5.96    0.83
  -2  -4  18    4.55    0.74
   1   4 -18    0.47    0.27
   1   4 -18   -0.37    0.28
   1   4 -18    0.10    0.23
  -1  -4  18    0.20    0.28
   0   4 -18   13.00    1.46
   0   4 -18   17.29    1.62
   0   4 -18   13.91    1.38
   0  -4  18   11.86    1.40
  -1   4 -18   19.68    1.97
  -1   4 -18   19.57    2.14
  -1   4 -18   19.06    1.84
   1  -4  18   20.86    1.96
   3   3 -18    9.71    1.08
  -3  -3  18    9.58    1.15
  -3  -3  18   10.50    1.20
  -3  -3  18    8.93    1.09
   2   3 -18   10.12    1.26
   2   3 -18   10.12    1.09
  -2  -3  18   10.49    1.19
  -2  -3  18   11.41    1.15
  -2  -3  18    9.92    1.22
   1   3 -18    8.54    1.05
   1   3 -18    8.50    1.00
   1   3 -18    8.13    0.94
  -1  -3  18    8.49    1.01
   0   3 -18    5.26    0.77
   0   3 -18    5.94    0.82
   0   3 -18    5.18    0.68
   0  -3  18    4.88    0.70
  -1   3 -18   -0.13    0.26
  -1   3 -18    0.00    0.26
  -1   3 -18    0.32    0.23
   1  -3  18   -0.34    0.23
  -2   3 -18   -0.23    0.34
  -2   3 -18    0.13    0.28
   2  -3  18    0.79    0.21
  -3  -2  18   33.42    3.12
  -3  -2  18   33.67    3.26
  -3  -2  18   36.28    3.52
   2   2 -18   14.12    1.65
   2   2 -18   15.48    1.49
   2   2 -18   13.28    1.39
  -2  -2  18   15.24    1.57
  -2  -2  18   14.64    1.62
  -2  -2  18   16.69    1.52
   1   2 -18    0.50    0.28
   1   2 -18    0.18    0.19
   1   2 -18    0.10    0.21
  -1  -2  18    0.29    0.20
   0   2 -18   19.49    1.84
   0   2 -18   23.32    2.14
   0  -2  18   18.13    1.91
  -1   2 -18   29.98    2.53
  -1   2 -18   25.28    2.64
  -1   2 -18   31.93    2.94
   1  -2  18   28.47    2.66
  -2   2 -18   28.48    2.52
  -2   2 -18   26.60    2.74
  -2   2 -18   26.26    2.34
  -2   2 -18   29.90    2.70
   2  -2  18   22.03    2.43
  -3   2 -18    2.52    0.53
  -3   2 -18    4.34    0.56
  -3   2 -18    4.19    0.67
  -3   2 -18    3.19    0.66
  -3  -1  18    0.52    0.28
  -3  -1  18    0.24    0.32
  -3  -1  18    0.35    0.29
   2   1 -18    1.37    0.52
   2   1 -18    2.30    0.42
  -2  -1  18    1.74    0.41
  -2  -1  18    1.70    0.38
  -2  -1  18    1.80    0.40
   1   1 -18   26.40    2.31
   1   1 -18   23.93    2.65
   1   1 -18   28.58    2.44
  -1  -1  18   26.30    2.43
   0   1 -18   30.77    2.84
   0   1 -18   27.59    2.51
   0   1 -18   28.23    2.88
   0   1 -18   27.16    2.63
   0  -1  18   31.13    2.68
  -1   1 -18    6.38    0.81
  -1   1 -18    6.90    0.92
  -1   1 -18    7.40    0.78
  -1   1 -18    7.62    0.88
   1  -1  18    6.83    0.83
  -2   1 -18    0.33    0.25
  -2   1 -18    0.45    0.33
  -2   1 -18    0.56    0.25
  -2   1 -18    0.58    0.32
   2  -1  18    0.37    0.21
  -3   1 -18    7.56    0.95
  -3   1 -18    9.40    1.10
  -3   1 -18    8.22    0.95
  -3   1 -18    7.85    1.08
  -4   1 -18   20.51    1.77
  -4   1 -18   17.05    1.91
  -4   1 -18   16.08    1.77
  -4   1 -18   16.97    1.90
  -3   0  18   18.11    2.04
  -3   0  18   18.31    1.86
  -3   0  18   21.62    2.00
   2   0 -18    7.01    0.85
  -2   0  18    6.79    0.87
  -2   0  18    5.68    0.83
  -2   0  18    7.71    0.88
   1   0 -18    1.01    0.33
   1   0 -18    0.99    0.34
   1   0 -18    1.46    0.45
  -1   0  18    1.23    0.34
  -1   0  18    1.18    0.30
   0   0 -18    0.64    0.29
   0   0 -18    1.46    0.35
   0   0 -18    2.02    0.42
   0   0  18    1.34    0.34
  -1   0 -18   13.80    1.28
  -1   0 -18   13.43    1.51
  -1   0 -18   15.68    1.52
  -1   0 -18   12.73    1.36
  -1   0 -18   13.59    1.40
   1   0  18   12.89    1.36
  -2   0 -18    5.21    0.90
  -2   0 -18    7.50    0.84
  -2   0 -18    6.82    0.93
  -2   0 -18    7.45    0.73
  -2   0 -18    6.34    0.79
   2   0  18    6.89    0.80
  -3   0 -18    2.64    0.50
  -3   0 -18    2.52    0.46
  -3   0 -18    2.65    0.56
  -3   0 -18    3.57    0.66
  -4   0 -18    0.29    0.19
  -4   0 -18    0.30    0.32
  -4   0 -18    0.26    0.29
  -4   0 -18    0.16    0.24
   2  -1 -18    2.02    0.51
   2  -1 -18    1.58    0.43
  -2   1  18    1.73    0.41
  -2   1  18    2.10    0.47
   1  -1 -18   18.01    1.73
   1  -1 -18   14.48    1.60
   1  -1 -18   15.87    1.54
  -1   1  18   13.63    1.58
  -1   1  18   14.49    1.52
   0  -1 -18   73.03    6.96
   0  -1 -18   73.65    6.99
   0  -1 -18   72.05    6.41
   0   1  18   76.27    6.40
  -1  -1 -18   10.03    1.14
  -1  -1 -18   10.90    1.19
  -1  -1 -18    8.85    1.05
  -1  -1 -18    8.69    1.09
   1   1  18   10.63    1.07
  -2  -1 -18    3.87    0.57
  -2  -1 -18    4.16    0.60
  -2  -1 -18    3.68    0.58
  -2  -1 -18    3.07    0.59
  -2  -1 -18    4.16    0.68
   2   1  18    3.88    0.57
  -3  -1 -18   19.85    2.35
  -3  -1 -18   24.66    2.23
  -3  -1 -18   21.23    2.36
  -3  -1 -18   25.59    2.16
  -4  -1 -18    6.68    1.02
  -4  -1 -18    8.35    1.10
  -4  -1 -18    8.31    0.91
   2  -2 -18    9.94    1.19
   2  -2 -18    9.08    1.08
  -2   2  18    8.26    1.04
  -2   2  18    9.21    1.11
   1  -2 -18    0.98    0.42
   1  -2 -18    0.69    0.31
  -1   2  18    1.08    0.34
  -1   2  18    1.27    0.34
   0  -2 -18    0.27    0.24
   0  -2 -18    0.34    0.27
   0  -2 -18    0.40    0.31
   0   2  18    0.88    0.26
  -1  -2 -18    9.48    1.13
  -1  -2 -18    9.43    1.06
  -1  -2 -18    8.86    1.10
   1   2  18    9.52    1.05
  -2  -2 -18   13.34    1.37
  -2  -2 -18   10.28    1.25
  -2  -2 -18   10.37    1.26
  -2  -2 -18   11.30    1.23
  -2  -2 -18   13.76    1.42
   2   2  18   13.51    1.26
  -3  -2 -18   11.61    1.34
  -3  -2 -18   13.11    1.44
  -3  -2 -18   11.66    1.30
  -3  -2 -18   12.78    1.44
  -3  -2 -18   12.27    1.28
  -4  -2 -18    1.33    0.50
  -4  -2 -18    2.46    0.50
  -4  -2 -18    2.60    0.46
  -4  -2 -18    2.52    0.49
  -4  -2 -18    2.40    0.52
   1  -3 -18   24.29    2.49
   1  -3 -18   22.24    2.31
  -1   3  18   22.18    2.29
  -1   3  18   27.51    2.54
   0  -3 -18   23.62    2.33
   0  -3 -18   24.59    2.52
   0   3  18   25.42    2.33
  -1  -3 -18    7.37    0.95
  -1  -3 -18    9.52    1.06
  -1  -3 -18    7.84    0.99
   1   3  18    7.44    0.94
  -2  -3 -18    0.22    0.26
  -2  -3 -18    0.56    0.22
  -2  -3 -18    0.26    0.30
  -2  -3 -18    0.15    0.25
  -2  -3 -18    0.24    0.29
   2   3  18    0.50    0.23
  -3  -3 -18    4.88    0.76
  -3  -3 -18    4.60    0.72
  -3  -3 -18    5.89    0.75
  -3  -3 -18    5.92    0.84
  -3  -3 -18    5.83    0.78
  -4  -3 -18   11.39    1.27
  -4  -3 -18    9.79    1.27
  -4  -3 -18   10.40    1.12
  -4  -3 -18    9.96    1.16
  -4  -3 -18   10.22    1.27
   0  -4 -18    2.70    0.57
   0  -4 -18    3.72    0.64
   0   4  18    2.36    0.55
  -1  -4 -18    1.23    0.39
  -1  -4 -18    2.03    0.44
  -1  -4 -18    1.07    0.41
   1   4  18    1.29    0.40
  -2  -4 -18   25.60    2.57
  -2  -4 -18   26.78    2.79
  -2  -4 -18   28.28    2.70
  -2  -4 -18   26.12    2.65
  -2  -4 -18   29.49    2.76
  -3  -4 -18   16.59    1.70
  -3  -4 -18   12.13    1.55
  -3  -4 -18   18.28    1.66
  -3  -4 -18   13.53    1.51
  -3  -4 -18   15.44    1.60
   2   3 -19   12.83    1.41
   2   3 -19   11.07    1.22
  -2  -3  19   10.77    1.24
   1   3 -19   16.71    1.75
   1   3 -19   15.31    1.53
  -1  -3  19   15.47    1.60
   0   3 -19   11.90    1.20
   0   3 -19   11.15    1.25
   0   3 -19   12.29    1.38
   0  -3  19   10.88    1.25
  -1   3 -19    0.35    0.37
  -1   3 -19    0.62    0.32
  -1   3 -19    1.00    0.37
   1  -3  19    0.56    0.32
   2   2 -19    2.35    0.55
   2   2 -19    2.07    0.42
  -2  -2  19    1.46    0.39
   1   2 -19    3.23    0.61
   1   2 -19    3.12    0.51
   1   2 -19    3.05    0.52
  -1  -2  19    2.15    0.50
   0   2 -19   11.18    1.27
   0   2 -19    9.20    1.05
   0  -2  19   11.12    1.17
  -1   2 -19    3.42    0.53
  -1   2 -19    3.52    0.65
  -1   2 -19    3.43    0.57
   1  -2  19    3.06    0.55
  -2   2 -19    0.84    0.23
  -2   2 -19    0.13    0.32
  -2   2 -19    0.25    0.25
   2  -2  19    0.35    0.24
   2   1 -19   24.55    2.38
   2   1 -19   28.13    2.73
  -2  -1  19   24.20    2.37
   1   1 -19   20.62    2.03
   1   1 -19   25.90    2.42
   1   1 -19   22.37    2.15
  -1  -1  19   22.87    2.16
   0   1 -19    8.79    0.92
   0   1 -19    7.72    0.95
   0   1 -19    9.63    1.10
   0  -1  19    8.86    0.98
  -1   1 -19    0.31    0.23
  -1   1 -19    0.26    0.19
  -1   1 -19   -0.35    0.24
  -1   1 -19    0.45    0.25
   1  -1  19    0.60    0.23
  -2   1 -19   18.90    1.81
  -2   1 -19   20.59    2.14
  -2   1 -19   21.06    2.19
   2  -1  19   21.10    1.96
  -3   1 -19   29.08    2.74
  -3   1 -19   24.95    2.54
  -3   1 -19   25.52    2.75
   2   0 -19    5.50    0.78
  -2   0  19    4.82    0.72
  -2   0  19    5.28    0.75
   1   0 -19    0.72    0.35
   1   0 -19    1.73    0.36
   1   0 -19    1.46    0.41
  -1   0  19    1.33    0.37
   0   0 -19    9.29    1.00
   0   0 -19    8.33    1.07
   0   0 -19    7.84    0.97
   0   0  19    9.54    1.01
  -1   0 -19   20.56    2.02
  -1   0 -19   19.78    1.71
  -1   0 -19   16.20    1.91
  -1   0 -19   19.57    1.83
   1   0  19   19.02    1.82
  -2   0 -19   15.87    1.36
  -2   0 -19   16.07    1.63
  -2   0 -19   13.08    1.62
  -2   0 -19   13.43    1.44
   2   0  19   14.77    1.46
  -3   0 -19    4.64    0.83
  -3   0 -19    4.82    0.67
  -3   0 -19    3.69    0.61
  -3   0 -19    4.75    0.73
   2  -1 -19   30.30    2.78
   2  -1 -19   28.34    2.57
  -2   1  19   22.95    2.75
  -2   1  19   28.04    2.57
   1  -1 -19   17.58    1.77
   1  -1 -19   16.19    1.65
   1  -1 -19   16.51    1.86
  -1   1  19   15.89    1.66
   0  -1 -19    5.84    0.77
   0  -1 -19    5.10    0.78
   0  -1 -19    4.41    0.65
   0   1  19    4.39    0.67
  -1  -1 -19    0.56    0.31
  -1  -1 -19    0.31    0.26
  -1  -1 -19    0.32    0.29
   1   1  19    0.55    0.29
  -2  -1 -19    5.07    0.67
  -2  -1 -19    4.27    0.58
  -2  -1 -19    4.91    0.71
  -2  -1 -19    4.02    0.60
  -2  -1 -19    4.65    0.68
   2   1  19    4.24    0.63
  -3  -1 -19   13.35    1.33
  -3  -1 -19   13.28    1.37
  -3  -1 -19   13.18    1.42
  -3  -1 -19   10.47    1.47
  -3  -1 -19   13.06    1.52
  -4  -1 -19    1.55    0.47
  -4  -1 -19    2.02    0.61
  -4  -1 -19    2.08    0.45
   1  -2 -19    3.05    0.56
   1  -2 -19    3.06    0.62
  -1   2  19    2.50    0.52
   0  -2 -19    0.68    0.26
   0  -2 -19    0.81    0.28
   0  -2 -19    0.09    0.26
   0   2  19    0.59    0.22
  -1  -2 -19   36.33    3.63
  -1  -2 -19   35.72    3.62
  -1  -2 -19   38.18    3.36
   1   2  19   37.60    3.35
  -2  -2 -19   28.29    2.57
  -2  -2 -19   30.46    2.73
  -2  -2 -19   28.37    2.79
  -2  -2 -19   22.99    2.74
  -2  -2 -19   26.11    2.64
   2   2  19   29.77    2.57
  -3  -2 -19    9.27    1.17
  -3  -2 -19   10.21    1.11
  -3  -2 -19    8.79    1.17
  -3  -2 -19   10.22    1.05
  -3  -2 -19    8.16    1.06
  -4  -2 -19    2.11    0.41
  -4  -2 -19    1.92    0.50
  -4  -2 -19    2.44    0.42
  -4  -2 -19    1.54    0.57
  -4  -2 -19    2.07    0.43
   0  -3 -19    3.17    0.58
   0  -3 -19    3.67    0.69
   0   3  19    3.54    0.59
  -1  -3 -19    0.42    0.29
  -1  -3 -19    0.90    0.34
  -1  -3 -19    0.75    0.36
   1   3  19    0.47    0.29
  -2  -3 -19    0.59    0.20
  -2  -3 -19   -0.23    0.24
  -2  -3 -19    0.70    0.26
  -2  -3 -19    0.49    0.30
  -2  -3 -19    0.11    0.33
  -3  -3 -19    1.94    0.44
  -3  -3 -19    1.83    0.56
  -3  -3 -19    2.13    0.42
  -3  -3 -19    1.90    0.50
  -3  -3 -19    1.86    0.44
   1   2 -20    3.88    0.58
   1   2 -20    2.88    0.52
  -1  -2  20    5.14    0.63
   0   2 -20   14.73    1.64
   0   2 -20   14.83    1.43
   0   2 -20   14.52    1.49
   0  -2  20   14.84    1.51
  -1   2 -20   25.16    2.74
  -1   2 -20   26.94    2.41
   1  -2  20   29.33    2.56
   2  -2  20   -0.09    0.27
   1   1 -20    2.21    0.48
   1   1 -20    2.63    0.55
   1   1 -20    2.95    0.51
  -1  -1  20    2.95    0.52
   0   1 -20    0.43    0.26
   0   1 -20    0.68    0.22
   0   1 -20    0.78    0.29
   0  -1  20    0.51    0.28
  -1   1 -20    6.12    0.92
  -1   1 -20    6.09    0.81
  -1   1 -20    6.32    0.75
   1  -1  20    7.20    0.87
  -2   1 -20    3.73    0.66
  -2   1 -20    3.38    0.70
  -2   1 -20    4.22    0.57
  -2   1 -20    3.48    0.58
   2  -1  20    5.18    0.63
   1   0 -20    5.01    0.67
   1   0 -20    5.57    0.80
  -1   0  20    3.47    0.64
   0   0 -20   14.83    1.70
   0   0 -20   18.93    1.88
   0   0 -20   18.39    1.94
   0   0  20   19.88    1.78
  -1   0 -20   26.89    2.71
  -1   0 -20   25.42    2.66
  -1   0 -20   26.81    2.48
   1   0  20   27.31    2.48
  -2   0 -20    5.95    0.80
  -2   0 -20    6.27    0.89
  -2   0 -20    7.17    0.91
   2   0  20    6.02    0.79
  -3   0 -20    0.88    0.25
  -3   0 -20    0.48    0.41
  -3   0 -20    0.92    0.42
   1  -1 -20   12.82    1.45
   1  -1 -20   12.29    1.32
   1  -1 -20    9.21    1.16
  -1   1  20   10.60    1.21
   0  -1 -20    0.96    0.39
   0  -1 -20    0.67    0.35
   0  -1 -20    0.81    0.27
   0   1  20    0.87    0.34
  -1  -1 -20    0.50    0.22
  -1  -1 -20    0.18    0.24
  -1  -1 -20    0.09    0.29
   1   1  20    0.27    0.25
  -2  -1 -20    1.94    0.52
  -2  -1 -20    2.07    0.40
  -2  -1 -20    1.46    0.52
   2   1  20    1.76    0.39
  -3  -1 -20    9.82    1.27
  -3  -1 -20   12.12    1.44
  -3  -1 -20   12.34    1.31
  -3  -1 -20   12.81    1.26
   0  -2 -20   16.49    1.79
   0  -2 -20   16.37    1.68
   0  -2 -20   18.87    1.87
   0   2  20   15.15    1.65
  -1  -2 -20   13.54    1.51
  -1  -2 -20   13.02    1.39
  -1  -2 -20   13.41    1.51
   1   2  20   13.38    1.40
  -2  -2 -20    0.03    0.24
  -2  -2 -20   -0.03    0.32
  -2  -2 -20   -0.11    0.29
  -3  -2 -20    0.62    0.31
  -3  -2 -20    0.08    0.25
  -3  -2 -20    0.05    0.23
  -3  -2 -20    0.94    0.30
  -3  -2 -20    0.68    0.20
   0   1 -21    0.79    0.34
   0   1 -21   -0.11    0.23
   0   1 -21   -0.06    0.22
   0  -1  21    0.66    0.29
  -1   1 -21    5.16    0.71
  -1   1 -21    5.68    0.68
   1  -1  21    5.44    0.72
   0   0 -21   13.87    1.54
   0   0 -21   11.69    1.34
   0   0  21   13.43    1.37
  -1   0 -21    0.64    0.37
  -1   0 -21    0.28    0.33
  -1   0 -21    0.26    0.30
   1   0  21    0.60    0.30
  -1  -1 -21    7.58    0.99
  -1  -1 -21    9.42    1.11
  -1  -1 -21    8.61    1.07
   1   1  21    9.02    1.03
   0   0   0    0.00    0.00
;
_shelx_hkl_checksum              75077
_shelx_shelxl_version_number     2014/7
_olex2_submission_special_instructions 'No special instructions were received'
loop_
_space_group_symop_operation_xyz
'x, y, z'
'-x, -y, -z'
loop_
_atom_site_label
_atom_site_type_symbol
_atom_site_fract_x
_atom_site_fract_y
_atom_site_fract_z
_atom_site_U_iso_or_equiv
_atom_site_adp_type
_atom_site_occupancy
_atom_site_site_symmetry_order
_atom_site_calc_flag
_atom_site_refinement_flags_posn
_atom_site_disorder_assembly
_atom_site_disorder_group
C1 C 1.2666(7) -0.0906(5) 0.29007(19) 0.0225(6) Uani 1 1 d . . .
C2 C 1.1773(6) 0.0576(5) 0.22355(18) 0.0178(6) Uani 1 1 d . . .
C3 C 1.2626(7) 0.2261(5) 0.2136(2) 0.0238(6) Uani 1 1 d . . .
H3 H 1.3689 0.2452 0.2485 0.029 Uiso 1 1 calc R . .
C4 C 1.1899(8) 0.3649(6) 0.1520(2) 0.0283(7) Uani 1 1 d . . .
H4 H 1.2491 0.4761 0.1451 0.034 Uiso 1 1 calc R . .
C5 C 1.0284(7) 0.3391(5) 0.1000(2) 0.0276(7) Uani 1 1 d . . .
C6 C 0.9425(7) 0.1699(5) 0.1101(2) 0.0296(8) Uani 1 1 d . . .
H6 H 0.8354 0.1511 0.0755 0.036 Uiso 1 1 calc R . .
C7 C 1.0171(6) 0.0298(5) 0.1718(2) 0.0217(6) Uani 1 1 d . . .
H7 H 0.9598 -0.0826 0.1785 0.026 Uiso 1 1 calc R . .
C8 C 0.9409(7) 0.4956(5) 0.0364(2) 0.0283(7) Uani 1 1 d . A 1
I1 I 0.60599(3) 0.73131(3) 0.07315(2) 0.02247(10) Uani 1 1 d . . .
O1 O 1.3864(7) -0.0581(5) 0.3402(2) 0.0501(9) Uani 1 1 d . . .
O2 O 1.1964(5) -0.2567(4) 0.28935(15) 0.0256(5) Uani 1 1 d . . .
H2 H 1.2683 -0.3414 0.3215 0.038 Uiso 1 1 calc GR . .
S1 S 0.65954(15) 0.34036(14) 0.36918(5) 0.02419(18) Uani 1 1 d . . .
C2S C 0.8392(7) 0.4862(7) 0.4021(2) 0.0356(8) Uani 1 1 d . . .
H2SA H 0.8131 0.6106 0.3710 0.053 Uiso 1 1 calc GR . .
H2SB H 1.0072 0.4026 0.3934 0.053 Uiso 1 1 calc GR . .
H2SC H 0.7939 0.5238 0.4595 0.053 Uiso 1 1 calc GR . .
C3S C 0.7259(7) 0.1387(6) 0.4417(2) 0.0328(8) Uani 1 1 d . . .
H3SA H 0.6813 0.1994 0.4965 0.049 Uiso 1 1 calc GR . .
H3SB H 0.8960 0.0615 0.4344 0.049 Uiso 1 1 calc GR . .
H3SC H 0.6361 0.0463 0.4334 0.049 Uiso 1 1 calc GR . .
O1S O 0.3970(4) 0.4719(4) 0.39534(14) 0.0230(5) Uani 1 1 d . . .
loop_
_atom_site_aniso_label
_atom_site_aniso_U_11
_atom_site_aniso_U_22
_atom_site_aniso_U_33
_atom_site_aniso_U_23
_atom_site_aniso_U_13
_atom_site_aniso_U_12
C1 0.0307(18) 0.0185(14) 0.0196(14) 0.0036(11) -0.0069(13) -0.0086(13)
C2 0.0197(15) 0.0174(14) 0.0136(13) 0.0014(10) -0.0019(11) -0.0026(11)
C3 0.0287(17) 0.0246(15) 0.0229(15) 0.0022(12) -0.0102(13) -0.0129(13)
C4 0.041(2) 0.0280(17) 0.0272(16) 0.0078(13) -0.0117(15) -0.0246(16)
C5 0.040(2) 0.0246(16) 0.0248(16) 0.0069(12) -0.0130(14) -0.0169(15)
C6 0.040(2) 0.0278(17) 0.0322(18) 0.0115(14) -0.0195(16) -0.0213(15)
C7 0.0243(16) 0.0208(14) 0.0246(15) 0.0046(12) -0.0051(12) -0.0128(12)
C8 0.0314(19) 0.0251(16) 0.0304(17) 0.0033(13) -0.0074(15) -0.0107(14)
I1 0.01847(15) 0.01826(14) 0.02663(15) -0.00004(9) 0.00224(9) -0.00203(9)
O1 0.087(3) 0.0414(16) 0.0454(17) 0.0241(13) -0.0480(18) -0.0408(17)
O2 0.0325(14) 0.0236(11) 0.0269(12) 0.0116(9) -0.0149(10) -0.0140(10)
S1 0.0177(4) 0.0351(4) 0.0191(4) -0.0012(3) -0.0041(3) -0.0071(3)
C2S 0.0236(19) 0.052(2) 0.038(2) 0.0019(17) -0.0045(15) -0.0218(17)
C3S 0.032(2) 0.0274(17) 0.0352(19) 0.0026(14) -0.0138(15) -0.0014(14)
O1S 0.0163(11) 0.0292(12) 0.0228(11) 0.0080(9) -0.0056(9) -0.0058(9)
loop_
_atom_type_symbol
_atom_type_description
_atom_type_scat_dispersion_real
_atom_type_scat_dispersion_imag
_atom_type_scat_source
C C 0.0033 0.0016 'International Tables Vol C Tables 4.2.6.8 and 6.1.1.4'
H H 0.0000 0.0000 'International Tables Vol C Tables 4.2.6.8 and 6.1.1.4'
I I -0.4742 1.8119 'International Tables Vol C Tables 4.2.6.8 and 6.1.1.4'
O O 0.0106 0.0060 'International Tables Vol C Tables 4.2.6.8 and 6.1.1.4'
S S 0.1246 0.1234 'International Tables Vol C Tables 4.2.6.8 and 6.1.1.4'
loop_
_geom_angle_atom_site_label_1
_geom_angle_atom_site_label_2
_geom_angle_atom_site_label_3
_geom_angle
_geom_angle_site_symmetry_1
O1 C1 C2 122.8(3) .
O1 C1 O2 123.6(3) .
O2 C1 C2 113.6(3) .
C3 C2 C1 117.9(3) .
C7 C2 C1 122.1(3) .
C7 C2 C3 120.0(3) .
C2 C3 H3 119.9 .
C4 C3 C2 120.2(3) .
C4 C3 H3 119.9 .
C3 C4 H4 119.8 .
C3 C4 C5 120.3(3) .
C5 C4 H4 119.8 .
C4 C5 C6 119.5(3) .
C4 C5 C8 120.0(3) .
C6 C5 C8 120.5(3) .
C5 C6 H6 119.9 .
C7 C6 C5 120.1(3) .
C7 C6 H6 119.9 .
C2 C7 C6 120.0(3) .
C2 C7 H7 120.0 .
C6 C7 H7 120.0 .
C5 C8 I1 114.6(3) .
C8 C8 C5 126.0(5) 2_765
C8 C8 I1 119.3(4) 2_765
C1 O2 H2 109.5 .
C3S S1 C2S 98.82(19) .
O1S S1 C2S 106.01(17) .
O1S S1 C3S 104.66(17) .
S1 C2S H2SA 109.5 .
S1 C2S H2SB 109.5 .
S1 C2S H2SC 109.5 .
H2SA C2S H2SB 109.5 .
H2SA C2S H2SC 109.5 .
H2SB C2S H2SC 109.5 .
S1 C3S H3SA 109.5 .
S1 C3S H3SB 109.5 .
S1 C3S H3SC 109.5 .
H3SA C3S H3SB 109.5 .
H3SA C3S H3SC 109.5 .
H3SB C3S H3SC 109.5 .
loop_
_geom_bond_atom_site_label_1
_geom_bond_atom_site_label_2
_geom_bond_distance
_geom_bond_site_symmetry_2
C1 C2 1.497(4) .
C1 O1 1.202(4) .
C1 O2 1.320(4) .
C2 C3 1.393(4) .
C2 C7 1.389(4) .
C3 H3 0.9300 .
C3 C4 1.381(5) .
C4 H4 0.9300 .
C4 C5 1.393(5) .
C5 C6 1.399(5) .
C5 C8 1.491(5) .
C6 H6 0.9300 .
C6 C7 1.389(4) .
C7 H7 0.9300 .
C8 C8 1.325(8) 2_765
C8 I1 2.118(4) .
O2 H2 0.8200 .
S1 C2S 1.787(4) .
S1 C3S 1.780(4) .
S1 O1S 1.524(3) .
C2S H2SA 0.9600 .
C2S H2SB 0.9600 .
C2S H2SC 0.9600 .
C3S H3SA 0.9600 .
C3S H3SB 0.9600 .
C3S H3SC 0.9600 .
loop_
_geom_torsion_atom_site_label_1
_geom_torsion_atom_site_label_2
_geom_torsion_atom_site_label_3
_geom_torsion_atom_site_label_4
_geom_torsion
_geom_torsion_site_symmetry_4
C1 C2 C3 C4 178.6(3) .
C1 C2 C7 C6 -179.0(3) .
C2 C3 C4 C5 0.9(6) .
C3 C2 C7 C6 0.1(5) .
C3 C4 C5 C6 -0.8(6) .
C3 C4 C5 C8 176.9(4) .
C4 C5 C6 C7 0.4(6) .
C4 C5 C8 C8 81.0(6) 2_765
C4 C5 C8 I1 -94.9(4) .
C5 C6 C7 C2 -0.1(6) .
C6 C5 C8 C8 -101.3(6) 2_765
C6 C5 C8 I1 82.7(4) .
C7 C2 C3 C4 -0.5(5) .
C8 C5 C6 C7 -177.3(4) .
O1 C1 C2 C3 8.2(6) .
O1 C1 C2 C7 -172.7(4) .
O2 C1 C2 C3 -173.3(3) .
O2 C1 C2 C7 5.8(5) .
