#------------------------------------------------------------------------------
#$Date: 2015-09-06 01:32:58 +0300 (Sun, 06 Sep 2015) $
#$Revision: 154625 $
#$URL: svn://www.crystallography.net/cod/cif/4/12/41/4124177.cif $
#------------------------------------------------------------------------------
#
# This file is available in the Crystallography Open Database (COD),
# http://www.crystallography.net/
#
# All data on this site have been placed in the public domain by the
# contributors.
#
data_4124177
loop_
_publ_author_name
'Marshall, Ross J.'
'Griffin, Sarah L.'
'Wilson, Claire'
'Forgan, Ross S.'
_publ_section_title
;
 Single-Crystal to Single-Crystal Mechanical Contraction of Metal-Organic
 Frameworks through Stereoselective Postsynthetic Bromination.
;
_journal_issue                   30
_journal_name_full               'Journal of the American Chemical Society'
_journal_page_first              9527
_journal_page_last               9530
_journal_paper_doi               10.1021/jacs.5b05434
_journal_volume                  137
_journal_year                    2015
_chemical_formula_moiety         'Zr6O4(OH)4 (C16H8O4Br2)6'
_chemical_formula_sum            'C96 H52 Br12 O32 Zr6'
_chemical_formula_weight         3223.61
_space_group_crystal_system      cubic
_space_group_IT_number           225
_space_group_name_Hall           '-F 4 2 3'
_space_group_name_H-M_alt        'F m -3 m'
_symmetry_space_group_name_Hall  '-F 4 2 3'
_symmetry_space_group_name_H-M   'F m -3 m'
_atom_sites_solution_hydrogens   geom
_audit_creation_date             2015-04-22
_audit_creation_method
;
Olex2 1.2
(compiled 2015.01.26 svn.r3150 for OlexSys, GUI svn.r4998)
;
_cell_angle_alpha                90
_cell_angle_beta                 90
_cell_angle_gamma                90
_cell_formula_units_Z            4
_cell_length_a                   29.861(2)
_cell_length_b                   29.861(2)
_cell_length_c                   29.861(2)
_cell_measurement_reflns_used    18323
_cell_measurement_temperature    100
_cell_measurement_theta_max      27.5
_cell_measurement_theta_min      2.7
_cell_volume                     26626(3)
_computing_cell_refinement
;
CrystalClear-SM Expert 3.1 b27 (Rigaku, 20112)
;
_computing_data_collection
;
CrystalClear-SM Expert 3.1 b27 (Rigaku, 20112)
;
_computing_data_reduction
;
CrystalClear-SM Expert 3.1 b27 (Rigaku, 20112)
;
_computing_molecular_graphics    'Olex2 (Dolomanov et al., 2009)'
_computing_publication_material  'Olex2 (Dolomanov et al., 2009)'
_computing_structure_refinement  'ShelXL (Sheldrick, 2008)'
_computing_structure_solution
;
Superflip (Palatinus & Chapuis, 2007)
;
_diffrn_ambient_temperature      100
_diffrn_detector                 CCD
_diffrn_detector_area_resol_mean 28.5714
_diffrn_detector_type            'Rigaku HG Saturn724+ (2x2 bin mode)'
_diffrn_measured_fraction_theta_full 0.993
_diffrn_measured_fraction_theta_max 0.994
_diffrn_measurement_details
;
scan:
    Number of images: 118
               Slice: -45.0000 - 73.0000
         Image width: 1.0000
            Exp time: 30.0000
       Rotation axis: Omega
               Omega: 0.0000
               Kappa: 24.0000
                 Phi: -82.0000
                 XTD: 45.0264
              2theta: -17.2610
scan:
    Number of images: 26
               Slice: -51.0000 - -25.0000
         Image width: 1.0000
            Exp time: 30.0000
       Rotation axis: Omega
               Omega: 0.0000
               Kappa: 40.0000
                 Phi: -82.0000
                 XTD: 45.0264
              2theta: -17.2610
;
_diffrn_measurement_device       'four-circle \k diffractometer'
_diffrn_measurement_device_type  'Rigaku AFC12 (Right)'
_diffrn_measurement_method       'profile data from \w-scans'
_diffrn_measurement_specimen_support 'MiTeGen MicroMount'
_diffrn_orient_matrix_type       d*Trek
_diffrn_orient_matrix_UB_11      0.006514
_diffrn_orient_matrix_UB_12      -0.032822
_diffrn_orient_matrix_UB_13      -0.001313
_diffrn_orient_matrix_UB_21      -0.027612
_diffrn_orient_matrix_UB_22      -0.004747
_diffrn_orient_matrix_UB_23      -0.018344
_diffrn_orient_matrix_UB_31      0.017793
_diffrn_orient_matrix_UB_32      0.004651
_diffrn_orient_matrix_UB_33      -0.027986
_diffrn_radiation_collimation    'Confocal mirrors, VHF Varimax '
_diffrn_radiation_monochromator  Mirrors
_diffrn_radiation_type           MoK\a
_diffrn_radiation_wavelength     0.71075
_diffrn_reflns_av_R_equivalents  0.0577
_diffrn_reflns_av_unetI/netI     0.0219
_diffrn_reflns_laue_measured_fraction_full 0.993
_diffrn_reflns_laue_measured_fraction_max 0.994
_diffrn_reflns_limit_h_max       38
_diffrn_reflns_limit_h_min       -18
_diffrn_reflns_limit_k_max       38
_diffrn_reflns_limit_k_min       -24
_diffrn_reflns_limit_l_max       34
_diffrn_reflns_limit_l_min       -34
_diffrn_reflns_number            22280
_diffrn_reflns_point_group_measured_fraction_full 0.993
_diffrn_reflns_point_group_measured_fraction_max 0.994
_diffrn_reflns_theta_full        25.242
_diffrn_reflns_theta_max         27.486
_diffrn_reflns_theta_min         2.729
_diffrn_source                   'Rotating Anode'
_diffrn_source_current           55.0
_diffrn_source_power             2.475
_diffrn_source_voltage           45.0
_exptl_absorpt_coefficient_mu    2.058
_exptl_absorpt_correction_T_max  1.000
_exptl_absorpt_correction_T_min  0.726
_exptl_absorpt_correction_type   multi-scan
_exptl_absorpt_process_details
'CrystalClear-SM Expert 3.1 b27 (Rigaku, 20112)'
_exptl_crystal_colour            Colorless
_exptl_crystal_density_diffrn    0.804
_exptl_crystal_description       Block
_exptl_crystal_F_000             6176
_exptl_crystal_size_max          0.073
_exptl_crystal_size_mid          0.062
_exptl_crystal_size_min          0.054
_refine_diff_density_max         0.621
_refine_diff_density_min         -0.904
_refine_diff_density_rms         0.100
_refine_ls_extinction_method     none
_refine_ls_goodness_of_fit_ref   1.069
_refine_ls_hydrogen_treatment    constr
_refine_ls_matrix_type           full
_refine_ls_number_parameters     36
_refine_ls_number_reflns         1567
_refine_ls_number_restraints     8
_refine_ls_restrained_S_all      1.078
_refine_ls_R_factor_all          0.0973
_refine_ls_R_factor_gt           0.0783
_refine_ls_shift/su_max          0.000
_refine_ls_shift/su_mean         0.000
_refine_ls_structure_factor_coef Fsqd
_refine_ls_weighting_details
'w=1/[\s^2^(Fo^2^)+(0.1089P)^2^+317.9326P] where P=(Fo^2^+2Fc^2^)/3'
_refine_ls_weighting_scheme      calc
_refine_ls_wR_factor_gt          0.2123
_refine_ls_wR_factor_ref         0.2314
_reflns_Friedel_coverage         0.000
_reflns_number_gt                1236
_reflns_number_total             1567
_reflns_threshold_expression     'I > 2\s(I)'
_cod_data_source_file            ja5b05434_si_002.cif
_cod_data_source_block           1BR2
_cod_depositor_comments
;
The following automatic conversions were performed:

'_exptl_absorpt_correction_type' value 'Multi-scan' changed to
'multi-scan' according to
/usr/data/users/saulius/crontab/automatic-downloads/rss-feeds/ACS/lib/dictionaries/cif_core.dic
dictionary named 'cif_core.dic' version 2.4.2 from 2011-04-26.

Automatic conversion script
Id: cif_fix_values 3271 2015-04-21 07:52:19Z andrius 

 Adding full bibliography for 4124172--4124178.cif.
;
_cod_original_cell_volume        26626(5)
_cod_database_code               4124177
_shelx_space_group_comment
;
The symmetry employed for this shelxl refinement is uniquely defined
by the following loop, which should always be used as a source of
symmetry information in preference to the above space-group names.
They are only intended as comments.
;
_platon_squeeze_void_probe_radius 1.20
_olex2_refinement_description
;
1. Fixed Uiso
 At 1.2 times of:
  All C(H) groups
2. Restrained distances
 C3A-C2 = C4A-C3A = C5-C4A
 1.39 with sigma of 0.01
 C5-C6
 1.48 with sigma of 0.01
 Br1-C6
 1.88 with sigma of 0.02
 Br1-C6
 1.88 with sigma of 0.02
 C6-C6_$1
 1.32 with sigma of 0.02
3. Restrained planarity
 C2, C3A, C4A, C5
 with sigma of 0.1
4. Others
 Fixed Sof: Br1(0.25) C6(0.25) C4A(0.5) H4A(0.5) C3A(0.5) H3A(0.5)
5.a Aromatic/amide H refined with riding coordinates:
 C4A(H4A), C3A(H3A)
;
_shelx_res_file
;
    2015ncs0105_sq.res created by SHELXL-2014/7

TITL proc2_r
rem DFIX 1.49 0.005 C6_$1 C5
rem DFIX 1.32 0.005 C6_$1 C6_$2
rem DFIX 2.5 C5_$3 C6_$4
rem DFIX 1.32 C6 C6_$1
CELL 0.71075 29.861 29.861 29.861 90 90 90
ZERR 4 0.002 0.002 0.002 0 0 0
LATT 4
SYMM -Y,+X,+Z
SYMM -X,-Y,+Z
SYMM +Y,-X,+Z
SYMM +X,-Z,+Y
SYMM +X,-Y,-Z
SYMM +X,+Z,-Y
SYMM +Z,+Y,-X
SYMM -X,+Y,-Z
SYMM -Z,+Y,+X
SYMM +Z,+X,+Y
SYMM +Y,+Z,+X
SYMM -Y,-Z,+X
SYMM +Z,-X,-Y
SYMM -Y,+Z,-X
SYMM -Z,-X,+Y
SYMM -Z,+X,-Y
SYMM +Y,-Z,-X
SYMM +Y,+X,-Z
SYMM -Y,-X,-Z
SYMM -X,+Z,+Y
SYMM -X,-Z,-Y
SYMM +Z,-Y,+X
SYMM -Z,-Y,-X
SFAC C H Br O Zr
UNIT 384 208 48 128 24
EQIV $1 1-Y,1-X,1-Z
DFIX 1.39 0.01 C3A C2 C4A C3A C5 C4A
DFIX 1.48 0.01 C5 C6
DFIX 1.88 Br1 C6
DFIX 1.88 Br1 C6
DFIX 1.32 C6 C6_$1
FLAT C2 C3A C4A C5

L.S. 5 0 14
PLAN  20
ABIN
fmap 2 53
ACTA
OMIT 0 4 4
OMIT 4 6 6
REM <olex2.extras>
REM <HklSrc "%.\\2015ncs0105_sq.hkl">
REM </olex2.extras>

WGHT    0.108900  317.932617
FVAR       0.20639
ZR1   5    0.500000    0.082593    0.500000    10.12500    0.04000    0.02275 =
         0.04000    0.00000    0.00000    0.00000
O1    4    0.563848    0.119359    0.500000    10.50000    0.07209    0.05914 =
         0.08689    0.00000    0.00000   -0.03088
O2    4    0.541032    0.041032    0.541032    10.16667    0.07617    0.07617 =
         0.07617    0.04055    0.04055    0.04055
C1    1    0.604271    0.104271    0.500000    10.25000    0.08136
C2    1    0.640787    0.140787    0.500000    10.25000    0.10892
C5    1    0.703747    0.203747    0.500000    10.25000    0.22954
BR1   3    0.738509    0.261491    0.426038    10.25000    0.45418    0.45418 =
         0.26537    0.11850   -0.11850   -0.29501
C6    1    0.737874    0.237874    0.485335    10.25000    0.33564
PART -1
C4A   1    0.660743    0.218283    0.485265    10.50000    0.13802
AFIX  43
H4A   2    0.654918    0.247333    0.475664    10.50000   -1.20000
AFIX   0
C3A   1    0.627870    0.184416    0.486635    10.50000    0.10829
AFIX  43
H3A   2    0.598335    0.190598    0.478925    10.50000   -1.20000
AFIX   0
HKLF 4

REM  proc2_r
REM R1 =  0.0783 for    1236 Fo > 4sig(Fo)  and  0.0973 for all    1567 data
REM     36 parameters refined using      8 restraints

END

WGHT      0.1089    317.8817

REM Highest difference peak  0.621,  deepest hole -0.904,  1-sigma level  0.100
Q1    1   0.5801  0.1238  0.5000  10.50000  0.05    0.51
Q2    1   0.6014  0.2004  0.5000  10.50000  0.05    0.48
Q3    1   0.6371  0.2446  0.5000  10.50000  0.05    0.43
Q4    1   0.7436  0.2436  0.4803  10.50000  0.05    0.38
Q5    1   0.5452  0.0452  0.5605  10.50000  0.05    0.38
Q6    1   0.5000  0.2399  0.5000  10.12500  0.05    0.35
Q7    1   0.5479  0.1394  0.5000  10.50000  0.05    0.34
Q8    1   0.6431  0.2538  0.5000  10.50000  0.05    0.34
Q9    1   0.7182  0.2613  0.4384  11.00000  0.05    0.34
Q10   1   0.6412  0.1412  0.5205  10.50000  0.05    0.32
Q11   1   0.5819  0.1213  0.4899  11.00000  0.05    0.31
Q12   1   0.7023  0.2023  0.4716  10.50000  0.05    0.30
Q13   1   0.6348  0.1348  0.3759  10.50000  0.05    0.29
Q14   1   0.6383  0.1774  0.5000  10.50000  0.05    0.28
Q15   1   0.5734  0.1586  0.5000  10.50000  0.05    0.23
Q16   1   0.5000  0.2501  0.5000  10.12500  0.05    0.22
Q17   1   0.6751  0.2373  0.4387  11.00000  0.05    0.21
Q18   1   0.5814  0.1958  0.4186  10.50000  0.05    0.20
Q19   1   0.6355  0.2415  0.4607  11.00000  0.05    0.20
Q20   1   0.6255  0.1838  0.4537  11.00000  0.05    0.19
;
_shelx_res_checksum              16146
_shelx_hkl_file
;
   0   4   0 38358.1 641.120   1
   0   0  -4 36268.4 664.350   1
  -4   0   0 35741.9 599.050   1
   1  -3  -3 3179.49 114.240   1
   1   3   3 3168.55 107.500   1
  -1  -3  -3 3387.24 106.210   1
   3   1   3 3339.28 89.6900   1
   3   3   1 2955.71 86.7600   1
  -3  -1  -3 3371.75 87.9200   1
  -3  -3  -1 3351.61 102.340   1
   3  -1   3 3356.19 95.5900   1
   3   3  -1 3128.49 86.3900   1
  -3  -3   1 3016.93 87.2800   1
  -1   3   3 3116.64 92.8600   1
   1  -3  -3 3182.88 96.3400   1
  -1   3   3 3202.18 107.850   1
   2   2   4 3366.98 104.140   1
  -4  -2   2 2935.03 87.5200   1
   4  -2   2 2809.69 88.4700   1
   2  -4  -2 2860.18 90.1400   1
   2  -4   2 2778.29 90.6000   1
   2   4   2 3004.52 87.7100   1
  -2  -4  -2 3181.94 97.2900   1
   4   2   2 3063.04 86.4400   1
   2   4  -2 3153.54 81.1600   1
  -4  -2  -2 3136.69 84.6400   1
  -2  -4   2 3020.24 84.1300   1
   4   2  -2 2892.46 85.0000   1
   3   3   3 8102.36 165.790   1
  -3  -3  -3 8189.24 169.910   1
   3   3  -3 8423.34 159.910   1
  -3  -3   3 8779.63 172.200   1
   1  -5  -1 900.150 46.5300   1
   1  -1  -5 850.160 53.9900   1
   1  -1   5 911.440 57.1900   1
  -1   5   1 900.640 59.4300   1
   1   1   5 878.250 60.7500   1
  -1   5  -1 799.010 56.5800   1
   1  -5  -1 843.320 54.8300   1
  -1   1  -5 839.980 55.7500   1
  -1  -1  -5 846.150 52.8500   1
   1  -5   1 887.180 57.2100   1
   1   5   1 875.060 52.2900   1
  -1  -5  -1 862.760 45.3500   1
   1   5  -1 823.880 42.0500   1
  -1  -5   1 902.430 45.9000   1
   5   1   1 855.660 42.9900   1
  -5  -1  -1 930.580 45.9900   1
   5   1  -1 796.930 42.4300   1
   5  -1   1 853.780 42.2300   1
  -5  -1   1 867.230 48.6500   1
   1   1   5 888.150 42.8300   1
  -1   5   1 897.960 45.5600   1
  -1  -1  -5 921.460 50.5800   1
  -1   5  -1 876.900 44.1000   1
   0   4   4 10842.8 227.810   1
   0  -4  -4 11073.0 232.510   1
   4   0   4 10354.6 200.610   1
   4   4   0 10612.4 195.490   1
  -4   0  -4 10796.0 201.820   1
  -4  -4   0 10579.5 204.420   1
   0   4   4 10412.4 199.630   1
   0  -4  -4 10366.1 203.170   1
   3   5   1 1580.00 53.5400   1
  -3   1  -5 1499.77 52.1700   1
  -3  -5  -1 1608.98 63.6800   1
   5   3  -1 1607.19 59.7000   1
   3   1   5 1518.55 59.8200   1
   1   5  -3 1539.18 61.2000   1
   3   5  -1 1558.60 56.4600   1
   5   1   3 1619.55 59.8200   1
  -3  -5   1 1552.17 59.4800   1
   5   3   1 1522.33 63.6400   1
  -1  -5   3 1497.47 60.7500   1
  -5  -1  -3 1570.61 58.8900   1
   3  -5  -1 1543.03 55.6100   1
  -5   1  -3 1632.83 65.5700   1
  -5  -3   1 1517.34 52.4400   1
   5  -1   3 1461.89 55.2800   1
   3  -5  -1 1543.25 73.6500   1
   3  -5   1 1546.00 73.2800   1
  -1   3   5 1539.52 70.9800   1
  -1   5   3 1610.89 77.3300   1
   1  -3  -5 1573.29 74.3300   1
   1  -5  -3 1615.81 74.8000   1
   1   3   5 1653.60 76.1900   1
  -1  -3  -5 1582.52 69.3000   1
  -1  -5  -3 1584.07 64.6000   1
  -5  -3  -1 1387.29 52.4400   1
   3  -1   5 1629.99 63.7400   1
  -3  -1  -5 1621.49 60.2400   1
   3  -5   1 1518.39 59.7200   1
   1  -3  -5 1493.48 57.8000   1
  -1   5   3 1420.78 58.7500   1
   1   3   5 1589.03 59.7200   1
   1  -5  -3 1405.50 61.6100   1
   4  -2   4 1375.00 56.4200   1
   4   4  -2 1382.60 54.1000   1
   2   4  -4 1334.83 53.9200   1
  -4  -4   2 1407.84 57.4400   1
   2  -4  -4 1285.15 55.3400   1
   4   4   2 1390.26 61.6100   1
   4   2   4 1345.55 52.3600   1
   2  -4  -4 1486.62 74.9600   1
   2   4   4 1298.72 61.6200   1
  -2  -4  -4 1378.28 57.0200   1
  -4  -2  -4 1300.90 51.4600   1
  -4  -4  -2 1391.45 62.4300   1
   0  -6   0 339.610 37.6300   1
   0   0  -6 268.140 48.3700   1
   0   6   0 336.320 42.7700   1
   6   0   0 506.700 38.2800   1
   2   6   0 2609.52 79.1100   1
   2  -6   0 2509.92 82.9500   1
  -2  -6   0 2736.45 79.2000   1
   2   0   6 2480.66 82.1600   1
   6   2   0 2675.21 83.9900   1
  -6  -2   0 2460.43 70.1700   1
   0   6   2 2454.94 75.9000   1
   0  -6   2 2808.09 87.4100   1
   0  -2  -6 2549.46 78.5900   1
  -2   6   0 2551.43 76.3900   1
  -6   0  -2 2612.11 75.9200   1
   6   0   2 2706.31 82.7200   1
   0   2   6 2842.31 103.700   1
  -2   6   0 2911.39 99.0600   1
   0  -2  -6 2746.25 99.9900   1
   2  -6   0 2567.23 103.110   1
   0   6   2 2587.21 85.8700   1
   2   0   6 2878.84 101.890   1
   0  -6  -2 2807.83 95.7300   1
   0   6  -2 2648.79 77.6200   1
  -2   0  -6 2844.76 92.9500   1
  -3  -3  -5 1191.82 51.9400   1
  -3  -5  -3 1262.67 57.0900   1
   5   3   3 1325.64 52.9000   1
  -5  -3  -3 1270.88 52.1500   1
   3   5  -3 1255.35 51.7400   1
  -3  -5   3 1368.88 54.0300   1
  -5  -3   3 1331.34 54.1800   1
   5  -3   3 1354.27 58.6600   1
   3  -5  -3 1393.48 63.8300   1
   3  -5   3 1444.40 63.0700   1
   3  -5  -3 1108.99 59.9000   1
   3   5   3 1199.33 57.6200   1
   3   3   5 1206.09 50.1300   1
   4   4  -4 1196.73 48.6400   1
  -4  -4   4 1252.95 54.0200   1
  -4  -4  -4 1190.31 46.2800   1
   4   4   4 1261.37 55.1500   1
  -1   5   5 1092.30 72.1800   1
   1   5   5 1099.23 66.6400   1
  -1  -5  -5 1100.49 51.5000   1
   5   1   5 1209.96 49.8900   1
   5   5   1 1276.70 54.1200   1
   5  -1   5 1188.70 49.7200   1
  -5  -1  -5 1204.17 49.3000   1
  -5  -5  -1 1303.65 60.4300   1
   5   5  -1 1231.67 46.6000   1
   1   5  -5 1219.93 48.2100   1
  -5  -5   1 1234.23 50.8800   1
  -1  -5   5 1346.00 51.2900   1
  -1   5   5 1355.58 57.0900   1
   1  -5  -5 1418.46 60.1800   1
   1   5   5 1377.17 56.4200   1
   1  -7  -1 11142.8 234.090   1
   1   7   1 11092.7 209.330   1
   1  -7   1 10809.4 211.180   1
   1   7  -1 11321.7 206.080   1
  -1  -7  -1 11149.8 211.560   1
  -1  -7   1 11127.8 212.940   1
   7   1   1 11459.8 198.420   1
   7   1  -1 11341.4 200.090   1
  -7  -1  -1 11352.8 208.500   1
   7  -1   1 10897.8 201.440   1
  -7  -1   1 11426.9 212.790   1
  -1   1  -7 11646.8 218.870   1
  -1   7   1 11168.5 198.610   1
  -1   7  -1 11533.6 202.460   1
  -5   1  -5 1241.32 49.0300   1
   1  -1   7 11054.4 236.270   1
   1  -1  -7 11113.8 241.380   1
   1   1   7 11037.5 224.230   1
  -1   7   1 11567.9 234.250   1
  -1   1  -7 11060.5 226.350   1
  -1   7  -1 10977.5 221.740   1
  -1  -1  -7 10704.5 225.560   1
   0   4   6 34588.2 547.230   1
  -6   0  -4 35769.1 597.180   1
  -6  -4   0 36704.9 615.510   1
   6   0   4 34883.8 501.760   1
   0  -6  -4 34589.6 503.460   1
   0  -6   4 36327.4 593.400   1
   6   4   0 34743.6 509.840   1
  -4  -6   0 36827.2 611.800   1
   0   6   4 35430.9 522.250   1
   4   6   0 36455.2 599.150   1
   0  -6  -4 35961.6 629.960   1
   0   6  -4 34243.6 507.430   1
   4   0   6 37283.8 621.690   1
   0  -4  -6 34455.8 513.040   1
   0   4   6 36646.8 606.980   1
   4  -6   0 35137.9 524.020   1
  -2   6   4 2990.46 109.220   1
   2  -4  -6 3093.02 101.770   1
   2  -6  -4 2851.25 106.770   1
   2   4   6 3025.77 99.5400   1
   2   6   4 3004.68 94.9700   1
   2  -4  -6 3332.95 98.9100   1
   4   6   2 3163.62 82.8200   1
   4  -2   6 3033.72 85.4900   1
  -4  -2  -6 3125.72 89.9100   1
  -4  -6  -2 3127.03 97.1000   1
   6   2   4 2984.88 76.6900   1
   6   4   2 3029.69 78.7300   1
   2   6  -4 3087.17 81.6500   1
   4   6  -2 3226.73 82.7000   1
  -4   2  -6 3148.26 80.4100   1
  -6  -2  -4 3399.37 94.4700   1
  -6  -4  -2 3475.78 96.2200   1
  -4  -6   2 3144.34 88.0800   1
   6  -2   4 3410.73 94.0700   1
   6   4  -2 3274.15 90.2600   1
  -2  -6   4 3108.24 83.3200   1
  -6  -4   2 3456.87 95.4400   1
  -6   2  -4 3437.33 91.6100   1
   2   4  -6 3355.22 90.6600   1
   6   2  -4 3189.86 84.0800   1
  -2   6   4 3372.40 98.5500   1
   4  -6   2 3515.28 102.110   1
   2  -6  -4 3420.87 98.7200   1
  -2   6  -4 3505.43 99.0200   1
   2   4   6 3391.54 89.4100   1
   4   2   6 2997.13 86.9000   1
  -2  -4  -6 3056.28 92.8700   1
   4  -6  -2 3044.52 109.040   1
   7   3  -1 3802.53 90.9200   1
   7  -1   3 3876.84 98.8600   1
  -7  -1  -3 4217.26 108.420   1
   7   1   3 3939.99 90.9000   1
   7   3   1 3765.96 90.1400   1
  -1  -7   3 3916.13 97.0300   1
  -3  -7   1 3994.94 109.330   1
  -3  -7  -1 3949.29 110.080   1
   3   7  -1 3890.92 94.6300   1
   1   7  -3 3845.90 97.8500   1
   3   7   1 4095.14 104.300   1
   1  -7   3 3846.60 105.590   1
   5   5  -3 10951.1 192.680   1
   1   7   3 4006.06 110.180   1
  -1   7  -3 3680.04 109.060   1
  -5  -5  -3 11401.2 203.650   1
   1  -7  -3 3996.08 120.370   1
   3  -7   1 3882.54 125.840   1
  -1   7   3 3814.26 118.700   1
   3  -7  -1 3901.86 130.940   1
   5   5   3 11060.1 201.430   1
  -5  -5   3 11676.4 209.790   1
  -1  -7  -3 3802.92 121.620   1
  -7  -3   1 4025.68 103.730   1
  -7  -3  -1 3916.93 106.170   1
  -7   1  -3 4012.39 102.050   1
   7   1  -3 3831.59 100.950   1
  -3   7   1 4052.12 99.2200   1
  -3   7  -1 4041.11 101.770   1
  -1   7   3 4071.17 110.820   1
   3  -7  -1 4135.58 101.690   1
   3  -7   1 3958.83 104.110   1
   1  -7  -3 4051.41 113.760   1
   5   3  -5 11533.8 209.090   1
   3  -5  -5 10621.7 240.550   1
   3   1   7 3884.28 111.710   1
   1   3   7 4132.99 100.320   1
  -1   3   7 3800.64 103.860   1
  -1   3  -7 4077.71 166.490   1
   1  -3  -7 3729.58 121.590   1
   1   3   7 3724.04 113.620   1
  -1  -3  -7 4070.93 115.550   1
   3  -1   7 3903.82 118.290   1
  -3  -1  -7 3818.72 104.530   1
  -3   1  -7 3947.46 96.8400   1
   3   5   5 10793.9 209.690   1
  -3  -5  -5 11667.2 215.960   1
   5   3   5 11519.5 210.760   1
  -5  -3  -5 11408.6 215.320   1
   1  -3  -7 4234.91 111.950   1
   5  -3   5 11403.3 210.330   1
   3   5  -5 10960.1 200.890   1
  -5   3  -5 10828.8 197.840   1
  -1  -3  -7 4256.63 112.510   1
   3   1   7 4263.87 102.630   1
  -3  -5   5 10698.3 195.930   1
   0   0  -8 70704.2 1159.43   1
   8   0   0 73110.0 1143.68   1
   0  -8   0 76247.4 1196.41   1
   0   8   0 70923.0 1116.34   1
   7   3  -3 2269.26 66.9600   1
  -3  -7   3 2290.74 77.2500   1
   3  -7  -3 2194.03 94.1400   1
   3   7  -3 2276.00 70.0600   1
   3  -7  -3 2132.73 83.1500   1
   7   3   3 2136.63 71.4200   1
   3   3   7 2254.94 70.2100   1
  -3  -7  -3 2115.98 68.0400   1
   3  -7   3 2139.92 75.5400   1
  -3  -3  -7 2140.99 67.5500   1
   3   7   3 2166.76 71.6300   1
   3   3   7 2169.54 73.8400   1
   3  -7   3 2190.60 94.8600   1
  -7  -3  -3 2282.50 77.1700   1
   7  -3   3 2225.58 66.8200   1
  -7  -3   3 2176.76 72.8800   1
  -3   7  -3 2261.81 74.2400   1
   2   0   8 3825.90 112.490   1
  -2   8   0 3569.97 100.880   1
   0   2   8 3785.29 114.210   1
   0   8   2 3658.48 104.470   1
   8   0  -2 3801.98 101.950   1
  -8   0  -2 3893.05 102.960   1
  -8  -2   0 3836.93 102.910   1
   8   2   0 3765.44 90.8000   1
   0   2  -8 3615.39 115.570   1
   8   0   2 3771.46 97.7300   1
  -2  -8   0 4001.47 108.180   1
   0  -8   2 3960.12 106.000   1
   0   8  -2 3632.55 99.6300   1
   0  -8  -2 3789.48 111.940   1
   2   8   0 3872.29 94.9400   1
  -2   8   0 4077.52 98.8200   1
   0  -2  -8 3962.39 104.810   1
   0   8   2 3992.84 104.800   1
   2  -8   0 3840.37 103.390   1
   2  -8   0 3753.50 122.830   1
  -2   0  -8 3681.26 106.160   1
   0  -2  -8 3829.83 128.810   1
   4   6   4 5205.11 125.730   1
   4   4   6 5122.07 112.970   1
   4  -6  -4 5287.31 158.810   1
   4   6  -4 5474.98 118.270   1
  -4  -6   4 5315.17 129.360   1
   6   4  -4 5247.99 117.610   1
   6  -4   4 5351.05 123.640   1
   4   4  -6 5368.85 119.620   1
  -6  -4   4 5312.79 124.950   1
   4  -6   4 5369.69 130.450   1
  -4  -6  -4 5023.86 113.790   1
  -4  -4  -6 5478.59 133.470   1
   6   4   4 5198.05 110.000   1
  -6  -4  -4 5390.83 119.420   1
   2   8   2 2936.86 81.5200   1
  -2  -8   2 2963.56 90.6100   1
   8   2   2 2613.96 78.1700   1
  -2   8  -2 2594.05 79.0200   1
   6   0   6 15003.8 251.130   1
   6   6   0 14588.0 243.560   1
  -6   0  -6 14316.4 235.150   1
  -6  -6   0 14355.0 247.940   1
  -8  -2  -2 2632.11 82.7200   1
   5   5   5 642.800 38.6400   1
  -5  -5  -5 617.120 41.8400   1
   5   5  -5 712.320 43.8000   1
   5  -5   5 680.990 40.1200   1
  -5  -5   5 703.280 42.9100   1
  -1   7  -5 464.840 40.5200   1
  -1  -7  -5 499.250 49.4700   1
   5   1   7 474.910 40.1000   1
   5  -1   7 517.930 38.1200   1
   5   7   1 479.480 41.5900   1
   1   7  -5 490.550 33.3400   1
   5   7  -1 506.670 34.0500   1
   7   1   5 512.440 40.8500   1
  -5  -7  -1 505.400 34.8600   1
   1  -7   5 501.200 34.5600   1
   7   5   1 468.260 42.8400   1
  -5   1  -7 518.580 39.1700   1
   7  -1   5 526.180 38.3000   1
  -5  -7   1 500.520 34.2800   1
   7   5  -1 574.630 44.2200   1
  -7  -1  -5 553.480 40.3500   1
  -7  -5  -1 524.200 42.0200   1
  -1  -7   5 538.470 38.2200   1
  -7  -5   1 498.420 41.4400   1
  -7   1  -5 523.320 37.5900   1
   1   5  -7 478.480 36.6600   1
   5  -7   1 544.070 41.0600   1
  -1   7   5 523.190 45.5100   1
   1  -5  -7 567.580 44.5700   1
   1   5   7 544.470 36.7600   1
   1   7   5 543.030 45.8900   1
   1  -7  -5 560.600 45.7000   1
  -5  -1  -7 542.020 38.4900   1
  -1   5   7 509.720 49.9700   1
  -1   7   5 543.660 62.6100   1
   1   5   7 461.010 46.9800   1
   1  -5  -7 474.570 46.3000   1
   1  -7  -5 488.460 57.2300   1
   1   7   5 486.960 58.3700   1
  -1  -5  -7 504.000 51.6300   1
  -2   6   6 24093.2 398.830   1
   2  -6  -6 23953.2 411.710   1
   2   6   6 25230.5 397.770   1
  -2  -6  -6 24551.2 400.000   1
  -6  -2  -6 24754.0 396.130   1
  -6  -6  -2 24577.1 376.280   1
   6   6  -2 24179.1 364.110   1
   2   6  -6 24235.4 376.290   1
  -6   2  -6 24562.0 378.060   1
  -6  -6   2 24217.2 378.280   1
  -2  -6   6 23648.3 374.990   1
   2  -6  -6 24257.8 385.070   1
   2   6   6 24643.4 381.010   1
   4   8   0 2226.56 67.8500   1
  -4   0  -8 2111.80 67.1200   1
   0   8   4 2299.54 78.8700   1
   0   4   8 2291.58 82.7200   1
   0  -4  -8 2264.64 74.1600   1
   4  -8   0 2244.00 83.3300   1
   0   4   8 2254.12 69.3400   1
   0   8  -4 2253.99 76.1000   1
   4   0   8 2297.47 78.0000   1
   0  -4  -8 2134.37 86.2900   1
   0   8   4 2313.07 89.3300   1
   4  -8   0 2157.93 90.9000   1
   0  -8  -4 2227.89 87.7700   1
  -8   0  -4 2350.69 74.1900   1
  -8  -4   0 2225.55 80.0900   1
   8   4   0 2245.45 72.2300   1
   8   0   4 2292.11 69.3700   1
  -4  -8   0 2162.73 68.0000   1
   0  -8   4 2206.03 71.6000   1
  -1   9   1 17649.7 287.330   1
   9   1   1 16885.4 277.980   1
   1  -9  -1 17890.3 322.640   1
   1   9   1 17055.6 281.940   1
  -1  -1  -9 16274.2 295.700   1
  -1  -9   1 16612.9 279.220   1
  -1  -9  -1 17216.0 304.000   1
   1   9  -1 16849.7 276.950   1
   1  -9   1 16830.2 306.540   1
  -3   7  -5 4513.46 118.520   1
   3  -5  -7 4151.34 130.480   1
   3  -7  -5 4338.25 134.830   1
   3   5   7 4119.05 113.380   1
   3   7   5 4099.14 110.460   1
   5   3   7 4309.84 98.9700   1
  -3  -5  -7 4271.96 113.220   1
   5  -3   7 4259.49 110.710   1
  -5  -3  -7 4494.95 115.220   1
   7   3   5 4501.32 104.090   1
  -5  -7  -3 4417.87 115.710   1
   7   5   3 4052.27 92.0800   1
   3  -7  -5 4186.72 104.560   1
  -1   9  -1 16662.2 294.830   1
  -1   9   1 16247.4 285.780   1
   1  -1  -9 16296.3 298.960   1
   1   1   9 16246.8 298.860   1
   1   1  -9 17247.4 314.920   1
  -7  -3  -5 4338.76 106.400   1
  -7  -5  -3 4506.42 112.780   1
   3   7  -5 4334.50 99.4900   1
   7   5  -3 4365.96 105.660   1
  -5  -7   3 4578.13 112.370   1
   7  -3   5 4584.78 108.270   1
  -3  -7   5 4415.59 106.840   1
  -7  -5   3 4588.09 107.250   1
   3   5  -7 4403.72 117.720   1
   7   3  -5 4343.68 106.930   1
   5   7  -3 4579.94 105.610   1
  -7   3  -5 4556.24 107.560   1
   3  -5  -7 4293.21 109.720   1
   9   1  -1 16474.3 279.190   1
   9  -1   1 17485.5 280.550   1
   5  -7   3 4439.65 112.110   1
  -9  -1  -1 17128.6 287.020   1
   9  -1  -1 17691.6 291.140   1
  -1   1  -9 17998.0 293.170   1
  -1  -1  -9 17947.2 298.610   1
  -2   8   4 4771.00 131.160   1
   4  -8   2 4125.96 106.970   1
   2  -4  -8 4803.46 141.790   1
   4  -8   2 4678.07 150.120   1
  -2   8  -4 4556.14 127.630   1
   2  -8  -4 4609.27 146.430   1
   2   4   8 4748.56 121.650   1
   2   8   4 4567.12 114.910   1
  -2  -4  -8 4388.59 111.660   1
   2  -8   4 4452.34 115.620   1
  -2  -8  -4 4531.06 114.370   1
   4   8   2 4575.45 105.490   1
  -4  -2  -8 4438.96 107.090   1
  -4  -8  -2 4514.41 118.440   1
  -4   2  -8 4525.69 106.440   1
   4   8  -2 4490.93 98.7100   1
   8   2   4 4363.16 101.580   1
  -4  -8   2 4486.18 112.420   1
   8   4   2 4350.75 98.8900   1
  -2  -8   4 4263.38 108.300   1
  -8  -2  -4 4151.04 104.790   1
  -8  -4  -2 4390.94 107.730   1
   8   4  -2 4414.73 105.620   1
   8  -2   4 4307.57 106.680   1
  -8   2  -4 4027.38 102.310   1
   2  -4  -8 4072.39 101.470   1
   4  -8  -2 3965.07 115.340   1
   2  -8  -4 3950.58 116.430   1
   2   8  -4 4304.73 100.510   1
  -4  -6  -6 759.730 47.6400   1
   6   4   6 741.870 47.2700   1
   6   6   4 787.120 47.6400   1
  -6  -4  -6 799.500 45.0500   1
  -6  -6  -4 797.730 40.3200   1
   6  -4   6 841.610 38.7700   1
   6   6  -4 914.860 41.2200   1
   4   6  -6 954.690 45.6800   1
   6   4  -6 1004.09 48.8000   1
  -4  -6   6 996.180 46.2000   1
   1   9   3 39.6100 29.3800   1
   1  -3  -9 28.4000 32.4200   1
  -9  -3  -1 59.9600 35.9100   1
   9  -1   3 63.2800 25.8000   1
  -3  -9   1 73.2900 31.5000   1
   1   9  -3 17.4600 29.9300   1
   3   9   1 17.6100 26.7900   1
  -1  -9  -3 30.6600 26.5300   1
   1  -9  -3 12.7300 41.6000   1
   9   3  -1 28.2800 37.6700   1
   4  -4   8 5949.43 158.300   1
   4   4   8 5800.90 130.700   1
  -4  -4  -8 5742.73 129.010   1
   8   4  -4 5614.85 120.230   1
   4  -8   4 5594.40 155.970   1
   4  -8  -4 6187.53 181.870   1
   4   8   4 5974.39 125.280   1
  -4  -8  -4 5973.12 144.410   1
  -4  -8   4 5917.42 132.950   1
   8  -4   4 5483.45 120.020   1
  -8  -4   4 5551.40 126.080   1
   4  -8  -4 5693.81 127.280   1
   4  -8   4 5412.59 134.580   1
   4   8  -4 5643.84 121.330   1
  -8  -4  -4 5386.99 115.020   1
   8   4   4 5958.44 126.770   1
  -3   9   3 284.400 51.7300   1
  -3   9  -3 261.470 40.0900   1
   3  -9  -3 267.990 31.0800   1
   3   3   9 276.590 37.4000   1
   3  -9   3 299.140 39.6600   1
   3   9   3 315.300 46.5500   1
  -3  -3  -9 295.400 40.5000   1
  -3   3  -9 259.280 29.8200   1
   7  -1   7 11606.6 203.360   1
  -3  -9  -3 271.630 40.0500   1
  -3  -9   3 270.650 33.9900   1
   9   3   3 294.000 41.2600   1
  -9  -3  -3 233.130 37.6200   1
   9   3  -3 305.870 42.7600   1
   9  -3   3 288.140 37.2800   1
  -3   9   3 219.450 31.1400   1
   1  -7  -7 12428.1 242.560   1
   1   7   7 12068.9 210.110   1
  -1   7   7 12258.6 215.000   1
   3   9  -3 271.060 34.7300   1
  -7   1  -7 11788.5 222.930   1
  -3   9  -3 280.010 36.5700   1
   5  -7  -5 6364.09 186.020   1
   5   5   7 6780.72 142.920   1
   5   7   5 6741.82 140.390   1
  -5  -5  -7 6568.68 140.650   1
   7   5   5 6696.75 142.630   1
  -5  -7  -5 6863.86 149.840   1
  -7  -5  -5 7015.89 146.330   1
  -7  -7   1 11650.9 207.520   1
   5   7  -5 6964.57 141.550   1
   7   5  -5 7033.86 144.330   1
  -5  -7   5 7300.94 154.460   1
   5   5  -7 7049.03 143.610   1
  -1  -7   7 11337.8 203.230   1
   7  -5   5 7345.48 150.460   1
  -7  -5   5 7262.61 145.970   1
   5  -7   5 7055.20 165.490   1
  -1   7   7 11291.9 225.120   1
   1   7   7 11094.0 214.620   1
   1  -7  -7 11870.7 247.350   1
   3   3   9 293.650 49.4000   1
   3  -9  -3 303.190 41.6000   1
   3  -3   9 262.630 44.1800   1
   3  -3  -9 301.790 40.1200   1
   1   7  -7 11824.3 213.720   1
  -7  -7  -1 12140.3 222.710   1
  -7  -1  -7 11216.3 191.210   1
   7   7  -1 11446.8 197.890   1
   7   7   1 11812.5 200.160   1
   7   1   7 11119.6 200.700   1
  -1  -7  -7 12099.6 237.950   1
   6  -8   0 3837.40 98.2500   1
   0   6   8 3818.27 90.0100   1
   0   8   6 4028.11 92.3900   1
   0  -6  -8 4036.21 101.290   1
   0 -10   0 11838.7 234.470   1
   0   6   8 3847.56 108.700   1
   0   8   6 3933.06 120.250   1
   0  -6  -8 3836.49 110.580   1
  -6  -8   0 3955.50 107.230   1
   0  -8  -6 3902.73 126.010   1
   6   0   8 4031.22 101.610   1
   0   8  -6 3763.18 89.6100   1
   6   8   0 3918.05 89.7100   1
  -6   0  -8 3938.00 103.720   1
   8   0   6 3837.58 88.1200   1
   0  10   0 11615.0 223.420   1
   0   0 -10 11087.5 238.630   1
  -8   0  -6 4053.46 101.400   1
   0  -8   6 3946.80 99.7700   1
  -8  -6   0 3962.14 100.230   1
   0   6  -8 4010.59 103.610   1
   8   6   0 4034.60 93.1600   1
  -2  -8   6 5964.19 143.080   1
  -8  -6   2 6143.03 128.140   1
   2   6  -8 6062.23 132.060   1
  -8   2  -6 6082.81 131.610   1
  -2   8   6 6451.16 138.790   1
   6  -8   2 6232.52 145.600   1
   2  -6  -8 6070.25 134.410   1
   2  -8  -6 6077.38 139.410   1
   2   6   8 5935.85 122.900   1
   2   8   6 6373.58 140.080   1
   2  10   0 9857.14 185.230   1
   0 -10  -2 10036.7 211.150   1
   0  10  -2 9754.08 188.880   1
  -2   0 -10 10660.9 214.130   1
   2 -10   0 9999.99 217.460   1
   0  10   2 9805.21 200.930   1
   0  -2 -10 10000.2 218.850   1
  -2  10   0 9964.17 206.920   1
   2   0  10 9876.71 215.320   1
   0   2 -10 10285.6 250.190   1
   0   2  10 9753.20 193.010   1
  -8  -6  -2 5997.96 145.540   1
  -2   0 -10 10131.1 192.180   1
   0  10   2 10711.1 193.720   1
  -2  10   0 10436.9 185.600   1
   0  -2 -10 10062.7 197.900   1
  10  -2   0 10200.0 179.710   1
 -10   0  -2 10081.2 190.530   1
  10   0  -2 9904.84 173.050   1
 -10  -2   0 9757.85 178.150   1
  10   0   2 10265.8 188.900   1
  10   2   0 9922.31 176.930   1
  -2 -10   0 9958.28 192.000   1
   0 -10   2 10147.8 207.140   1
  -2   6   8 5899.90 134.650   1
  -2   8   6 6072.79 163.850   1
  -2   8  -6 6198.68 187.610   1
   2  -6  -8 6088.25 148.800   1
   2  -8  -6 6098.38 161.910   1
   2   6   8 5853.93 137.830   1
   2   8   6 6063.14 153.420   1
  -2  -6  -8 5903.80 143.050   1
  -2  -8  -6 5990.59 155.460   1
   6   2   8 5754.51 133.220   1
   6  -2   8 6253.69 136.610   1
   6   8   2 6129.46 123.850   1
  -6  -2  -8 6070.11 129.650   1
   8   2   6 6281.30 128.130   1
   2   8  -6 5981.26 127.120   1
   8   6   2 6214.33 131.470   1
   6   8  -2 6035.71 119.440   1
  -6  -8  -2 6177.95 131.800   1
   8  -2   6 5837.02 127.760   1
  -8  -2  -6 6014.75 132.010   1
  -6   2  -8 6142.14 128.780   1
   8   6  -2 6353.36 133.160   1
  -6  -8   2 6234.07 142.640   1
   7   7   3 5597.13 119.250   1
   5  -1   9 984.400 49.3000   1
  -1  -9  -5 1009.18 56.8800   1
   1   9  -5 994.140 44.6800   1
   5   9   1 1024.43 51.7100   1
   3  -7  -7 5798.98 167.260   1
   3   7   7 5362.03 132.220   1
  -3  -7  -7 5546.90 122.160   1
   7   3   7 5942.77 122.370   1
  -1   9   5 943.950 53.1800   1
  -7  -3  -7 5736.93 127.810   1
   7  -3   7 5722.19 125.480   1
   7   7  -3 5854.22 125.850   1
   3   7  -7 5458.59 123.320   1
  -7  -7   3 5769.84 139.640   1
  -7   3  -7 5495.80 124.540   1
  -3  -7   7 5699.66 128.370   1
   1   5   9 1018.50 51.0000   1
  -5  -1  -9 981.780 48.4600   1
   5  -9  -1 937.670 49.8400   1
   5  -9   1 967.480 51.6800   1
   1  -5  -9 993.700 50.1000   1
   1   9   5 942.070 44.3700   1
  -1  -5  -9 1068.78 52.3800   1
   1  -9  -5 1014.03 54.6100   1
   5   9  -1 983.430 47.7300   1
  -5   1  -9 1019.24 44.2300   1
   1  -9   5 1017.70 48.8000   1
  -5  -9  -1 962.300 50.0300   1
   9   1   5 994.060 48.5700   1
   3   7   7 6071.69 123.660   1
  -1  -9   5 951.540 44.0200   1
   9   5   1 1011.60 44.4100   1
   9  -1   5 982.780 47.5000   1
   9   5  -1 954.180 50.1500   1
  -9  -5  -1 863.010 41.4300   1
  -9  -1  -5 946.200 46.8200   1
  -9  -5   1 1059.81 51.1400   1
  -9   1  -5 989.520 47.9100   1
  -5  -9   1 1008.23 45.0800   1
   3  -7  -7 5834.72 139.620   1
  -1   5   9 914.880 65.6900   1
   5  -9  -1 941.950 69.1200   1
   5  -9   1 976.060 64.2800   1
  -1   9   5 1054.68 72.5900   1
   1   5   9 977.150 68.8200   1
   1  -5  -9 939.120 64.0400   1
   1   9   5 856.470 51.6600   1
   1  -9  -5 1017.59 65.4600   1
  -1  -5  -9 973.480 58.6600   1
  -1   9  -5 984.120 51.3100   1
   5   1   9 1020.06 53.3400   1
  -6  -6  -6 50210.4 814.020   1
   6   6  -6 48703.3 779.400   1
   6  -6   6 52586.2 840.980   1
  -6  -6   6 47588.8 776.250   1
   6   6   6 51969.7 841.590   1
  -2  10   2 10419.4 192.240   1
  -2   2 -10 10526.6 196.730   1
  -2  10  -2 10616.3 193.210   1
   2 -10  -2 10039.7 193.560   1
  -2  -2 -10 10811.4 197.840   1
  -2  10   2 10305.7 209.470   1
  -2  10  -2 10497.6 216.270   1
   2   2  10 10472.5 218.200   1
   2   2  10 10225.3 189.690   1
  10  -2   2 10144.0 184.430   1
  10   2  -2 10243.8 199.130   1
 -10  -2  -2 10135.3 182.660   1
  10   2   2 10276.4 181.170   1
  -2   2 -10 10672.1 233.210   1
   2 -10  -2 10695.6 240.320   1
  -2 -10  -2 10715.3 206.670   1
  -2 -10   2 10302.5 186.040   1
   2  10  -2 10809.3 197.650   1
   2 -10   2 10817.6 209.950   1
   2  10   2 10528.9 195.120   1
  -2  -2 -10 10859.5 205.630   1
   2  -2 -10 11027.4 228.360   1
  -3  -9  -5 2117.75 83.1600   1
   5   9   3 2078.29 68.3400   1
  -5  -3  -9 2112.57 74.9000   1
  -5  -9  -3 2317.05 83.0100   1
   3   9  -5 2074.00 62.2000   1
   5   9  -3 2164.82 61.0000   1
   9   3   5 2134.64 69.2900   1
   9   5   3 2131.46 66.6600   1
  -5   3  -9 2223.13 73.8800   1
  -5  -9   3 2137.51 74.2100   1
  -9  -3  -5 2203.41 64.9900   1
  -9  -5  -3 2118.56 75.0700   1
  -3  -9   5 2186.18 75.2700   1
   9  -3   5 2165.84 65.7000   1
   9   5  -3 2145.25 66.5300   1
  -9  -5   3 2116.86 73.3400   1
   9   3  -5 2282.13 66.5400   1
   3  -5  -9 2219.93 67.8200   1
   5  -9  -3 2124.63 80.4700   1
  -3   9  -5 2124.27 66.8700   1
   5  -9   3 2235.94 73.3200   1
   3  -9  -5 2190.16 69.6900   1
   3   5   9 2131.83 62.8600   1
  -3   9   5 2224.49 86.1900   1
   5  -9  -3 2216.02 91.8800   1
   3  -5  -9 2051.85 86.4800   1
   5  -9   3 2081.16 95.9000   1
   3  -9  -5 2251.78 95.8900   1
   3   5   9 2287.80 84.4600   1
   3   9   5 2178.39 70.3500   1
   5  -3   9 2182.75 75.4100   1
   5   3   9 2172.15 73.8300   1
  -3  -5  -9 2159.44 78.0600   1
   3  -9   5 2194.83 77.4100   1
 -10  -4   0 908.800 50.2300   1
   6   8  -4 3286.76 83.7700   1
  -8  -6  -4 3175.89 82.2200   1
  -4  -6  -8 3126.93 91.6700   1
  -6  -8  -4 3068.47 83.8000   1
   8   6   4 3172.87 80.2400   1
   6  -4   8 3197.65 87.8200   1
   8   4   6 3334.04 88.8100   1
  -6  -4  -8 3059.04 83.6900   1
  -4  -8  -6 3178.19 85.1500   1
   6   4   8 3169.27 90.5300   1
   4   8   6 3257.50 91.7900   1
   4   6   8 3104.61 91.2800   1
   0   4  10 1074.16 69.8000   1
   4   0  10 1019.28 58.4600   1
   4 -10   0 1065.75 57.3900   1
   0  10   4 971.590 67.4400   1
   4  10   0 1033.64 51.3400   1
   0 -10   4 942.820 45.8200   1
  -4 -10   0 991.840 47.5100   1
  10   4   0 928.490 42.7800   1
   0  -4 -10 1069.70 64.3100   1
  -4   0 -10 1012.19 48.3500   1
   6  -8  -4 3384.64 104.390   1
  10   0   4 979.880 42.3300   1
  -8  -4  -6 3263.00 96.0600   1
 -10   0  -4 945.480 48.0200   1
  -4  10   0 919.740 48.8000   1
   4   0  10 1000.19 47.9000   1
   0  -4 -10 915.720 49.5200   1
   4 -10   0 936.750 52.1600   1
   4  -6  -8 2990.05 113.220   1
   4  -8  -6 3004.21 102.630   1
   0  10  -4 1030.23 50.5100   1
   0 -10  -4 1075.15 59.2900   1
   6   8   4 3114.20 87.6600   1
   4  -8  -6 3439.31 103.150   1
   6  -8   4 3267.81 92.7700   1
   6   4  -8 3297.23 92.2600   1
   8   4  -6 3293.24 86.6600   1
  -8  -6   4 3345.85 88.7300   1
   4   6  -8 3195.04 85.1600   1
  -4  -8   6 3177.86 88.2200   1
  -6   4  -8 3146.92 84.0100   1
  -6  -8   4 3107.14 90.7400   1
   8  -4   6 3186.66 81.8100   1
   8   6  -4 3219.28 82.9500   1
   4   8  -6 3244.26 82.6700   1
   4 -10   2 701.780 55.4600   1
   2 -10  -4 647.070 58.2000   1
   2  10   4 597.040 55.3800   1
   4  10   2 639.630 39.4800   1
  -2 -10  -4 660.350 39.9000   1
   2 -10   4 665.540 42.0700   1
   2  10  -4 652.140 40.4200   1
   4  10  -2 645.680 43.4000   1
  -4 -10  -2 642.810 44.0800   1
  -2 -10   4 642.230 39.8100   1
  -4 -10   2 625.340 41.8500   1
  10   2   4 603.350 44.2200   1
  10   4   2 629.930 45.7000   1
  10   4  -2 629.160 46.0800   1
  10  -2   4 567.440 41.4400   1
 -10  -4  -2 634.890 44.5200   1
 -10  -4   2 670.370 45.3200   1
  10   2  -4 635.220 48.0500   1
  10  -4   2 629.560 43.7800   1
  -2  10   4 662.370 65.3600   1
 -10   2  -4 592.660 40.6200   1
  -2  10  -4 678.650 52.3500   1
  -4  10  -2 557.030 42.2800   1
   4 -10  -2 740.830 62.6200   1
  -2  10   4 542.340 37.0400   1
   4 -10  -2 572.610 44.3300   1
  -2  10  -4 538.840 39.5300   1
   4 -10   2 517.910 41.6700   1
   2 -10  -4 501.000 43.0100   1
 -10  -2  -4 544.820 34.6000   1
   4   2  10 647.650 51.4500   1
  -2   4 -10 672.170 44.2200   1
   2   4  10 704.100 51.2700   1
   4  -2  10 738.380 51.0100   1
  -4  -2 -10 584.030 41.8800   1
   2  -4 -10 641.230 60.8100   1
  -2  -4 -10 672.710 48.9300   1
  -4   2 -10 671.770 43.0700   1
   2  -4 -10 542.050 41.5500   1
   2   4  10 498.210 40.8600   1
   4   2  10 570.030 39.6300   1
  -7  -7  -5 17022.2 299.780   1
  -7  -5  -7 16205.5 275.020   1
  -5  -7  -7 16377.9 277.030   1
   7   7   5 16765.7 268.160   1
   7   5   7 17481.2 279.290   1
   5   7   7 16802.3 294.830   1
   5  -7  -7 16367.4 342.500   1
  11  -1  -1 11593.6 211.320   1
  11   1  -1 12411.9 220.480   1
  11   1   1 12674.6 221.400   1
  11  -1   1 11993.1 212.450   1
  -1 -11  -1 11916.0 226.940   1
   1 -11   1 11728.1 237.730   1
  -7  -7   5 16958.6 286.720   1
   1 -11  -1 12203.3 230.860   1
  -1 -11   1 11881.8 224.560   1
   1  11  -1 11607.7 213.430   1
   1  11   1 11244.4 210.660   1
  -1  -1 -11 11813.6 235.670   1
   7   5  -7 16437.4 257.920   1
  -1   1 -11 11765.9 240.440   1
   5   7  -7 17158.7 279.960   1
  -1  11   1 11462.3 226.910   1
   1  -1 -11 11868.6 249.600   1
   7   7  -5 16414.2 267.850   1
   1   1 -11 11852.5 246.890   1
   7  -5   7 16984.5 278.840   1
   1   1  11 11348.1 229.090   1
  -1  11   1 12562.3 221.840   1
  -1  -1 -11 12349.8 230.470   1
 -11  -1  -1 11719.2 218.230   1
   0   8   8 34.0600 38.1200   1
   8   8   0 26.8600 35.6600   1
  -8  -8   0 -5.4300 33.5600   1
   5  -9  -5 -24.370 48.2200   1
   5   5   9 18.4900 42.5800   1
  -9  -5  -5 23.6100 32.9700   1
   9   5  -5 25.8400 35.1700   1
  -1   7   9 314.470 59.1100   1
  -1   9   7 206.010 59.9500   1
   1   7   9 269.490 43.2500   1
   1   9   7 394.050 57.3400   1
   1  -7  -9 336.680 52.6500   1
   1  -9  -7 314.210 52.9600   1
  -1  -7  -9 335.950 48.1200   1
  -1   9  -7 347.770 34.2600   1
  -1  -9  -7 343.940 36.5800   1
   7   1   9 350.050 38.9600   1
   7  -1   9 336.920 35.1700   1
   7   9   1 330.550 40.5100   1
   1   9  -7 310.050 32.1000   1
   7   9  -1 303.300 38.3900   1
   9   1   7 334.460 36.8800   1
   1  -7  -9 331.750 41.4000   1
   1  -9  -7 309.350 38.7600   1
   1   7  -9 305.510 28.4500   1
  -9   1  -7 330.490 34.4200   1
  -1  -9   7 330.590 30.5100   1
   7  -9   1 294.260 37.1700   1
  -1   9   7 347.770 34.0700   1
   1   7   9 348.970 42.8900   1
   1   9   7 311.710 44.5200   1
   9  -1   7 333.390 35.4000   1
   1  -9   7 326.240 28.1300   1
  -9  -7  -1 289.180 39.2100   1
  -9  -1  -7 322.140 35.7400   1
  -7  -9   1 385.030 40.0500   1
  -9  -7   1 353.500 39.8000   1
  -7   1  -9 326.970 32.4800   1
   9   7  -1 353.400 41.0600   1
  -7  -9  -1 334.700 39.3700   1
   9   7   1 287.630 31.3500   1
  -7  -1  -9 366.850 35.0400   1
   1  11   3 990.240 53.7800   1
  -1  11  -3 961.090 50.1200   1
  11  -1   3 982.280 49.8100   1
  -1  11   3 801.270 64.3500   1
  -1  11  -3 913.420 57.1000   1
   1  11   3 831.930 61.0200   1
   1 -11  -3 949.540 56.9500   1
   1  11  -3 932.740 50.3900   1
  -1 -11  -3 832.560 51.2600   1
   1 -11   3 880.040 47.3300   1
  -1 -11   3 906.210 47.1600   1
  11   1   3 901.520 48.5400   1
 -11  -1  -3 980.780 49.4600   1
  11   1  -3 985.910 53.1200   1
 -11   1  -3 949.370 47.7700   1
  -1  11   3 995.400 53.1500   1
  -3  11   1 845.680 64.0100   1
  -3  11  -1 845.270 60.7800   1
   1  -3 -11 790.390 61.4600   1
   3  11  -1 920.360 43.2200   1
   3 -11  -1 902.460 59.3700   1
  -3 -11  -1 953.620 52.5900   1
  -1  -3 -11 897.730 50.6400   1
  -3 -11   1 868.780 40.8100   1
  -1   3 -11 856.160 54.2200   1
  11   3   1 918.680 48.4000   1
  11   3  -1 860.270 49.5300   1
   3 -11   1 878.580 57.0800   1
 -11  -3  -1 974.620 50.2000   1
   1   3  11 878.400 65.9600   1
   3  -1  11 852.970 61.4700   1
  11  -3   1 901.480 48.2200   1
 -11  -3   1 1011.07 51.0700   1
  -3  -1 -11 866.460 48.7400   1
   3   1  11 931.420 45.4000   1
   1  -3 -11 937.780 49.0200   1
  -3  11   1 1004.39 52.0500   1
  -3  11  -1 964.560 44.0400   1
   3   1  11 907.580 60.9400   1
  -1  -3 -11 972.260 49.1100   1
  -3   1 -11 905.060 47.3500   1
   3  11   1 861.200 45.2100   1
   3 -11  -1 1055.74 54.4200   1
   8  -2   8 378.140 34.1200   1
  -8  -2  -8 350.560 36.2200   1
   8   8  -2 346.130 31.5600   1
  -8  -8  -2 354.730 32.1300   1
   2   8  -8 307.800 30.4000   1
  -8  -8   2 300.630 30.0600   1
  -8   2  -8 318.980 32.3500   1
   2  -8  -8 266.780 40.6300   1
   2   8   8 231.700 42.3900   1
  -4  10  -4 88.7700 31.6900   1
   2  -8  -8 461.120 56.8000   1
   4  -4 -10 82.2400 35.5400   1
   4 -10  -4 152.130 51.3900   1
   4   4  10 123.100 48.2300   1
   4  10   4 140.510 43.2900   1
  -4  -4 -10 116.190 35.8900   1
  -4 -10  -4 59.1300 35.6100   1
   4  10  -4 101.250 32.2600   1
  10   4   4 118.780 27.4400   1
  -4 -10   4 75.8200 30.0200   1
 -10  -4  -4 115.860 35.4400   1
  10   4  -4 77.7700 27.2400   1
  10  -4   4 90.6800 32.8700   1
   4 -10  -4 82.2500 36.9500   1
   4   4  10 119.330 34.9900   1
   2   8   8 402.700 44.5500   1
  -2  -8  -8 457.160 38.1700   1
   8   2   8 386.900 40.4500   1
   8   8   2 381.740 43.2600   1
   6 -10   0 912.270 48.8200   1
 -10  -6   0 908.700 49.7300   1
   6   8   6 5231.49 124.490   1
   6  10   0 1094.66 51.1800   1
  -6   0 -10 1020.87 45.5300   1
  -6 -10   0 1093.38 51.7000   1
   6   6   8 5382.05 115.620   1
 -10   0  -6 972.120 48.3200   1
  -6  -8   6 5668.61 129.060   1
   0   6 -10 886.180 44.5700   1
   0   6  10 1194.34 75.9100   1
   0   6  10 911.890 49.9900   1
   0 -10   6 922.510 44.4500   1
  10   0   6 981.390 47.9800   1
  10   6   0 971.510 51.3800   1
   6 -10   0 1150.50 71.1000   1
   0  -6 -10 868.050 42.4200   1
   0  10   6 886.780 50.5800   1
   0  10  -6 1010.77 48.8700   1
   6   0  10 1076.10 52.8500   1
   0 -10  -6 1187.24 65.3500   1
   0  10   6 1183.10 71.2500   1
   6  -8   6 5799.72 138.050   1
   6   6  -8 5488.43 119.500   1
   8   6  -6 5706.92 126.640   1
   6   8  -6 5428.08 113.950   1
   6  -6   8 5412.16 120.970   1
  -8  -6  -6 5640.86 124.650   1
  -6  -8  -6 5471.86 133.690   1
  -6  -6  -8 5526.85 117.550   1
   8   6   6 5555.38 116.990   1
   7   9   3 1346.96 57.0900   1
  -3  -7  -9 1323.24 62.9500   1
   3   7   9 1453.83 71.6100   1
   3  -7  -9 1327.02 66.8400   1
  -7  -9   3 1476.64 59.4400   1
   3   7   9 1482.96 52.9200   1
   7   3   9 1371.58 57.2800   1
   3  -7  -9 1407.54 65.9700   1
   7  -9   3 1392.79 57.3500   1
  -9  -7   3 1372.61 50.7800   1
   3   7  -9 1339.33 50.2100   1
  -7   3  -9 1331.81 54.4200   1
   9   7  -3 1327.32 53.3700   1
  -9  -7  -3 1342.54 55.4000   1
   7   9  -3 1406.01 53.6700   1
  -7  -9  -3 1402.43 54.3100   1
  -7  -3  -9 1356.43 54.3600   1
   9   7   3 1399.90 54.9900   1
   7  -3   9 1403.90 55.5100   1
   3   9  -7 1293.75 48.7900   1
   9  -3   7 1366.47 54.4100   1
  -9  -3  -7 1302.73 49.5700   1
  -3  -9   7 1305.35 54.7100   1
  -9   3  -7 1368.23 56.2700   1
   9   3  -7 1380.22 56.3300   1
  -3   9   7 1310.62 60.7600   1
   3  -3  11 1143.86 59.1700   1
   3  -3 -11 1204.62 64.2200   1
   3   3  11 1075.76 48.9900   1
  -3   9  -7 1358.25 56.0400   1
   3  -9  -7 1366.84 76.9200   1
   3   9   7 1469.68 61.3900   1
  -3   3 -11 1178.05 50.7200   1
  -3  -3 -11 1132.31 56.5400   1
   3   3  11 1136.84 64.9200   1
   3   9   7 1207.52 67.8700   1
  -3  -9  -7 1386.57 61.3700   1
   3  -9  -7 1389.70 52.7100   1
   9   3   7 1314.38 53.0400   1
   3  11   3 1158.89 61.0200   1
   3 -11   3 1186.31 65.8800   1
   3 -11  -3 1141.47 68.9400   1
  -3  11  -3 1112.12 62.9500   1
  -3  11   3 1152.94 71.1900   1
   3 -11  -3 1159.41 49.0900   1
  -3  11  -3 1198.05 53.2000   1
  -3  11   3 1204.46 56.9400   1
  11   3  -3 1112.70 53.5900   1
 -11  -3  -3 1243.33 56.1900   1
  11   3   3 1189.75 54.2100   1
  -3 -11   3 1233.27 54.9000   1
  -3 -11  -3 1187.07 58.3000   1
   3  11  -3 1141.63 51.0300   1
  11  -3   3 1128.09 50.9200   1
   6 -10   2 131.520 34.5400   1
   2   6  10 132.480 37.8600   1
   2 -10  -6 135.580 39.2000   1
   2  10   6 80.0100 31.1600   1
  -2  10  -6 101.020 30.9300   1
   2   6 -10 105.000 26.6400   1
 -10   2  -6 105.910 29.9100   1
  -2  10  -6 122.050 39.1800   1
   2  -6 -10 138.740 37.6500   1
   6 -10   2 119.230 42.6500   1
  -2  10   6 161.800 55.0300   1
  10  -2   6 122.190 32.7700   1
 -10  -6   2 148.100 36.6000   1
 -10  -2  -6 124.740 33.8300   1
 -10  -6  -2 164.830 28.2900   1
  -2 -10   6 123.380 27.6500   1
  10   6  -2 100.190 38.8300   1
  -6 -10   2 109.390 25.3700   1
  -6   2 -10 134.160 30.6500   1
  10   6   2 90.9100 40.1000   1
  10   2   6 118.410 35.7800   1
  -6 -10  -2 104.800 35.1600   1
   6  10  -2 134.420 35.9700   1
   2 -10   6 137.730 26.7600   1
  -6  -2 -10 133.980 31.4800   1
   2  10  -6 108.950 27.9900   1
   6  10   2 170.530 38.2200   1
  -2 -10  -6 93.1700 39.9800   1
   6  -2  10 141.510 31.7800   1
   6   2  10 128.100 39.5300   1
  -2  -6 -10 138.520 38.7100   1
   2  10   6 101.420 52.1700   1
   2 -10  -6 140.410 35.8400   1
   2   6  10 128.740 53.8700   1
   6 -10  -2 166.790 50.3600   1
  10   2  -6 147.820 37.5000   1
  -2  10   6 134.390 31.4900   1
   6 -10  -2 133.560 37.8300   1
   2  -6 -10 133.300 27.8300   1
  -8  -4  -8 12387.6 218.080   1
   4  -8  -8 11298.1 233.880   1
   4   8   8 12169.4 219.220   1
  -4  -8  -8 12301.2 220.830   1
   8   4   8 12318.4 222.650   1
   8   8   4 11384.5 193.100   1
   0  12   0 27988.0 411.590   1
   8  -4   8 12021.4 217.460   1
  -8  -8  -4 11061.5 207.580   1
   8   8  -4 11492.3 197.250   1
   4   8  -8 11703.3 210.830   1
  -8  -8   4 11944.9 208.660   1
  -8   4  -8 11362.5 212.020   1
   8   4  -8 11589.3 203.840   1
   4  -8  -8 11482.6 210.980   1
   0   0 -12 29367.2 495.520   1
   0  12   0 29232.1 457.570   1
   0 -12   0 29318.5 464.170   1
  12   0   0 28469.1 427.420   1
   7  -7   7 7835.65 157.290   1
  -1 -11  -5 12.2800 39.1800   1
  -5  -1 -11 10.8600 30.8900   1
   7   7  -7 7820.74 148.750   1
 -11   1  -5 12.3800 28.9600   1
  11   1  -5 -10.370 28.8300   1
  -1  11   5 55.4800 39.8200   1
   1  11   5 22.6000 39.6900   1
  -1  -5 -11 32.7100 42.7000   1
   7  -7   7 7754.37 165.210   1
 -11  -5   1 8.41000 34.3400   1
  -7  -7  -7 7180.17 149.410   1
   7   7   7 7099.17 148.730   1
  -1   5  11 -11.310 34.4100   1
  -1  11   5 24.4700 38.2600   1
  -2  12   0 576.350 44.8200   1
 -12   0  -2 532.400 42.3800   1
 -12  -2   0 578.810 37.4600   1
  12  -2   0 579.610 37.6600   1
  12   2   0 527.640 36.6100   1
  12   0   2 496.810 44.3300   1
  -2 -12   0 400.280 39.3700   1
   0 -12   2 369.810 37.2000   1
   0  -2 -12 310.140 50.0800   1
  -2  12   0 299.090 55.3200   1
   2   0  12 290.810 48.1700   1
   2   0 -12 313.640 47.6800   1
   2 -12   0 356.090 43.3000   1
  -2   0 -12 316.750 40.5700   1
   0  12  -2 333.700 45.5300   1
   2  12   0 362.330 45.6200   1
   0  12   2 351.280 53.8300   1
   0 -12  -2 348.910 44.0800   1
   2  -2 -12 3905.22 127.510   1
   2   2  12 3927.17 114.250   1
  -2  12   2 3842.98 106.720   1
  -2  12  -2 3966.28 113.910   1
   2 -12  -2 3999.28 123.640   1
  -2   2 -12 3997.08 114.670   1
   6 -10  -4 212.730 42.0800   1
   4  -6 -10 156.380 53.3500   1
   6 -10   4 194.440 40.4800   1
   4 -10  -6 190.760 54.3200   1
   4   6  10 207.590 52.7000   1
   4  10   6 177.250 35.3700   1
   6   4  10 203.200 43.7000   1
   4 -10   6 212.540 31.1400   1
   6  -4  10 176.680 34.1100   1
  -4  -6 -10 223.210 30.6700   1
   6  10   4 159.550 43.2400   1
  -4 -10  -6 198.060 29.9400   1
  -6  -4 -10 206.480 36.6900   1
  -6 -10  -4 253.750 39.2200   1
  10   4   6 190.520 38.9400   1
  10   6   4 240.850 30.9900   1
   4  10  -6 216.090 25.7900   1
   6  10  -4 208.230 36.9000   1
 -10  -4  -6 234.770 36.2800   1
  -2  -2 -12 3930.89 115.160   1
  -6   4 -10 257.910 29.4100   1
  -6 -10   4 274.030 36.4500   1
  10   6  -4 265.130 41.5100   1
  10  -4   6 250.580 32.0400   1
  -4 -10   6 246.730 34.1900   1
  10   4  -6 230.290 41.4600   1
   4   6 -10 271.980 33.7700   1
 -10  -6   4 250.080 38.1200   1
  10  -6   4 233.200 34.7200   1
   4  -6 -10 279.310 42.0400   1
  -4  10  -6 262.120 32.6100   1
 -10  -6  -4 189.160 38.6900   1
   6 -10  -4 279.410 42.5300   1
   4 -10  -6 323.520 33.2800   1
   6 -10   4 271.130 33.5800   1
   4   6  10 284.430 39.9500   1
   2  12   2 3826.86 103.250   1
   2  12  -2 3834.81 104.730   1
   2 -12   2 3837.95 112.030   1
  -2 -12  -2 3942.60 109.970   1
  -2 -12   2 3959.21 113.100   1
  12   2   2 4075.23 95.0700   1
  12  -2   2 3986.18 103.680   1
 -12  -2  -2 4011.47 97.3600   1
  -2  12   2 3940.32 93.6400   1
  -2   2 -12 4150.90 107.960   1
  -2  12  -2 3882.62 96.2400   1
   9   7  -5 7308.51 155.750   1
  11   3  -5 122.510 28.5300   1
  11  -3   5 106.310 33.6400   1
  11   5  -3 90.1000 29.1300   1
 -11  -3  -5 98.8900 35.6100   1
   3  11  -5 107.070 32.1600   1
   5 -11   3 85.1200 33.1200   1
   5   3  11 102.920 33.6700   1
   3 -11  -5 105.270 27.7500   1
   5 -11  -3 124.100 35.5300   1
  -3  11  -5 87.0900 32.0800   1
   3   5  11 178.140 37.1300   1
  -3  11   5 53.0400 29.0300   1
   3  -5 -11 120.180 27.7500   1
  11  -5   3 100.610 32.0600   1
   5   3  11 84.8400 44.9100   1
   7  -9  -5 7296.16 201.320   1
   5  -7  -9 7227.71 182.230   1
   5  -9  -7 7182.16 185.970   1
   5  -9   7 7358.94 195.910   1
   5   7   9 7167.08 155.620   1
   5   9   7 7079.65 158.970   1
   7   5   9 6990.89 149.170   1
  -5  -7  -9 7029.75 150.550   1
  -5  -9  -7 7221.87 160.470   1
   9   5   7 7496.30 166.030   1
  -7  -5  -9 7158.82 153.360   1
   7  -5   9 7268.81 161.310   1
  -9  -5  -7 7364.71 168.780   1
  -9  -7  -5 7700.40 176.060   1
   7   9  -5 7154.11 148.410   1
   5   9  -7 7340.89 153.720   1
   9  -5   7 6979.99 148.600   1
   3  11   5 127.570 35.3100   1
   5   7  -9 7527.23 159.140   1
  -7  -9   5 7380.71 169.170   1
  -5  -9   7 7538.85 164.720   1
  -9  -7   5 7482.72 164.530   1
   7   5  -9 7519.70 160.660   1
  -7   5  -9 7532.74 173.990   1
   9  -7   5 6991.64 158.550   1
   5  -9  -7 7606.19 184.250   1
   7  -9   5 6962.91 164.690   1
   3  -5 -11 99.0200 38.1500   1
   5 -11  -3 126.030 37.4600   1
   5 -11   3 135.040 40.7300   1
   5  -3  11 85.4400 40.5300   1
   3 -11  -5 121.510 36.2400   1
  -3  -5 -11 105.740 28.7400   1
   3 -11   5 136.930 26.7000   1
   5  11   3 126.250 42.6400   1
  -3 -11  -5 122.780 38.0100   1
  -5  -3 -11 150.500 34.7200   1
   9   5  -7 7298.42 148.740   1
  -3 -11   5 124.460 23.5700   1
  -3  11   5 118.300 57.1100   1
  -5 -11   3 140.950 34.4700   1
  11   5   3 102.470 28.3300   1
  11   3   5 131.540 28.5600   1
  -5   3 -11 96.4100 27.6800   1
  -5 -11  -3 125.020 27.3200   1
 -11  -5  -3 110.870 37.3400   1
   5  11  -3 150.340 35.6500   1
  12   4   0 2045.42 66.5700   1
   0  -4 -12 2207.06 83.4500   1
 -12   0  -4 2016.64 69.1500   1
  12   0  -4 2016.48 70.4400   1
   0  12   4 2273.77 87.1900   1
   0  12  -4 2261.97 80.5500   1
   0   4  12 2315.48 88.7800   1
  -4  12   0 2315.25 77.9000   1
 -12  -4   0 1982.91 72.5800   1
   0   4 -12 2376.98 104.360   1
   4 -12   0 2346.12 95.4600   1
   0 -12  -4 2296.72 91.3000   1
   4  12   0 2314.38 76.0000   1
  -4   0 -12 2211.08 74.2800   1
   0 -12   4 2212.77 76.5900   1
  -4 -12   0 2156.95 77.2400   1
  12   0   4 2095.17 71.2800   1
   4 -12   0 1983.00 78.7300   1
   0  -4 -12 2005.34 75.0900   1
  -4  12   0 1944.80 66.8600   1
   4   0  12 2006.76 69.4700   1
   1   9   9 575.570 38.6000   1
   1  -9  -9 605.160 47.4200   1
   9   1   9 596.710 43.4100   1
   1   9   9 536.230 60.9800   1
   9  -1   9 549.570 39.2900   1
   9   9   1 581.860 37.5100   1
  -1   9   9 537.730 61.6200   1
   1   9  -9 561.110 33.6900   1
   1  -9  -9 576.170 57.9400   1
  -1  -9  -9 566.540 51.3300   1
   9   9  -1 544.760 45.1100   1
  -9  -1  -9 594.150 40.8300   1
  -9  -9  -1 661.780 46.0000   1
  -9   1  -9 549.230 38.1100   1
  -9  -9   1 629.650 44.1400   1
  -1   9   9 547.610 47.6600   1
  -8  -8   6 13815.8 259.450   1
   8   6  -8 13440.9 250.190   1
   6   8  -8 13306.7 242.240   1
   8   8  -6 13639.9 249.390   1
   8  -6   8 13807.5 259.710   1
  -8  -8  -6 13514.7 267.470   1
  -8  -6  -8 13663.3 261.590   1
  -6  -8  -8 13647.4 266.640   1
   8   6   8 13916.2 258.900   1
   6   8   8 12924.5 266.020   1
   6  -8  -8 12710.4 293.310   1
  -4  12  -2 72.8100 34.8400   1
   2  -4 -12 95.7900 26.9900   1
  -2  12   4 114.410 42.7700   1
   0   8  10 887.020 69.4300   1
   0  10   8 907.750 70.6500   1
   0  -8 -10 992.570 67.0800   1
   0 -10  -8 829.740 49.2200   1
   0  10  -8 866.800 40.6700   1
   8   0  10 990.220 49.3200   1
   8  10   0 791.550 48.7400   1
  10   0   8 848.810 45.5100   1
  10   8   0 980.410 52.8300   1
  -8   0 -10 909.650 45.2700   1
   0   8 -10 883.710 46.5300   1
  -8 -10   0 1021.35 51.5700   1
 -10   0  -8 894.600 46.9500   1
 -10  -8   0 896.980 51.8500   1
   0 -10   8 868.110 42.9400   1
   8 -10   0 914.890 51.1000   1
   0   8  10 863.050 50.0200   1
   0  10   8 852.570 53.0400   1
   0  -8 -10 914.650 51.9500   1
   4   2  12 121.370 33.5600   1
  -2  12  -4 98.8400 33.9900   1
   4 -12  -2 125.600 37.8700   1
  -4  12   2 40.0700 43.5900   1
   2   4  12 36.8000 53.1300   1
  -4  12  -2 46.7900 40.7000   1
  -2  12   4 64.3500 54.8800   1
   2  -4 -12 14.9500 35.3000   1
   4   2  12 36.1600 45.7500   1
   4 -12   2 91.1000 38.8800   1
   2  12   4 39.7000 46.9400   1
   2 -12  -4 -11.330 44.1800   1
  -2   4 -12 65.0500 32.5000   1
  -2  -4 -12 73.7300 40.5000   1
   4  12   2 102.310 41.5700   1
   2  12  -4 108.350 34.2100   1
  -4  -2 -12 82.5000 30.5800   1
  -2 -12  -4 100.130 35.9100   1
  -4   2 -12 84.5400 26.7100   1
   4  12  -2 102.630 36.0300   1
  -2 -12   4 78.3600 30.2000   1
  -4 -12   2 121.810 34.2000   1
  12   4   2 103.390 40.6000   1
  12   2   4 115.580 28.6500   1
  12   4  -2 106.390 30.2000   1
  12  -2   4 93.4800 35.4700   1
 -12  -4  -2 91.5700 36.6600   1
 -12  -2  -4 81.9500 34.9900   1
  12   2  -4 90.1700 40.5800   1
 -12  -4   2 63.0600 37.7400   1
  12  -4   2 47.1800 35.6700   1
   2   4  12 59.9500 35.2800   1
  -4  12   2 94.0100 40.0500   1
  -8 -10   2 85.4900 34.0200   1
  -2 -10  -8 148.910 43.5100   1
   8   2  10 97.0800 37.0100   1
  -2   8  10 142.590 40.2500   1
  -2  10   8 139.620 56.6200   1
   2  -8 -10 122.060 29.0600   1
   2   8  10 125.350 40.4800   1
   8 -10   2 90.6700 24.7200   1
  -2  10   8 97.5000 30.6000   1
  -2 -10   8 72.9500 26.4600   1
 -10   2  -8 94.2700 22.7000   1
 -10  -8   2 114.960 34.8600   1
   2   8 -10 87.3200 26.1200   1
  10   2   8 124.190 35.7100   1
  -8   2 -10 93.5000 28.0300   1
 -10  -8  -2 76.1200 38.0300   1
 -10  -2  -8 105.070 31.1700   1
  10   8  -2 88.9900 39.2800   1
  -8 -10  -2 132.050 28.0900   1
   8  10   2 108.380 29.4400   1
   8  -2  10 134.280 31.9600   1
  10  -2   8 100.650 29.3600   1
   8  10  -2 130.180 27.9100   1
  -8  -2 -10 120.990 33.0200   1
  10   8   2 106.080 29.5300   1
   2  10  -8 107.670 25.7500   1
  -2  -8 -10 117.070 42.1300   1
   2  10   8 148.270 54.6500   1
   2 -10  -8 77.4400 49.3600   1
   2  -8 -10 148.770 37.9400   1
   2 -10  -8 87.2400 27.8000   1
   2  10   8 130.050 41.1600   1
   5 -11  -5 1837.57 80.7000   1
   5 -11   5 1732.40 73.2600   1
   5   5  11 1895.06 79.1300   1
   5  11   5 1812.08 72.3900   1
  -5  -5 -11 1893.88 73.5800   1
  -5 -11  -5 1819.66 70.1800   1
  13   1   1 4646.96 107.900   1
  11   5   5 1706.53 62.4000   1
 -11  -5  -5 1815.07 62.8000   1
  -5 -11   5 1850.95 65.9300   1
  11   5  -5 1800.72 65.4300   1
  11  -5   5 1866.12 63.1900   1
   5 -11  -5 1909.51 75.9700   1
   5   5  11 1795.86 65.1400   1
  -1   7  11 21.5600 39.7500   1
   7 -11  -1 20.8500 47.8300   1
  -1  11   7 48.5200 56.8300   1
   1   7  11 48.4600 57.1500   1
   1  11   7 -20.560 37.6000   1
   1  -7 -11 28.2000 48.5800   1
   1 -11  -7 47.8000 46.0700   1
  -1 -11  -7 11.4700 28.7100   1
   7  11   1 15.4100 39.3400   1
  -7  -1 -11 2.89000 28.3800   1
  -7 -11   1 19.9700 32.8700   1
  11   7  -1 16.7900 26.9900   1
 -11  -7  -1 28.1200 36.0400   1
 -11  -1  -7 37.4000 32.4700   1
 -11   1  -7 10.4500 28.4000   1
   1   7  11 19.5600 36.7500   1
  13   1  -1 4583.82 114.820   1
   7 -11  -1 -9.9200 33.0200   1
   1  11   7 49.3700 41.6100   1
   1  -7 -11 16.2800 25.4600   1
  -9  -9  -3 780.680 41.0900   1
   1   1 -13 4659.96 144.830   1
   1  -1 -13 4575.30 133.280   1
  -1  11   7 -29.900 39.6700   1
  13  -1   1 4903.78 111.100   1
  -1 -13   1 4808.42 123.340   1
  13  -1  -1 4769.83 112.070   1
  -1 -13  -1 4833.05 136.880   1
 -13  -1  -1 4977.87 117.980   1
   1  -1 -13 4625.77 118.410   1
  -1   1 -13 4785.95 123.010   1
   1 -13   1 4669.12 132.170   1
  -1  -1 -13 4964.43 120.390   1
  -1  13   1 4962.62 117.480   1
  -1  13  -1 5086.14 114.080   1
   1 -13  -1 4793.47 132.310   1
   1  13  -1 4780.21 126.850   1
   1  13   1 4694.71 125.970   1
  -1  -1 -13 4606.80 128.330   1
  -1   1 -13 4623.28 130.730   1
  -1  13  -1 4532.41 121.810   1
  -1  13   1 4438.22 121.170   1
   3   9   9 712.540 49.3500   1
  -3   9  -9 763.220 38.7400   1
   3  -9  -9 719.570 49.8800   1
  -9   3  -9 781.330 41.1400   1
  -9  -9   3 783.510 47.5900   1
   3   9  -9 812.190 41.6400   1
   9   9  -3 748.440 40.3000   1
   5  -5 -11 1664.61 72.2100   1
  -9  -3  -9 807.000 44.0400   1
   9  -3   9 835.420 42.0500   1
   9   9   3 806.200 48.8300   1
   9   3   9 803.380 41.9900   1
  -3  -9  -9 768.340 51.4000   1
   3   9   9 827.930 54.1200   1
   3  -9  -9 806.360 65.7800   1
   5  -5  11 1687.69 75.8700   1
   5  11  -5 1779.51 59.8600   1
  -6  -6 -10 11882.0 237.230   1
  -6 -10  -6 11402.2 244.700   1
  10   6   6 11641.4 238.100   1
   6  10  -6 11606.5 223.370   1
 -10  -6  -6 11139.7 223.340   1
  10   6  -6 11522.3 213.040   1
  -6 -10   6 11496.4 223.680   1
   6 -10  -6 11757.3 235.110   1
   6 -10   6 11497.5 242.010   1
   6   6 -10 11900.8 223.590   1
   6  -6 -10 12310.6 257.320   1
   6 -10  -6 11590.8 274.050   1
   6 -10   6 11499.5 255.660   1
   6   6  10 11789.0 225.910   1
   6  -6  10 12050.2 270.150   1
   6  10   6 11376.0 230.560   1
   4   4  12 1012.86 55.9600   1
 -12  -4  -4 822.560 41.9500   1
  -4 -12   4 814.030 45.0200   1
  12   4   4 893.930 43.6500   1
  -4   4 -12 932.900 45.3900   1
  -4 -12  -4 932.910 51.9500   1
   4  -4 -12 905.540 68.3900   1
   4  -4  12 890.490 51.9100   1
   4  12  -4 870.720 48.2300   1
  -4  -4 -12 976.620 51.8400   1
   4  12   4 892.330 49.3400   1
   4 -12  -4 934.290 64.8700   1
   4   4  12 720.970 45.5400   1
  -4  12   4 1010.36 66.5600   1
   4 -12  -4 749.440 49.9700   1
   4 -12   4 990.720 54.4000   1
  -4  12  -4 816.090 47.2800   1
  12  -4   4 809.330 45.3400   1
  12   4  -4 808.370 51.5300   1
   7   9  -7 25276.6 425.290   1
   7  -9   7 26052.0 458.910   1
  -7  -9   7 26168.2 459.510   1
   7   7  -9 24484.1 410.390   1
   9  -7   7 25321.5 434.940   1
   9   7  -7 26328.2 440.380   1
  -9  -7  -7 26135.8 455.660   1
  -7  -9  -7 24903.2 424.930   1
  -7  -7  -9 24808.0 420.810   1
   9   7   7 25862.3 444.170   1
   7   9   7 24474.5 422.780   1
   7   7   9 25889.4 453.900   1
   7  -9  -7 25099.0 474.570   1
   1  13   3 912.690 55.6500   1
  -1  -3 -13 860.930 47.4300   1
  -1  13   3 837.030 53.0500   1
   3   1  13 812.680 63.2100   1
  -3  13   1 762.740 64.1000   1
  -3  13  -1 703.250 57.9700   1
   1   3  13 773.590 52.9500   1
   3  -7 -11 330.760 55.9200   1
   3  -1 -13 742.770 50.6000   1
   3   7  11 389.410 46.3000   1
   1   3 -13 723.340 54.0800   1
   7   3  11 367.950 44.9700   1
   7  -3  11 390.080 37.9300   1
  -3  -7 -11 345.940 44.9900   1
  -1  13   3 769.430 53.8500   1
   3 -13   1 740.880 52.9900   1
  13   3  -1 836.850 51.8800   1
  -7  -3 -11 361.240 37.3900   1
  -7   3 -11 334.900 31.2000   1
   1  -3 -13 822.610 47.7300   1
   3   7 -11 345.930 34.5700   1
   3  -7 -11 359.460 43.2900   1
   3   7  11 342.720 44.6200   1
  -3  13  -1 803.140 42.1500   1
  -3  13   1 861.910 44.6400   1
  -1  13  -3 846.900 42.8300   1
  13  -3  -1 859.960 51.0100   1
  13  -1  -3 850.710 52.5100   1
 -13  -3   1 836.710 43.1400   1
  13  -3   1 831.730 48.0300   1
 -13  -1  -3 859.990 49.1200   1
   3  -1  13 808.710 58.7700   1
  13   1  -3 710.550 50.0300   1
   1  -3 -13 680.230 58.7700   1
  -1   3 -13 770.470 53.7600   1
  -1  13  -3 750.330 56.2200   1
   1  13   3 711.570 60.6200   1
  -1  -3 -13 789.210 58.4000   1
   3 -13  -1 782.200 55.9700   1
   1  13  -3 732.430 42.8200   1
   1 -13  -3 814.910 53.2700   1
   3  13   1 800.930 54.7400   1
  -3  -1 -13 790.910 42.7000   1
  -3   1 -13 846.910 47.9800   1
   3  13  -1 879.610 53.5700   1
  -1 -13  -3 821.040 52.6200   1
   1 -13   3 809.940 46.6800   1
  -3 -13  -1 818.880 47.2500   1
  -1 -13   3 800.630 43.9500   1
  -3 -13   1 854.260 42.7400   1
  13   3   1 774.470 50.5600   1
  13   1   3 789.230 49.6200   1
  13  -1   3 822.210 41.4300   1
 -13  -3  -1 788.450 49.3500   1
  -3  11  -7 370.950 41.5300   1
  -3  11   7 301.340 43.7400   1
   7 -11   3 382.610 49.7900   1
   7 -11  -3 369.630 45.1300   1
   3 -11  -7 328.770 56.6000   1
   3  11   7 288.990 42.6100   1
  -3 -11  -7 312.930 43.6000   1
   7  11   3 351.450 44.3800   1
   3 -11   7 375.100 31.2700   1
   3 -11  -7 342.460 44.0400   1
  -3  11  -7 336.050 34.5400   1
   7 -11   3 365.230 38.6400   1
   7 -11  -3 368.900 44.8600   1
   3  11   7 374.140 48.1000   1
  11   3   7 368.540 40.3900   1
 -11   3  -7 334.760 36.3200   1
  11   3  -7 327.020 43.9600   1
 -11  -7   3 358.990 42.2900   1
 -11  -7  -3 362.220 33.5700   1
 -11  -3  -7 405.050 39.5600   1
  -7 -11   3 359.260 39.5900   1
  11   7  -3 376.060 44.0900   1
  11  -3   7 367.640 35.0700   1
  11   7   3 310.100 43.7900   1
  -7 -11  -3 372.730 40.2100   1
   7  11  -3 359.530 40.4400   1
   3  11  -7 368.770 34.3800   1
  -3 -11   7 374.460 35.0200   1
 -10   4  -8 68.1400 28.4500   1
  -4  10  -8 107.850 27.3000   1
   8 -10   4 100.750 31.5900   1
   4  -8 -10 82.1900 38.8500   1
   4 -10  -8 77.3000 38.4600   1
   4   8  10 81.3900 28.2600   1
  -8 -10   4 42.4600 35.4800   1
   4   8 -10 82.3700 28.9000   1
   4  -8 -10 40.0900 37.5500   1
   4 -10  -8 36.8400 53.4700   1
   4   8  10 97.3600 38.0500   1
   4  10   8 8.21000 50.6200   1
   8   4  10 66.3900 39.6000   1
  -4  -8 -10 62.3100 38.4000   1
  -4 -10  -8 73.7300 27.8900   1
   8  10   4 102.910 42.5800   1
  10   4   8 85.4500 27.6900   1
  10   8   4 49.4100 28.6100   1
  -8  -4 -10 78.5000 31.6800   1
  -8 -10  -4 49.6100 26.3900   1
   8  10  -4 68.5600 37.3200   1
   4  10  -8 30.2200 30.7100   1
 -10  -4  -8 80.3200 32.7200   1
  10  -4   8 84.6800 27.4900   1
 -10  -8  -4 35.8900 37.6500   1
  10   8  -4 50.3700 35.9300   1
  -8   4 -10 77.7400 29.3200   1
 -10  -8   4 114.280 37.8800   1
  -4 -10   8 97.0300 29.4700   1
  10   4  -8 68.3100 28.2100   1
   0  12   6 2485.79 86.1900   1
   6   0  12 2668.66 88.4600   1
   0 -12  -6 2760.18 92.5800   1
   6  12   0 2363.90 68.3400   1
  -6   0 -12 2623.22 79.1800   1
  -6 -12   0 2558.30 92.6500   1
   0 -12   6 2455.36 89.1000   1
  12   0   6 2456.84 73.9500   1
  12   6   0 2292.29 79.9200   1
 -12  -6   0 2353.04 72.9200   1
 -12   0  -6 2316.08 72.6200   1
   0  12   6 2309.67 79.7000   1
   6 -12   0 2207.41 75.4200   1
  -2  12  -6 867.220 57.9900   1
  -6   2 -12 803.360 40.5500   1
   2 -12   6 798.100 39.9800   1
   2 -12  -6 896.950 64.7500   1
   6  -2  12 908.160 53.4800   1
   6  12   2 730.020 50.6000   1
   6   2  12 817.060 54.3900   1
  -2   6 -12 873.320 53.1000   1
  -2  -6 -12 836.550 47.5000   1
  -6 -12   2 783.290 46.1400   1
  -2 -12  -6 836.370 50.9700   1
   6  12  -2 804.540 40.6900   1
  -6  -2 -12 771.300 43.6300   1
  -2  12   6 833.050 70.9700   1
   6 -12  -2 905.060 64.6500   1
   2   6  12 808.480 67.0300   1
  12  -2   6 793.730 46.9900   1
   2  -6 -12 939.570 57.5500   1
   2  12  -6 819.940 43.7900   1
   6 -12   2 825.390 57.8700   1
   2  12   6 868.730 66.2800   1
  -6 -12  -2 827.260 42.0800   1
  12   2   6 809.000 48.7500   1
  12   6   2 771.180 50.1100   1
  -2 -12   6 814.770 42.9000   1
  12   6  -2 812.950 42.3700   1
 -12  -2  -6 702.030 43.4900   1
 -12  -6  -2 805.840 50.6700   1
 -12  -6   2 758.910 48.0600   1
  12   2  -6 724.050 41.3600   1
 -12   2  -6 721.100 44.0400   1
  -2  12   6 769.480 52.5300   1
   2   6  12 666.930 48.4800   1
   6  -2  12 704.150 40.8000   1
   2  -6 -12 745.310 48.6600   1
   6 -12  -2 721.410 49.4800   1
   6 -12   2 723.670 46.4500   1
   2  12   6 713.260 53.1000   1
  -2  12  -6 722.300 43.2800   1
   6   2  12 711.750 43.1800   1
   2 -12  -6 752.950 49.5200   1
  -3  13   3 433.300 59.6500   1
   9   9   5 970.040 54.7900   1
   3   3  13 387.710 55.1100   1
  -9  -5  -9 941.730 47.6700   1
   3 -13  -3 456.620 53.4900   1
   3  13   3 380.270 52.3300   1
   5  -9  -9 1160.91 58.4100   1
   9   5  -9 1069.63 51.7400   1
  -9  -9   5 1112.28 48.3100   1
   5   9  -9 1033.69 47.8000   1
   9   9  -5 1050.15 53.1300   1
  -9  -9  -5 1045.96 53.6200   1
   9  -5   9 1027.67 46.1100   1
  -5  -9  -9 1050.64 52.7200   1
   9   5   9 924.600 52.7100   1
   5   9   9 982.130 64.1700   1
   5  -9  -9 888.210 59.5600   1
   3 -13   3 431.810 41.1400   1
   3  -3 -13 422.340 59.0500   1
  -3  13  -3 433.790 51.4600   1
  -3  -3 -13 407.840 42.9400   1
  -3  13  -3 386.160 32.6100   1
  -3  13   3 382.740 47.2700   1
   3   3  13 404.010 39.3100   1
 -13  -3  -3 388.370 33.9200   1
  13  -3   3 406.040 42.5200   1
  13   3  -3 329.030 46.3000   1
  13   3   3 469.760 46.5300   1
  -3 -13   3 360.130 38.7100   1
  -3 -13  -3 449.680 43.9300   1
   3  13  -3 418.350 42.0800   1
   8  -8   8 37791.6 627.030   1
   8   8  -8 38727.9 707.030   1
  -8  -8  -8 37768.3 617.130   1
   8   8   8 38440.0 701.680   1
   8  -8   8 39180.1 725.030   1
  -7  -5 -11 1448.64 56.2800   1
  11   5   7 1501.66 59.6600   1
  11   7   5 1610.37 62.9800   1
  -7 -11  -5 1487.08 67.8600   1
   7  11  -5 1504.67 52.0800   1
   5  11  -7 1493.09 51.2400   1
 -11  -5  -7 1463.39 62.3500   1
 -11  -7  -5 1544.50 56.2100   1
  11  -5   7 1524.10 58.6800   1
  11   7  -5 1459.94 59.8900   1
  -7 -11   5 1578.19 62.8100   1
  -7   5 -11 1447.57 56.2700   1
  -5 -11   7 1486.13 54.7500   1
  11   5  -7 1516.41 56.1200   1
   5   7 -11 1475.12 55.6900   1
  11  -7   5 1591.90 59.2000   1
 -11  -7   5 1537.54 60.8800   1
   5  -7 -11 1530.43 65.4600   1
   7 -11  -5 1513.29 58.1300   1
   5 -11  -7 1458.99 64.6200   1
   7 -11   5 1489.10 61.4300   1
   5   7  11 1455.71 59.5700   1
   7   5  11 1565.78 68.1900   1
   1  13   5 27.4700 30.5300   1
   1  -5 -13 -16.650 24.8500   1
  -1  13   5 -3.9900 42.7800   1
  13   1  -5 -15.340 38.9000   1
 -13  -1  -5 11.4500 32.7900   1
 -13  -5  -1 1.73000 36.4700   1
  13   5  -1 -1.5100 27.8000   1
  13  -1   5 2.67000 36.3300   1
  13   5   1 22.8900 38.9800   1
  13   1   5 -17.630 37.3400   1
  -5 -13   1 13.2800 24.0700   1
  -5 -13  -1 -7.3700 31.5500   1
  -5  -1 -13 26.8200 28.8400   1
   5  13   1 -16.620 37.9100   1
  -1 -13  -5 18.1100 37.9300   1
   5 -13   1 -17.940 35.2000   1
  -1  -5 -13 80.1100 46.0300   1
  -1  13  -5 19.5300 41.6200   1
   1  13   5 59.5600 53.9900   1
   1  -5 -13 41.3600 43.3400   1
   1   5  13 -23.420 50.7900   1
   5  -7 -11 1632.55 75.1400   1
   7 -11   5 1581.18 76.1900   1
   5 -11  -7 1600.60 77.9700   1
   5   7  11 1564.19 65.0700   1
   5  11   7 1561.70 70.8600   1
   5 -11   7 1555.88 72.3400   1
   7  -5  11 1581.21 66.0900   1
   7  11   5 1602.46 66.3300   1
  -5  -7 -11 1528.94 63.1900   1
  -5 -11  -7 1474.45 66.7400   1
   1  13  -5 10.9000 33.5600   1
   4  12   6 774.470 49.5800   1
   4 -12   6 814.160 46.2400   1
   6  12   4 789.240 45.1500   1
  -4  -6 -12 844.400 51.3200   1
  -4 -12  -6 788.030 48.2100   1
  -6  -4 -12 826.360 47.4000   1
   4  12  -6 803.730 42.3000   1
  -6 -12  -4 738.000 48.2900   1
   6  12  -4 781.530 39.6500   1
  12   4   6 752.310 48.7900   1
  12   6   4 767.570 50.6900   1
  -6   4 -12 726.530 41.6500   1
  -6 -12   4 740.800 46.2700   1
  -4 -12   6 732.420 42.8200   1
 -12  -6  -4 738.610 48.6100   1
 -12  -4  -6 712.330 39.3700   1
  12  -4   6 711.760 44.4400   1
  12   6  -4 731.290 40.7900   1
  12   4  -6 652.120 40.4600   1
  12  -6   4 688.080 44.0100   1
 -12  -6   4 618.990 44.3500   1
   4  -6 -12 790.260 49.6400   1
  -4  12  -6 646.110 40.5800   1
   6 -12  -4 603.190 48.5700   1
   4   6  12 698.420 48.6100   1
   4 -12  -6 626.010 40.4100   1
   6   4  12 698.000 46.8800   1
   6 -12   4 675.760 42.9900   1
   0   0 -14 21212.8 410.090   1
   0  14   0 20696.3 380.860   1
   0 -14   0 20194.9 365.840   1
  14   0   0 20028.4 350.180   1
   0   0 -14 21035.4 378.790   1
   0  14   0 21464.8 379.520   1
  -4  12   6 889.160 55.0000   1
   4  -6 -12 862.820 67.6000   1
   6 -12  -4 886.470 66.4400   1
   6 -12   4 849.240 59.1600   1
   4 -12  -6 804.910 54.0900   1
   4   6  12 875.200 65.9900   1
   6  -4  12 879.470 54.9000   1
   6   4  12 861.280 57.4500   1
   8   6  10 5512.32 128.230   1
   2  14   0 1184.80 62.9600   1
   2 -14   0 1207.63 65.8800   1
   0  14   2 1077.64 69.0700   1
   0  14  -2 1194.13 65.7800   1
   0   2 -14 1105.48 63.3200   1
  -2  14   0 1079.34 69.5700   1
   2   0 -14 1225.34 72.1700   1
   2   0  14 1094.47 60.7900   1
   0  10  10 21061.6 395.990   1
   0 -10 -10 20633.2 381.320   1
  10   0  10 21539.8 370.400   1
  10  10   0 21021.2 367.880   1
 -10   0 -10 21327.7 376.450   1
 -10 -10   0 21057.8 380.540   1
   0  10  10 22175.0 391.020   1
   0 -14  -2 1105.02 56.8800   1
   0 -14   2 1271.39 61.5300   1
  -2 -14   0 1310.72 58.0600   1
  14   0   2 1344.59 51.2300   1
   8 -10  -6 5249.45 150.140   1
   6  -8 -10 5697.54 182.980   1
   6 -10  -8 5636.12 173.870   1
   6 -10   8 5708.55 159.260   1
   6   8  10 5368.80 133.780   1
   6  10   8 5395.19 140.490   1
  -2   0 -14 1169.86 58.3600   1
   8  10   6 5300.57 134.210   1
  -6  -8 -10 5555.05 129.740   1
  10   6   8 5439.69 123.950   1
  -6 -10  -8 5598.63 134.510   1
  10   8   6 5564.57 132.060   1
   8  -6  10 5382.38 127.450   1
  -8  -6 -10 5573.49 130.470   1
  -8 -10  -6 5476.95 129.460   1
 -10  -6  -8 5401.87 125.280   1
 -10  -8  -6 5384.31 126.980   1
   8  10  -6 5563.75 127.510   1
   6  10  -8 5658.95 126.630   1
  10  -6   8 5472.95 130.460   1
  10   8  -6 5334.33 118.680   1
   6   8 -10 5842.23 136.970   1
  10   6  -8 5550.41 128.110   1
  -8 -10   6 5621.97 132.550   1
   8   6 -10 5329.98 118.310   1
  -6 -10   8 5616.44 132.930   1
 -10  -8   6 5520.34 142.080   1
  10  -8   6 5382.38 128.970   1
   6 -10  -8 5108.40 131.250   1
   8 -10   6 5885.67 143.450   1
  14   0  -2 1367.81 59.5000   1
  14  -2   0 1452.31 61.4000   1
 -14  -2   0 1485.59 67.7100   1
   0  -2 -14 1463.07 60.6400   1
  -2  14   0 1386.32 59.8200   1
  14   2   0 1402.96 60.2700   1
   0  -2 -14 1130.53 64.2600   1
  13   3  -5 40.1500 42.1900   1
  13   5  -3 44.5800 29.0500   1
  -3 -13   5 0.81000 27.3100   1
  13   5   3 -14.390 39.4700   1
  -5 -13  -3 -17.040 36.2800   1
   5  13  -3 41.0000 25.8300   1
  -5  -3 -13 -29.790 33.3300   1
   5  13   3 28.5500 32.6500   1
   3  13   5 -0.5000 34.6200   1
   3 -13  -5 -11.840 47.6000   1
   5   3  13 18.1400 48.7500   1
   5 -13  -3 -15.560 47.5900   1
   3   5  13 66.9100 51.7000   1
   3  -5 -13 28.2100 36.3400   1
  -3  13   5 32.1500 56.3600   1
  -1   9  11 16320.6 312.530   1
  -1  11   9 16294.6 325.040   1
   1   9  11 16921.4 340.360   1
   1  -9 -11 16848.1 334.140   1
   1 -11  -9 15991.8 344.520   1
  -1  -9 -11 16993.7 337.890   1
 -13  -3  -5 -8.7700 25.3800   1
  -1  11  -9 16268.1 321.440   1
   9   1  11 17055.9 318.290   1
   9  -1  11 16489.7 295.600   1
   1  11  -9 16646.7 307.970   1
   9  11   1 16066.6 285.460   1
  11   1   9 16308.7 292.380   1
   9  11  -1 16457.3 298.480   1
  11  -1   9 16627.2 298.930   1
  11   9   1 16706.1 302.990   1
  11   9  -1 16514.4 298.210   1
  -9  -1 -11 17059.7 306.800   1
  -9 -11  -1 17034.5 328.360   1
   1   9 -11 16874.9 306.630   1
  -9   1 -11 16457.1 294.250   1
  -9 -11   1 16740.5 316.490   1
 -11  -1  -9 16582.5 301.040   1
 -11  -9  -1 16882.8 325.750   1
 -11  -9   1 16286.4 304.130   1
 -11   1  -9 17167.3 316.910   1
   1 -11   9 16861.5 321.280   1
  -1 -11   9 16282.1 303.490   1
   9 -11   1 17242.7 342.480   1
   9 -11  -1 16361.0 306.740   1
   1   9  11 17142.2 307.540   1
   1  11   9 17403.9 307.330   1
   1  -9 -11 16607.0 303.140   1
   1 -11  -9 17261.8 334.330   1
   3 -13  -5 -15.550 40.1300   1
   5 -13  -3 24.6600 27.4200   1
  -3  13   5 56.5600 43.6500   1
   3  -5 -13 -8.1800 37.8100   1
 -13  -5   3 -42.460 36.9700   1
  13  -5   3 11.3300 35.9600   1
 -14  -2  -2 2978.12 97.8900   1
  -2   2 -14 2909.59 90.9900   1
   2   2 -14 3495.10 120.120   1
  -2  14   2 2939.16 84.6700   1
  14  -2  -2 2926.79 88.7600   1
 -10 -10  -2 14377.8 281.300   1
 -10  -2 -10 15566.0 296.600   1
 -10 -10   2 14519.8 276.400   1
  14   2  -2 2902.73 81.9700   1
  -2 -14   2 3260.56 96.1700   1
  14   2   2 2954.11 87.0600   1
 -10   2 -10 15327.4 280.000   1
   2  10  10 15067.5 279.690   1
   2 -10 -10 15042.3 301.870   1
  -2  -2 -14 2880.08 86.8100   1
  -2  14  -2 2895.92 78.2600   1
   2  -2 -14 3373.57 120.890   1
  -2  14   2 2918.66 95.1900   1
  -2  14  -2 3328.66 103.830   1
  -2   2 -14 3313.15 103.880   1
   2  14   2 3108.66 89.1700   1
  -2  10  10 14191.9 285.860   1
  -2  -2 -14 3257.54 99.2500   1
   2 -14  -2 3275.52 104.020   1
   2  14  -2 3343.50 96.4900   1
   2 -14   2 3349.71 104.370   1
  -2 -14  -2 3274.91 95.4000   1
  10  -2  10 14533.8 271.150   1
   2  10  10 13947.2 278.970   1
   2 -10 -10 14556.3 317.280   1
  -2 -10 -10 14386.9 277.780   1
  10   2  10 14384.6 258.080   1
  10  10   2 14572.5 272.280   1
  10  10  -2 14636.4 272.320   1
   2  10 -10 14728.8 274.850   1
 -12  -8   0 12888.9 264.480   1
   0   8 -12 12282.7 237.550   1
 -12   0  -8 12824.9 246.010   1
   0   8  12 12566.3 273.030   1
   0   8  12 12402.0 230.710   1
  -8 -12   0 13249.4 255.710   1
  12   8   0 12797.9 235.750   1
  12   0   8 13015.9 252.430   1
  -8   0 -12 12711.6 239.860   1
   8  12   0 12571.5 232.650   1
   8   0  12 12768.1 249.900   1
   0  12  -8 12780.1 251.410   1
   0  -8 -12 12966.6 282.250   1
   0  12   8 12617.9 264.170   1
   8 -12   0 12796.0 265.510   1
   0  -8 -12 12644.3 244.980   1
   8 -12   0 12795.0 304.080   1
   0  12   8 12954.3 244.930   1
   0 -12  -8 12203.6 271.600   1
   0 -12   8 12609.8 246.300   1
   9  -7   9 10021.2 203.180   1
   7  -9   9 10699.1 217.650   1
   7   9  -9 10687.4 204.630   1
   9   7  -9 10008.2 191.090   1
   7  -9   9 10194.3 246.060   1
   7   9   9 10479.8 219.160   1
   9   7   9 10111.5 207.420   1
  -7  -9  -9 9821.28 208.210   1
  -9  -7  -9 10179.7 201.710   1
   9  -9   7 9784.95 196.630   1
   9  -9   7 10180.3 215.230   1
  -9  -9   7 9914.15 200.690   1
   9   9  -7 9859.06 190.160   1
  -9  -9  -7 9897.91 220.620   1
  -3  11   9 6762.28 163.850   1
   3  -9 -11 6586.46 184.530   1
   3 -11  -9 6460.33 197.600   1
   3   9  11 6601.94 155.170   1
   3  11   9 6552.27 163.570   1
  -3  -9 -11 6887.29 167.850   1
  -3 -11  -9 6768.60 165.210   1
   9   9   7 10341.4 208.130   1
   9  -3  11 6341.50 139.740   1
   9  11   3 6958.78 152.720   1
  11   3   9 6292.74 141.150   1
  11   9   3 6664.99 151.570   1
   9  11  -3 6591.44 141.150   1
  -9  -3 -11 6790.67 154.500   1
   3  11  -9 6552.17 137.740   1
  11  -3   9 6959.43 156.100   1
  -9 -11  -3 6728.80 156.990   1
  11   9  -3 6838.47 152.770   1
 -11  -3  -9 6746.62 153.520   1
 -11  -9  -3 6732.53 168.770   1
   3   9 -11 6718.83 147.220   1
  -9 -11   3 6870.84 167.330   1
  -9   3 -11 6674.83 149.320   1
 -11  -9   3 6630.97 153.800   1
 -11   3  -9 7187.72 165.580   1
  -3 -11   9 6961.69 160.200   1
  11   3  -9 6573.56 147.130   1
   9 -11   3 6888.54 166.650   1
   3  -9 -11 6772.77 156.990   1
   3   9  11 6776.53 149.470   1
  -3  11  -9 6766.84 153.460   1
   3 -11  -9 6634.84 152.550   1
   3  11   9 6884.50 149.920   1
   9   3  11 6921.88 154.460   1
   4  14   0 723.750 52.3700   1
  -4   0 -14 715.180 44.2000   1
   0 -14   4 713.510 43.0800   1
  -4 -14   0 735.180 47.5400   1
  14   4   0 729.110 48.8900   1
  14   0   4 670.260 48.0700   1
 -14  -4   0 687.130 47.8200   1
 -14   0  -4 636.290 38.0800   1
  14   0  -4 596.440 39.5600   1
  14  -4   0 652.670 48.3000   1
  -4  14   0 746.130 51.3800   1
   0  -4 -14 704.650 40.2400   1
   0  14   4 644.420 51.4600   1
  12   8   2 5732.23 128.110   1
  -2   8  12 6139.14 147.540   1
   8 -12  -2 6165.87 186.550   1
  -2  12   8 6003.55 163.970   1
   8 -12   2 5771.76 160.240   1
  -2  12  -8 5673.16 153.340   1
   2   8  12 5560.72 147.580   1
   2  -8 -12 5704.20 170.340   1
   2  12   8 6284.82 149.360   1
   2 -12  -8 5725.76 156.800   1
  -2  -8 -12 5668.75 148.810   1
   8   2  12 5762.30 137.400   1
   8  -2  12 5982.01 149.690   1
  -2 -12  -8 5855.98 147.690   1
   8  12   2 6026.48 134.180   1
   2  12  -8 5942.07 133.650   1
   8  12  -2 5975.60 135.110   1
  12   2   8 5539.73 129.620   1
  -8  -2 -12 5971.67 141.580   1
  -8 -12  -2 6098.69 152.120   1
  12  -2   8 6035.38 128.730   1
   2 -12   8 5983.72 144.630   1
  -8   2 -12 6030.49 142.120   1
  12   8  -2 6038.76 136.930   1
  -8 -12   2 6191.71 142.130   1
 -12  -2  -8 6214.40 138.810   1
 -12  -8  -2 5899.04 141.060   1
  -2 -12   8 6069.60 145.880   1
   2   8 -12 5930.17 138.230   1
 -12  -8   2 5791.42 132.090   1
 -12   2  -8 5920.06 143.850   1
  12   2  -8 5928.23 129.080   1
  -2  12   8 5917.60 132.980   1
   8 -12  -2 6115.29 143.810   1
   2   8  12 5844.74 137.090   1
   8 -12   2 6084.48 147.400   1
   2  -8 -12 5925.10 138.100   1
   2  12   8 6234.36 142.470   1
   2 -12  -8 6103.57 152.850   1
  -2  12  -8 6132.05 140.040   1
  -4  14   0 777.850 59.6700   1
   0   4 -14 774.360 55.5200   1
   4   0  14 821.340 61.8000   1
   0  14   4 688.680 52.2200   1
   0  -4 -14 714.550 60.3400   1
   4 -14   0 691.760 55.3500   1
   0  14  -4 723.280 51.8000   1
   0 -14  -4 706.220 52.9400   1
   4 -14  -2 1211.84 69.7000   1
  14   4  -2 982.850 54.5000   1
  14   2   4 1143.68 56.3100   1
   4 -10 -10 581.650 59.6200   1
  10  10  -4 753.650 48.7600   1
   4  10  10 799.660 64.8100   1
  -4 -10 -10 763.730 43.4300   1
  10   4  10 813.440 49.0400   1
  10  10   4 713.060 47.8300   1
  10  -4  10 751.170 41.0700   1
 -10  -4 -10 784.240 47.0900   1
   6  -6 -12 20.4000 51.1200   1
   6   6  12 66.6000 46.1900   1
  -2 -14  -4 1134.40 62.5900   1
  -4   2 -14 1226.81 56.1500   1
   4  14  -2 1261.14 58.3200   1
   2  14  -4 1130.84 55.8100   1
   4  14   2 1198.73 53.7200   1
  -2  -4 -14 1303.70 64.1100   1
   2 -14  -4 1258.49 66.1300   1
   4 -14   2 1190.37 56.2000   1
  -2   4 -14 1235.55 57.7500   1
  -2  14   4 967.700 47.6300   1
 -10   4 -10 766.690 41.5300   1
   2  14   4 1278.54 61.6500   1
 -10 -10   4 807.730 41.7300   1
   4  10 -10 833.110 43.6300   1
 -10 -10  -4 792.130 50.7800   1
   4  10  10 866.480 53.1500   1
   4 -10 -10 820.510 52.1900   1
  14   4   2 1045.80 46.5400   1
  -4  10 -10 838.460 43.3800   1
  10   4 -10 813.150 49.1300   1
  12   6   6 26.5400 41.2500   1
  -6 -12  -6 33.1500 36.4400   1
  -6  -6 -12 27.3700 35.8100   1
   6  12   6 62.4100 47.8600   1
   4   2  14 1294.11 70.3100   1
  -2  14  -4 1213.50 66.8200   1
   2  -4 -14 1249.42 64.8800   1
  -2  14   4 1250.58 75.4300   1
   4  -2  14 1245.37 66.4100   1
   4  -2 -14 1218.84 69.0300   1
  -4  14   2 1168.06 68.2700   1
  -4  14  -2 1255.93 65.8300   1
   2 -14   4 1187.44 58.9600   1
  -4 -14  -2 1094.76 48.5100   1
  -2 -14   4 1139.57 56.9900   1
  -4 -14   2 1066.27 51.9600   1
   6 -12  -6 27.5400 39.3100   1
  12   6  -6 11.2300 41.9200   1
 -12  -6  -6 2.37000 36.1500   1
  -2   4 -14 999.150 50.6000   1
  -4  14  -2 1081.27 47.9000   1
   2  -4 -14 1086.74 54.6800   1
  -4  14   2 1067.34 48.7000   1
   2  14   4 967.700 47.9900   1
  -2  14  -4 1075.00 52.7400   1
   4   2  14 980.310 48.0400   1
 -14  -4   2 978.640 48.4500   1
  14  -4   2 1059.79 53.6300   1
 -14  -2  -4 1071.47 54.0100   1
  14   2  -4 1057.21 57.5500   1
 -14  -4  -2 1040.64 53.7900   1
  14  -2   4 1013.84 51.5500   1
   7  -1  13 3919.18 108.210   1
   7   1  13 4250.88 122.630   1
  -1  -7 -13 3997.98 121.390   1
  -1  13  -7 3972.26 118.550   1
   1  -7 -13 3692.99 113.390   1
   1  13   7 3904.75 116.520   1
  -1  13   7 3824.04 112.970   1
  -1   7 -13 4104.95 137.130   1
   7 -13   1 4049.16 138.800   1
   7 -13  -1 3945.25 148.490   1
   1   7  13 3899.60 119.010   1
   5 -13  -5 -8.6500 38.4400   1
   1  -7 -13 3994.71 115.160   1
   7   1  13 4079.85 108.000   1
  -1  -7 -13 3983.22 110.340   1
  -5  -5 -13 21.2900 34.8900   1
  -5 -13  -5 -25.020 38.0300   1
   5  13  -5 1.38000 33.5000   1
  13   5   5 -2.0700 41.0700   1
 -13  -5  -5 -16.570 34.1400   1
  13   5  -5 3.81000 41.1900   1
  -1   7  13 3902.99 115.130   1
   5  -5 -13 -40.020 52.8400   1
   5 -13  -5 40.3500 47.0100   1
   5   5  13 41.9200 35.8600   1
   1 -13  -7 4078.12 127.610   1
  -1 -13  -7 3793.54 110.100   1
   1  13  -7 4095.56 107.830   1
   7  13   1 4065.94 102.830   1
   7  13  -1 3931.10 95.3300   1
  -7  -1 -13 4152.37 104.630   1
  -7   1 -13 4026.86 106.770   1
  -7 -13  -1 3969.50 112.590   1
  13   1   7 3999.18 103.060   1
   1 -13   7 4020.37 115.810   1
  -7 -13   1 4139.44 114.050   1
  13   7   1 3770.88 104.850   1
  13  -1   7 4272.44 102.950   1
  -1 -13   7 4101.18 108.650   1
  13   7  -1 4058.37 105.360   1
 -13  -1  -7 4146.97 117.070   1
 -13  -7   1 3925.32 104.170   1
 -13   1  -7 4168.27 109.680   1
   1   7 -13 3947.11 110.110   1
  13   1  -7 3983.24 98.9400   1
  -1   7 -13 4018.75 106.380   1
   1   7  13 3990.45 104.100   1
  -1  13   7 4167.26 106.670   1
   7 -13  -1 3964.76 108.270   1
   7 -13   1 3986.84 120.450   1
   1  13   7 4108.91 108.710   1
   7  -1  13 3956.73 107.170   1
   7 -11   7 747.950 42.5300   1
   7 -11  -7 657.500 50.2400   1
   7   7 -11 692.720 46.5100   1
  -7 -11   7 670.650 44.1300   1
  11  -7   7 646.140 42.6600   1
  11   7  -7 674.170 49.1200   1
 -11  -7  -7 654.420 46.7300   1
   7 -11   7 541.540 47.4500   1
   7  -7  11 583.390 41.2300   1
   7  11   7 569.980 54.6100   1
  11   7   7 695.330 49.3600   1
  -7 -11  -7 632.040 39.0100   1
   7  -7 -11 503.750 60.9000   1
   7 -11  -7 474.800 62.0000   1
   7  11  -7 630.930 43.5100   1
   7   7  11 552.400 43.0600   1
  -7  -7 -11 678.550 46.2500   1
  -4  -8 -12 1858.88 71.4700   1
   8  -4  12 1810.77 69.8400   1
   8   4  12 1707.58 68.1200   1
   8 -12   4 1902.13 92.0700   1
   4 -12  -8 1718.04 66.4600   1
   4   8  12 1737.09 66.1300   1
   8 -12   4 1728.67 72.2800   1
   4  -8 -12 1807.55 67.4300   1
  -4  12  -8 1747.86 68.2500   1
   8 -12  -4 1739.65 67.2500   1
  12   4  -8 1735.68 58.2600   1
 -12  -8   4 1692.10 71.6100   1
   4   8 -12 1800.66 62.2000   1
  -4 -12   8 1777.52 68.2200   1
  -8   4 -12 1776.21 66.7500   1
  -8 -12   4 1784.06 67.2600   1
   8 -12  -4 2001.46 87.6000   1
 -12  -8  -4 1801.17 77.2300   1
 -12  -4  -8 1793.70 65.2800   1
  12   8  -4 1826.63 66.2100   1
  12  -4   8 1812.69 60.9100   1
  -8 -12  -4 1836.62 74.8900   1
   8  12  -4 1802.67 63.7900   1
  12   8   4 1638.10 62.6900   1
   4  -8 -12 1847.36 94.4800   1
   4  12   8 1725.25 69.2900   1
   4   8  12 1855.28 79.8900   1
   4 -12  -8 1774.49 79.8200   1
   4  12   8 1754.50 69.2600   1
   4  12  -8 1869.23 60.4100   1
  -8  -4 -12 1856.08 63.9900   1
  12   4   8 1907.77 68.4700   1
   4 -12   8 1851.16 70.1000   1
   8  12   4 1832.30 67.6600   1
  -4 -12  -8 1747.18 73.2700   1
   3   7  13 155.360 41.8700   1
   7  -3  13 202.830 42.6000   1
   7   3  13 139.050 33.4400   1
  -3  -7 -13 149.000 42.0400   1
  -7  -3 -13 146.250 34.7100   1
  -7   3 -13 162.140 27.5900   1
   3  -7 -13 171.270 53.7000   1
   3   7  13 198.550 41.2100   1
   3  -7 -13 186.670 40.3300   1
   7   3  13 182.410 35.4300   1
   3   7 -13 182.760 32.2000   1
   1   1 -15 9458.84 223.290   1
  -5 -11  -9 50.2200 27.7300   1
   9 -11  -5 79.9900 50.5900   1
   5  -9 -11 62.2700 55.4100   1
   5 -11  -9 55.9400 54.8600   1
   5   9  11 8.90000 48.4000   1
   5  11   9 59.6700 36.7900   1
   9   5  11 154.350 42.3400   1
  -5  -9 -11 61.6100 38.7700   1
   9  11   5 40.9600 42.1100   1
   9  -5  11 60.2400 30.7900   1
  11   5   9 56.2700 28.5500   1
  11   9   5 69.2700 28.7000   1
  -9  -5 -11 71.7400 34.9400   1
  -9 -11  -5 38.5700 38.9600   1
   9  11  -5 53.2400 26.4500   1
 -11  -5  -9 77.4600 36.3500   1
  11  -5   9 44.4000 29.6000   1
 -11  -9  -5 93.6700 27.9000   1
  11   9  -5 5.68000 38.6800   1
   5   9 -11 65.0000 31.9500   1
  -9 -11   5 24.5600 34.4400   1
  -9   5 -11 51.9600 24.7600   1
 -11  -9   5 61.5500 26.6000   1
  11   5  -9 30.4800 27.5000   1
  -5 -11   9 26.6600 27.3400   1
   9   5 -11 29.3100 37.7300   1
   9 -11   5 42.7100 31.1300   1
   5  -9 -11 16.3200 28.4100   1
   5 -11  -9 31.5600 39.5200   1
  -3  13   7 151.120 42.8500   1
  -3  13  -7 102.640 40.4400   1
   7 -13  -3 158.590 40.3200   1
   7 -13   3 210.030 46.5500   1
   5   9  11 37.2400 29.8100   1
   1  15   1 9300.40 188.730   1
   3 -13  -7 137.580 51.0400   1
   3  13   7 121.530 53.2000   1
  -1  15  -1 8850.82 175.210   1
  -1  15   1 9504.54 211.770   1
  -1  -1 -15 9300.29 195.710   1
  -3 -13  -7 196.770 42.5700   1
   7  13   3 130.880 44.7000   1
   3  13  -7 168.180 29.9600   1
  -1   1 -15 8842.81 192.680   1
   7  13  -3 178.890 38.7300   1
   3 -13   7 173.690 26.2500   1
  -7 -13  -3 161.810 38.8400   1
  13   3   7 209.470 38.9900   1
  13   7   3 148.120 42.9700   1
   1  -1 -15 9051.93 182.950   1
  -7 -13   3 211.130 29.1000   1
  13  -3   7 155.290 34.2100   1
  13   7  -3 179.390 42.3800   1
  -3 -13   7 200.630 32.2300   1
 -13  -7  -3 169.120 30.0000   1
 -13  -3  -7 202.000 38.4400   1
 -13  -7   3 216.630 40.5500   1
  13   3  -7 228.510 44.9000   1
  15  -1  -1 9208.33 186.750   1
 -13   3  -7 200.140 37.0400   1
  -3  13   7 272.750 36.1900   1
  15   1  -1 9311.60 199.170   1
  15  -1   1 9148.27 189.300   1
   7 -13  -3 175.620 40.5400   1
  -3  13  -7 186.180 34.5100   1
   7 -13   3 221.580 36.1400   1
   3 -13  -7 232.950 40.0300   1
  15   1   1 8950.90 185.070   1
   3  13   7 261.050 47.5200   1
  -1 -15   1 9162.70 205.930   1
  -1 -15  -1 9103.86 194.780   1
   1 -15   1 9335.48 200.980   1
   1 -15  -1 8804.24 213.050   1
   1  15  -1 9519.80 203.520   1
   1  15   1 8740.30 206.180   1
  -1  -1 -15 9226.49 215.510   1
  -1   1 -15 9235.54 212.940   1
  -1  15  -1 9318.72 203.130   1
  -1  15   1 8984.26 219.130   1
   1  -1 -15 9540.27 228.320   1
   4  14   4 -2.4500 46.2800   1
   4 -14  -4 45.1300 33.9700   1
  -8  -8 -10 2343.79 76.5600   1
   8  -8  10 2296.20 79.5800   1
 -10  -8  -8 2436.71 85.5400   1
   8  10  -8 2434.83 76.1900   1
  10   8  -8 2406.98 82.9000   1
  -4  14   4 10.3600 35.5800   1
   8 -10   8 2460.80 86.0800   1
   8 -10   8 2401.52 82.4100   1
  -8 -10   8 2430.66 79.0300   1
   8   8 -10 2612.61 81.9900   1
  10  -8   8 2402.18 78.0700   1
  -8 -10  -8 2333.66 84.9500   1
   8 -10  -8 2237.63 106.640   1
   8   8  10 2288.20 74.6500   1
   8  10   8 2474.40 86.1100   1
  10   8   8 2357.74 77.4200   1
   4 -14  -4 53.0600 40.7100   1
  -4  14  -4 18.9900 35.4700   1
  14  -4   4 56.2600 36.8800   1
 -14  -4  -4 29.3200 26.3200   1
  14   4  -4 -14.040 42.1800   1
  14   4   4 -8.2700 28.5100   1
  -4 -14  -4 48.7000 27.3700   1
   4  14  -4 14.9900 35.1800   1
   6   0  14 1374.03 58.5900   1
  14   0  -6 1248.07 53.9300   1
 -14   0  -6 1404.93 65.1400   1
 -14  -6   0 1332.50 61.7300   1
  14   6   0 1496.58 64.8600   1
  14   0   6 1343.04 52.6900   1
  -6 -14   0 1363.37 59.2500   1
  -6   0 -14 1499.83 60.3200   1
   6  14   0 1462.60 63.1700   1
   0 -14  -6 1382.95 73.3900   1
   0  14  -6 1433.48 65.0600   1
   0  -6 -14 1343.39 69.2000   1
   6   0  14 1408.94 69.6400   1
   6 -14   0 1458.22 84.9300   1
   0  14   6 1360.71 79.9200   1
   0   6 -14 1466.19 77.6100   1
   0   6  14 1414.35 65.7400   1
   0 -14   6 1368.96 62.7200   1
   0  -6 -14 1429.20 67.5500   1
   0  14   6 1474.95 64.7500   1
   6 -14   0 1448.41 68.7600   1
   1  -3 -15 43.8700 47.5900   1
   3   1  15 8.12000 48.1600   1
   3  -1  15 52.3100 40.1400   1
   1   3  15 76.2400 47.6900   1
  -1  -3 -15 96.3600 33.7300   1
  -3   1 -15 54.2200 31.0900   1
  -3  -1 -15 82.1400 36.0100   1
   1  -3 -15 70.9300 35.6100   1
  -1   3 -15 78.7300 26.3600   1
   3  -1 -15 48.4200 49.3200   1
   3 -15   1 44.5100 38.0300   1
   1 -15  -3 29.4200 41.0700   1
  -1 -15  -3 75.8900 28.3800   1
   1 -15   3 101.740 33.9300   1
  -3 -15  -1 87.8800 37.2600   1
  -1 -15   3 26.5400 29.7400   1
  -3 -15   1 73.0200 35.6700   1
  15   3   1 83.4600 30.5800   1
  15  -3   1 128.170 40.5100   1
  15   3  -1 91.5800 31.2000   1
  15  -1   3 64.3900 38.4800   1
  15   1  -3 137.180 45.0200   1
   1  15   3 139.800 41.5200   1
  15  -1  -3 134.140 42.8100   1
  15  -3  -1 32.4200 41.4200   1
 -15  -3  -1 132.140 39.5300   1
 -15  -1  -3 89.3600 37.6000   1
 -15  -3   1 45.5700 28.3800   1
  -3  15   1 110.920 42.6400   1
  -3  15  -1 113.060 36.5500   1
  -1  15   3 92.6800 31.7100   1
  -1  15   3 120.750 53.8200   1
  -1  15  -3 91.2600 37.5200   1
  15   1   3 124.060 40.4200   1
   1  15   3 20.5300 52.1500   1
   1  15  -3 56.8900 41.7800   1
   3  15   1 74.0800 45.2400   1
   3 -15  -1 60.0400 30.2400   1
   3  15  -1 54.7400 43.5400   1
 -10 -10  -6 291.420 41.6000   1
 -14  -2  -6 382.810 41.8100   1
  14   2  -6 428.460 45.9000   1
   2  14  -6 418.220 37.6400   1
 -10 -10   6 329.680 40.7500   1
  -2  14   6 414.320 49.7400   1
   2  14   6 437.590 46.5000   1
  -2  14  -6 456.790 48.7400   1
   6 -14  -2 455.140 56.4600   1
 -14   2  -6 406.700 41.0400   1
  14  -6   2 409.020 41.8100   1
   6 -14   2 389.980 46.7200   1
  -2  14   6 403.330 48.2100   1
  10  10  -6 336.420 42.8200   1
   6 -14  -2 364.200 34.4200   1
   2  14   6 447.940 49.6500   1
   2 -14  -6 397.170 42.2900   1
  -2  14  -6 393.910 40.9200   1
   6 -14   2 344.880 42.1500   1
   6  14   2 478.070 49.7500   1
  -2 -14  -6 385.680 45.8300   1
   6  14  -2 358.360 43.0800   1
 -14  -6   2 402.340 44.2100   1
   2 -14   6 415.690 34.7200   1
  10  10   6 269.120 44.6100   1
  -6 -14  -2 446.680 34.8300   1
  -6 -14   2 385.870 41.5500   1
  14   2   6 382.070 34.8900   1
  -2 -14   6 402.450 37.0300   1
  14   6   2 397.630 47.7300   1
  14   6  -2 461.580 46.9400   1
  14  -2   6 433.630 42.2400   1
 -14  -6  -2 360.440 40.5200   1
   6 -10 -10 304.400 46.3700   1
   6  10 -10 285.960 36.1800   1
  10   6 -10 283.150 43.5700   1
   2  -6 -14 382.920 56.4600   1
   6  -2  14 448.990 48.5500   1
   2   6  14 435.290 59.8700   1
  10   6  10 261.200 33.8600   1
   6   2  14 423.860 52.9000   1
  -2   6 -14 407.570 38.6000   1
  -2  -6 -14 418.120 48.8700   1
   6 -10 -10 305.650 43.0700   1
  -6  -2 -14 405.080 38.7600   1
  -6   2 -14 418.300 34.0700   1
   2   6  14 414.320 43.5800   1
   6   2  14 407.790 38.4500   1
  -6 -10 -10 290.310 41.3400   1
 -10  -6 -10 299.110 39.7000   1
  10  -6  10 307.340 34.2700   1
   6  10  10 297.330 40.7400   1
   2  -6 -14 367.000 42.9200   1
   5  -7 -13 7.83000 28.3000   1
   7 -13  -5 15.6000 39.9900   1
   5 -13  -7 -0.6600 39.3200   1
   5   7  13 11.9100 37.5500   1
   7 -13   5 1.38000 32.1500   1
   7   5  13 23.9000 36.8500   1
   7  13   5 31.0400 31.9100   1
   9  -9   9 1226.37 58.1500   1
   9  -9   9 1182.94 54.4400   1
   9   9  -9 1076.37 53.3000   1
  -9  -9  -9 1118.24 48.0400   1
   9   9   9 1088.06 50.9300   1
   5  -7 -13 31.6200 39.3800   1
   7 -13  -5 12.6400 38.3800   1
   5 -13  -7 23.2000 50.9600   1
   5   7  13 9.09000 47.7100   1
   7   5  13 17.3600 48.2600   1
   5  13   7 7.10000 51.6100   1
  -5 -13  -7 36.4000 39.3000   1
  -7  -5 -13 4.81000 35.4200   1
  -7 -13  -5 -14.500 37.7000   1
  13   7   5 38.2800 39.0400   1
  13   5   7 -22.190 39.3000   1
 -13  -5  -7 -16.790 36.6000   1
 -13  -7  -5 -3.4300 36.8100   1
  -7 -13   5 16.1000 31.9500   1
  13   7  -5 -9.8700 29.2000   1
  13   5  -7 -8.1200 38.0900   1
  13  -7   5 -44.160 33.5100   1
 -13  -7   5 -33.400 37.4500   1
  -1  11 -11 7027.72 172.890   1
  11   1  11 7481.69 175.290   1
   3 -15   3 717.180 47.2800   1
  -3  15   3 610.510 51.4300   1
  -3 -15  -3 732.720 49.3600   1
  -3  15  -3 699.500 47.2000   1
  -3 -15   3 605.250 43.1700   1
  -1  11  11 6932.53 176.890   1
   1  11  11 6932.94 174.300   1
  15   3   3 650.910 48.7300   1
   1 -11 -11 6718.53 196.350   1
  -1 -11 -11 6670.57 182.770   1
  15   3  -3 667.380 51.2900   1
 -15  -3  -3 626.430 47.9500   1
  15  -3   3 705.660 47.3400   1
   3  15  -3 673.020 42.0700   1
  -3   3 -15 628.560 42.8900   1
  -3  -3 -15 728.520 52.5000   1
   3 -15  -3 657.710 56.1500   1
   3  15   3 653.840 55.7700   1
   3  -3 -15 691.640 64.2800   1
  -3  15  -3 725.500 60.0100   1
  11  -1  11 7024.99 160.340   1
   1  11 -11 7208.36 168.620   1
   1 -11 -11 7598.46 191.730   1
  11  11   1 7670.91 175.810   1
  11  11  -1 7055.08 156.300   1
 -11  -1 -11 7476.59 168.560   1
 -11 -11  -1 7304.67 175.100   1
 -11   1 -11 7085.72 162.260   1
 -11 -11   1 7317.24 189.490   1
  -1  11  11 7578.76 172.670   1
   1  11  11 7589.59 173.070   1
   3   3  15 716.380 63.7300   1
  -3  15   3 627.590 52.5200   1
  12  -6   8 605.500 39.5800   1
  -8 -12   6 547.920 35.7800   1
   6   8 -12 612.410 42.2100   1
  12   6  -8 587.760 46.5900   1
   0  12  10 5853.80 135.350   1
   0  10  12 5883.61 143.070   1
  -6 -12   8 621.000 40.9600   1
  -8   6 -12 618.890 39.2300   1
   8   6 -12 642.580 38.9400   1
   6  -8 -12 685.700 56.5200   1
   8 -12  -6 701.550 67.7500   1
   8 -12   6 645.290 51.0200   1
   6 -12  -8 644.130 66.3400   1
   6   8  12 752.940 62.9200   1
  12  -8   6 565.320 41.1500   1
   6  -8 -12 577.080 41.0100   1
   8 -12  -6 578.400 49.9400   1
   6 -12  -8 553.340 40.0400   1
   8 -12   6 589.040 41.0500   1
 -12  -8   6 595.740 38.5200   1
   6  12   8 690.120 61.3000   1
   6 -12   8 682.120 47.3800   1
   8  12   6 575.810 49.7700   1
  -6  -8 -12 563.380 44.0100   1
  -6 -12  -8 614.910 40.4000   1
   8  -6  12 663.940 43.4300   1
  12   6   8 626.490 47.1100   1
  12   8   6 641.930 49.9500   1
  -8  -6 -12 567.860 41.6100   1
  -8 -12  -6 591.550 47.1700   1
   8   6  12 585.920 52.8400   1
   8  12  -6 625.090 37.5400   1
   6  12  -8 581.020 41.4700   1
 -12  -8  -6 592.710 44.4900   1
 -12  -6  -8 647.490 47.2400   1
  12   8  -6 644.290 49.0600   1
   6   8  12 564.120 40.3500   1
   0  10  12 5624.02 151.020   1
   0  12  10 5532.56 149.810   1
   0 -10 -12 5272.43 152.540   1
   0  12 -10 5584.59 142.990   1
  10   0  12 5827.30 142.170   1
  10  12   0 5594.32 130.700   1
  12   0  10 5683.93 132.820   1
   0  10 -12 5675.01 154.390   1
  12  10   0 5988.80 143.390   1
 -10   0 -12 5670.49 134.260   1
 -10 -12   0 5696.13 143.530   1
 -12 -10   0 5721.17 152.300   1
 -12   0 -10 5971.39 148.300   1
   0 -12  10 5981.69 160.290   1
  10 -12   0 6157.28 166.730   1
 -14  -6  -4 971.520 51.3000   1
  14   6  -4 1099.37 49.5400   1
  -6 -14   4 1041.56 55.7100   1
  14   6   4 1114.46 49.1600   1
   6 -14  -4 983.190 57.9100   1
   6  14  -4 1157.28 54.8900   1
  -6 -14  -4 1055.11 47.9200   1
   6 -14  -4 1079.64 63.9200   1
   6 -14   4 1113.24 61.4700   1
   6  14   4 1231.17 65.0400   1
 -14  -6   4 966.280 47.4900   1
  14  -6   4 1043.04 49.8300   1
  10 -12  -2 7241.18 192.700   1
   6   4  14 1035.36 52.8300   1
   4   6  14 991.870 51.9100   1
  -4  14  -6 1074.49 52.3200   1
   4  -6 -14 1025.27 54.6300   1
  -2 -12  10 7611.00 181.750   1
 -12   2 -10 7817.98 176.200   1
  14   4  -6 1038.84 57.5300   1
 -14  -4  -6 1103.69 55.4900   1
 -12 -10   2 7458.51 177.380   1
 -10 -12   2 7332.59 171.800   1
  14  -4   6 1106.68 52.7700   1
  -4 -14   6 1087.13 53.3800   1
 -10   2 -12 7494.84 167.850   1
 -12 -10  -2 7193.24 180.920   1
 -12  -2 -10 7919.76 180.800   1
 -10 -12  -2 7410.41 176.010   1
  12  10  -2 8094.95 183.910   1
 -10  -2 -12 7690.61 184.600   1
  12  -2  10 8025.82 175.540   1
  10  12  -2 7591.51 172.390   1
  12  10   2 7578.83 161.420   1
   2  12 -10 7465.50 174.690   1
  12   2  10 7543.54 169.800   1
  10  -2  12 8042.63 186.270   1
  10   2  12 7918.54 183.110   1
  -2 -12 -10 7266.85 194.380   1
  -2 -10 -12 7196.25 175.380   1
   2 -12 -10 7148.69 206.650   1
   2 -10 -12 7005.11 193.010   1
   2  12  10 7480.81 187.130   1
   2  10  12 7257.68 177.170   1
  -2  12 -10 7673.26 204.520   1
  -2  12  10 7389.89 181.490   1
  -2  10  12 7744.25 185.850   1
  14   4   6 1062.75 47.4000   1
  -6   4 -14 1130.15 49.1900   1
  -4   6 -14 1185.58 54.5400   1
  -4 -14  -6 1095.67 51.1100   1
   4  14  -6 1176.52 53.7500   1
  -6  -4 -14 1121.86 54.4400   1
   4 -14   6 1122.56 54.2100   1
  -4  -6 -14 1177.60 60.7600   1
   4  14   6 1098.45 58.1200   1
   2  10 -12 7621.32 175.660   1
   4 -14  -6 1160.27 61.2800   1
   6   4  14 1008.13 55.8000   1
   4   6  14 1175.31 69.0600   1
   6  -4  14 1134.60 65.4300   1
   4  -6 -14 1124.11 64.8000   1
  -4  14   6 1152.17 69.9300   1
   6  -4 -14 1226.04 73.8600   1
  10  12   2 7953.77 175.000   1
   2 -12 -10 7437.76 177.720   1
   2 -10 -12 7149.00 169.490   1
   2  12  10 7719.48 181.160   1
   2  10  12 7649.48 175.350   1
  10 -12   2 7767.08 189.510   1
  -2  12  10 7341.51 164.420   1
   4 -14  -6 972.190 49.2000   1
   9   1  13 4083.73 119.380   1
   1  13   9 4219.98 111.100   1
   1  -9 -13 4024.26 119.370   1
   1   9  13 3904.33 126.270   1
   1  13   9 3934.72 123.500   1
  13   1   9 3965.16 103.310   1
  -9  -1 -13 4021.02 110.790   1
   1  -9 -13 3762.57 123.970   1
  13  -1   9 4196.10 114.300   1
  -1  13  -9 4089.79 130.830   1
  -9   1 -13 3892.94 111.900   1
  -1  -9 -13 3737.74 123.180   1
  -1   9  13 3711.95 116.290   1
   1 -13   9 4078.54 128.490   1
   1   9 -13 4174.26 121.700   1
 -13  -1  -9 3904.09 108.390   1
  -1 -13   9 4192.78 120.620   1
  -1  13   9 3764.99 120.800   1
 -13   1  -9 4009.07 112.340   1
   1   9  13 4010.22 103.640   1
  -1  13   9 4237.65 111.540   1
   1  13  -9 3909.27 115.150   1
   9  -1  13 4050.18 117.700   1
  -7 -11  -9 273.530 38.5600   1
  -7  -9 -11 214.340 40.8400   1
  11   9   7 231.020 33.8500   1
  11   7   9 197.150 32.7000   1
   9  11   7 273.960 36.0200   1
   9   7  11 276.120 44.3700   1
   7  11   9 219.120 49.2300   1
   7   9  11 214.640 51.2800   1
   7 -11   9 246.770 38.2700   1
   7 -11  -9 148.750 58.6800   1
   9 -11  -7 197.310 42.1500   1
   9 -13  -1 4008.60 158.620   1
   9 -13   1 3912.59 143.670   1
   9  13   1 3872.59 104.990   1
   9  13  -1 3916.59 99.6500   1
  13   9   1 4239.81 107.890   1
  13   9  -1 4162.41 106.130   1
  -9 -13  -1 3966.43 121.860   1
  -9 -13   1 4005.89 128.000   1
   9 -13  -1 4125.02 124.840   1
   9 -13   1 4164.04 131.080   1
 -13  -9   1 3889.96 110.730   1
  -1  15   5 -60.330 58.1200   1
   1  -5 -15 56.4000 49.0700   1
   1  15   5 75.0100 52.2000   1
  -1  -5 -15 116.650 45.6800   1
   1 -15  -5 9.32000 30.5000   1
   5  15   1 25.9800 44.6700   1
  -1 -15  -5 54.4200 28.8500   1
   5  15  -1 16.9900 28.5300   1
  -5   1 -15 10.6400 29.4400   1
   1 -15   5 34.6600 28.6400   1
  -5 -15  -1 8.38000 36.0700   1
  15   1   5 2.70000 39.6600   1
  15   5   1 -25.210 43.2100   1
  15  -1   5 29.4800 37.7500   1
  15   5  -1 1.31000 42.7200   1
 -15  -5  -1 9.29000 37.6700   1
 -15  -1  -5 31.4600 25.5700   1
  -3  11 -11 5159.87 138.810   1
   3 -11 -11 4890.20 131.680   1
   3  11  11 5213.02 125.720   1
 -11   3 -11 5072.96 133.390   1
 -11 -11   3 4883.57 126.430   1
 -11  -3 -11 4960.94 128.780   1
   3  11 -11 5170.14 131.520   1
  11  11  -3 5204.70 131.040   1
  11  -3  11 5204.50 129.060   1
  11  11   3 5409.95 133.690   1
  11   3  11 5165.14 134.600   1
  -3 -11 -11 4671.59 126.140   1
   3  11  11 4923.25 136.620   1
  -3  11  11 4894.38 133.480   1
  15   1  -5 79.2900 43.6500   1
 -15   1  -5 19.2400 35.3600   1
  15  -5   1 -8.2700 28.3300   1
  15  -1  -5 -6.2500 44.6100   1
  -5  15  -1 42.3700 38.0400   1
  -1  15   5 66.9100 44.4300   1
   1  -5 -15 50.7000 33.3200   1
   1  15   5 39.4800 42.0500   1
  -1  15  -5 19.3500 37.7800   1
   5 -15  -1 99.2600 40.8300   1
   9 -11   7 225.530 33.4700   1
   7  -9 -11 274.780 44.6900   1
 -11  -9   7 227.500 39.7000   1
  -7 -11   9 237.320 36.0600   1
  11  -9   7 191.310 31.7600   1
  -9 -11   7 235.230 39.0500   1
   9   7 -11 186.790 29.7400   1
  11   7  -9 239.460 43.1700   1
   7   9 -11 217.170 37.3700   1
  11   9  -7 230.750 32.2700   1
  11  -7   9 237.980 31.9100   1
   7  11  -9 263.280 35.9800   1
   9  11  -7 254.460 40.6300   1
 -11  -9  -7 253.130 31.6700   1
 -11  -7  -9 168.970 29.4900   1
  -9  -7 -11 210.110 28.9100   1
  16   0   0 13789.2 290.660   1
   0  16   0 14190.3 302.640   1
   0 -16   0 13258.9 289.820   1
   0  16   0 13356.8 268.460   1
   0   0 -16 13652.2 292.340   1
   0   0 -16 13897.3 315.440   1
   3  15  -5 1300.33 57.2400   1
   9 -13   3 2914.31 90.3800   1
   3  15   5 1379.06 67.5400   1
   5 -15  -3 1313.09 67.9900   1
  -3  15  -5 1355.85 58.2300   1
   3  -5 -15 1361.26 56.3400   1
   5   3  15 1314.92 56.8100   1
  -3  15   5 1302.45 63.4100   1
  -5  15  -3 1322.69 52.1800   1
   3   5  15 1254.30 57.3500   1
  15  -5   3 1291.83 51.3000   1
  15   3  -5 1323.57 54.1300   1
 -15  -5  -3 1183.37 57.4300   1
 -15  -3  -5 1258.99 58.6900   1
  15   5  -3 1338.23 60.2000   1
  15  -3   5 1205.72 55.3000   1
  15   5   3 1264.35 51.6100   1
  15   3   5 1325.14 59.8700   1
  -3 -15   5 1326.72 62.1600   1
  -5 -15   3 1370.80 61.2100   1
  -5 -15  -3 1208.00 66.1800   1
  -5   3 -15 1303.21 55.7100   1
   3  -9 -13 2878.10 91.7100   1
   3   5  15 1309.53 76.6600   1
  -3  15  -5 1285.06 68.0900   1
  -3  15   5 1217.59 66.2000   1
   5  -3  15 1255.18 65.8400   1
   5  -3 -15 1251.20 65.7900   1
   9  13   3 2932.07 87.8200   1
  -3  13   9 2749.89 100.770   1
   9 -13  -3 2808.86 128.170   1
   9 -13   3 2862.78 119.980   1
   3   9  13 2758.18 102.120   1
   3  -9 -13 2631.82 98.4400   1
   3  13   9 2624.92 98.4100   1
   9   3  13 2788.58 94.6200   1
   9  -3  13 2950.98 96.0900   1
  -3  -9 -13 2887.66 103.090   1
   3   9  13 2759.05 79.6100   1
   3  13  -9 2855.66 86.7200   1
   9  13  -3 2867.00 85.1600   1
  13   3   9 2793.87 79.9400   1
  -9  -3 -13 2803.05 88.8400   1
  13   9   3 2818.49 89.5100   1
  13  -3   9 2959.34 91.2100   1
  13   9  -3 2952.15 90.4500   1
   3 -13   9 3049.65 99.1800   1
  -9   3 -13 2822.64 84.8100   1
 -13  -3  -9 2792.50 86.7900   1
  -9 -13   3 2848.00 101.610   1
   3 -15   5 1291.63 59.3700   1
  -3 -15  -5 1224.95 63.3200   1
   5  15  -3 1282.89 58.0800   1
  -5  -3 -15 1261.71 57.6400   1
  -3   5 -15 1281.15 57.8900   1
   5  15   3 1274.51 55.8900   1
  -3  -5 -15 1265.53 64.6100   1
   5 -15   3 1267.34 68.4100   1
   3 -15  -5 1216.22 60.0800   1
   3  13   9 3009.39 95.6700   1
   3   9 -13 2902.36 89.1300   1
  -3 -13   9 2919.58 89.7300   1
 -13  -9   3 2680.77 95.0800   1
 -13   3  -9 2803.96 92.8700   1
  13   3  -9 2891.88 82.4800   1
   9 -13  -3 2802.74 100.100   1
  -3  13  -9 2917.00 87.7800   1
   3  15   5 1271.17 69.1200   1
   5 -15  -3 1264.81 76.1200   1
   5   3  15 1177.79 68.4500   1
   3  -5 -15 1255.28 73.8300   1
  10 -12  -4 2597.11 114.710   1
   4  10  12 2466.88 95.5400   1
   4  12  10 2606.21 96.2700   1
  10   4  12 2429.88 74.9100   1
  -4 -10 -12 2384.39 89.1000   1
  10  -4  12 2533.83 82.8300   1
  10  12   4 2732.20 85.9900   1
  12   4  10 2431.53 80.3500   1
  12  10   4 2548.63 85.6100   1
   4  12 -10 2401.27 80.3700   1
  12  -4  10 2471.17 81.1300   1
  10  12  -4 2330.66 70.8700   1
 -10  -4 -12 2625.70 90.2900   1
  12  10  -4 2527.37 77.1700   1
 -12  -4 -10 2615.14 87.5700   1
   4  10 -12 2604.19 81.0300   1
 -10 -12   4 2634.84 85.8100   1
 -10   4 -12 2609.58 90.3000   1
 -12 -10   4 2643.31 95.2000   1
 -12   4 -10 2633.09 88.6700   1
  -4 -12  10 2581.43 90.6300   1
  12   4 -10 2532.50 87.0200   1
  10 -12   4 2652.69 98.7900   1
  -4  12 -10 2654.91 88.3100   1
   4 -10 -12 2456.72 92.2100   1
   4  10  12 2711.77 78.7700   1
   4  12  10 2612.68 81.5700   1
   0  16  -2 1942.14 71.3000   1
  -2   0 -16 1815.45 69.4200   1
   0  14   8 3343.32 114.710   1
   8 -14   0 3181.70 133.270   1
   0   8  14 3169.02 102.570   1
  -2  16   0 1786.02 68.9200   1
   8  14   0 3128.92 84.3700   1
   8   0  14 3297.49 106.770   1
   0  14  -8 3198.76 99.7800   1
   0  -8 -14 3053.07 111.480   1
   2 -16   0 1701.76 75.6600   1
  -2   0 -16 1747.05 74.3500   1
  16  -2   0 1725.05 60.3700   1
  16   2   0 1791.72 61.2200   1
  16   0   2 1710.02 63.9000   1
  -2 -16   0 1744.70 76.2800   1
   0 -16   2 1754.75 69.5900   1
   0 -16  -2 1659.43 72.3800   1
   0  16   2 1971.78 72.8700   1
   0  -8 -14 2950.53 92.5400   1
   0   2 -16 1782.79 66.2800   1
   0  -2 -16 1854.81 71.5200   1
   2   0 -16 1670.24 81.7100   1
  -2  16   0 1626.47 78.1300   1
   0   2 -16 1793.33 81.0600   1
   0  16   2 1762.14 73.3800   1
   0  -2 -16 1642.14 76.3600   1
   0  16  -2 1660.68 67.8600   1
  16   0  -2 1901.42 71.1200   1
   8   0  14 3020.38 98.6000   1
   8 -14   0 3037.16 103.320   1
   0  14   8 3192.85 96.5900   1
   0   8 -14 2824.81 96.6900   1
 -14   0  -8 3082.05 93.4900   1
   0 -14   8 3151.04 99.2500   1
  -8 -14   0 3222.73 98.0900   1
   2  16   0 1761.19 75.1000   1
  14   0   8 3068.78 96.6700   1
  -8   0 -14 3125.91 92.5700   1
  14   8   0 3124.05 89.9600   1
  10   8  10 203.060 44.7200   1
  10  10   8 242.870 47.1100   1
 -10  -8 -10 270.940 31.5200   1
  10  -8  10 264.460 29.3800   1
  10  10  -8 212.300 40.5200   1
   8  10 -10 295.900 40.6100   1
  10   8 -10 237.630 41.2500   1
  10 -10   8 247.720 33.9200   1
 -10 -10   8 293.140 37.5700   1
  10 -10   8 271.390 33.1800   1
   2  14   8 70.9300 32.8200   1
   8   2  14 98.8300 32.5700   1
  -2  14  -8 86.7200 35.0900   1
  -2  -2 -16 912.350 48.8700   1
  -2   2 -16 875.260 48.4600   1
  -2  16  -2 930.370 55.0300   1
  -2  16   2 855.670 53.4800   1
   2  -2 -16 899.750 50.2800   1
 -16  -2  -2 790.350 48.4400   1
  16  -2  -2 959.490 55.2800   1
  16  -2   2 806.490 50.8800   1
  16   2  -2 907.060 55.0600   1
  16   2   2 935.290 46.6100   1
  -2 -16   2 846.760 47.9500   1
  -2 -16  -2 868.190 54.6100   1
   2 -16   2 888.490 52.8100   1
   2 -16  -2 825.530 55.2700   1
  -2  -2 -16 916.800 56.9600   1
   2  16  -2 925.810 56.9300   1
  -2   2 -16 975.410 76.8600   1
   2  16   2 910.580 63.1100   1
   2  -2 -16 868.530 67.3600   1
  -2  16  -2 887.740 65.7000   1
  -2  16   2 780.310 66.8800   1
   2   2 -16 885.510 64.0200   1
   2   2  16 881.030 62.2800   1
  14   2   8 44.8200 28.0600   1
  -2  14   8 -23.310 56.9400   1
   2   8  14 40.8500 41.7000   1
   8 -14   2 73.3600 45.1400   1
   2  14   8 35.6600 53.9800   1
   2  -8 -14 21.3000 51.5400   1
   8  -2  14 40.5100 36.6100   1
   8   2  14 68.0400 43.0800   1
  -2  -8 -14 44.9900 30.3800   1
   8  14   2 26.0300 29.8400   1
   8  14  -2 29.1600 27.3600   1
  -8  -2 -14 39.0500 32.8100   1
  -8 -14  -2 47.8100 38.3700   1
  -8   2 -14 88.5500 28.2700   1
  14   8   2 73.6200 42.9200   1
  14  -2   8 70.6100 36.3600   1
  14   8  -2 56.0200 39.7600   1
  -8 -14   2 56.6400 37.6300   1
  -2 -14   8 43.9500 28.7100   1
 -14  -2  -8 48.7700 36.9700   1
 -14   2  -8 91.5600 33.6800   1
   8  10  10 309.640 48.4900   1
  14   2  -8 142.420 45.7000   1
   2   8  14 52.3200 39.8300   1
  -2  14   8 94.3000 34.5500   1
   8 -14  -2 85.5600 39.8200   1
   2  -8 -14 133.600 41.2700   1
   8 -14   2 28.3000 32.9300   1
   5  11  11 2490.83 79.8600   1
 -13  -7  -7 1606.87 68.0400   1
  13   7  -7 1625.44 57.9100   1
  13  -7   7 1633.76 63.2400   1
 -11   5 -11 2301.74 77.8300   1
  -7 -13   7 1543.56 60.0200   1
   7   7 -13 1655.74 64.1300   1
   7   7  13 1511.09 65.9500   1
  11  11   5 2356.12 73.2600   1
  11  -5  11 2466.21 78.3100   1
 -11  -5 -11 2447.71 80.9700   1
  11  11  -5 2504.80 80.6400   1
   5  11 -11 2600.84 79.3700   1
 -11 -11   5 2451.75 79.3500   1
  11   5 -11 2522.89 80.3800   1
   5  11  11 2422.28 91.2100   1
  11   5  11 2454.92 79.1000   1
   7  -7  13 1885.90 100.260   1
   7 -13  -7 1756.86 96.6300   1
   7 -13   7 1851.16 82.6700   1
   7   7  13 1670.97 67.5900   1
   7  13   7 1616.28 64.0200   1
  -7  -7 -13 1555.18 67.0200   1
  13   7   7 1689.93 66.0200   1
   7  13  -7 1687.07 61.7200   1
   6 -14   6 407.320 40.4300   1
   6   6  14 339.300 57.4200   1
   6  -6 -14 284.590 45.3800   1
   6 -14  -6 299.290 57.0900   1
   6   6  14 492.170 44.3700   1
  14  -6   6 417.130 40.7400   1
  14   6  -6 433.790 45.3200   1
 -14  -6  -6 411.390 34.9800   1
  -6 -14   6 373.830 31.9300   1
   6  14   6 426.250 41.6200   1
  -6  -6 -14 403.320 43.5800   1
   6  14  -6 470.840 39.2700   1
  14   6   6 486.180 47.5500   1
  -4 -16   0 5.15000 35.6000   1
  16   0   4 58.1200 39.4600   1
  16   4   0 13.4500 42.8500   1
  16   0  -4 27.0000 42.9700   1
  16  -4   0 11.1800 41.5600   1
 -16   0  -4 35.4500 33.4100   1
  -4  16   0 27.0300 42.3200   1
   0  16   4 58.7600 31.7100   1
   0  16   4 26.3300 38.6700   1
   0  -4 -16 -8.8200 31.7600   1
   4 -16   0 0.39000 40.6400   1
   0 -16  -4 12.4100 28.5000   1
   0 -16   4 8.36000 31.1100   1
   8   8  12 53.2900 33.5000   1
   8  12   8 57.2700 33.9400   1
  12   8   8 100.160 31.8600   1
  -8  -8 -12 49.7900 35.9300   1
   8  12  -8 71.8600 36.2100   1
  12   8  -8 26.5000 41.0200   1
   8   8 -12 66.7200 37.6700   1
  -8 -12   8 64.8600 24.1600   1
   9 -13  -5 703.030 65.2800   1
   9 -13   5 742.520 57.5500   1
   5   9  13 748.930 53.3800   1
   5  13   9 816.460 66.2400   1
   9   5  13 872.160 58.6200   1
   9  -5  13 801.360 47.0400   1
  -5  -9 -13 679.860 48.9800   1
   9  13   5 858.270 47.0400   1
  13   9   5 840.550 53.6100   1
  -9  -5 -13 786.770 47.6300   1
   5  13  -9 797.020 42.8700   1
  -1  -7 -15 86.6300 40.0900   1
   5   9 -13 860.740 44.9700   1
  -9   5 -13 727.910 42.0200   1
 -13  -9   5 716.930 41.2900   1
  13  -9   5 806.490 47.9200   1
   9 -13   5 813.400 48.4400   1
   5   9  13 778.090 43.2700   1
   5  13   9 741.880 53.6200   1
  13   9  -5 885.220 54.0600   1
  -9 -13   5 747.350 48.8500   1
  -5 -13   9 734.420 43.2000   1
  -1  -7 -15 85.7800 44.5000   1
   5   5  15 5684.24 138.690   1
   1  -7 -15 59.3600 34.2300   1
   7  -1  15 67.2600 40.9800   1
  13   5  -9 877.780 55.4100   1
 -13  -5  -9 765.250 49.0200   1
   7  -1  15 76.1400 27.5600   1
  -1   7 -15 104.880 36.3400   1
   7   1  15 118.530 31.7100   1
   1  -7 -15 86.7400 37.7500   1
   1   7  15 77.5500 53.7800   1
   5  15   5 5730.69 149.420   1
  -5  15  -5 5434.78 133.010   1
  15  -5   5 5217.24 126.100   1
  15   5  -5 5419.30 126.170   1
  -5 -15   5 5196.19 131.500   1
  15   5   5 5384.90 139.110   1
  -5   5 -15 5337.90 132.000   1
   5  15  -5 5547.97 133.470   1
  13  -5   9 735.840 42.4600   1
   5 -15   5 5346.89 158.120   1
   5 -15  -5 5479.90 176.430   1
   5   5  15 5405.82 148.530   1
   5  -5 -15 5704.87 165.330   1
  13   5   9 746.650 49.7200   1
   9  13  -5 778.580 48.5500   1
  -7  -1 -15 82.6500 23.6100   1
  -7   1 -15 75.7100 29.1000   1
  -5  -5 -15 5298.55 142.040   1
   7 -15   1 88.9300 37.7400   1
   7 -15  -1 92.2300 35.9900   1
   7  15   1 78.8500 42.8300   1
   1  15  -7 66.3100 34.5100   1
  -1  15  -7 67.1200 37.8000   1
   7 -15   1 65.1000 41.5600   1
   1  15   7 52.8800 56.6700   1
   7 -15  -1 67.7600 48.0700   1
  -1  15   7 91.9800 42.9200   1
  -7 -15   1 75.0700 27.7500   1
  15   1   7 84.5000 37.3700   1
  -1 -15   7 65.7200 27.5300   1
   1 -15   7 104.370 28.7500   1
  15  -1   7 147.190 39.8600   1
  15   7  -1 36.5900 43.4500   1
 -15  -1  -7 84.9300 37.2900   1
 -15   1  -7 57.9300 35.5300   1
   7  15  -1 66.6500 29.6100   1
   1  15   7 57.4800 43.5800   1
  -1  15   7 77.6200 46.6100   1
  -7 -15  -1 83.8200 27.6200   1
  15   1  -7 92.7700 45.2000   1
  15   7   1 58.9700 31.2200   1
  16  -2   4 1150.27 57.1400   1
  16   4   2 1075.93 56.8500   1
  16   2   4 1047.41 55.8800   1
  -2 -16   4 1031.64 53.8400   1
  -4 -16   2 974.670 50.7600   1
  -4 -16  -2 1006.95 47.9200   1
   2 -16   4 1048.59 56.5400   1
  -2 -16  -4 950.460 47.7800   1
  -4   2 -16 1022.99 49.7100   1
  -4  -2 -16 1046.01 56.1500   1
   4  16  -2 1036.39 51.0000   1
   2 -16  -4 963.460 51.5200   1
   4 -16   2 1053.33 60.6600   1
   2  16  -4 1038.99 55.7300   1
   4  16   2 1010.00 52.7400   1
  -2  -4 -16 1063.25 61.5600   1
   4 -16  -2 977.520 61.3100   1
  -2   4 -16 1009.79 54.3900   1
   2  16   4 1060.94 67.4100   1
   2  -4 -16 962.820 58.6200   1
  -2  16  -4 990.000 64.4200   1
   4   2  16 968.590 58.0500   1
  -2  16   4 1005.04 73.2500   1
   4  -2 -16 1046.98 61.9800   1
   2   4  16 932.690 65.3600   1
  -4  16   2 960.080 63.0100   1
  -4  16  -2 971.920 54.5800   1
   2   4 -16 1022.05 63.7400   1
   4  -2  16 1052.36 60.2000   1
  16  -4   2 1052.51 47.6100   1
  -4  14   8 321.930 58.7800   1
   8 -14  -4 351.420 58.8200   1
   8 -14   4 252.780 42.8000   1
   4   8  14 258.160 56.4000   1
   4  14   8 412.340 61.7200   1
   8  -4  14 312.390 43.7900   1
   8   4  14 240.040 48.9000   1
  -4  -8 -14 254.640 41.1600   1
   8  14   4 255.780 36.6000   1
   4  14  -8 244.120 35.7600   1
   4 -14   8 240.610 31.4500   1
  -8  -4 -14 245.170 37.7300   1
   8  14  -4 265.480 31.8500   1
  14   4   8 262.000 31.7800   1
  14   8   4 245.460 44.7300   1
  14  -4   8 216.650 35.1800   1
  -8   4 -14 219.580 29.1300   1
  14   8  -4 209.020 33.7000   1
  -8 -14   4 172.510 37.6600   1
 -14  -4  -8 237.460 38.7700   1
  -4 -14   8 241.100 34.6900   1
   4   8 -14 233.570 35.1600   1
  14   4  -8 250.910 34.4800   1
  14  -8   4 218.800 30.6700   1
  -4  14  -8 200.050 35.8000   1
   4  -8 -14 200.460 31.8000   1
   4   8  14 236.320 41.8200   1
   8 -14  -4 207.170 42.6100   1
   8 -14   4 175.800 37.8000   1
   4  14   8 217.060 36.1400   1
   8   4  14 183.580 36.8400   1
   2  16   4 1109.11 61.6200   1
  -2  16  -4 1019.89 47.0700   1
  -2   4 -16 1017.64 51.2100   1
  -2  16   4 1007.78 49.6500   1
  -4  16  -2 991.060 54.2900   1
   2  -4 -16 963.350 52.8800   1
  -4  16   2 1102.93 58.1900   1
  16  -4  -2 1010.98 49.7200   1
  16  -2  -4 1051.50 56.0100   1
 -16  -2  -4 909.060 44.5900   1
  16   2  -4 1056.36 49.9500   1
  16   4  -2 972.710 47.8600   1
  12  -6  10 1328.45 57.9800   1
  -6 -12  10 1374.57 56.7400   1
  10 -12   6 1369.00 59.4200   1
   6  10  12 1512.06 76.1600   1
   6  12  10 1348.58 73.1700   1
  10   6  12 1362.90 56.3200   1
  10  12   6 1434.21 56.7500   1
  12   6  10 1461.03 64.2800   1
  12  10   6 1400.90 63.1300   1
  10  -6  12 1366.33 62.1400   1
 -10  -6 -12 1346.94 63.3500   1
   6  12 -10 1467.56 57.5500   1
  10  12  -6 1419.38 60.6100   1
 -12  -6 -10 1245.77 58.6900   1
   6  10  12 1462.53 65.1600   1
  12  10  -6 1364.47 53.8200   1
   6  10 -12 1414.97 56.9800   1
 -10 -12   6 1393.37 59.8600   1
  12   6 -10 1367.94 61.9300   1
 -12 -10   6 1363.19 62.8000   1
  10   6 -12 1317.03 56.6400   1
   9  -9  11 162.130 28.1000   1
   9   9 -11 76.9400 37.1400   1
  -3   7 -15 827.380 45.5700   1
  -3  -7 -15 790.530 54.9400   1
  -7  -3 -15 857.050 48.4100   1
   7   3  15 763.090 59.1700   1
  -7   3 -15 876.570 43.6400   1
   7  -3  15 781.740 52.9200   1
   3  -7 -15 695.290 53.6000   1
   3   7  15 805.420 50.7000   1
   3   7  15 832.880 58.5800   1
   7   3  15 851.160 42.7300   1
   3  -7 -15 906.290 54.5000   1
   9   9  11 128.730 35.3600   1
   3  15  -7 882.750 46.4000   1
   7  15   3 798.330 57.4400   1
   3  15   7 775.890 64.7300   1
   7 -15   3 838.280 56.7100   1
   7 -15  -3 777.710 66.0100   1
  -3  15  -7 800.990 56.2300   1
  -3  15   7 877.220 68.6500   1
  11   9   9 70.3500 42.0400   1
   9  11   9 157.040 48.6600   1
   9 -11   9 141.930 36.7100   1
  15  -7   3 836.370 50.9400   1
  15   3  -7 777.840 54.6100   1
 -15  -3  -7 830.370 50.8300   1
  15   7  -3 821.780 44.4400   1
  15  -3   7 808.960 48.5600   1
  -3 -15   7 843.860 45.9600   1
  -7 -15   3 778.900 49.5400   1
  15   7   3 801.790 53.7900   1
   3  15   7 869.450 56.1500   1
   7 -15  -3 807.590 51.9200   1
  -3  15  -7 833.220 49.2000   1
  15   3   7 768.130 50.1700   1
   3 -15   7 868.140 47.0000   1
   7 -15   3 816.130 51.7600   1
  -3  15   7 878.770 55.0000   1
   7  15  -3 785.670 42.2100   1
   9 -11   9 158.230 32.8500   1
  -9 -11   9 187.470 36.6700   1
   9 -11   9 161.510 29.8800   1
  11   9  -9 128.050 29.5400   1
  11  -9   9 162.540 29.1200   1
   9  11  -9 175.920 29.9400   1
   0  12  12 15907.0 338.310   1
   0  12 -12 15533.8 306.010   1
  12   0  12 15702.4 309.580   1
  12  12   0 15279.4 309.730   1
 -12   0 -12 15038.9 304.460   1
   0  12  12 15027.1 305.860   1
  -4  16  -4 4876.79 128.560   1
  -4  -4 -16 4724.95 130.290   1
   4 -16  -4 4666.36 144.550   1
   4   4  16 4798.67 124.830   1
  16   4  -4 4916.12 125.020   1
   4  -4 -16 4923.19 159.130   1
   4  -4 -16 4907.14 127.370   1
  -4  16   4 4852.84 118.500   1
  -4   4 -16 4953.57 133.620   1
  16  -4   4 4739.12 116.270   1
  16   4   4 4717.14 126.360   1
   4  16  -4 4803.64 121.830   1
   4 -16   4 4751.05 143.790   1
   4  16   4 4725.92 122.700   1
   4   4  16 4991.53 149.230   1
  -4  16  -4 4992.52 141.660   1
  -4 -16   4 4804.72 142.670   1
  -4  16   4 4771.78 137.000   1
  11   1  13 9687.40 215.340   1
   1   1 -17 3516.69 122.640   1
  -1  13 -11 9592.48 247.380   1
 -11  -1 -13 9609.78 214.230   1
   1  11 -13 9877.29 220.200   1
  -1   1 -17 3680.80 115.600   1
   1  -1 -17 3787.57 113.920   1
 -11   1 -13 9997.72 225.310   1
  13  -1  11 10190.9 220.960   1
   1   1 -17 3577.05 102.990   1
  13   1  11 9501.92 209.400   1
   1  13 -11 9527.27 207.680   1
  -1  -1 -17 3421.33 116.060   1
   1  11  13 9657.72 233.200   1
  -1  13  11 9569.96 235.890   1
   1  -1 -17 3602.76 125.260   1
  -1   1 -17 3462.07 110.760   1
  -1  -1 -17 3496.67 110.880   1
   1  13  11 9751.67 207.930   1
   1  11  13 9598.83 208.320   1
  -1  13  11 9448.98 202.910   1
  -1 -13  11 9633.54 233.610   1
  -1  11  13 9313.23 221.220   1
 -13  -1 -11 9625.32 214.110   1
 -13   1 -11 9460.05 221.710   1
  11  -1  13 9976.58 214.980   1
   1  13  11 9197.31 213.210   1
  11 -11   7 799.670 47.1200   1
 -11 -11   7 761.200 49.7200   1
  11   7 -11 824.560 43.7500   1
   7  11 -11 838.870 47.0300   1
  11  11  -7 796.570 42.8900   1
 -11  -7 -11 764.980 43.3600   1
  11  -7  11 762.680 40.8400   1
  11  11   7 866.490 56.1800   1
  11   7  11 760.780 53.2800   1
   7  11  11 775.520 51.0900   1
  -1  17  -1 3463.26 116.970   1
  -1  17   1 3390.38 113.210   1
  13  11  -1 9507.83 204.340   1
  13  11   1 9795.28 205.700   1
  11  13  -1 9954.49 214.580   1
  11  13   1 9872.53 207.870   1
  11 -13  -1 9436.99 239.580   1
  11 -13   1 9352.86 229.660   1
   1  17   1 3311.72 107.820   1
   1  17  -1 3600.51 111.780   1
   1 -17  -1 3535.23 108.520   1
   1 -17   1 3432.06 105.720   1
  -1 -17  -1 3467.98 112.080   1
  -1 -17   1 3468.39 114.260   1
  17   1   1 3471.95 105.450   1
  17  -1   1 3419.29 91.4500   1
  17   1  -1 3676.45 110.270   1
  17  -1  -1 3466.77 106.990   1
  -1  17   1 3854.36 106.460   1
  -1  17  -1 3483.91 103.470   1
   1  17   1 3695.85 107.520   1
   1  17  -1 3573.93 95.8700   1
   0  -6 -16 478.010 44.1700   1
   2  12 -12 5506.66 143.740   1
  -6   0 -16 601.990 42.5700   1
   0 -16   6 510.490 37.8100   1
   6   0  16 571.600 54.6600   1
 -12   2 -12 5638.65 144.560   1
   2  12  12 5776.90 138.940   1
   0  -6 -16 580.210 46.6600   1
   6 -16   0 557.480 54.0800   1
   0  16  -6 586.900 51.7000   1
  12  12  -2 5305.08 128.780   1
   0   6  16 561.620 58.0800   1
   0   6 -16 627.790 55.7100   1
   6 -16   0 410.760 36.6600   1
 -12  -2 -12 5418.02 130.490   1
   0  16   6 479.320 48.6100   1
  16   0  -6 491.970 39.4100   1
 -16   0  -6 462.270 43.5700   1
  16   6   0 468.210 48.6500   1
  16   0   6 549.690 37.9500   1
  -6 -16   0 491.080 40.3700   1
   6  16   0 523.130 48.6600   1
   2  12  12 5095.64 139.910   1
  12  12   2 5555.71 131.950   1
  12  -2  12 5664.57 139.730   1
  12   2  12 5489.67 141.220   1
   0  16   6 551.970 52.1900   1
  -2  12  12 5122.34 135.540   1
  14  -8   6 387.070 32.7900   1
   6   8 -14 417.090 41.1400   1
   8   6 -14 421.010 35.6800   1
  16  -6   2 1213.87 57.7000   1
   8   6  14 399.190 44.5300   1
   8 -14   6 331.720 38.9700   1
   8  14  -6 403.170 33.8600   1
  10 -14   0 4627.02 171.330   1
   0  14  10 4590.34 132.360   1
   0  14 -10 4686.83 131.830   1
  10   0  14 4983.09 130.950   1
  10  14   0 4946.52 127.810   1
  14   0  10 4815.51 126.010   1
  14  10   0 4979.11 120.110   1
   0  10  14 4981.67 143.280   1
   2   6  16 1004.70 61.9800   1
  -2  16   6 946.980 61.4900   1
   6  -2  16 1049.18 63.7800   1
  -2  16  -6 1008.68 62.6100   1
   6   2  16 1165.60 69.8200   1
   2  -6 -16 972.120 68.6600   1
   2  16   6 1064.32 72.0200   1
   6 -16  -2 1227.84 73.8700   1
   6 -16   2 1106.50 69.6200   1
   0 -10 -14 4562.81 123.430   1
   0  14  10 5013.97 133.380   1
  10 -14   0 5052.09 150.260   1
   0 -14  10 5059.00 140.370   1
 -10   0 -14 4970.13 129.400   1
 -14   0 -10 4836.27 131.350   1
   0  10 -14 4887.41 133.900   1
  16   2  -6 1206.28 60.7000   1
 -16  -2  -6 1115.70 49.8100   1
  16   6  -2 1192.70 57.6200   1
  16  -2   6 1162.62 48.5000   1
  16   6   2 1082.79 58.1500   1
  16   2   6 1097.25 57.2400   1
  -2 -16   6 1071.73 56.6000   1
  -6 -16   2 1097.64 56.3800   1
   2 -16   6 1136.87 55.7700   1
  -6   2 -16 1114.04 51.4300   1
  -6  -2 -16 1211.97 53.6700   1
   6  16  -2 1161.30 58.6800   1
   6  16   2 1146.64 53.8200   1
   2  16  -6 1118.67 55.8300   1
  -2  -6 -16 1055.88 57.9300   1
   6   8  14 370.620 44.5700   1
  -2   6 -16 1110.04 60.3500   1
   6   2  16 1252.71 55.3300   1
  -2  16   6 1224.12 60.3600   1
   2  -6 -16 1164.38 58.4500   1
  -2  16  -6 1230.49 56.2800   1
  14  -6   8 474.130 40.8000   1
   6 -16  -2 1150.60 61.9000   1
   8 -14   6 395.230 44.4900   1
  14   8  -6 411.260 36.7100   1
   8  -6  14 458.000 45.7200   1
   6   8  14 442.120 55.4100   1
   8   6  14 474.840 53.7000   1
   6  14   8 516.780 60.4400   1
   8  14   6 451.120 49.5900   1
   6 -14   8 439.400 37.5600   1
  -6  -8 -14 416.880 45.2100   1
  -8  -6 -14 387.560 38.6100   1
  -8 -14   6 409.480 41.4000   1
  -6 -14   8 397.020 38.8600   1
   2  16   6 1154.14 59.7400   1
  14   6   8 421.990 36.5500   1
  14   6  -8 486.880 46.4600   1
  -8   6 -14 371.730 32.6500   1
   6  14  -8 420.530 32.6300   1
  14   8   6 485.010 47.6800   1
   7   9 -13 498.980 42.3200   1
   7   9  13 482.620 50.2600   1
   9   7 -13 500.770 45.2800   1
   7   9  13 400.750 43.4700   1
   9   7  13 498.300 51.2700   1
   9  -7  13 518.610 40.1500   1
  -9  -7 -13 488.680 44.1000   1
   3   1  17 -19.820 43.6700   1
   3  -1 -17 12.8800 51.4800   1
   1  -3 -17 -23.400 46.4000   1
  -1  -3 -17 15.8300 38.7500   1
  -3  -1 -17 23.1800 36.1300   1
  -3   1 -17 38.6000 24.4500   1
  -1   3 -17 19.8400 26.5300   1
   1  -3 -17 31.4000 31.9400   1
  -1  -3 -17 -6.2200 32.6600   1
  13  -3  11 4146.56 110.270   1
   3  13 -11 4165.78 108.480   1
  13  11   3 4166.64 105.660   1
  13   3  11 4255.68 112.220   1
  11  13   3 4281.29 111.800   1
  11  -3  13 4162.31 108.900   1
   7  -5  15 1389.39 73.1300   1
   7 -15  -5 1324.30 73.7200   1
   5   7  15 1388.82 75.8700   1
   7   5  15 1461.63 72.2700   1
   7 -15   5 1420.48 70.1500   1
   5  15   7 1500.28 72.9500   1
   7  15   5 1394.34 58.5900   1
  -5  -7 -15 1426.74 56.9800   1
   5 -15   7 1458.93 67.0100   1
  -7  -5 -15 1434.16 61.1800   1
   5  15  -7 1549.04 59.4400   1
   7  15  -5 1476.68 59.7700   1
  15   5   7 1377.22 52.9900   1
  15   7   5 1495.86 60.5700   1
  -7   5 -15 1489.85 61.3400   1
  -7 -15   5 1439.99 67.0200   1
  15  -5   7 1435.37 56.4400   1
  -5 -15   7 1418.93 62.6700   1
  15   7  -5 1459.32 55.0900   1
  15   5  -7 1569.11 65.3700   1
  15  -7   5 1514.31 59.2200   1
   5   7 -15 1565.70 60.3400   1
  -5  15  -7 1608.00 60.9700   1
   5  -7 -15 1423.09 63.4600   1
   5   7  15 1427.65 54.0600   1
   7   5  15 1566.65 56.1200   1
  11   3  13 4078.94 118.310   1
   3  13  11 3733.10 117.990   1
  11 -13  -3 4200.43 156.460   1
   9 -13   7 455.800 36.3200   1
  -7 -13   9 463.430 40.0000   1
  13  -9   7 490.950 39.9400   1
  -9 -13   7 438.620 42.2400   1
  13   7  -9 536.470 59.8800   1
  13   9  -7 429.440 46.4800   1
  13  -7   9 497.750 37.3600   1
   9  13  -7 503.760 44.9500   1
   7  13  -9 572.620 43.6000   1
  13   9   7 537.760 48.9900   1
  13   7   9 523.790 39.1500   1
   9  13   7 468.630 39.3700   1
   3  11  13 4138.87 131.030   1
   7 -13   9 514.620 42.7200   1
   7  13   9 407.310 42.9400   1
   9 -13   7 475.580 46.6000   1
  -3  11 -13 4139.74 123.130   1
  -3  13 -11 4186.66 116.380   1
   3  13  11 4153.46 107.350   1
   3  11  13 4019.46 106.250   1
  11 -13   3 4254.28 129.850   1
  13   3 -11 4163.70 108.520   1
  -3 -13  11 4082.00 118.030   1
  -3  17  -1 88.0300 46.7700   1
  -1  17   3 67.6300 54.5100   1
  -1  17  -3 3.52000 45.9300   1
 -13   3 -11 4094.80 112.400   1
   1  17  -3 -13.740 44.2700   1
 -11   3 -13 4028.28 111.490   1
   3  17   1 -61.420 46.5200   1
   3  17  -1 -7.6700 41.1400   1
   3 -17  -1 -22.540 41.2000   1
 -13  -3 -11 4120.62 120.740   1
   3  11 -13 4180.93 117.480   1
   3 -17   1 23.8300 27.4100   1
   1 -17  -3 6.31000 28.3100   1
  -1 -17  -3 30.2100 38.3900   1
   1 -17   3 54.9600 33.9400   1
  -3 -17  -1 49.1900 26.3500   1
  -3 -17   1 36.5100 36.1200   1
  -1 -17   3 42.9400 31.3100   1
  17   1   3 9.31000 42.0200   1
  17   3   1 50.8500 42.9200   1
  17   3  -1 -8.4300 43.9700   1
  17  -1   3 48.5100 42.6500   1
  17   1  -3 -13.900 44.6500   1
  17  -3   1 -3.4700 29.7900   1
  17  -1  -3 -14.920 30.3800   1
  13  11  -3 4007.44 103.570   1
  -3  17   1 25.3400 44.6700   1
  -3  17  -1 18.3000 30.1700   1
 -11  -3 -13 4075.78 117.360   1
  -1  17   3 101.250 44.8900   1
  -1  17  -3 16.2800 41.6800   1
  11  13  -3 3874.04 101.920   1
   1  17   3 -29.950 32.0500   1
  10 -10  10 4183.46 120.570   1
  10 -14   2 5713.32 169.510   1
  10  14   2 5698.89 135.070   1
  10  14  -2 5669.56 136.850   1
  14   2  10 5463.13 127.860   1
  14  10   2 5400.17 134.480   1
  -2  14  10 5718.51 162.120   1
  14  -2  10 5511.51 132.550   1
 -10  -2 -14 5363.33 135.560   1
  14  10  -2 5549.90 130.690   1
  10 -14  -2 5716.04 190.340   1
 -10   2 -14 5491.50 137.330   1
   2 -14  10 5429.11 145.000   1
   2  10 -14 5534.86 138.760   1
 -14  -2 -10 5322.49 135.190   1
   2  14  10 5371.20 136.920   1
  10 -10  10 4301.64 118.930   1
  10  10 -10 4170.62 110.010   1
  -2  14 -10 5685.76 145.840   1
  -2 -14  10 5406.99 141.830   1
  10  10  10 3839.57 99.3400   1
   2  14 -10 5644.16 147.970   1
  10  -2  14 5812.67 151.420   1
  10   2  14 5638.59 149.900   1
  -2  14 -10 5658.86 174.260   1
   2  10  14 5602.98 155.500   1
  10 -14   2 5536.06 159.800   1
 -14   2 -10 5452.51 136.610   1
   2  10  14 5633.58 134.610   1
  -2  14  10 5573.83 134.540   1
  12  12  -4 4900.69 117.270   1
  12  -4  12 5071.36 131.030   1
  12  12   4 4955.43 116.540   1
  12   4  12 4978.99 124.450   1
   4  12  12 5160.06 136.480   1
 -12  -4 -12 4792.78 129.000   1
   4  12  12 4638.78 115.170   1
  -4  12 -12 4726.65 126.550   1
  12   4 -12 4843.90 125.490   1
 -12   4 -12 5184.26 140.220   1
   4  12 -12 4691.51 113.410   1
   3   3 -17 1208.86 63.0300   1
  -9   1 -15 2488.59 79.1400   1
   3  -3 -17 1217.51 55.9000   1
  17  -3  -3 1203.29 51.4700   1
  17  -3   3 1204.16 58.2700   1
  17   3   3 1110.79 58.1800   1
   9   1  15 2481.75 85.7300   1
   1  -9 -15 2271.90 77.2200   1
   9  -1  15 2468.19 84.3800   1
   3  17   3 1198.24 60.3300   1
   1   9 -15 2414.80 81.7100   1
   3  -3 -17 1200.41 75.6900   1
  -3  17  -3 1092.67 67.6900   1
  -3  17   3 1169.57 64.7000   1
   3   3  17 1005.88 68.5600   1
  17   3  -3 1130.43 60.1800   1
  -1   9 -15 2516.69 99.8300   1
   9  -1  15 2364.51 86.5800   1
   9   1  15 2489.97 85.2700   1
  -9  -1 -15 2510.85 80.5400   1
   3  17  -3 1162.88 58.4500   1
  -1   9  15 2386.22 89.3000   1
  -3 -17   3 1093.88 57.5100   1
   3 -17   3 1172.74 57.0700   1
   1   9  15 2425.03 97.2500   1
  -3  -3 -17 1201.04 59.5600   1
   3 -17  -3 1102.63 54.8800   1
  -3  17  -3 1285.97 59.9100   1
  -3  17   3 1284.18 62.4100   1
  -1  15   9 2429.27 89.9600   1
   9 -15   1 2466.69 94.5600   1
   9 -15  -1 2341.03 97.2600   1
   1  15   9 2490.92 74.9300   1
  -1  15   9 2289.09 73.1500   1
 -15  -1  -9 2372.11 80.0200   1
  -1 -15   9 2432.16 86.8500   1
   1 -15   9 2492.98 88.4000   1
  15   9  -1 2554.19 80.2400   1
  15  -1   9 2481.46 78.2500   1
 -15   1  -9 2435.50 85.1800   1
  15   1   9 2444.91 70.9500   1
   9  15  -1 2367.59 70.0000   1
   9  15   1 2577.21 80.4500   1
   1  15  -9 2504.15 82.3500   1
  -1  15  -9 2535.59 101.940   1
   1  15   9 2463.31 98.2900   1
   9 -15   1 2523.68 119.570   1
   9 -15  -1 2445.09 115.370   1
  16   4   6 6394.89 142.150   1
  -6   4 -16 6168.18 156.140   1
  -4   6 -16 6932.93 169.200   1
   8  10  12 1135.81 65.4600   1
  10   8  12 1176.90 61.3700   1
  10  -8  12 1102.73 52.1400   1
   8  10 -12 1149.16 53.7600   1
  -4  16  -6 6669.73 154.910   1
   6 -16  -4 6388.49 204.600   1
   4  -6 -16 6165.44 153.800   1
   6  -4  16 6780.90 181.370   1
   6   4  16 6777.72 158.200   1
   4  16   6 6768.47 160.160   1
   6  16  -4 6639.02 151.190   1
  -6  -4 -16 6248.92 154.620   1
   4 -16   6 6670.23 174.040   1
   4  16  -6 6746.70 151.800   1
  -4  -6 -16 6065.82 160.700   1
   6  16   4 6581.73 160.830   1
   6 -16   4 6101.92 180.570   1
   4   6  16 6311.84 160.230   1
  -4  16   6 6677.78 162.810   1
   6   4  16 6499.98 168.070   1
   4   6  16 6477.30 156.470   1
  -4  16   6 6498.68 149.860   1
  16  -6   4 6291.01 149.890   1
  16   4  -6 6384.34 141.560   1
  16  -4   6 6425.91 145.350   1
  16   6  -4 6424.85 153.780   1
  -6 -16   4 6596.42 170.410   1
  -4 -16   6 6405.39 157.380   1
  16   6   4 6389.18 147.750   1
  10   8 -12 1164.77 53.9400   1
  10 -12   8 1083.34 70.3300   1
  12   8 -10 1140.13 56.9900   1
  12  10  -8 1204.69 55.5900   1
  12  -8  10 1190.69 54.8800   1
  10  12  -8 1268.06 58.2100   1
   8  12 -10 1121.44 53.9000   1
  12  10   8 1165.44 60.6600   1
  12   8  10 1087.94 56.4100   1
  10  12   8 1147.84 62.0900   1
   8  12  10 1096.54 63.5000   1
   8 -12  10 1228.60 55.1200   1
  10 -12   8 1182.59 61.3000   1
 -12 -10   8 1044.03 56.8800   1
  -8 -12  10 1112.04 52.6100   1
 -10 -12   8 1160.45 56.5300   1
  12 -10   8 1161.94 52.2900   1
   8 -12  10 1157.42 70.5800   1
   4  10  14 60.0600 41.7500   1
  10 -14   4 78.3300 36.5100   1
  10 -14  -4 90.1100 41.1400   1
  10 -14   4 23.4500 39.5500   1
   4  10  14 59.5500 41.0400   1
  10   4  14 114.650 44.0300   1
  10  -4  14 69.8800 32.5300   1
  10  14   4 58.6000 44.9500   1
  14  10   4 106.280 32.2400   1
  10  14  -4 44.3600 36.8500   1
 -10  -4 -14 76.3800 35.5600   1
  14  10  -4 53.9700 39.6600   1
 -10 -14   4 71.1400 27.5000   1
   4  10 -14 59.6800 30.6600   1
 -10   4 -14 70.1600 27.4300   1
 -14   4 -10 51.1900 32.1200   1
  -4  14 -10 71.2700 30.3400   1
   4  14  10 105.210 45.8100   1
   4  14  10 45.8000 56.8400   1
  14   4  10 67.9900 39.9400   1
   4  14 -10 52.9300 28.1700   1
  14  -4  10 64.4100 34.2700   1
 -14  -4 -10 80.0700 26.5300   1
  -4 -14  10 63.2800 30.2300   1
  14   4 -10 102.150 32.5800   1
  -5  17  -1 2011.19 65.3000   1
  -5  17   1 2057.81 66.8100   1
  17  -5  -1 1952.21 75.4500   1
  -1  -5 -17 2138.65 82.0700   1
  17  -5   1 1951.92 64.4400   1
  17   1  -5 1967.13 73.6900   1
  17   5  -1 1963.89 64.1700   1
  17  -1   5 1971.23 72.3200   1
  17   5   1 2018.90 70.2100   1
  17   1   5 1886.18 62.8300   1
  -5 -17   1 1889.73 68.3700   1
  -1 -17   5 1992.12 79.7100   1
   1 -17   5 2042.82 84.1200   1
  -5   1 -17 2082.21 78.1900   1
  -5  -1 -17 1965.17 70.0500   1
   5  17  -1 2082.41 70.3600   1
   5  17   1 2039.46 69.6600   1
   5 -17   1 1958.67 87.0600   1
   1  17  -5 2009.71 76.6700   1
   5 -17  -1 1933.09 90.6300   1
  -1  -5 -17 2015.55 85.8000   1
  -1   5 -17 1976.66 87.3200   1
   1  -5 -17 1981.95 83.8800   1
  -1  17  -5 2048.21 72.3300   1
   1  17   5 2015.05 72.1000   1
   1  -5 -17 1935.13 67.7700   1
  11  13  -5 552.580 46.3000   1
   5  13  11 615.360 50.2500   1
   5  11  13 680.690 43.0600   1
  11 -13   5 563.130 42.6600   1
  -5 -13  11 586.020 42.7400   1
  11   5 -13 641.370 49.0400   1
  13   5 -11 573.710 50.3100   1
 -11   5 -13 602.020 38.8500   1
 -11 -13   5 596.370 46.8300   1
   5  11 -13 624.270 39.6800   1
 -13  -5 -11 568.300 45.7300   1
  13  11  -5 625.920 50.1600   1
   5  13 -11 596.070 41.1500   1
 -11  -5 -13 534.200 36.5800   1
  13  -5  11 568.920 39.9500   1
   1  17   5 1942.67 77.4700   1
  -1  17  -5 2043.80 83.0800   1
  -1  17   5 2018.91 81.2000   1
   5   1  17 2257.17 90.7500   1
   1   5 -17 2131.45 94.1500   1
   5  -1  17 2111.22 84.9100   1
   5  -1 -17 2158.65 97.8500   1
   1   5  17 1977.36 74.9800   1
  13  11   5 596.130 50.5500   1
  13   5  11 565.120 46.1200   1
  11  13   5 598.980 52.7700   1
  11  -5  13 627.390 42.8500   1
  11   5  13 691.500 51.0500   1
   5  13  11 563.780 49.5600   1
   5  11  13 508.880 64.7200   1
  -1  17   5 1963.83 65.7200   1
  17  -1  -5 1854.64 72.2400   1
   9 -15  -3 136.570 54.1000   1
   3   9  15 98.8500 42.2300   1
   9 -15   3 105.720 46.3100   1
   3  15   9 118.200 58.5700   1
   9  -3  15 96.3300 34.6500   1
   9   3  15 126.450 34.8200   1
   9  15   3 100.830 46.4300   1
   3  15  -9 109.740 31.7100   1
   9  15  -3 80.7100 41.1600   1
  15   3   9 94.2800 28.9400   1
  -9  -3 -15 103.530 24.8800   1
  15   9   3 112.110 44.1900   1
   3 -15   9 106.840 27.1200   1
  15  -3   9 87.1900 35.7600   1
  15   9  -3 73.1700 44.4500   1
  -9 -15   3 74.2300 35.5900   1
  -3 -15   9 91.5600 30.8600   1
   3   9 -15 130.470 30.1400   1
  15   3  -9 99.4400 45.4100   1
 -15   3  -9 94.3000 25.4700   1
  -3  15   9 106.540 33.9800   1
   3   9  15 90.4300 39.1100   1
  -3  15  -9 76.7200 33.5700   1
   9 -15   3 123.210 34.5100   1
   3  15   9 77.4300 34.4800   1
   9   3  15 75.4400 27.4300   1
 -15  -3  -9 94.2900 36.7700   1
  -3  15   9 130.050 56.0600   1
  -3  15  -9 90.1200 32.7400   1
  16   8   0 790.010 54.5600   1
   0 -16   8 811.800 44.0200   1
   0   8  16 854.820 67.3600   1
  16   0   8 906.200 51.7900   1
  -8   0 -16 889.660 44.7600   1
   8  16   0 923.570 56.2800   1
   0  16  -8 932.520 52.6600   1
   8   0  16 935.310 52.6700   1
   8 -16   0 802.010 64.6000   1
   0  16   8 1031.23 62.8200   1
   0   8 -16 950.250 58.6400   1
   0  -8 -16 857.660 52.9000   1
   0   8 -16 861.840 47.1100   1
   8 -16   0 801.360 51.8500   1
   0  16   8 830.820 57.8200   1
   8   0  16 835.620 45.5900   1
  16   0  -8 809.710 47.2300   1
 -16   0  -8 847.010 47.1000   1
   3   5  17 4814.47 133.440   1
  -3   5 -17 4845.53 136.670   1
   5  17  -3 4831.95 118.400   1
  -5  -3 -17 4709.34 117.010   1
   3 -17   5 5058.67 142.980   1
  -5   3 -17 4637.69 124.860   1
  -3  17  -5 5048.05 132.340   1
   3  -5 -17 5003.33 134.340   1
  -3  17   5 5115.62 131.060   1
  -5  17  -3 4656.08 118.460   1
  17  -5   3 4992.75 129.330   1
  17   3  -5 4936.96 123.480   1
  17  -3   5 4948.11 127.950   1
  17   5   3 5018.01 121.430   1
  17   3   5 5027.34 128.870   1
  -3 -17   5 4795.49 133.450   1
   7 -15   7 1385.44 69.0300   1
  11 -11   9 6080.25 164.130   1
  11   9 -11 6273.39 147.520   1
  11  -9  11 5950.63 160.530   1
   7   7  15 1325.77 63.5300   1
  -3  17  -5 4930.86 144.550   1
  -5 -17   3 4801.18 136.730   1
   7  15   7 1514.96 72.4000   1
   7  15  -7 1520.01 59.2100   1
  15   7   7 1479.28 55.4200   1
  -7 -15   7 1485.21 64.3400   1
  15   7  -7 1635.48 66.7100   1
  15  -7   7 1613.93 62.8000   1
  -7   7 -15 1653.08 65.9300   1
   7   7 -15 1678.89 61.5800   1
   7   7  15 1633.69 58.4700   1
   9 -11  11 6695.70 226.560   1
   9  11  11 5781.19 136.030   1
  11   9  11 5976.36 139.080   1
  11  11   9 5824.32 134.430   1
  11  -9  11 5960.40 149.130   1
  11 -11   9 6053.27 158.360   1
  11  11  -9 6187.04 152.950   1
   9  11 -11 6124.59 145.980   1
   5  -3 -17 4904.43 150.150   1
  -3  17   5 5037.04 137.870   1
   3  17   5 5151.74 121.300   1
   5   3  17 4766.22 135.050   1
   3  17   5 4977.77 133.580   1
   5 -17  -3 4594.33 158.820   1
   5  17   3 4975.76 124.670   1
   5 -17   3 4720.49 143.400   1
   3  17  -5 4666.27 120.870   1
  -3  -5 -17 4793.66 136.080   1
   8   8 -14 69.9500 27.5200   1
  -8 -14   8 7.32000 31.1100   1
  14  -8   8 7.83000 32.1600   1
  14   8  -8 -6.7400 43.1100   1
   8  14  -8 56.9700 26.3900   1
   8  14   8 -19.670 49.1900   1
   8   8  14 13.8300 35.0700   1
  16   2  -8 24.1000 40.5100   1
  16   8  -2 -28.460 43.3100   1
  16   2   8 35.7400 36.4500   1
  -8   2 -16 3.63000 28.1900   1
  -8  -2 -16 -20.050 32.5800   1
   8  16  -2 12.9600 37.6400   1
   8   8  14 0.96000 29.6800   1
   8  16   2 -26.250 41.5200   1
   8   2  16 16.2600 47.1400   1
   0  18   0 4189.58 114.810   1
   0   0 -18 4115.13 117.900   1
  18   0   0 3847.92 99.6900   1
   0   0 -18 4068.12 129.720   1
  12  12   6 -9.4300 31.9100   1
  12  12  -6 -4.3700 39.6200   1
   6  12 -12 42.8200 32.8100   1
  12   6 -12 62.5600 41.6200   1
   6  12  12 66.5000 34.2000   1
   0  18   0 3806.63 115.180   1
   2  16   8 43.8000 40.7800   1
   8 -16   2 -8.1900 43.6900   1
   8 -16  -2 -1.2500 44.9400   1
  -2  16   8 -16.790 61.2600   1
   0 -18   0 3777.29 123.680   1
   6  12  12 -30.530 56.7500   1
  12   6  12 6.23000 29.9200   1
 -16   2  -8 25.5600 34.5000   1
  -2  16   8 53.5600 47.8100   1
   2  -8 -16 7.02000 39.2900   1
   2  16   8 -65.260 45.8700   1
   8 -16   2 -37.190 37.0300   1
  16   8   2 22.6900 31.0100   1
  -6  -6 -16 5090.67 135.870   1
   6  16   6 5080.61 133.910   1
   6   6  16 5039.44 144.540   1
   6   6  16 5311.75 124.880   1
  -2 -18   0 1276.04 66.3900   1
  18   2   0 1325.89 60.1100   1
  18   0   2 1397.52 62.3800   1
  18  -2   0 1353.49 54.1900   1
  18   0  -2 1325.93 63.6300   1
   0   2 -18 1310.86 59.5600   1
   0  -2 -18 1284.61 56.6600   1
  -2  18   0 1221.82 60.3800   1
   0  18   2 1334.43 63.7400   1
   0  18  -2 1280.38 60.6500   1
   6 -16   6 5310.54 148.110   1
   2   0 -18 1511.05 82.8000   1
  -2   0 -18 1239.46 57.1700   1
  16  -6   6 5504.75 135.090   1
  16   6  -6 5333.69 130.340   1
  -6 -16   6 5356.12 140.570   1
  -6   6 -16 5514.28 147.560   1
  16   6   6 5413.06 135.480   1
  -2  18   0 1470.00 69.7800   1
   0  18   2 1555.11 79.7600   1
   0  18  -2 1383.67 72.6500   1
   0   2 -18 1472.76 75.6300   1
   0  -2 -18 1523.97 74.8100   1
   2  18   0 1470.23 71.9800   1
  -2   0 -18 1437.47 66.6500   1
   2 -18   0 1322.25 73.5000   1
   0 -18  -2 1301.27 56.7500   1
   0 -18   2 1368.21 64.5200   1
   6  16  -6 5143.70 128.230   1
  15  -9   5 1251.80 58.7700   1
  15   5  -9 1248.38 58.3700   1
   9   5  15 1236.15 67.3800   1
   5  15   9 1226.11 62.2800   1
   9  -5  15 1320.88 73.7500   1
  13  -9   9 468.000 38.5600   1
  -9 -13   9 451.680 39.2800   1
   9   9 -13 460.820 41.1100   1
  13   9  -9 483.200 38.3700   1
   9  13  -9 436.530 43.5300   1
  13   9   9 487.930 50.5800   1
   9  13   9 534.320 44.7900   1
   5   9 -15 1242.13 52.2400   1
   9   9  13 505.450 57.9900   1
   9 -13   9 433.720 46.1700   1
  -9 -15   5 1204.28 55.4700   1
  15   9  -5 1342.87 62.2800   1
  15  -5   9 1355.47 56.7000   1
  15   9   5 1235.52 51.0800   1
   9  15  -5 1383.63 59.1200   1
  -9   5 -15 1240.71 59.5400   1
   5 -15   9 1317.36 68.9200   1
  -5 -15   9 1350.70 61.9900   1
  -9  -5 -15 1270.90 56.5500   1
   5  15  -9 1317.21 53.0700   1
   9  15   5 1293.83 55.4200   1
   9   5  15 1221.06 58.3500   1
   5  15   9 1297.95 65.5600   1
  15   5   9 1185.91 57.9300   1
   9 -15   5 1165.05 54.8600   1
   5   9  15 1319.66 58.2000   1
   9 -15   5 1319.52 69.4900   1
   5   9  15 1206.00 63.8200   1
  -5  15  -9 1251.17 51.3700   1
  14   6  10 76.4800 44.2800   1
  10  14   6 44.1200 47.3700   1
  -2  18   2 18.4600 44.9000   1
  -2  18  -2 11.0900 42.8200   1
   2  18   2 -22.040 47.6400   1
  18   2  -2 -75.910 45.4800   1
  -2  18   2 130.310 52.2200   1
  -2  18  -2 -1.3400 50.1800   1
   2  -2 -18 -17.200 48.9100   1
   2  18   2 19.9200 53.7300   1
   2  18  -2 22.7500 31.9200   1
  -2  -2 -18 32.3100 41.8200   1
   2 -18  -2 46.2900 38.0700   1
  18   2   2 -17.500 44.8700   1
  18  -2   2 -22.980 29.8300   1
   6  14  10 43.2500 38.0700   1
   6  10  14 18.6500 55.2700   1
  18  -2  -2 6.28000 41.0900   1
   6  14  10 19.3500 33.1900   1
  10 -14   6 25.2000 32.3700   1
   6  10  14 35.4900 39.1300   1
  10   6 -14 0.50000 28.8500   1
  14 -10   6 14.0200 31.6800   1
  -6 -14  10 47.1400 32.5000   1
  14   6 -10 13.4000 31.8000   1
 -10 -14   6 39.1500 33.3600   1
  14  10  -6 -1.7300 30.2000   1
  10  14  -6 56.3400 28.5100   1
 -10  -6 -14 34.4100 32.7500   1
  14  10   6 -44.550 43.5100   1
   4  16   8 1794.32 73.8100   1
  16   4  -8 1903.39 71.1000   1
  16  -8   4 1846.19 70.1600   1
   4   8 -16 1983.44 70.2100   1
   4   8  16 1749.36 60.5500   1
  -4  16  -8 1887.58 66.9700   1
   8   4  16 2079.92 72.1000   1
   4  16   8 1947.47 66.7400   1
  -4  16   8 1727.54 71.9900   1
   4   8  16 1855.87 78.1500   1
   8  -4  16 1800.22 77.9600   1
   8 -16   4 1868.57 89.5200   1
  16   8  -4 1942.41 71.5100   1
   8   4  16 2001.34 83.0000   1
   8  16   4 2003.58 73.6700   1
   4  16  -8 1922.98 64.4300   1
   8  16  -4 2051.89 70.5500   1
  -8  -4 -16 1934.97 72.1800   1
   4 -16   8 1964.99 80.0000   1
  16   4   8 1786.10 66.6300   1
  16   8   4 1839.80 69.3700   1
  -8   4 -16 1840.08 70.9500   1
  16  -4   8 2045.75 74.1400   1
  -8 -16   4 1930.16 82.0200   1
   8 -16   4 1775.95 69.7100   1
  -4 -16   8 1865.73 71.7100   1
  13   7 -11 121.830 31.8200   1
   7  11 -13 146.120 36.2700   1
  13  11  -7 167.380 42.4800   1
   1  17   7 267.510 59.5300   1
   7  -1  17 217.880 48.4200   1
  -1  17   7 256.540 62.4900   1
   1   7 -17 223.940 43.2200   1
 -11 -13   7 130.490 39.2600   1
   1   7  17 211.580 53.9800   1
   7  13 -11 151.810 36.5900   1
  11  13  -7 116.200 41.2000   1
   5   5  17 8216.34 202.150   1
   5  -5 -17 7672.60 190.880   1
  17   5  -5 8144.82 198.130   1
   7   1  17 327.310 51.5700   1
  -1  17  -7 225.070 42.0400   1
   7 -17  -1 250.820 51.4500   1
  -1   7 -17 251.700 42.0300   1
   7 -17   1 237.180 49.3400   1
   1  17  -7 268.590 42.3900   1
   7  17   1 250.490 48.7100   1
   7  17  -1 217.770 41.3400   1
  -7  -1 -17 227.980 34.7900   1
  -5  17  -5 8314.90 205.150   1
   1 -17   7 278.200 34.3900   1
  -1 -17   7 247.990 32.8700   1
  17   1   7 268.700 33.4400   1
  17   7   1 240.520 35.9900   1
  17  -1   7 271.810 43.1800   1
  17   7  -1 311.660 43.9000   1
  17   1  -7 265.070 48.7100   1
 -17   1  -7 209.040 39.2200   1
  17  -1  -7 381.140 53.2000   1
  17  -7   1 292.350 35.1800   1
   7   1  17 275.310 35.7200   1
  -7   1 -17 272.450 32.4200   1
   1  17   7 316.560 51.8900   1
   1  -7 -17 262.890 41.8700   1
  -1  17  -7 241.320 41.7500   1
  -1  -7 -17 298.840 33.7600   1
  13  -7  11 148.150 31.2800   1
  17  -5   5 8423.02 213.520   1
  -5 -17   5 8109.07 205.430   1
  17   5   5 8160.45 194.350   1
  -5   5 -17 8292.15 215.370   1
  -5  -5 -17 7707.44 183.030   1
   5  17  -5 8097.92 174.430   1
   5 -17   5 8106.83 218.200   1
   5  17   5 7994.27 177.350   1
   5   5  17 8118.73 221.540   1
  11  -7  13 141.010 32.2900   1
  13  11   7 137.520 33.9300   1
  13   7  11 109.880 43.8800   1
  11  13   7 110.160 47.5400   1
   1  13  13 5243.06 133.450   1
 -13   1 -13 4976.10 134.620   1
 -13  -1 -13 5012.82 134.370   1
  13  13  -1 4980.71 123.230   1
  13  13   1 4916.21 122.450   1
   1  13 -13 4899.19 124.590   1
  13  -1  13 4899.36 120.540   1
  13   1  13 5280.33 131.670   1
   1  13  13 4779.63 138.260   1
  -1  13  13 5171.85 144.650   1
  11   7  13 95.2300 33.5800   1
   7  13  11 135.590 54.6000   1
   7  11  13 93.4600 39.6800   1
  11 -13   7 80.0900 38.4800   1
  13 -11   7 125.610 33.1500   1
   7  11  13 132.580 34.3600   1
  11 -13   7 120.260 34.5900   1
  11   7 -13 180.860 32.1700   1
  -1  17   7 299.880 50.1700   1
   0  18   4 1126.07 52.7500   1
   0  -4 -18 1204.69 55.4300   1
   0  18  -4 1153.86 59.4400   1
   4   0  18 1203.65 66.3900   1
  -4  18   0 1170.96 69.4000   1
   4   0 -18 1177.71 73.9500   1
   0  18   4 1189.06 64.3800   1
   0   4 -18 1216.29 68.5000   1
   0  18  -4 1113.79 62.9900   1
   0  -4 -18 1196.41 65.8300   1
   4  18   0 1114.66 63.6800   1
   4 -18   0 1189.05 64.1700   1
  -4   0 -18 1202.37 58.8600   1
   0 -18   4 1124.87 51.6900   1
  18   4   0 1158.18 59.7500   1
  18   0   4 1133.82 49.6400   1
  18   0  -4 1096.16 50.3700   1
  18  -4   0 1156.18 58.8500   1
  -4  18   0 1175.64 59.8200   1
   0  12 -14 4911.68 125.950   1
  12 -14   0 4534.07 143.230   1
   0  12  14 4490.71 125.940   1
   0  14  12 4378.73 124.770   1
   0  14 -12 4655.88 131.090   1
  12   0  14 4572.90 121.000   1
  14   0  12 4629.61 116.130   1
  12  14   0 4596.33 110.780   1
  14  12   0 4588.39 109.260   1
 -12   0 -14 4498.74 121.690   1
 -14   0 -12 4634.47 125.580   1
   0  12  14 4485.93 121.080   1
  12 -14   0 4364.32 135.800   1
   0  14  12 4813.43 125.960   1
   2  14  12 3529.49 120.150   1
  12   2  14 3569.59 105.060   1
  12  -2  14 3633.06 99.3100   1
   2  14 -12 3611.68 107.060   1
  14   2  12 3619.07 94.6200   1
  12  14   2 3732.31 94.5800   1
  14  -2  12 3371.07 94.8100   1
  14  12   2 3588.16 99.1500   1
  12  14  -2 3707.81 99.7400   1
   2  -4 -18 1201.11 69.3700   1
   2  18   4 1185.75 74.5900   1
   2  18  -4 1199.09 61.5300   1
   4  18   2 1232.04 59.0100   1
  -2   4 -18 1187.19 61.6100   1
   4 -18  -2 1108.76 67.6100   1
  -2  -4 -18 1175.57 63.3100   1
   4  18  -2 1189.87 62.5900   1
   4 -18   2 1280.99 59.3800   1
  -4  -2 -18 1259.84 62.0100   1
  -4   2 -18 1288.58 56.4100   1
  14  12  -2 3671.04 96.2100   1
  -2 -18   4 1185.20 55.0500   1
  -4 -18   2 1126.91 62.7700   1
  18   2   4 1325.33 61.4800   1
   2  12 -14 3674.22 105.530   1
 -12  -2 -14 3525.16 101.640   1
 -14  -2 -12 3536.16 108.870   1
 -12   2 -14 3586.23 104.170   1
 -14   2 -12 3462.77 101.930   1
  12 -14   2 3768.63 110.710   1
   2  12  14 3565.24 99.8400   1
   2  14  12 3902.68 103.820   1
  18  -4  -2 1244.36 52.9800   1
  18  -2  -4 1180.77 51.7600   1
  18  -4   2 1219.88 51.3000   1
  18   2  -4 1342.85 61.3900   1
  18   4  -2 1253.91 61.4500   1
  18  -2   4 1358.48 59.7000   1
  18   4   2 1330.65 53.8000   1
   2   4  18 1199.47 69.7500   1
   2 -18   4 1239.75 63.6600   1
  -4  18  -2 1261.48 69.3600   1
   4   2 -18 1291.10 65.0100   1
   4   2  18 1251.09 72.6100   1
   2   4 -18 1199.96 71.4900   1
   4  -2 -18 1147.81 65.5200   1
  -2  18   4 1125.20 64.4700   1
  -2  18  -4 1205.49 68.4000   1
   2  18   4 1305.37 55.3700   1
  -2   4 -18 1283.47 59.7300   1
  -4  18   2 1188.76 71.0200   1
   2  -4 -18 1269.62 57.0400   1
  -2  18   4 1308.86 61.5900   1
  -4  18  -2 1277.80 60.6000   1
  -4  18   2 1350.65 55.5600   1
  -2  14  12 3413.26 107.170   1
  -2  14 -12 4137.18 165.380   1
   2  12  14 3318.96 108.110   1
  10 -12  10 4660.90 156.370   1
  10  10  12 4482.10 115.920   1
  -2  18  -4 1302.56 58.1600   1
  10  12  10 4693.82 132.630   1
  12  10  10 4326.53 107.530   1
  10  12 -10 4609.65 112.860   1
  12 -10  10 4573.20 124.430   1
  12  10 -10 4588.28 112.710   1
  10  10 -12 4696.54 116.650   1
  10 -12  10 4767.30 130.290   1
  10 -12  10 4748.31 137.050   1
  -2  12  14 3331.19 101.180   1
  12 -14  -2 3359.57 144.110   1
 -13   3 -13 4141.84 116.710   1
   3  13  13 4251.95 116.700   1
  -3  13 -13 4225.48 115.620   1
   1 -15  11 2614.04 92.8500   1
  -1 -15  11 2580.84 89.5400   1
   1  11  15 2638.67 82.9500   1
  -1  15  11 2707.33 85.0200   1
  11 -15   1 2390.00 83.6900   1
   1  15  11 2657.44 79.7600   1
  -3  17  -7 3060.58 92.0400   1
   7   3  17 3130.49 93.4500   1
  -3  17   7 3045.34 93.3600   1
  17  -7   3 3059.41 88.4700   1
  17   3  -7 3106.40 92.4600   1
  17  -3   7 3010.96 85.6900   1
  17   7  -3 3078.50 85.0700   1
  -3 -17   7 2970.92 99.5200   1
  -7 -17   3 2832.76 98.8100   1
  17   7   3 3180.83 98.1700   1
  17   3   7 2953.72 84.2300   1
  -7   3 -17 3112.00 91.0900   1
   3 -17   7 3137.30 103.420   1
  -7  -3 -17 2998.71 88.7500   1
  -3  17   7 2976.70 98.2700   1
  -3  17  -7 3045.77 104.340   1
   3   7  17 2886.54 105.850   1
   7  17  -3 3086.31 84.8200   1
  -3   7 -17 3183.01 97.1200   1
   3  17  -7 3104.60 88.8100   1
   7  17   3 3231.58 97.9500   1
   7 -17   3 3051.03 121.480   1
   3  17   7 3206.63 108.130   1
   7   3  17 2990.00 101.140   1
   7  -3  17 3097.58 113.040   1
 -11  -1 -15 2546.62 83.3100   1
  -1  11  15 2478.64 96.1200   1
  11 -15  -1 2480.98 100.610   1
  11 -15   1 2667.17 116.360   1
   1  11  15 2622.01 102.700   1
  -1  15  11 2543.36 92.9900   1
  -1  15 -11 2575.60 99.5000   1
  11  -1  15 2668.93 93.0400   1
  11   1  15 2631.86 83.4000   1
   1  15 -11 2542.85 87.0500   1
  11  15   1 2683.15 82.1400   1
  11  15  -1 2495.02 72.0400   1
  15   1  11 2444.28 74.8300   1
  15  -1  11 2583.26 79.3300   1
  15  11   1 2654.94 84.1200   1
  15  11  -1 2686.81 82.4900   1
   1  11 -15 2601.50 88.0700   1
 -11   1 -15 2501.91 77.7900   1
 -15  -1 -11 2390.25 92.1300   1
 -15   1 -11 2576.37 86.6600   1
   3  13  13 4206.28 128.330   1
  13   3  13 4390.04 116.090   1
  13  -3  13 4497.60 122.030   1
  13  13   3 4342.76 112.880   1
   3  13 -13 4247.44 112.790   1
  13  13  -3 4480.16 109.710   1
 -13  -3 -13 4173.36 123.010   1
  12  -8  12 3931.21 119.460   1
  12   8 -12 3734.11 105.680   1
  12 -12   8 3527.63 105.230   1
   8  12  12 3807.55 118.810   1
  12   8  12 3866.28 112.090   1
  12  12   8 3964.43 109.660   1
  12 -12   8 3891.21 122.650   1
  12  12  -8 3903.67 101.260   1
   8  12 -12 3859.81 105.460   1
  15   9  -7 1265.91 58.8800   1
  15  -7   9 1300.98 54.4900   1
   9 -15   7 1213.06 72.5600   1
   7  15  -9 1211.84 47.6800   1
  15   7   9 1139.33 49.2600   1
  15   9   7 1169.77 59.9300   1
   7 -15   9 1143.74 60.8900   1
   9  15   7 1229.43 68.3600   1
   7  15   9 1024.26 57.5200   1
  11 -15   3 639.050 40.9800   1
   3  11  15 734.590 43.7200   1
  15   3 -11 694.370 50.6900   1
 -15   3 -11 645.230 41.6300   1
  -3 -15  11 633.040 41.2000   1
 -11   3 -15 626.510 38.8800   1
   3  15  11 647.060 56.4700   1
  -3  15 -11 686.410 45.0200   1
   9   7  15 1254.49 67.4600   1
   7   9  15 1250.12 74.0700   1
  15  11  -3 539.310 48.1000   1
   9  -7  15 1250.62 69.4100   1
 -11  -3 -15 549.300 40.4200   1
  15  -3  11 610.210 37.0600   1
  15  11   3 594.090 50.5800   1
  11  15  -3 658.070 49.9100   1
   3  15 -11 592.000 40.2300   1
  11  15   3 622.010 53.4000   1
  11  -3  15 651.860 47.0700   1
  11   3  15 628.490 43.6400   1
   3  15  11 539.630 68.1300   1
   3  11  15 586.060 70.2800   1
  11 -15   3 625.430 56.1000   1
  -3  15  11 625.970 54.1500   1
   3  11 -15 588.950 37.9800   1
  15   3  11 661.130 48.8900   1
   9   7  15 1296.49 60.7200   1
   9  15  -7 1213.01 53.2000   1
   7   9  15 1253.60 60.2700   1
  -9   7 -15 1212.63 63.4400   1
   9   7 -15 1134.70 48.5800   1
   7   9 -15 1202.17 53.1700   1
  -7 -15   9 1106.36 56.4800   1
  15  -9   7 1346.91 56.7000   1
  -9 -15   7 1127.58 59.4900   1
  15   7  -9 1132.91 50.8900   1
  -4  -4 -18 4628.08 135.680   1
   4 -18   4 4675.46 126.870   1
  -4   4 -18 4847.96 132.640   1
  -4 -18   4 4668.99 139.480   1
  18   4   4 4407.86 109.540   1
  18   4  -4 4373.16 108.700   1
  18  -4   4 4790.47 123.040   1
   4  -4 -18 4682.19 135.290   1
   6   8 -16 4845.34 117.860   1
   6   8  16 4932.50 127.910   1
   8   6  16 4494.85 111.600   1
   0  10  16 1325.32 73.8400   1
  -6 -16   8 4781.97 124.500   1
   0  10 -16 1711.85 84.5300   1
  12  14  -4 1564.86 64.0900   1
  16   6  -8 4815.31 122.430   1
   0  16  10 1471.64 73.1800   1
  10 -16   0 1440.37 75.3000   1
   0  16 -10 1438.50 65.2800   1
  10  16   0 1470.94 56.0900   1
  -4  18   4 4852.26 124.650   1
  16   0  10 1555.76 61.7000   1
 -10   0 -16 1494.43 64.1400   1
  16  -8   6 4916.73 134.380   1
  16  10   0 1487.55 65.2700   1
   0  10 -16 1529.47 67.3200   1
   0 -16  10 1483.64 66.8700   1
 -16   0 -10 1375.19 66.1900   1
   4  14  12 1576.92 59.7600   1
   4  12  14 1617.38 60.0000   1
  12 -14   4 1612.40 76.5000   1
  -4  14 -12 1625.24 60.4600   1
  14   4 -12 1702.08 68.7800   1
  -4  18  -4 4835.29 136.230   1
  -4  18   4 4566.47 124.280   1
   4   4  18 4592.52 133.680   1
   4  18   4 4776.29 133.270   1
   4  18  -4 4771.58 125.870   1
  -8   6 -16 4846.20 137.900   1
  -8 -16   6 4575.61 127.750   1
  16   8  -6 4725.10 112.370   1
  16  -6   8 4970.15 131.560   1
  16   8   6 4734.41 121.560   1
  16   6   8 4803.72 124.650   1
   8  16  -6 4642.89 109.750   1
   6  16  -8 4548.87 110.250   1
   6 -16   8 4691.97 132.420   1
  10   0  16 1476.41 60.8300   1
   0  16  10 1426.17 63.0500   1
  12 -14   4 1612.13 74.6500   1
   4  12  14 1660.07 85.8000   1
   4  14  12 1559.09 83.2200   1
  12   4  14 1638.33 64.6700   1
  12  -4  14 1643.20 64.6400   1
  12  14   4 1691.81 68.8400   1
  14   4  12 1584.07 64.2600   1
  14  -4  12 1617.62 59.4400   1
   4  14 -12 1648.57 59.8400   1
  10   0  16 1498.81 61.4200   1
 -12  -4 -14 1413.62 55.8500   1
  14  12  -4 1644.59 66.7000   1
   4  12 -14 1581.93 63.3400   1
 -12   4 -14 1607.28 66.3000   1
 -14   4 -12 1587.65 61.6500   1
  -4  18  -4 4966.02 126.190   1
   8  16   6 4899.58 130.680   1
   6  16   8 4934.34 130.930   1
   8   6  16 4927.17 141.880   1
   8 -16   6 4667.35 148.990   1
   6   8  16 4800.74 129.240   1
   8  -6  16 4702.51 148.410   1
   0   6 -18 1141.58 66.7300   1
   2  16 -10 257.930 37.9300   1
  10  16   2 290.130 48.9200   1
  10  16  -2 274.610 45.4900   1
   6   0  18 1188.22 67.9500   1
  16   2  10 277.700 32.3400   1
   0  18   6 1221.78 66.7500   1
 -10  -2 -16 260.160 38.1800   1
  16  -2  10 276.730 41.8600   1
  16  10   2 260.980 47.7300   1
  16  10  -2 283.350 48.2500   1
 -10   2 -16 280.700 34.1900   1
   8  10  14 87.0200 39.1500   1
   0  -6 -18 1261.05 61.2600   1
   0  18   6 1243.66 63.7500   1
  18  -6   0 1267.56 60.9600   1
  18   0  -6 1330.73 63.5800   1
  18   0   6 1291.64 59.5300   1
  18   6   0 1234.17 60.7800   1
   0 -18   6 1187.22 57.3700   1
  -6   0 -18 1194.87 50.3400   1
   6  18   0 1327.19 65.4800   1
   6 -18   0 1045.36 60.9600   1
   0  18  -6 1184.29 65.6300   1
   2 -16  10 253.900 29.1800   1
  10   2  16 255.970 39.2400   1
  -2  16 -10 284.180 38.0400   1
  10  -2  16 249.300 35.7800   1
  10 -16   2 307.780 44.0300   1
   2  16  10 220.080 50.7100   1
  -2  16  10 245.010 37.2700   1
   2  10 -16 241.770 31.5100   1
  -2 -16  10 283.560 34.2900   1
 -16   2 -10 265.380 29.9300   1
  10  14  -8 -0.7500 39.3100   1
  -2  16  10 280.830 48.1000   1
   2  10  16 151.520 63.7000   1
  -8 -14  10 49.6100 35.5400   1
  10 -16  -2 308.050 58.4400   1
  -2  16 -10 269.910 46.3700   1
   2  10  16 331.830 47.7600   1
  16   2 -10 273.400 49.4800   1
  14  10   8 46.4700 33.1500   1
  14  -8  10 47.5100 31.7100   1
   2  16  10 155.240 65.4300   1
  10   2  16 286.270 46.0100   1
  10  -2  16 286.440 44.1700   1
  10 -14   8 50.6400 29.7100   1
   8  10  14 94.1000 45.4500   1
  10 -16   2 273.300 41.7300   1
 -10 -14   8 64.4500 37.5400   1
  10   8 -14 38.1700 28.7900   1
  14 -10   8 70.5700 33.6200   1
  14   8 -10 -6.3000 45.1300   1
  14  10  -8 52.4300 43.0700   1
   8  14 -10 93.2700 37.1700   1
  14   8  10 93.7200 44.1400   1
  10  14   8 57.8800 36.6700   1
  10   8  14 54.7200 45.5200   1
   8  14  10 67.7400 50.3500   1
  17   7   5 7079.88 158.820   1
  -7   5 -17 7196.76 175.780   1
  -5   7 -17 7667.00 185.120   1
  -7 -17   5 6908.78 175.840   1
  -5 -17   7 7177.99 177.430   1
  17   7  -5 7506.82 169.000   1
  17  -5   7 7347.29 174.330   1
  17   5  -7 7411.27 167.450   1
  -5  17  -7 7373.56 167.710   1
   5   7  17 7313.36 162.800   1
   7   5  17 7498.23 176.240   1
  -1  -1 -19 1323.76 59.7600   1
   5  13  13 1359.45 76.8800   1
  13   5  13 1409.20 63.5800   1
  13  -5  13 1567.56 63.4800   1
  13  13  -5 1405.61 54.0000   1
   5  13 -13 1473.74 55.7200   1
  13   5 -13 1468.30 56.1000   1
  13 -13   5 1519.73 62.4000   1
   5  13  13 1540.21 59.0900   1
   5 -17   7 7350.33 180.950   1
   7  17   5 7394.06 169.810   1
   7 -17   5 6926.48 181.430   1
   5  17   7 7501.50 175.260   1
   7   5  17 7373.32 177.240   1
   7  -5  17 7026.00 193.150   1
  17   5   7 6996.19 155.740   1
  -1   1 -19 1349.90 56.7500   1
 -13   5 -13 1566.53 67.0200   1
  -1   1 -19 1465.15 71.0900   1
  -1  -1 -19 1382.81 68.9800   1
   1   1 -19 1374.70 66.9000   1
  17  -7   5 7376.17 174.150   1
   1  -1 -19 1416.65 76.2500   1
   1   1 -19 1364.78 64.4700   1
  -7  -5 -17 6799.05 167.180   1
   7  17  -5 7119.44 155.810   1
   5  17  -7 7191.51 158.190   1
   1  -1 -19 1279.70 58.5000   1
   1 -19   1 1360.12 62.4400   1
  11 -11  11 3659.00 120.410   1
   1  19   1 1421.32 62.8700   1
  -1  19  -1 1337.92 62.2200   1
  -1  19   1 1319.43 63.2700   1
   1  19  -1 1251.07 53.6000   1
  11  11 -11 3537.11 93.8500   1
  11 -11  11 3618.58 118.720   1
  -1  19   1 1396.42 67.6300   1
  -1  19  -1 1441.40 67.6600   1
   1  19   1 1385.43 72.9400   1
   1  19  -1 1317.52 62.5500   1
  11  11  11 3641.80 106.480   1
   1 -19  -1 1273.57 73.6900   1
  -1 -19   1 1337.25 60.4400   1
  19   1   1 1354.01 54.4700   1
  19   1  -1 1346.47 55.3200   1
  19  -1   1 1403.67 63.9800   1
  19  -1  -1 1383.91 64.5500   1
   2   6 -18 3386.45 124.550   1
   6  -2  18 3414.74 115.870   1
  -2 -18   6 3363.14 108.310   1
  18   2  -6 3252.15 103.000   1
  18   6  -2 3064.75 95.6800   1
   2  18   6 3258.77 107.270   1
  -2   6 -18 3297.05 106.510   1
  18   2   6 3288.85 90.1200   1
  18  -6   2 3258.34 97.7800   1
  18  -2   6 3184.41 87.8000   1
  18   6   2 3394.42 100.110   1
   2 -18   6 3301.76 112.000   1
  -6  -2 -18 3245.36 98.2600   1
   6  18  -2 3566.23 98.7400   1
   2  18   6 3353.00 94.4100   1
  -2  18  -6 3279.44 95.6400   1
   2  -6 -18 3011.12 92.9200   1
  -2   6 -18 3475.99 104.520   1
   2  18  -6 3386.50 98.6800   1
  18  -2  -6 3373.57 93.3500   1
   6  18   2 3408.22 102.780   1
  -2  18   6 3421.61 98.5700   1
   2   6  18 3355.66 106.950   1
  -2  18   6 3331.02 113.060   1
   6 -18   2 3251.45 117.790   1
   6   2  18 3432.21 110.880   1
  -2  18  -6 3383.36 112.750   1
  -6   2 -18 3303.52 97.8600   1
  -1  -3 -19 161.810 34.6600   1
  -3   1 -19 122.930 36.9300   1
  -1  -3 -19 102.220 33.8400   1
  -1   3 -19 93.5300 34.0200   1
   3  -1 -19 121.120 28.4300   1
   3   1 -19 73.2800 51.5100   1
   3  -1 -19 90.3600 53.9800   1
   1   3 -19 136.650 42.8500   1
   1  -3 -19 163.970 50.2300   1
   1  -3 -19 135.890 28.2400   1
  -3  -1 -19 197.320 41.4800   1
  -9  -1 -17 32.4700 32.0500   1
   9  -1  17 36.8300 43.4600   1
  -1   3 -19 132.850 38.1800   1
   1   9  17 -12.690 54.7400   1
  -3  19  -1 175.950 45.9200   1
  -3  19   1 181.900 35.1200   1
  19  -3  -1 116.370 46.3400   1
  19  -1  -3 130.050 48.0400   1
  19  -3   1 106.890 33.7100   1
  19   1  -3 123.350 34.9100   1
  19   3  -1 133.620 47.4500   1
  19  -1   3 97.6100 43.5100   1
  19   1   3 87.9000 42.9400   1
  19   3   1 191.630 48.0400   1
  -3 -19   1 136.110 29.0300   1
  -1 -19   3 90.1000 33.6900   1
   1 -19   3 137.360 28.1200   1
   3 -19   1 110.610 28.8400   1
   3 -19  -1 101.660 43.2800   1
  11 -15   5 252.720 50.5400   1
   5  11  15 214.480 45.8700   1
   5  15  11 175.730 45.4000   1
  11   5  15 229.690 36.3700   1
  11  -5  15 256.580 37.0300   1
  11  15   5 289.690 38.5400   1
  15   5  11 323.050 46.0600   1
   5  15 -11 307.920 36.5300   1
  15  11   5 275.690 44.2400   1
  11  15  -5 287.930 33.8500   1
  15  -5  11 283.730 36.1200   1
  15  11  -5 226.810 44.3300   1
   5  11 -15 264.650 37.0600   1
 -11   5 -15 219.250 31.1400   1
  15   5 -11 265.880 46.9200   1
  -5 -15  11 284.050 36.4500   1
  -5  15 -11 277.740 34.1600   1
   5  11  15 234.410 43.2500   1
  11 -15   5 260.350 38.0600   1
   5  15  11 321.200 39.1100   1
   3  19  -1 60.8600 35.2900   1
   3  19   1 157.970 39.3500   1
   1  19  -3 170.780 51.2700   1
   1  19   3 153.950 58.4400   1
  -1  19  -3 138.890 48.3100   1
  -1  19   3 190.910 62.1200   1
  -3  19   1 69.8000 57.5000   1
  -3  19  -1 52.0500 52.9200   1
  -1  17  -9 4.38000 37.4800   1
   9 -17   1 30.8600 38.9700   1
   1  17   9 19.7600 44.7600   1
  -1  17   9 3.69000 47.3200   1
  17   1  -9 15.3500 47.1200   1
 -17   1  -9 25.3700 25.5800   1
  -1 -17   9 30.4600 28.5100   1
  17   9  -1 18.2600 46.1600   1
  17   9   1 30.3800 45.2500   1
  17  -1   9 39.2000 36.2300   1
  17   1   9 41.4600 28.9700   1
   9  17  -1 59.5300 44.6900   1
   9  17   1 -80.430 44.8300   1
   9 -17   1 66.4600 48.1300   1
   9 -17  -1 18.7700 46.6200   1
   1  17   9 11.8000 62.7000   1
  -1  17   9 -59.780 61.8900   1
  11 -13   9 2512.70 107.530   1
   9 -13  11 2936.88 134.570   1
   9  11  13 2637.44 84.0300   1
   9  13  11 2370.28 84.8400   1
  11   9  13 2492.95 78.8400   1
  11  13   9 2499.87 83.9800   1
  13   9  11 2527.02 83.6300   1
  13  11   9 2570.23 90.2800   1
  11  -9  13 2604.33 98.3400   1
  11  13  -9 2562.39 79.0100   1
   9  13 -11 2591.88 83.0700   1
  13  -9  11 2583.05 90.6500   1
  13  11  -9 2610.60 87.6900   1
   9  11 -13 2519.65 83.8200   1
  13   9 -11 2636.57 84.8600   1
  11   9 -13 2557.69 81.4000   1
  13 -11   9 2456.65 79.4100   1
  11 -13   9 2545.23 89.7100   1
  11 -13   9 2643.90 99.9900   1
   1  19  -3 96.2500 33.4300   1
  -1  19  -3 119.940 32.1400   1
   1  19   3 141.030 49.8400   1
  -1  19   3 103.760 48.9300   1
  10  -4  16 61.5500 36.9800   1
  -4  16 -10 94.3100 33.9400   1
   4  10  16 103.910 44.3300   1
  16 -10   4 81.9400 41.2000   1
   4  16 -10 61.9600 30.6200   1
  10  16   4 27.3700 33.9500   1
  10   4  16 17.9100 45.0800   1
   4  16  10 94.6600 48.3200   1
   4  16  10 69.8800 44.1800   1
   4  10  16 196.900 61.5300   1
  10 -16   4 97.4100 33.7000   1
  -4  16  10 34.7700 42.1400   1
  10 -16   4 91.6900 38.1100   1
  10   4  16 72.8700 39.3400   1
  16   4 -10 59.2400 32.8300   1
  -4 -16  10 66.7100 32.4500   1
   4  10 -16 88.5300 32.2300   1
 -10   4 -16 76.7800 28.0100   1
  16  10  -4 98.3100 33.0800   1
  16  -4  10 97.9800 36.6500   1
 -10  -4 -16 52.1000 34.9200   1
  16  10   4 122.600 45.8700   1
  16   4  10 63.2300 41.7300   1
  10  16  -4 64.8100 38.2400   1
  12   6  14 1093.26 61.7900   1
   6  14  12 1145.71 76.0100   1
   6  12  14 1011.29 61.6800   1
  12 -14   6 1047.01 63.9400   1
   6  14  12 1053.82 52.1100   1
   6  12  14 1105.40 61.8300   1
  -4  18  -6 5127.56 152.970   1
  -4  18   6 4907.67 147.120   1
   4   6  18 5045.63 152.340   1
   6   4  18 4921.40 145.970   1
   4  18   6 5198.31 149.760   1
   6  18   4 4982.74 135.860   1
   6 -18   4 4964.55 166.780   1
   4  18  -6 5086.24 140.950   1
   6  18  -4 5133.50 139.440   1
  -6  -4 -18 4917.39 141.740   1
   4 -18   6 5033.50 153.420   1
  -4   6 -18 5168.25 145.290   1
  -6   4 -18 5123.30 149.410   1
  18   6   4 5113.00 135.360   1
  18   4   6 4959.62 131.010   1
  -6 -18   4 5145.40 150.360   1
  -4 -18   6 4865.66 147.690   1
  18   6  -4 5264.87 139.770   1
  18  -4   6 5288.15 146.470   1
  18   4  -6 5506.58 155.200   1
  18  -6   4 5195.83 137.280   1
  -4  18   6 5386.25 141.140   1
   6   4  18 5373.58 143.060   1
  -4  18  -6 5278.04 144.340   1
  12 -14   6 1112.38 60.2600   1
  14   6 -12 1160.96 62.1700   1
 -12   6 -14 1109.38 55.4600   1
   6  12 -14 1169.10 54.1100   1
  14  12  -6 1174.93 58.3000   1
  12  14  -6 1100.63 58.4600   1
   6  14 -12 1120.31 50.8300   1
  14  -6  12 1148.68 54.3900   1
  14  12   6 1084.91 52.2300   1
  12   6 -14 1093.33 56.7100   1
  14   6  12 1124.70 52.3400   1
  12  -6  14 1148.34 55.9100   1
  12  14   6 1052.39 62.0500   1
   9   3  17 487.070 46.5000   1
   3   9 -17 460.360 38.8200   1
   3   9  17 464.440 49.7400   1
   9   3  17 476.440 41.3100   1
  -3   3 -19 1046.99 55.5800   1
  -3  -3 -19 1011.85 58.8000   1
   3   9  17 584.240 68.1400   1
   9  -3  17 482.070 52.8600   1
   3  -3 -19 1125.53 61.4000   1
  -9   3 -17 519.560 40.0700   1
  -9  -3 -17 487.650 43.4200   1
   3   3  19 885.530 64.3500   1
   3   3 -19 986.750 69.8700   1
  -3 -19   3 887.920 51.2100   1
  19   3   3 1041.55 56.9000   1
  19   3  -3 975.370 57.7100   1
   9 -17   3 479.130 47.8700   1
   3  17   9 521.190 43.2400   1
  -3  17  -9 484.410 43.7200   1
  -3  17   9 521.170 54.9000   1
  17  -9   3 481.760 46.6200   1
  17   3  -9 530.230 53.2700   1
  -3 -17   9 475.710 40.4200   1
  17   9  -3 440.280 39.7200   1
   3 -19   3 1004.38 60.6200   1
   9  17   3 435.530 41.5200   1
   3  17   9 563.660 64.6600   1
   9 -17   3 512.660 55.9700   1
  17   3   9 503.600 45.0600   1
  -3  17   9 545.020 67.0900   1
  -3  17  -9 467.090 46.3500   1
  19  -3   3 961.930 48.3200   1
  19  -3  -3 890.630 48.4600   1
  -3  19   3 1105.56 62.3400   1
  17  -3   9 430.660 42.2900   1
  -3  19   3 1021.79 74.8900   1
   3 -17   9 454.790 37.4600   1
   3  17  -9 497.860 42.8100   1
   9  17  -3 450.680 45.3200   1
   3  19   3 981.980 70.0400   1
   3  19  -3 997.470 63.2000   1
  17   9   3 412.110 50.6700   1
  -3  19  -3 915.020 66.8300   1
   3  19   3 1115.82 54.9200   1
  -3  19  -3 1095.60 59.5400   1
   8   8  16 3753.62 123.650   1
   8   8  16 3734.85 115.670   1
   8   8 -16 3816.86 119.580   1
   8  16   8 3734.63 110.380   1
   8  16  -8 3812.31 108.400   1
  16   8   8 3549.63 104.180   1
  16   8  -8 3706.35 106.160   1
  16  -8   8 3523.05 115.550   1
  -8 -16   8 3574.57 118.900   1
   8 -16   8 3710.00 128.320   1
   9   9  15 649.250 43.8800   1
  -9 -15   9 552.330 42.5000   1
   9   9 -15 654.740 48.3100   1
  15  -9   9 584.310 41.4300   1
  15   9  -9 670.000 43.1900   1
   9  15  -9 629.060 48.3200   1
  15   9   9 587.090 51.2500   1
   9  15   9 784.020 66.2500   1
  13 -13   7 3896.91 125.230   1
   9 -15   9 679.480 55.5300   1
   9   9  15 723.470 52.1000   1
   5  -1 -19 1445.39 83.6700   1
   5   1 -19 1658.07 88.3000   1
   7   7  17 9726.39 257.880   1
   7  17   7 9558.62 235.850   1
   7 -17   7 9159.43 248.940   1
   7  17  -7 9345.23 225.490   1
  17   7   7 9259.94 218.720   1
  -7 -17   7 8762.87 223.700   1
  17   7  -7 9061.72 213.800   1
  17  -7   7 9623.70 236.350   1
   7   7 -17 9582.83 233.100   1
   7   7  17 9507.25 229.030   1
   1   5 -19 1597.09 81.2000   1
  -1  19   5 1531.32 88.5000   1
  -5  19  -1 1539.56 67.4100   1
  -5  19   1 1723.66 71.8000   1
  19  -5  -1 1485.19 66.2500   1
  19  -1  -5 1470.89 59.8400   1
  19  -5   1 1448.20 65.9800   1
  19   1  -5 1643.22 72.3800   1
  19   5  -1 1492.05 61.0700   1
  19  -1   5 1605.68 67.5900   1
  19   5   1 1503.15 59.8500   1
  19   1   5 1510.40 58.7300   1
  -1 -19   5 1479.51 69.9800   1
   5  -1  19 1482.87 71.0100   1
   5   1  19 1539.06 78.4300   1
   7  13  13 4252.50 137.090   1
  13   7  13 4139.05 116.950   1
  13  13   7 3961.83 112.510   1
  13  -7  13 4098.70 123.050   1
  13  13  -7 4250.50 119.800   1
   7  13 -13 4305.74 123.270   1
  13   7 -13 3835.47 113.110   1
  -5   1 -19 1463.12 63.7700   1
  -5  -1 -19 1517.77 66.8400   1
   5 -19   1 1376.90 65.2600   1
   5  19  -1 1461.92 71.7400   1
   5  19   1 1559.50 65.7800   1
   5 -19  -1 1303.30 70.5500   1
   7  13  13 3762.85 107.270   1
  -1  -5 -19 1569.47 72.0300   1
   1 -19   5 1423.05 65.2600   1
  -1  19  -5 1508.91 77.2700   1
   1  19  -5 1527.08 67.0500   1
  -1   5 -19 1532.28 72.6100   1
   1  19   5 1430.39 81.5000   1
  -1   5 -19 1636.48 71.7700   1
  -1  19   5 1483.29 70.0300   1
   1  -5 -19 1454.97 65.1400   1
   1  19   5 1592.33 63.2100   1
  -1  19  -5 1546.62 66.5400   1
  -8   0 -18 628.770 37.3400   1
  18   0   8 642.930 49.8600   1
   0 -18   8 664.340 41.2800   1
  18   8   0 650.720 44.6600   1
  18   0  -8 512.570 50.7300   1
   8   0  18 619.650 43.3800   1
   0  18   8 580.760 44.1100   1
   8 -18   0 562.400 59.6100   1
  12 -12  10 2939.55 106.850   1
  10 -12  12 3151.91 154.030   1
  12 -12  10 2929.58 101.210   1
  12  10 -12 2873.75 92.5800   1
  10  12 -12 3002.68 94.5200   1
  12  12 -10 2926.50 94.6200   1
  12 -10  12 2931.28 107.440   1
  12  12  10 2906.13 96.9200   1
  12  10  12 2971.79 99.4700   1
  10  12  12 2716.80 97.5100   1
  12 -10  12 3037.71 112.770   1
   0  18   8 617.940 73.0400   1
   0   8 -18 767.820 60.5000   1
   8   0  18 753.660 62.1700   1
   0  18  -8 649.500 51.0100   1
   8  18   0 703.330 56.0300   1
  16   6  10 942.640 55.9500   1
   6  10  16 903.150 54.5400   1
  10  16   6 1046.47 66.2400   1
  10   6  16 980.440 65.5500   1
   6  16  10 752.100 65.4400   1
  -8  -2 -18 562.740 41.4600   1
  -8   2 -18 611.720 39.3800   1
   6  16  10 1031.90 64.2200   1
  18   2   8 594.480 50.5900   1
  18   8   2 585.650 43.0400   1
  18  -2   8 655.430 49.8600   1
  18   8  -2 613.870 51.1600   1
  -2 -18   8 585.650 36.2500   1
  18   2  -8 607.500 55.8600   1
  18  -8   2 680.050 43.0900   1
   2   8 -18 644.980 43.9600   1
  -2   8 -18 687.490 43.5100   1
  -2  18   8 723.550 58.9600   1
   8   2  18 650.850 46.3700   1
   2  18   8 620.090 58.1200   1
  -2  18  -8 668.540 49.0100   1
   6  10  16 843.280 58.7900   1
  10 -16   6 937.930 63.7800   1
  10 -16   6 962.660 59.6000   1
  10   6  16 988.970 56.7800   1
  10   6 -16 1044.21 50.6900   1
  16 -10   6 974.920 51.6800   1
 -10   6 -16 1015.06 52.4200   1
  -6 -16  10 1003.96 59.2700   1
  16   6 -10 1051.25 61.2100   1
   6  10 -16 998.180 52.3000   1
  16  10  -6 917.370 58.5500   1
   0  14  14 5970.92 163.080   1
 -14   0 -14 5730.41 158.440   1
  14  14   0 5821.67 159.130   1
  14   0  14 6074.46 169.200   1
   0  14 -14 6212.09 172.150   1
   0  14  14 5893.89 177.470   1
  10  -6  16 931.990 57.0200   1
   8  18  -2 569.540 50.8300   1
   8  18   2 625.380 56.8400   1
  -2   8 -18 577.490 42.3400   1
   2  18  -8 575.230 40.6300   1
   8 -18   2 570.420 53.5300   1
   8   2  18 557.150 58.9300   1
   2  18   8 602.490 55.1600   1
   8  -2  18 599.040 54.2300   1
  -2  18  -8 567.010 58.6600   1
  -2  18   8 620.630 70.9800   1
   2   8  18 590.930 67.8000   1
  16  -6  10 911.550 50.8800   1
   6 -16  10 1006.73 51.9500   1
  10  16  -6 949.580 46.6500   1
  16  10   6 958.730 48.9400   1
   6  16 -10 956.580 50.8100   1
   2 -18   8 603.200 41.9700   1
   7  11  15 -19.550 44.9300   1
  11   7 -15 2.99000 41.0000   1
  15 -11   7 -27.880 32.2700   1
  15   7 -11 -16.780 46.4500   1
   7  11 -15 -13.010 34.4300   1
  11  15  -7 -23.010 37.0700   1
  15  11   7 21.1400 32.6800   1
   7  15  11 5.68000 35.3800   1
  15   7  11 -10.160 32.0500   1
  11  15   7 12.3000 49.2200   1
  11 -15   7 -4.0500 32.9300   1
  13 -15   1 3610.73 144.070   1
  11   7  15 -21.510 45.5300   1
   7  15  11 -23.920 53.3300   1
   7  11  15 -31.950 41.1400   1
   5  17   9 2657.59 84.9500   1
   9   5  17 2567.94 88.0100   1
   5   9  17 2645.04 87.9100   1
  -5  17  -9 2518.64 80.5100   1
  17  -9   5 2728.89 89.7200   1
   5   9 -17 2767.54 90.3900   1
  17   5  -9 2675.14 87.5400   1
  -9   5 -17 2717.27 96.4300   1
  17   9  -5 2819.08 91.6600   1
  17  -5   9 2663.71 86.9900   1
  17   9   5 2618.24 80.8500   1
  -1  15 -13 4265.22 143.810   1
  13   1  15 3981.75 127.920   1
   1  15 -13 4104.78 130.420   1
  13  -1  15 3905.20 112.070   1
 -15  -1 -13 3748.74 119.600   1
 -15   1 -13 3858.29 120.990   1
  -1  15  13 4132.27 123.060   1
   1  13  15 4069.66 115.970   1
   1  15  13 3883.24 108.470   1
  15   1  13 3921.35 111.360   1
  13  15   1 4121.46 116.410   1
  15  -1  13 3977.63 121.920   1
  17   5   9 2576.80 88.6700   1
  13  15  -1 4058.41 112.070   1
   1  13 -15 4059.91 116.990   1
   5 -17   9 2656.17 98.0500   1
  15  13   1 3882.66 107.510   1
  15  13  -1 4080.21 117.870   1
 -13  -1 -15 3842.41 120.210   1
 -13   1 -15 3947.44 123.120   1
   9  17  -5 2524.52 77.8500   1
   9  17   5 2378.87 79.8700   1
   9   5  17 2737.44 99.7600   1
   5  17   9 2722.08 104.650   1
   9 -17   5 2408.03 102.360   1
   5   9  17 2544.16 103.210   1
   9  -5  17 2649.49 109.300   1
  -1  13  15 3924.48 128.900   1
  -1  15  13 3975.62 125.970   1
   1  13  15 4002.67 128.970   1
   1  15  13 3864.88 131.400   1
  -5 -17   9 2514.40 86.8100   1
   3  19   5 2655.71 90.3700   1
   3   5 -19 2437.54 103.640   1
   3   5  19 2670.78 105.660   1
  -3  19   5 2503.55 95.0800   1
  -3  19  -5 2492.19 96.2800   1
   5   3  19 2428.04 99.8500   1
   3  19   5 2501.91 100.450   1
   5  19   3 2486.46 93.9000   1
   3  19  -5 2489.59 88.5400   1
   5  19  -3 2374.29 79.0700   1
   5 -19   3 2465.13 89.3400   1
  -3   5 -19 2528.34 101.610   1
  -5  -3 -19 2559.49 88.0900   1
  -5   3 -19 2542.24 88.4300   1
   3 -19   5 2445.42 100.520   1
  -3 -19   5 2591.63 102.470   1
  19   3   5 2545.58 81.6200   1
  19   5   3 2546.81 86.6000   1
  19   5  -3 2511.45 90.1900   1
  19  -3   5 2465.47 87.8400   1
  19   3  -5 2587.69 93.9000   1
  19  -5   3 2523.19 88.4500   1
  19  -3  -5 2667.44 90.1100   1
  19  -5  -3 2594.31 91.5400   1
  -5  19   3 2717.37 85.1500   1
  -5  19  -3 2520.81 79.8600   1
  -3  19   5 2726.50 97.3200   1
  -3  19  -5 2713.81 90.0500   1
  14  -2  14 2992.59 103.230   1
  14  14   2 2986.04 89.5900   1
   2  14 -14 3002.19 95.5100   1
  14  14  -2 2843.22 84.6700   1
  -6 -18   6 9569.25 247.830   1
 -14   2 -14 2912.09 102.830   1
   2  14  14 2909.85 89.3600   1
   6   6  18 10627.5 272.860   1
  10  10  14 1790.48 72.1100   1
  10 -14  10 1886.76 96.2400   1
  10  14  10 1928.64 73.5400   1
  14  10  10 1903.26 77.1600   1
  10  14 -10 1784.33 66.8800   1
  14 -10  10 1881.47 70.7300   1
  14  10 -10 1848.96 72.2300   1
  10  10 -14 1738.56 67.4800   1
  10 -14  10 1704.71 75.9300   1
 -10 -14  10 1683.74 71.3600   1
   6   6  18 10538.8 259.700   1
  18  -6   6 10296.9 247.200   1
   6  18   6 9955.38 239.560   1
  18   6  -6 10201.4 252.370   1
  -6   6 -18 10774.2 268.470   1
  18   6   6 9937.40 236.790   1
   6  18  -6 10235.6 243.970   1
   6 -18   6 10268.3 275.090   1
 -14  -2 -14 2778.33 102.460   1
  -2  14  14 2876.10 100.360   1
   2  14  14 2967.13 106.480   1
  14   2  14 3127.85 98.4800   1
  12  16   0 3124.72 97.4600   1
   0  16 -12 3072.92 111.080   1
  12   0  16 3245.32 112.340   1
  16   0  12 3067.13 96.6500   1
  16  12   0 2929.65 89.1800   1
 -12   0 -16 2992.22 101.080   1
 -16   0 -12 2983.48 94.7300   1
   0 -16  12 3082.50 111.750   1
   0  20   0 1714.18 64.6000   1
   0   0 -20 1568.37 72.8800   1
  20   0   0 1768.11 72.9700   1
   0   0 -20 1598.10 80.1300   1
   0  20   0 1708.31 85.5400   1
   0  16  12 3301.41 97.0500   1
   0  12  16 3166.67 122.040   1
  12 -16   0 3046.45 140.070   1
   0  16  12 3047.57 115.190   1
   3  13  15 408.830 70.2800   1
   3  15  13 441.080 53.5400   1
  13   3  15 473.250 46.2800   1
  13  -3  15 451.590 40.5900   1
  15   3  13 499.210 47.9500   1
  13  15   3 391.840 40.1600   1
   3  15 -13 412.810 36.2400   1
  15  13   3 420.570 52.0700   1
  13  15  -3 467.850 49.0400   1
  15  13  -3 408.480 47.4200   1
   3  13 -15 455.740 36.1400   1
 -13  -3 -15 433.400 40.1000   1
 -13   3 -15 457.570 37.5200   1
 -15   3 -13 438.050 41.4500   1
  15  -3  13 418.320 41.4500   1
  -3  15 -13 478.280 38.9000   1
   3  15  13 407.310 53.7200   1
   3  13  15 444.880 53.0500   1
  13 -15   3 325.990 49.0600   1
  13 -15   3 441.800 43.9600   1
  -3  15  13 508.470 67.8900   1
  15   3 -13 500.330 54.0100   1
  18  -4   8 4621.94 134.140   1
  -8   4 -18 4347.15 133.070   1
  18   8   4 4344.21 120.390   1
  18   4   8 4156.38 113.260   1
   4 -18   8 4406.34 136.760   1
   8  18  -4 4605.30 130.840   1
   4  18  -8 4392.10 126.250   1
   8  18   4 4349.48 128.690   1
   8 -18   4 4229.73 152.850   1
   4  18   8 4363.88 137.400   1
   8   4  18 4639.59 142.990   1
   8  -4  18 4608.82 162.520   1
   4   8  18 4179.73 137.170   1
  -4  18   8 4298.55 133.990   1
   0  20   2 1044.11 62.8300   1
   2   0 -20 959.670 70.8500   1
   0  20  -2 1100.65 72.5100   1
   0   2 -20 1037.83 67.1300   1
   2  20   0 1096.92 72.0100   1
   0  -2 -20 997.890 63.7100   1
  -2   0 -20 998.710 57.7300   1
   0 -20   2 970.550 59.3200   1
  20   2   0 1016.33 57.3700   1
  20   0   2 976.580 58.8700   1
  20   0  -2 973.040 61.0000   1
  20  -2   0 973.620 50.0900   1
   2   0 -20 855.460 51.3300   1
   0   2 -20 914.670 53.6600   1
  -2  20   0 914.670 59.8400   1
   0  -2 -20 848.530 52.6200   1
   0  20   2 1014.23 52.1800   1
   0  20  -2 960.380 59.0500   1
  -2   0 -20 907.490 50.0600   1
   2  20   0 1027.16 59.7900   1
  12 -14   8 1477.60 84.9100   1
   8  12  14 1476.68 70.1300   1
   8  14  12 1409.50 75.8200   1
  12   8  14 1522.60 73.3700   1
  12  14   8 1597.30 72.4500   1
  14   8  12 1480.93 69.0300   1
  12  -8  14 1568.99 73.6700   1
  14  12   8 1535.50 61.9000   1
  14  -8  12 1592.88 67.6200   1
   8  14 -12 1480.12 60.8000   1
  12  14  -8 1477.22 58.0400   1
  14  12  -8 1425.11 64.9300   1
   8  12 -14 1451.99 59.3500   1
  12   8 -14 1504.59 59.1100   1
  14 -12   8 1425.14 62.9400   1
  12 -14   8 1504.92 73.1500   1
   8  12  14 1517.88 68.5000   1
  -2  16  12 1007.46 74.8000   1
  -2  16 -12 1039.04 64.6500   1
  12 -16   2 927.160 66.9400   1
   2  12  16 963.510 73.4700   1
   2  16  12 1005.46 75.2800   1
  12   2  16 855.450 48.5900   1
  12  -2  16 867.950 52.0100   1
   2  16 -12 924.970 48.3900   1
  12  16   2 987.420 56.7500   1
  12  16  -2 857.740 46.2700   1
  16   2  12 977.560 54.7400   1
  16  12   2 866.940 57.1900   1
  16  -2  12 947.130 51.7100   1
  16  12  -2 1042.93 60.5100   1
 -12  -2 -16 936.930 51.7200   1
   2  12 -16 897.600 48.4300   1
 -12   2 -16 873.550 47.3400   1
 -16   2 -12 909.480 51.4100   1
  -2 -16  12 929.100 53.5600   1
  16   2 -12 973.410 62.1800   1
   2  12  16 916.270 48.3200   1
  12 -16   2 831.380 51.7200   1
   2  16  12 962.530 61.8800   1
  -2  16 -12 1000.44 53.4300   1
  14   8 -12 1563.15 68.5300   1
   4  18   8 4410.64 128.190   1
  -4  18  -8 4115.99 121.580   1
   8   4  18 4329.88 122.520   1
   4   8  18 4494.99 125.880   1
   4   8 -18 4456.13 126.890   1
  18  -8   4 4344.92 130.910   1
  -2  20   0 1029.68 62.1400   1
  18   4  -8 4192.51 119.180   1
  -4 -18   8 4212.54 129.450   1
  18   8  -4 4463.59 121.580   1
  -2  20   2 1.99000 60.6700   1
  -2  -2 -20 9.02000 41.4400   1
  20  -2  -2 41.9700 33.4300   1
   2  -2 -20 -11.370 37.2200   1
  -2  20  -2 -37.810 41.1800   1
  -2  20   2 -21.510 33.3100   1
   2 -20   2 -0.5200 26.3700   1
  -2 -20   2 -14.860 33.5500   1
  20   2   2 -10.630 32.8800   1
  14  14   4 63.6200 47.8000   1
  20   2  -2 -1.5900 34.9900   1
  20  -2   2 -99.900 45.8600   1
  -2  20  -2 -41.810 54.2200   1
   2  -2 -20 31.7500 51.7600   1
   2  20   2 -15.180 56.4900   1
   2  20  -2 18.0800 46.7300   1
  14  14  -4 85.3600 43.7900   1
  14 -14   4 142.190 37.1900   1
   2  20   2 -61.040 47.7400   1
  14   4  14 56.5700 42.6300   1
   4  14  14 -43.390 61.8400   1
   4  14  14 74.1800 43.4400   1
 -14   4 -14 41.9700 22.6700   1
  14   4 -14 -6.9300 41.6600   1
  -1   7 -19 1705.30 81.2100   1
  -1  19  -7 1672.06 78.9500   1
   1 -19   7 1588.34 74.2400   1
  -1  17 -11 1245.93 69.0400   1
  11  -1  17 1191.47 64.6100   1
  11   1  17 1103.55 55.6200   1
   1  17 -11 1144.22 56.7200   1
  11  17   1 1180.46 60.7300   1
  11  17  -1 1257.14 63.5000   1
  17   1  11 1126.46 56.4600   1
  -7  -1 -19 1604.92 65.8400   1
   7  19  -1 1622.71 69.4900   1
  -1  19  -7 1614.40 61.0600   1
   1  19   7 1666.08 75.0600   1
  -1  19   7 1680.23 74.1100   1
  19  -1   7 1612.66 70.3700   1
  19  -7  -1 1557.19 67.9100   1
  19  -7   1 1667.11 71.0000   1
  19   7  -1 1643.24 71.3200   1
  19   7   1 1633.59 71.5100   1
   1  19   7 1645.47 89.1400   1
  19   1   7 1585.57 65.3700   1
  -1 -19   7 1605.98 66.6900   1
  -1  11  17 1339.86 80.1400   1
   1  11  17 1123.15 67.5700   1
  -1  17  11 1283.50 72.6100   1
  11 -17   1 1105.29 78.9100   1
   1  17  11 1242.97 84.7900   1
  17  -1  11 1177.76 56.1300   1
   7   1  19 1560.81 72.9400   1
   1   7 -19 1772.11 96.5800   1
  -1  19   7 1675.76 79.1800   1
   7  -1  19 1716.86 83.1600   1
   1   7  19 1709.26 84.9100   1
  -5  19  -5 4527.93 133.800   1
  19  -5   5 4631.91 125.690   1
  19   5  -5 4564.98 123.940   1
  -5 -19   5 4263.60 129.930   1
  19   5   5 4448.62 121.740   1
  -5   5 -19 4750.89 136.580   1
  -7   1 -19 1633.72 72.9500   1
   5 -19   5 4309.53 144.270   1
   5  19  -5 4456.16 127.480   1
   5  19   5 4564.69 140.250   1
  11 -13  11 3476.30 141.690   1
  11  11  13 3355.10 109.530   1
  11  13  11 3331.58 108.160   1
  17  11  -1 1194.85 62.5800   1
 -11   1 -17 1072.66 53.8300   1
   1  11 -17 1160.24 54.3800   1
   1 -17  11 1164.18 63.2300   1
  -1 -17  11 1200.87 58.8700   1
 -17   1 -11 1000.65 53.5200   1
  17   1 -11 1102.93 62.0600   1
  -1  17  11 1151.53 55.5400   1
   1  17  11 1120.87 55.3900   1
  11  -1  17 1134.47 56.3100   1
  11   1  17 1267.39 61.7500   1
  13  11  11 3467.62 112.450   1
  11  13 -11 3483.36 99.7200   1
  13 -11  11 3458.35 107.830   1
  13  11 -11 3319.07 105.680   1
  11  11 -13 3444.05 98.2400   1
  11 -13  11 3696.40 127.300   1
  19  -1  -7 1622.40 63.2500   1
  17  11   1 1036.84 51.0200   1
 -11  -1 -17 1123.65 54.8100   1
   7  19   1 1568.40 64.6600   1
   7 -19   1 1484.79 82.4600   1
   5   5  19 4525.26 146.120   1
   1  19  -7 1775.79 77.5500   1
   4  12  16 21.4100 45.8600   1
  16  12   4 29.7300 46.3000   1
   4  16 -12 14.4700 31.6500   1
  16   4  12 26.1800 42.6200   1
  12  16   4 24.0000 44.8400   1
  12   4  16 56.0900 41.3800   1
   4  16  12 75.2400 63.0200   1
  16   4 -12 7.32000 47.6900   1
  12 -16   4 60.3400 39.8600   1
   4  16  12 13.0600 49.1500   1
   0  -4 -20 552.840 46.3700   1
   0  20  -4 738.710 54.6500   1
   4  12  16 3.16000 65.0800   1
  12 -16   4 96.4600 44.9200   1
  16  12  -4 39.2800 33.6900   1
  16  -4  12 23.5800 32.3800   1
 -16   4 -12 56.5600 34.5500   1
  12  16  -4 10.3000 31.0700   1
  -4  20   0 719.020 63.9700   1
   4   0 -20 735.870 57.5900   1
   0  20   4 544.190 68.5800   1
   0  20  -4 697.530 62.6900   1
   0   4 -20 748.360 55.2400   1
   4  20   0 768.710 63.3800   1
  -4   0 -20 606.770 48.5900   1
   0 -20   4 588.920 43.1200   1
  20   0   4 686.990 54.1100   1
  20   4   0 664.380 44.5800   1
  20  -4   0 647.600 51.4100   1
  20   0  -4 571.990 44.1000   1
   0   4 -20 628.320 42.2500   1
  -4  20   0 628.040 51.9700   1
   0  20   4 589.000 45.0400   1
   3  19   7 2827.04 97.8000   1
  -3  19  -7 2745.20 95.9000   1
  -3  19   7 2695.63 85.0100   1
   7   3  19 2813.24 94.9600   1
   9   7 -17 2981.33 94.4500   1
   7   9  17 3033.45 97.6100   1
   9   7  17 3184.68 104.850   1
  15   5  13 37.2500 31.2800   1
  11   3  17 22.7500 37.3900   1
  13 -13   9 1607.22 73.2000   1
  11 -17   3 -6.0900 39.2300   1
   3  17  11 -11.830 34.7400   1
   3  11  17 -60.630 40.9900   1
 -17   3 -11 -43.380 35.1300   1
  17   3 -11 17.9600 33.6700   1
  19  -7   3 2804.61 93.5700   1
  19   3  -7 2948.86 96.2500   1
  19   7  -3 2668.18 83.1500   1
  19  -3   7 2789.93 96.4100   1
  -3 -19   7 2491.71 98.8800   1
  19   3   7 2765.17 85.8100   1
  19   7   3 2859.31 92.9300   1
  -7   3 -19 2706.45 92.9800   1
   3 -19   7 2649.04 101.760   1
  -3   7 -19 2817.17 102.180   1
   7  19  -3 2879.31 94.0300   1
   3  19  -7 2679.74 92.5700   1
  -3  17  11 -66.800 61.3000   1
   3  11  17 54.9700 64.2900   1
  11 -17   3 -18.740 44.5600   1
   3  17  11 154.990 62.8300   1
  11   3  17 0.13000 33.7200   1
  11  17   3 -4.1700 33.3800   1
  11  17  -3 -11.070 43.3700   1
   7  19   3 2602.42 94.2400   1
  17  11   3 9.99000 43.0700   1
  13   5  15 -16.170 44.9000   1
  13  15   5 18.2600 49.0800   1
   7 -19   3 2765.74 118.090   1
   3  19   7 2687.08 96.6200   1
   7   3  19 2906.34 106.430   1
  -3  19  -7 2730.27 110.610   1
   3   7  19 2727.56 105.410   1
   7  -3  19 2885.44 111.030   1
   9  13  13 1506.68 80.1400   1
  13   9  13 1452.08 60.7200   1
  13  13   9 1447.22 60.5400   1
  -3  19   7 2632.97 97.7500   1
  15  13   5 120.830 47.1700   1
   5  15 -13 19.1600 29.0900   1
  15  13  -5 9.42000 46.0000   1
 -13   5 -15 67.8000 31.8700   1
  15   5 -13 7.41000 43.4900   1
  13   5 -15 50.5900 32.4900   1
 -15   5 -13 58.7300 34.3600   1
  13 -15   5 42.7100 38.9400   1
   5  13  15 22.0000 33.4700   1
   5  15  13 32.4200 48.2100   1
  13  -9  13 1643.06 69.6600   1
  13  13  -9 1626.72 68.2500   1
   9  13 -13 1576.60 63.1200   1
  17   3  11 -35.010 41.5600   1
  13   9 -13 1575.60 60.4900   1
  13 -13   9 1617.20 71.1600   1
   7   9  17 3042.15 111.610   1
   9   7  17 2919.58 98.9000   1
   9 -17   7 3055.43 119.290   1
   7  17   9 2934.69 97.3600   1
   9  17   7 3246.71 110.220   1
   7 -17   9 3009.97 107.370   1
   7  17  -9 2817.54 85.3600   1
   9  17  -7 2994.03 89.0300   1
  17   7   9 3034.32 99.7900   1
  17   9   7 3054.79 97.8800   1
  17  -7   9 2999.91 101.810   1
  17   9  -7 2964.02 101.160   1
  17   7  -9 3073.79 90.5800   1
  -7 -17   9 2834.97 103.950   1
  17  -9   7 3143.10 94.4200   1
   7   9 -17 2944.28 98.5000   1
  13 -15   5 48.6500 43.6700   1
   5  13  15 52.1300 62.8500   1
   5  15  13 57.2500 44.3500   1
  -9   7 -17 3181.28 114.860   1
 -11  -3 -17 12.0300 31.8800   1
   3  11 -17 -0.2500 33.1700   1
  17  -3  11 74.8000 38.0000   1
  17  11  -3 16.5900 42.9600   1
   9  -7  17 3124.54 126.410   1
  10  16  -8 327.290 44.8300   1
   8  16 -10 381.240 42.2000   1
  16  10   8 327.740 50.6300   1
  16   8  10 385.280 47.6800   1
   8 -16  10 337.950 35.3400   1
  10  16   8 385.630 58.1100   1
   8  16  10 315.620 56.8200   1
  10   8  16 380.770 59.2800   1
   8  10  16 283.610 46.9200   1
  10 -16   8 290.630 46.9000   1
  10  -8  16 357.120 46.8600   1
   2   4 -20 265.920 52.8000   1
   4   2 -20 261.450 53.0500   1
  -4  20   2 246.450 54.3100   1
  -2  20   4 212.460 65.1400   1
  -4  20  -2 211.300 48.4700   1
   4   2  20 191.060 52.0600   1
   2  20   4 340.390 53.7800   1
  -2   4 -20 305.970 33.4600   1
  -2  20  -4 280.780 48.5200   1
   2  -4 -20 315.510 34.4000   1
  -2  20   4 264.590 52.3800   1
  -4  20  -2 271.320 47.2500   1
  -4  20   2 256.920 38.2600   1
   4  -2 -20 315.670 45.3000   1
  20  -4  -2 337.930 37.8600   1
  20  -2  -4 258.480 47.4700   1
  20  -4   2 318.620 45.1100   1
  20   2  -4 314.840 51.8000   1
  20  -2   4 327.410 47.5000   1
  20   4  -2 282.650 50.9000   1
  20   2   4 388.690 50.2800   1
  20   4   2 308.880 47.7400   1
  -2 -20   4 270.830 37.1600   1
   2 -20   4 263.220 36.2400   1
   4 -20   2 200.430 37.9500   1
  -4   2 -20 236.850 34.0600   1
  -4  -2 -20 250.000 32.9300   1
  -2   4 -20 204.120 38.9100   1
   4  20  -2 200.070 47.4900   1
   2  20  -4 373.750 52.9600   1
   4  20   2 240.000 57.5600   1
   2  20   4 312.140 63.3100   1
  -2  20  -4 207.760 54.5700   1
  10   8  16 374.370 48.0100   1
   8  10  16 340.750 48.5400   1
  10   8 -16 293.900 45.4300   1
  -8 -16  10 346.140 33.0700   1
  16 -10   8 359.250 41.3400   1
   8  10 -16 322.690 39.7500   1
  16   8 -10 314.470 38.9900   1
  16  10  -8 386.930 48.7700   1
  16  -8  10 368.930 41.6400   1
   0  18 -10 653.150 52.0200   1
  18   6   8 5304.69 147.490   1
  18   8   6 5300.53 150.120   1
  -8   6 -18 5529.16 155.380   1
  18  -6   8 5405.77 140.470   1
  18   0 -10 572.250 58.1200   1
   6  18   8 5472.95 155.390   1
  -6 -18   8 5327.66 158.850   1
  18   6  -8 5550.63 154.040   1
  18  -8   6 5751.99 158.070   1
   6   8 -18 5453.67 151.460   1
   6   8  18 5448.96 150.120   1
   8   6  18 5247.83 138.070   1
   0  10  18 549.680 66.5300   1
   0  18  10 539.770 56.5700   1
  10   0  18 584.230 45.4900   1
   0  10 -18 649.190 42.3100   1
   0 -18  10 582.740 40.4800   1
  18  10   0 661.090 58.3400   1
 -10   0 -18 627.570 42.0400   1
  18   0  10 667.370 51.5000   1
  10  18   0 600.490 43.0200   1
  10   0  18 590.100 54.4000   1
   0  18  10 691.150 73.5600   1
   0  10 -18 667.560 56.6600   1
  10 -18   0 678.000 65.3700   1
   8   6  18 5146.16 148.090   1
   6   8  18 5018.98 148.110   1
   8 -18   6 5202.23 159.590   1
   8  18   6 5277.75 150.850   1
  18   8  -6 5579.54 153.790   1
   6  18  -8 5098.50 140.620   1
   6 -18   8 5420.06 158.910   1
   8  18  -6 5369.84 147.620   1
   9 -15  11 942.000 57.1400   1
  15  11   9 860.120 56.8300   1
  15   9  11 944.730 50.2500   1
   9  15 -11 909.780 52.5100   1
  15  -9  11 862.960 49.9100   1
  15  11  -9 807.870 46.2900   1
   9  11 -15 892.570 53.2700   1
  15   9 -11 970.940 56.7700   1
  15 -11   9 865.590 48.7000   1
  11  15  -9 976.360 55.9300   1
  -9 -15  11 796.060 50.3400   1
   9  11  15 841.710 58.9100   1
  11 -15   9 794.610 55.8700   1
  11   9 -15 839.220 45.4200   1
  11 -15   9 814.770 63.2800   1
   9  11  15 871.960 56.4200   1
  11   9  15 908.400 66.5100   1
   9  15  11 846.230 62.4800   1
  11  15   9 916.270 66.1000   1
  11  -9  15 975.200 60.0400   1
  14  14   6 113.880 51.2000   1
  14   6  14 151.430 46.5200   1
   6  14  14 44.4200 56.7300   1
  10  18  -2 -3.6800 30.9400   1
  10  18   2 -10.330 34.4600   1
   2  18 -10 85.4400 36.5700   1
 -10   2 -18 19.4600 30.6100   1
   6  14  14 128.770 45.2000   1
   2  10  18 22.2200 57.5900   1
  -2  18  10 -15.160 45.7800   1
   2  18  10 -94.870 57.9800   1
  10 -18   2 -15.120 42.3300   1
  14 -14   6 59.8700 37.6600   1
  14   6 -14 137.140 34.2900   1
   6  14 -14 116.280 34.6000   1
  14  -6  14 100.210 35.0900   1
  -2  18 -10 -9.3200 25.3000   1
   2  18  10 -43.850 45.4100   1
  -2  18  10 39.0700 49.0200   1
  18   2 -10 7.89000 34.9200   1
  18  10  -2 47.2300 33.5300   1
  18  -2  10 -11.460 27.4700   1
  18  10   2 32.0300 33.8600   1
  18   2  10 25.9400 29.4900   1
   4  20   4 1672.71 75.6400   1
  20  -4  -4 1640.49 72.4600   1
  20  -4   4 1701.41 63.0700   1
  20   4  -4 1606.43 62.9900   1
  -4  20  -4 1703.53 63.7900   1
  20   4   4 1634.49 70.5700   1
  -4 -20   4 1516.84 68.7200   1
  -4  20   4 1695.51 73.9600   1
  12  12  12 6356.23 172.880   1
  12 -12  12 6554.53 196.770   1
  12  12 -12 6088.06 163.840   1
  12 -12  12 5964.14 175.720   1
  -4  20   4 1635.86 81.4400   1
   4   4 -20 1581.66 76.8300   1
   4   4  20 1667.70 85.8400   1
   4  20   4 1675.66 81.5500   1
   4  20  -4 1668.10 72.2100   1
   4 -20   4 1566.33 66.8700   1
  -4   4 -20 1652.86 68.1900   1
  -7   5 -19 5544.90 151.540   1
  -5 -19   7 5313.41 158.200   1
  19   7  -5 5380.00 137.430   1
  19  -5   7 5608.15 144.550   1
  19   5  -7 5543.90 145.960   1
  19  -7   5 5751.66 154.810   1
   5  11  17 1456.06 85.9600   1
  11 -17   5 1335.51 78.1800   1
   5  17  11 1664.92 88.6600   1
  11  -5  17 1558.42 72.4700   1
  11   5  17 1545.11 76.6100   1
  11  17   5 1494.83 68.9000   1
   5  17 -11 1499.15 59.5300   1
  11  17  -5 1516.58 65.7700   1
  17   5  11 1375.64 64.5800   1
  17  11   5 1525.12 68.8300   1
  17  -5  11 1461.21 56.9300   1
  17  11  -5 1508.38 68.1200   1
   5  11 -17 1470.11 62.6400   1
 -11   5 -17 1514.58 70.3400   1
  -5 -17  11 1346.94 63.5100   1
  17   5 -11 1475.24 68.7000   1
  17 -11   5 1422.25 60.6900   1
  -5  17 -11 1446.47 61.9700   1
   5  11  17 1490.91 68.7100   1
   5   7  19 5482.45 141.820   1
  11 -17   5 1394.38 62.9600   1
  11   5  17 1444.43 63.0600   1
  -5  19  -7 5714.73 160.570   1
   7   5  19 5944.60 163.510   1
   5  19   7 5281.53 147.390   1
   7  19   5 5583.63 159.770   1
   5  17  11 1494.56 62.3700   1
   5   7  19 5326.22 157.490   1
   7   5  19 5604.84 168.170   1
   5  19   7 6012.55 167.760   1
   5  19  -7 5633.06 157.100   1
   7  19  -5 5516.50 144.320   1
   5 -19   7 5434.72 164.580   1
  -5   7 -19 5533.26 162.620   1
  19   7   5 5542.53 144.870   1
  19   5   7 5296.47 141.870   1
  16 -12   6 767.860 49.4400   1
  12   6 -16 734.460 51.7800   1
  12 -16   6 785.100 60.6500   1
   6  12  16 743.120 73.0700   1
   6  16  12 731.510 56.6700   1
  12   6  16 753.170 50.0000   1
  12 -16   6 737.740 43.5600   1
  12  -6  16 794.730 52.4100   1
  12  16   6 751.500 59.5500   1
  16   6  12 767.570 46.1100   1
  16  12   6 744.920 58.0000   1
   6  16 -12 754.410 46.5300   1
  12  16  -6 824.310 50.6300   1
   6  12  16 696.940 56.0400   1
  16  -6  12 788.760 48.1200   1
  16  12  -6 757.800 53.5800   1
   0  20  -6 777.100 45.6500   1
   0  20   6 714.540 55.0400   1
  20   6   0 713.370 56.9900   1
  -6 -16  12 703.540 46.7900   1
  20  -6   0 789.180 57.1800   1
   6   0  20 663.970 51.6400   1
  20   0  -6 688.960 46.0200   1
   0  20   6 612.390 56.2800   1
  20   0   6 687.310 54.1000   1
   0 -20   6 655.260 45.6000   1
   0  20  -6 742.350 61.1400   1
  -6   0 -20 693.390 46.9400   1
   6  20   0 658.250 55.1900   1
   6  16  12 712.550 47.1000   1
   0   6 -20 763.890 62.2500   1
   6  12 -16 708.200 45.3000   1
  16   6 -12 740.230 46.2800   1
 -12   6 -16 725.740 44.0600   1
  20   6   2 2085.33 83.6400   1
  10 -18   4 822.550 63.4100   1
  18   4  10 829.440 55.2400   1
  10  18  -4 754.960 44.7900   1
   4  18 -10 837.310 50.3500   1
  10  18   4 837.760 49.2200   1
  10   4  18 873.120 68.3000   1
   4  18  10 898.930 60.6800   1
  14  10  12 1818.89 68.1800   1
  12  10  14 1936.81 74.0200   1
  -2   6 -20 2153.37 93.9000   1
   2  20   6 2000.85 71.4700   1
  -2  20  -6 2111.21 80.6100   1
  -2  20   6 2123.67 82.0500   1
  20  -6  -2 2028.77 71.2800   1
  20  -2  -6 2026.69 76.8400   1
  20  -6   2 2049.05 73.2600   1
  20   2  -6 2089.83 81.4700   1
  -2   6 -20 2150.39 85.7900   1
  12  10 -14 1846.33 66.7100   1
  14  10 -12 1923.04 74.2600   1
  10  12 -14 1936.68 72.7400   1
  10  14 -12 1864.83 67.1800   1
  14 -10  12 1859.73 73.3900   1
  12 -10  14 1948.05 84.6800   1
  20  -2   6 2003.87 75.4700   1
  20   6  -2 2053.27 70.5200   1
  20   2   6 2087.30 82.0200   1
  -2 -20   6 2072.14 81.8700   1
   2 -20   6 2015.50 84.8000   1
  -6   2 -20 2120.38 81.5900   1
  -6  -2 -20 2043.59 80.0100   1
   6  20  -2 2386.43 90.4600   1
   6 -20   2 2075.56 99.3200   1
   6  20   2 2144.58 84.1200   1
   2  20   6 2018.79 91.1100   1
  -2  20  -6 2235.87 93.1100   1
  -2  20   6 2242.50 98.3200   1
   6   2  20 2360.60 99.4600   1
   2   6 -20 2273.96 108.050   1
   6  -2  20 2232.55 86.6700   1
   2   6  20 2157.11 90.2000   1
   4  10  18 801.380 61.8100   1
  10  14  12 1854.38 84.5300   1
  10  12  14 2066.82 90.2900   1
  10  -4  18 804.280 58.1200   1
   4  18  10 879.690 61.6000   1
  -4  18  10 862.450 69.8300   1
  10 -18   4 746.830 53.5600   1
  10   4  18 810.540 43.5000   1
  -4  18 -10 887.550 51.7300   1
   4  10  18 880.070 56.7500   1
  18 -10   4 904.180 47.0000   1
  18   4 -10 889.820 49.5500   1
   4  10 -18 923.330 48.9800   1
  -4 -18  10 839.520 50.0900   1
 -10   4 -18 863.130 47.1700   1
  18  10  -4 835.110 58.6500   1
  18  -4  10 734.680 49.5800   1
   4 -18  10 873.940 51.7900   1
  18  10   4 784.920 46.7600   1
  12  14 -10 1928.23 66.7700   1
  12 -14  10 1967.76 97.8200   1
  12  14  10 1899.69 71.5300   1
  14 -12  10 1904.54 80.4500   1
  14  12 -10 1926.02 74.1400   1
  14  12  10 1932.73 75.5700   1
  14 -12  10 1959.06 76.6800   1
  12 -14  10 2024.92 84.1000   1
  12 -14  10 1948.05 85.3600   1
   1   9  19 55.4300 41.7100   1
   9  -1  19 66.1400 44.2800   1
   9   1  19 48.4000 45.8300   1
  -9  -1 -19 19.6500 30.6400   1
  -9   1 -19 43.6700 28.7600   1
  13  15  -7 18.3200 44.3600   1
   1  21   1 2030.52 71.3400   1
  -1  -1 -21 1900.67 83.2200   1
   1  21  -1 2046.61 71.1700   1
  15  13  -7 18.9700 45.4600   1
  15   7 -13 7.00000 31.8100   1
  13   7 -15 8.81000 44.6700   1
  13 -15   7 43.5300 36.7700   1
   1  -1 -21 1885.87 74.3900   1
  -1  21   1 1951.33 77.9000   1
  -1  21  -1 2152.10 74.0700   1
  -1   1 -21 1975.45 82.7200   1
   1   1 -21 2075.02 92.4900   1
   1  21   1 2171.26 90.8500   1
  -1   1 -21 1990.97 92.6600   1
  -1  -1 -21 2096.12 90.7000   1
   7  13  15 4.80000 34.0400   1
   1  21  -1 2008.18 90.4700   1
  -1  21  -1 2101.83 94.8100   1
  -1  21   1 2071.24 95.4200   1
   7  15  13 21.7600 35.5600   1
  13   7  15 35.7600 35.1600   1
  15   7  13 -10.460 41.4200   1
  13  15   7 -36.040 45.8200   1
  15  13   7 -65.170 48.1100   1
  21   1   1 2012.09 74.8800   1
  21   1  -1 2033.61 79.9100   1
  21  -1   1 1972.10 70.1200   1
  21  -1  -1 2010.81 70.2700   1
   1   1 -21 1963.88 78.7300   1
   1  -1 -21 2036.18 92.3900   1
  -1  19   9 -11.090 64.4700   1
   1  19   9 -23.930 64.9100   1
  15  -7  13 20.5500 33.0000   1
   7  13  15 0.97000 60.8100   1
   9 -19   1 65.4300 34.7600   1
   1  19  -9 70.2500 41.2100   1
   9  19   1 9.11000 47.4000   1
   9  19  -1 -4.7700 46.9600   1
   7  15  13 -18.330 62.7900   1
   7  15 -13 8.12000 33.9200   1
  19   1   9 12.0700 39.1800   1
  19  -1   9 9.71000 37.9500   1
  19   9   1 45.9800 44.0000   1
  19   9  -1 20.9000 34.4400   1
  19   1  -9 -17.240 33.8100   1
  19  -1  -9 47.3400 51.7900   1
  19  -9   1 56.9300 46.7600   1
  -1  19   9 51.6400 46.1000   1
   1  19   9 -31.190 45.5800   1
  -1  19  -9 73.8100 38.0600   1
 -15   1 -15 1667.10 73.3900   1
 -15  -1 -15 1533.69 70.4100   1
  15  15  -1 1816.41 72.0700   1
  15  15   1 1640.45 62.8700   1
  15   1  15 1832.90 70.1800   1
  15  -1  15 1864.02 72.0700   1
   1  15 -15 1766.35 77.4900   1
   1  15  15 1755.46 83.8200   1
  -1  15  15 1871.32 84.0700   1
  -1  21   3 109.420 64.7300   1
   3  -1 -21 133.130 29.7400   1
  21  -3  -1 106.350 35.9600   1
  21  -1  -3 158.080 51.8900   1
  21  -3   1 182.610 35.5700   1
  21   1  -3 129.040 46.0400   1
  21  -1   3 71.7100 47.6800   1
  21   3  -1 119.990 51.4600   1
  21   1   3 138.650 47.7100   1
  21   3   1 159.060 51.0600   1
  -1 -21   3 165.840 39.6100   1
   1 -21   3 124.320 39.8300   1
  -3  -1 -21 175.190 38.5900   1
  -3   1 -21 126.130 39.6800   1
  -1   3 -21 141.460 43.3500   1
   3  21  -1 171.610 49.4700   1
   3  21   1 203.930 58.9400   1
   1  21  -3 174.440 40.4700   1
   1  21   3 202.240 62.7000   1
   1   3 -21 177.920 36.2100   1
  -3  21   1 148.330 48.0200   1
  -3  21  -1 109.010 47.3300   1
  -1  21   3 119.790 51.6800   1
   1  -3 -21 196.250 37.3500   1
  -1   3 -21 138.870 32.8100   1
   1  21   3 210.280 38.2100   1
  -1  21  -3 132.470 46.4900   1
  -1  -3 -21 112.970 39.0200   1
   1  21  -3 207.560 51.3700   1
   3  21   1 125.410 52.1600   1
   1   3 -21 143.160 49.6100   1
  -1  21  -3 192.180 52.0500   1
   3   1 -21 139.370 41.4700   1
  -3  21   1 175.140 60.8400   1
  -3  21  -1 172.110 43.4600   1
   9   9  17 1097.33 76.8300   1
   9  17   9 1021.41 72.2800   1
   9 -17   9 931.660 53.9100   1
  17   9   9 925.780 55.9600   1
   9  17  -9 860.420 49.5100   1
  17   9  -9 901.050 58.5200   1
  17  -9   9 1063.69 52.8200   1
   9   9 -17 1006.81 53.9200   1
   9   9  17 1015.14 56.9500   1
   3  19   9 490.710 45.0200   1
   1  15  15 1662.57 64.9000   1
  -3  19   9 473.450 67.3000   1
  -3  19  -9 535.000 50.5100   1
   3   9  19 639.560 71.7800   1
   9  -3  19 592.900 62.0100   1
   9   3  19 548.570 62.7700   1
   3  19   9 541.300 55.2900   1
   9 -19   3 564.910 57.1500   1
   3  19  -9 590.640 46.1400   1
   9  19   3 525.780 55.2000   1
   9  19  -3 660.600 50.4500   1
  -9  -3 -19 486.670 35.9300   1
  19   3   9 559.600 51.9800   1
  19   9   3 552.960 55.2400   1
   3 -19   9 535.100 40.7500   1
  -9   3 -19 570.810 40.3600   1
  19  -3   9 595.740 48.9000   1
  19   9  -3 617.720 53.0100   1
  -3 -19   9 549.360 40.5800   1
  19   3  -9 518.570 55.6600   1
   3   9 -19 601.700 43.4200   1
  19  -9   3 591.100 41.6400   1
  -3  19   9 603.660 45.7600   1
   9   3  19 619.390 47.1200   1
  -3  19  -9 545.060 44.3500   1
   4  20   6 1940.36 76.5800   1
   0  16  14 1588.34 92.2300   1
   0  16 -14 1813.46 84.8000   1
  14   0  16 1727.65 68.8200   1
  20   4   6 1868.66 66.7800   1
  -4  20  -6 1880.55 79.7000   1
  -4  20   6 1722.60 77.7000   1
   4   6  20 1829.78 91.4900   1
   6   4  20 1864.84 91.4000   1
   8  18   8 4930.85 144.990   1
   4  20   6 1731.90 77.4000   1
   8   8  18 4683.41 150.610   1
   8   8 -18 4635.24 135.920   1
  18  -8   8 4739.74 136.800   1
  18   8  -8 4743.58 141.640   1
  18   8   8 4833.99 130.830   1
   8  18  -8 4829.97 132.620   1
   8 -18   8 4684.63 145.340   1
   6  20   4 1835.64 83.5500   1
   8   8  18 4719.58 144.290   1
   4  20  -6 1847.14 74.7200   1
   6 -20   4 1725.21 86.0900   1
   6  20  -4 1793.80 67.3400   1
  -4   6 -20 1814.67 76.0700   1
   4 -20   6 1773.90 78.8600   1
  -6   4 -20 1888.15 75.2500   1
  20   6   4 1833.96 75.7000   1
  -4 -20   6 1840.78 81.5600   1
  20   6  -4 1806.83 75.9500   1
   0  16  14 1740.98 74.4100   1
 -16   0 -14 1488.18 72.0400   1
 -14   0 -16 1502.99 62.8800   1
  16  14   0 1790.49 73.7900   1
  14  16   0 1827.04 74.0400   1
  20  -4   6 1798.13 72.2900   1
  20   4  -6 1857.30 68.6000   1
  20  -6   4 1816.91 66.8700   1
  -4  20   6 1914.92 70.3000   1
  16   0  14 1750.89 69.7800   1
  -4  20  -6 1955.63 77.1900   1
   0  14  16 1623.83 91.5000   1
   2  14 -16 320.520 35.6300   1
  14  16  -2 332.460 49.0600   1
  16  14   2 375.060 48.8600   1
  16  -2  14 294.550 38.7200   1
  14  16   2 313.980 39.6600   1
  16   2  14 347.770 43.5000   1
  14  -2  16 298.110 42.6500   1
  14   2  16 312.470 35.4200   1
  10  10  16 56.9300 57.2000   1
   2  16  14 257.110 65.1200   1
  10  16  10 7.05000 38.5700   1
  16  10  10 12.8000 48.7500   1
  10  16 -10 16.7700 36.3700   1
  16  10 -10 10.1300 45.9200   1
  10  10 -16 -28.360 40.6700   1
   2  14  16 284.660 70.1700   1
  -2  16  14 308.130 67.6000   1
  -2  14  16 458.160 52.1100   1
  14 -16   2 256.040 48.5600   1
  10  10  16 23.1400 45.8500   1
   2  16 -14 319.650 37.8700   1
   2  16  14 310.470 48.7200   1
   2  14  16 335.830 47.6100   1
 -16   2 -14 311.400 40.6200   1
 -14   2 -16 361.140 39.4200   1
  16  14  -2 303.310 37.4600   1
  14   8 -14 100.010 41.9100   1
   8  14 -14 70.9000 37.7900   1
  14  14  -8 48.0000 41.1000   1
  14  14   8 55.1400 35.7200   1
  14 -14   8 120.270 35.1500   1
  14 -14   8 103.100 33.4000   1
   8  14  14 101.020 36.4100   1
  14  -8  14 101.450 35.4000   1
  14   8  14 118.780 49.3700   1
   8  14  14 96.0500 58.4900   1
  -2  16 -14 377.830 42.5200   1
  17  13  -1 541.720 55.7000   1
  17  13   1 576.700 44.1100   1
   1  13 -17 496.780 36.4900   1
  17  -1  13 541.900 44.1500   1
  17   1  13 508.520 43.8700   1
  13  17  -1 546.980 52.2100   1
  13  17   1 506.550 53.4100   1
  13  -1  17 500.740 46.5800   1
  13   1  17 491.490 51.8300   1
   1  17 -13 450.750 40.3200   1
   1  17  13 441.910 67.1800   1
  -1  17  13 551.360 58.0600   1
   1  13  17 559.270 72.7900   1
  -1  13  17 446.540 66.1700   1
   3  21   3 68.2100 37.5500   1
  -3  21  -3 -7.8500 40.2900   1
   3  -3 -21 -3.0100 27.6700   1
   3  15  15 29.6900 48.1600   1
  15   3  15 37.4900 44.4400   1
  15  -3  15 52.3800 36.9000   1
  21  -3  -3 -15.170 49.0200   1
  21   3  -3 -17.100 35.1900   1
  21  -3   3 18.2700 46.0200   1
  11   7  17 1011.36 56.9400   1
  11 -17   7 868.610 62.1000   1
   7  17  11 982.900 65.3500   1
   7  11  17 1047.95 59.0200   1
 -11   7 -17 1008.91 55.9200   1
  11   7 -17 1002.31 58.2000   1
  -7 -17  11 836.240 55.3400   1
  17 -11   7 983.300 52.9700   1
  17   7 -11 1035.34 61.7600   1
   7  11 -17 945.210 49.9300   1
  17  11  -7 973.070 59.5300   1
  17  -7  11 1012.43 51.5600   1
  11  17  -7 1021.00 57.0500   1
   7  17 -11 937.650 49.3800   1
  17  11   7 981.850 57.6600   1
  17   7  11 987.030 60.7700   1
  11  17   7 986.620 66.1300   1
  11   7  17 1004.27 57.6900   1
   7  17  11 874.340 59.3800   1
  11  -7  17 1038.14 61.8300   1
   7   7  19 5086.50 159.550   1
   7  19   7 5398.38 178.880   1
   7 -19   7 4973.50 155.230   1
   7  19  -7 5058.92 139.680   1
  19   7   7 5457.44 178.870   1
  -7   7 -19 5568.29 194.500   1
  19   7  -7 5053.63 133.830   1
  19  -7   7 5288.57 171.480   1
   7   7  19 5411.45 173.930   1
   7  11  17 996.060 77.7700   1
  21   3   3 145.320 47.7400   1
  15  15   3 22.8800 47.1800   1
  15  15  -3 -45.540 46.0100   1
  -3   3 -21 -28.680 34.2200   1
   3  21  -3 -11.420 35.2300   1
   3  21   3 7.96000 58.6000   1
  -3  21  -3 -20.290 48.0700   1
  -3  21   3 -0.7900 53.4600   1
  13 -13  11 3632.82 122.540   1
  13 -13  11 3819.08 128.550   1
  13  11 -13 3766.31 111.570   1
  13  13 -11 3678.17 110.560   1
  11  13 -13 3709.27 114.990   1
  13 -11  13 3663.15 122.370   1
  13  13  11 3851.04 114.160   1
  13  11  13 3660.96 108.840   1
 -15   3 -15 5.59000 33.4900   1
  11  13  13 3990.72 126.830   1
  -3  21   3 -49.420 33.1100   1
   1  17  13 605.250 58.7400   1
   3  15  15 -27.580 34.6300   1
  -1  17  13 493.760 55.7100   1
  11 -17   7 1051.51 73.8100   1
 -17   1 -13 447.330 40.7600   1
 -13   1 -17 517.880 42.2100   1
 -13  -1 -17 499.450 40.6300   1
  -1  17 -13 508.880 50.8300   1
  10  -6  18 2707.00 107.980   1
   6  10  18 2801.51 107.980   1
   6  18  10 2540.96 84.3400   1
  10   6  18 2668.12 88.6100   1
   6  10  18 2649.37 91.7900   1
  18 -10   6 2679.25 88.6900   1
  18   6 -10 2663.05 86.3900   1
   6  10 -18 2788.68 91.5800   1
  -6 -18  10 2356.85 98.3200   1
 -10   6 -18 2707.71 97.6000   1
  18  10  -6 2824.26 96.8600   1
  18  -6  10 2739.02 96.1400   1
   6 -18  10 2622.83 100.550   1
  18  10   6 2549.00 84.5900   1
  18   6  10 2770.44 96.0300   1
  10  18  -6 2747.55 89.4000   1
   6  18 -10 2691.02 89.2200   1
  10  18   6 2538.41 87.4200   1
  10   6  18 2660.37 102.630   1
   6  18  10 2769.68 107.600   1
  10 -18   6 2494.92 109.410   1
  12  16   8 24.8300 35.8500   1
  16   8  12 47.5500 47.8800   1
  16  12   8 -10.620 49.0200   1
   8  16 -12 -11.640 36.0300   1
  12  16  -8 -43.190 38.9900   1
  16  12  -8 -16.390 32.4600   1
   8  12 -16 -28.080 32.5700   1
  16   8 -12 -53.580 47.3200   1
  12   8 -16 65.1200 41.2600   1
   8  12  16 -17.440 46.7000   1
   8  16  12 -60.560 51.5400   1
   0  20   8 38.0600 64.8700   1
   8   0  20 -9.4200 50.6900   1
   0  20  -8 -19.660 44.3600   1
   8  20   0 1.04000 33.7900   1
  -8   0 -20 -11.960 32.7900   1
  20   0   8 -2.8000 31.2600   1
  20   8   0 42.3000 49.8100   1
  20   0  -8 50.8300 52.0500   1
  20  -8   0 46.8000 42.0400   1
   0  20   8 27.6100 50.9800   1
   0  20  -8 64.6100 43.4300   1
   8  12  16 -35.190 54.5100   1
   8  16  12 1.67000 61.4500   1
  12   8  16 20.2300 36.8100   1
  19   5  -9 2470.57 87.9800   1
  -5  19  -9 2154.36 82.2700   1
   5  19   9 2303.34 89.2600   1
   5  19   9 2399.01 98.2300   1
   5  19  -9 2241.22 77.2900   1
   5 -19   9 2201.66 81.8200   1
  19   5   9 2302.63 83.4300   1
  19  -5   9 2308.87 79.4300   1
  -5 -19   9 2106.02 87.5000   1
  -1  21   5 315.870 49.2500   1
  -1   5 -21 279.850 37.4500   1
   1  21   5 266.900 40.6900   1
  -1  21  -5 351.500 47.9800   1
  -1  -5 -21 244.250 43.7700   1
   1  21  -5 319.270 51.1000   1
   5   9 -19 2537.31 85.9600   1
  -1   5 -21 325.060 45.1600   1
   9   5  19 2251.45 92.8700   1
   5   9  19 2174.70 97.5400   1
   9  -5  19 2418.59 103.810   1
  19  -9   5 2376.95 86.5000   1
  17   3  13 24.8800 43.7800   1
  13  17  -3 54.8600 47.4100   1
  17  -3  13 22.8500 38.0600   1
  17  13   3 -8.4500 49.2600   1
  17  13  -3 -50.730 47.0800   1
  17   3 -13 -11.530 34.1100   1
   5   1  21 291.390 49.3300   1
  -1  21   5 355.060 68.6700   1
   3  13  17 3.95000 44.5300   1
  -1  21  -5 340.390 57.4000   1
   1   5 -21 325.510 53.2300   1
   1  21   5 264.140 50.3300   1
   1  21  -5 231.230 39.3800   1
   3  17  13 -21.230 35.5800   1
  21   5  -1 298.830 53.4500   1
  -5   1 -21 297.820 39.4100   1
  -5  -1 -21 285.770 38.6400   1
   5  21  -1 298.150 40.4600   1
   5  21   1 295.320 43.2400   1
  11 -15  11 329.230 44.8400   1
  11  11  15 405.770 45.9000   1
  -3  17  13 -12.450 43.7600   1
  13 -17   3 15.3300 36.6400   1
   3  13  17 68.0200 67.0100   1
   3  17  13 -13.520 46.1300   1
  13   3  17 -12.250 32.7100   1
  13  17   3 -83.230 44.3100   1
  21   5   1 408.320 52.8000   1
  11 -15  11 377.260 36.5300   1
  11  11 -15 344.420 47.4700   1
  15  11 -11 358.000 38.0200   1
  15 -11  11 331.130 41.4900   1
  11  15 -11 332.480 46.4600   1
  15  11  11 387.520 54.8600   1
  21  -1   5 288.570 44.2800   1
  11  15  11 243.980 42.0200   1
  -1 -21   5 264.350 40.4600   1
   9 -19   5 2091.04 94.1000   1
   9  19   5 2407.60 83.5400   1
   1 -21   5 302.540 40.5100   1
   9  19  -5 2299.59 75.6600   1
  21  -1  -5 302.000 52.3100   1
  21  -5  -1 280.270 38.1300   1
  19   9   5 2381.90 85.1600   1
  -5  21   1 228.200 49.8200   1
  19   9  -5 2384.34 85.2600   1
  -9   5 -19 2298.14 87.5400   1
   9   5  19 2201.76 77.5900   1
  -5  21  -1 254.710 45.8000   1
  21   1  -5 248.890 53.7000   1
   5   9  19 2422.32 82.9100   1
  21  -5   1 309.070 37.9600   1
  21   1   5 316.990 37.7300   1
  14 -16   4 60.7200 48.6200   1
  14 -16   4 -27.750 40.2800   1
 -16   4 -14 66.0000 34.6600   1
  16   4 -14 -43.610 49.7000   1
  16  14  -4 44.6100 33.4200   1
  14  16  -4 -7.8000 46.2500   1
   4  16 -14 86.8300 31.6800   1
  16  -4  14 27.0800 32.9600   1
  16  14   4 60.9500 45.1100   1
  14  16   4 79.6800 46.2200   1
  16   4  14 45.2400 32.0500   1
  14  -4  16 34.0000 33.1600   1
  14   4  16 -34.500 46.2400   1
   4  14  16 73.3600 66.7900   1
   4  16  14 56.7100 66.3700   1
   0  12  18 203.400 63.2900   1
   0  18  12 253.740 70.9700   1
   0  12 -18 308.930 47.5300   1
   0  18 -12 275.260 46.6200   1
  12   0  18 230.610 48.3100   1
  12  18   0 347.320 51.2200   1
  18   0  12 287.500 33.7800   1
  18  12   0 269.550 52.6700   1
 -12   0 -18 236.690 34.3400   1
   0 -18  12 268.970 37.0900   1
   0  18  12 309.100 51.0800   1
  12   0  18 276.490 37.0800   1
   2  20   8 128.390 59.0200   1
   8   2  20 78.3000 40.2600   1
   8  -2  20 69.0200 49.2200   1
  -2  20   8 84.5500 46.5200   1
   2   8 -20 77.4000 45.2900   1
   2   8  20 93.5600 58.7000   1
  -2  20  -8 100.220 41.5300   1
   2  20   8 101.690 54.2500   1
  -2  20   8 61.0700 52.7700   1
  20  -2  -8 53.5100 48.2200   1
  20  -8   2 91.8500 32.6700   1
  20   2  -8 22.3800 52.0100   1
  20   8  -2 82.5900 44.0400   1
  20  -2   8 112.780 41.9200   1
  -2 -20   8 74.3900 34.9000   1
  20   8   2 37.9800 50.1100   1
  20   2   8 69.8800 45.3600   1
   2 -20   8 84.6900 32.3900   1
  -8   2 -20 78.1000 32.4900   1
  -8  -2 -20 55.7400 32.5600   1
  -2   8 -20 91.6200 31.6900   1
   8  20   2 56.0600 51.9600   1
   8 -20   2 119.900 45.6400   1
   2  20  -8 78.6000 43.7100   1
   4  16  14 47.1600 35.6200   1
   4  14  16 14.6100 49.2800   1
   6 -20   6 4383.96 144.420   1
   2  18  12 224.360 39.8700   1
  12  -2  18 222.450 36.3300   1
  -2  18 -12 235.570 39.6700   1
  12   2  18 215.850 40.0800   1
   6   6  20 4598.71 132.470   1
  20   6  -6 5077.14 142.840   1
  18   2 -12 243.440 39.2800   1
  -2  18  12 181.980 52.8800   1
   6  20   6 4563.89 133.010   1
   6   6  20 4570.23 145.740   1
  20  -6   6 4637.64 138.910   1
  -6   6 -20 4781.15 141.290   1
   2  12  18 295.950 68.2800   1
  20   6   6 4688.21 127.670   1
   6  20  -6 4571.51 127.970   1
  -2  18  12 410.390 72.7200   1
  -2 -18  12 244.800 34.8300   1
 -12   2 -18 212.170 33.0900   1
  -2  18 -12 271.070 48.6100   1
   2  12 -18 230.520 33.8500   1
 -12  -2 -18 217.950 39.0200   1
  18  -2  12 242.840 32.5100   1
  18   2  12 233.220 34.3500   1
   2  18 -12 218.850 37.7600   1
  12   2  18 354.690 52.4600   1
  12  -2  18 258.860 47.0900   1
   2  18  12 241.420 71.4500   1
  12 -18   2 258.890 57.7800   1
  18  12   2 215.080 37.8500   1
  12  18  -2 276.260 49.6900   1
  12  18   2 252.780 51.1700   1
  18  12  -2 236.920 50.2400   1
   3  21  -5 427.840 53.9800   1
  15  -9  13 379.760 38.3200   1
  13  15  -9 348.780 47.5500   1
  15 -15   5 57.2300 40.7200   1
  15   5 -15 -6.1200 47.0700   1
   3  21   5 572.660 44.1200   1
   3   5  21 504.290 48.8700   1
   5   3 -21 498.670 60.3700   1
  -3  21   5 508.990 69.7000   1
   5   3  21 618.810 65.9500   1
   3   5 -21 570.240 58.1000   1
  -3  21  -5 669.680 62.9500   1
   3  21   5 566.150 69.7600   1
   5  21   3 624.020 61.2000   1
  21   5   3 500.120 54.9400   1
   5  21  -3 469.570 49.7700   1
  -3   5 -21 535.340 43.3800   1
   5 -21   3 525.420 47.3000   1
  -5   3 -21 539.490 41.8000   1
   3 -21   5 582.410 45.9500   1
  -3 -21   5 484.730 36.6800   1
  21   3   5 505.020 49.1000   1
  21   5  -3 501.150 54.1900   1
  21  -3   5 433.400 50.0400   1
  21   3  -5 563.590 44.7000   1
  21  -5   3 544.420 51.6700   1
  21  -5  -3 529.180 54.3700   1
  21  -3  -5 594.450 57.4600   1
  -5  21   3 408.620 50.2200   1
  -5  21  -3 552.080 41.2600   1
  -3  21   5 521.230 57.3000   1
  -3  21  -5 582.820 50.2200   1
  13 -15   9 346.050 48.1700   1
   9  13  15 373.450 64.4200   1
   9  15 -13 313.350 42.7800   1
  15  13  -9 404.210 50.6900   1
   9  13 -15 354.640 34.1300   1
  15   9 -13 391.520 47.2200   1
  13   9 -15 420.740 50.5600   1
  15 -13   9 373.950 40.0400   1
  13 -15   9 305.140 37.1200   1
  15 -13   9 353.630 41.1000   1
 -15   5 -15 15.1200 31.4100   1
   5  15  15 61.4900 35.7400   1
  13 -15   9 398.540 41.5100   1
   9  13  15 352.940 53.0100   1
  15   5  15 13.7200 46.4400   1
   5  15  15 -11.820 46.1900   1
  15  15   5 7.69000 36.0600   1
  15  -5  15 -24.590 33.8600   1
  13   9  15 355.240 56.8000   1
  13  15   9 418.990 42.2700   1
  15   9  13 275.420 51.5500   1
  15  15  -5 -2.4800 47.4100   1
  13  -9  15 405.840 39.0200   1
  15  13   9 364.220 41.6600   1
  -4  20  -8 1366.39 63.0600   1
  -4  20   8 1491.78 83.0600   1
  20  -8   4 1498.69 59.8900   1
  20   4  -8 1328.30 58.6500   1
  20   8  -4 1418.65 59.3000   1
  -4 -20   8 1298.88 65.3100   1
  20  -4   8 1471.31 66.5700   1
  20   4   8 1416.17 58.4300   1
  20   8   4 1515.31 67.5900   1
   4 -20   8 1333.09 66.0700   1
   4  20   8 1529.11 81.9000   1
   8  20  -4 1539.33 67.0500   1
   4  20  -8 1431.83 64.8300   1
   8  20   4 1390.75 64.1500   1
   8 -20   4 1267.02 72.7600   1
  -4   8 -20 1494.85 65.3400   1
  -8   4 -20 1486.32 64.5200   1
   8  -4  20 1496.17 78.4100   1
   4   8  20 1490.17 75.5700   1
   8   4  20 1499.20 81.8500   1
   8   4  20 1507.79 66.2400   1
  19  11  -1 160.330 51.7700   1
  19  11   1 231.170 37.2200   1
 -11  -1 -19 244.450 35.3600   1
  19  -1  11 295.620 45.1700   1
  19   1  11 206.380 43.8900   1
  -1  19  11 255.880 71.4300   1
  13  17   5 457.630 44.1700   1
   1  19  11 176.220 64.6700   1
   5  13  17 360.240 69.4100   1
  13 -17   5 332.330 56.8900   1
 -11   1 -19 220.470 36.8900   1
  17   5  13 396.930 38.8700   1
  17  13   5 365.620 53.0200   1
  13  17  -5 456.660 49.8300   1
  13   5  17 367.580 50.5200   1
  11   1  19 212.720 52.9900   1
  13 -17   5 359.010 46.1800   1
  11  19   1 189.650 51.4800   1
   1  19 -11 193.920 42.3400   1
  11  -1  19 245.500 49.6300   1
   5  17  13 347.160 56.4300   1
   5  13  17 342.000 39.7600   1
  13   5 -17 391.280 52.4300   1
  17   5 -13 389.430 48.8800   1
 -13   5 -17 334.050 36.3500   1
   5  13 -17 418.440 39.1900   1
  17  13  -5 381.660 50.7800   1
  17  -5  13 330.370 41.4700   1
  -1  19 -11 226.470 47.9300   1
   1  11  19 224.700 62.1400   1
   1 -19  11 217.170 32.9400   1
   1  11 -19 197.220 34.3400   1
  -1 -19  11 214.390 34.3500   1
  19   1 -11 201.340 38.1200   1
   5  17  13 460.610 54.9900   1
  11  -1  19 220.560 38.8800   1
   1  19  11 322.530 51.1600   1
  11   1  19 259.050 39.7700   1
  -1  19 -11 203.120 38.8700   1
  11  19  -1 236.830 49.6400   1
   5  17 -13 396.900 39.3200   1
   1  11 -19 287.290 48.6600   1
  -1  19  11 219.140 40.2100   1
  18  12  -4 240.660 46.8400   1
   4  12 -18 313.750 36.8400   1
 -12   4 -18 234.090 33.9000   1
  18   4 -12 294.670 53.9300   1
  -4 -18  12 238.590 36.8400   1
  18 -12   4 207.570 34.9400   1
   4  12  18 298.550 52.2600   1
  -4  18 -12 262.110 37.8600   1
   4  18  12 201.080 55.2200   1
  12   4  18 226.690 42.4900   1
  12 -12  14 1605.47 93.5300   1
  12 -14  12 1532.68 89.1300   1
  12  12  14 1525.25 78.7800   1
  12  14  12 1513.11 73.1300   1
  14  12  12 1624.45 75.5600   1
  12  14 -12 1531.60 64.0700   1
  14 -12  12 1604.13 69.5200   1
  14  12 -12 1440.01 58.3000   1
  12  12 -14 1623.40 66.5200   1
  14 -12  12 1505.14 69.5500   1
   0  22   0 4255.32 123.050   1
   0   0 -22 3946.37 123.400   1
  22   0   0 4280.91 118.230   1
   0   0 -22 4071.01 143.590   1
   0  22   0 4168.93 137.070   1
   4  12  18 197.470 68.6500   1
  12 -18   4 261.660 41.8300   1
   4  18  12 328.300 69.9600   1
  12  -4  18 284.840 44.4000   1
  12   4  18 286.430 54.0300   1
  12  18   4 344.840 53.5700   1
   4  18 -12 269.680 39.6000   1
  12  18  -4 236.660 47.1500   1
  18   4  12 220.830 43.9100   1
  18  12   4 220.610 48.7300   1
  18  -4  12 229.230 31.6200   1
  14 -16   6 137.480 41.1800   1
  16  14   6 150.070 37.3500   1
 -14   6 -16 192.470 33.6400   1
   6  14  16 196.760 48.4700   1
  14 -16   6 159.460 47.2300   1
  14   6 -16 296.920 46.8500   1
   6  14  16 126.950 50.0600   1
  14  16   6 192.600 52.0200   1
   6  14 -16 190.550 36.4600   1
  16  14  -6 186.730 35.4400   1
  14  16  -6 130.280 47.5100   1
  14  -6  16 169.560 36.2400   1
  14   6  16 111.600 47.0200   1
   6  16  14 106.920 51.2600   1
  18   8  10 924.480 58.9700   1
  10   8  18 897.520 56.7800   1
   8  10  18 848.790 54.7000   1
  10   8 -18 941.080 57.2900   1
  -8 -18  10 744.890 50.3000   1
   8  10 -18 935.870 52.0400   1
  18 -10   8 919.260 55.8400   1
  18   8 -10 838.870 48.7900   1
  18  10  -8 934.470 60.3600   1
  18  -8  10 837.970 50.9100   1
  10  18  -8 1004.32 57.5400   1
  18  10   8 790.540 55.2200   1
  16  -6  14 215.280 38.4200   1
  16   6  14 189.270 35.3000   1
  16   6 -14 138.160 35.8500   1
   8  10  18 784.970 58.9200   1
  10  -8  18 962.650 67.9400   1
   6  16  14 301.290 63.7000   1
   8  18 -10 794.300 42.6600   1
   6  16 -14 215.510 35.4500   1
   8 -18  10 888.680 57.8900   1
  10  18   8 878.500 65.9700   1
   8  18  10 985.740 61.6100   1
  10 -18   8 823.540 55.3100   1
  10   8  18 827.110 57.9100   1
  -2  22   0 2585.36 97.7800   1
   0  22   2 2522.68 103.950   1
   0  22  -2 2736.31 110.890   1
   2   0 -22 2469.75 110.780   1
   0  22   2 2448.51 88.0900   1
   2  22   0 2517.28 92.7500   1
   0   2 -22 2472.99 97.4100   1
  -2   0 -22 2410.34 101.760   1
  22   2   0 2575.10 82.1900   1
  22   0   2 2595.58 86.2900   1
  22  -2   0 2577.22 83.1200   1
  22   0  -2 2611.06 94.3100   1
   2   0 -22 2290.72 93.5100   1
  -2  22   0 2458.17 86.7600   1
   0   2 -22 2492.96 88.1800   1
   0  -2 -22 2301.21 83.8500   1
   0  22  -2 2540.15 82.3500   1
   2  22   0 2564.71 91.2600   1
   7  -1  21 -21.430 44.8200   1
   7   1  21 7.00000 37.0800   1
  -1  21   7 11.6000 45.0900   1
   1  21   7 111.870 64.4300   1
   7  21   1 -2.6100 36.2800   1
   7  21  -1 21.3300 44.7300   1
  -7  -1 -21 18.7100 35.8700   1
  -1 -21   7 -7.2500 34.7700   1
  21   7   1 45.0700 47.7900   1
  21   1   7 -9.5700 32.3200   1
  21  -1   7 -9.2200 44.6000   1
  21   1  -7 11.0700 34.1300   1
  21  -7   1 59.9800 40.9200   1
  21  -1  -7 -46.260 45.9900   1
   9  17 -11 37.0200 38.8300   1
  11  17  -9 -1.1300 40.4800   1
  17  11   9 -16.260 45.6000   1
  17   9  11 63.9400 44.5200   1
  11  17   9 99.0200 52.0700   1
   9  17  11 -39.290 59.0100   1
  11   9  17 9.69000 40.1600   1
   9  11  17 67.4200 43.4600   1
  21  -7  -1 50.7900 48.3000   1
  -1  21   7 -14.620 36.8100   1
   1  21   7 8.39000 48.0500   1
  -1  21  -7 -1.6200 39.1400   1
  19   7  -9 2935.31 100.210   1
  19   9  -7 2996.69 97.0600   1
  19  -7   9 2878.37 91.2600   1
   9  19   7 2754.93 92.2800   1
   7   9  19 2996.64 115.110   1
   9   7  19 3046.39 115.180   1
   7  19   9 2948.95 107.290   1
   9 -19   7 2796.80 113.800   1
   7  19  -9 2913.93 94.2500   1
  -3  19  11 -60.050 62.7600   1
   3  11  19 -24.740 64.1600   1
   3  19  11 -61.560 66.7600   1
  11   3  19 -42.380 47.1200   1
   3  19 -11 -14.310 35.7500   1
  11  19   3 19.5900 51.3100   1
  11  19  -3 -22.120 31.5300   1
  19   3  11 18.2700 45.2300   1
  19  11   3 -42.610 50.4400   1
  19  -3  11 -29.080 41.8000   1
  19  11  -3 -9.2800 45.0800   1
 -11   3 -19 4.66000 31.2500   1
  19   3 -11 89.3400 52.0500   1
  21   7  -1 -18.930 36.1400   1
   3  19  11 -15.080 51.6900   1
  -3  19 -11 -13.610 33.3500   1
   9  19  -7 3066.69 99.2800   1
   7 -19   9 2757.49 108.140   1
  19   7   9 2963.36 93.4900   1
   5   5 -21 1091.92 68.6700   1
   5   5  21 1061.31 76.3000   1
   5  21   5 1026.16 75.2200   1
  17  11  -9 56.7600 49.0300   1
   5  21  -5 1037.65 59.0700   1
   5 -21   5 1067.53 62.5400   1
  -5   5 -21 1138.39 59.1300   1
  21   5   5 1077.48 63.0900   1
  21   5  -5 1245.20 65.3500   1
  19   9   7 3074.60 101.980   1
  21  -5   5 1037.47 59.2300   1
  19 -11   3 -4.3000 39.6500   1
  21  -5  -5 1026.50 65.8900   1
  -5  21  -5 1079.95 59.3400   1
   5  21   5 1092.49 69.0700   1
  -7 -19   9 2612.41 93.1600   1
  19  -9   7 2908.03 93.2300   1
  -9   7 -19 2997.76 99.3000   1
   7   9 -19 2775.29 91.5300   1
   9   7 -19 2835.05 95.6500   1
   7   9  19 2955.18 100.970   1
   9   7  19 2857.71 98.3200   1
   7  19   9 2750.84 89.9400   1
  17   9 -11 19.9700 34.3200   1
  17 -11   9 37.2300 36.2000   1
  11   9 -17 92.0300 41.1800   1
  -9 -17  11 19.1300 37.8600   1
   9  11  17 23.9500 46.3800   1
  11   9  17 6.25000 42.7400   1
   2   2 -22 857.680 70.0000   1
  -2  22  -2 970.710 73.7600   1
  -2  22   2 918.890 74.9500   1
  10  14  14 1315.94 66.2000   1
  14  10  14 1297.61 69.5200   1
  14  14  10 1376.72 61.2000   1
  14 -10  14 1339.94 64.8100   1
  14  14 -10 1333.19 64.6300   1
  -2   2 -22 980.580 59.9700   1
   2  22  -2 1064.79 64.4300   1
   2  22   2 994.230 59.5800   1
  -2  22  -2 931.560 49.2800   1
  -2  22   2 989.430 59.4500   1
   2  -2 -22 903.650 52.9700   1
   2   2 -22 936.970 54.7000   1
  22  -2  -2 909.440 60.6500   1
  10  14 -14 1337.88 61.8300   1
  14  10 -14 1309.69 65.4300   1
  14 -14  10 1379.81 63.8300   1
  14 -10  14 1327.13 70.7500   1
  14 -14  10 1200.24 64.3700   1
  22   2  -2 987.660 63.3500   1
  22  -2   2 970.890 50.5200   1
  22   2   2 1055.32 62.8700   1
  -2   2 -22 957.190 59.7300   1
   2  22  -2 849.150 67.0900   1
   2  22   2 1006.86 75.4200   1
  -3  21  -7 247.570 44.0300   1
  -3  21   7 145.140 48.1400   1
  21  -7  -3 216.280 38.4600   1
  21  -3  -7 220.700 39.0900   1
  21  -7   3 205.820 47.7000   1
  21   3  -7 168.800 38.3100   1
  21   7  -3 242.520 49.5900   1
  21  -3   7 216.360 46.4300   1
  -3 -21   7 178.910 38.3100   1
  21   7   3 236.790 38.1600   1
  21   3   7 203.720 50.0100   1
  -7   3 -21 212.850 35.5000   1
   3 -21   7 178.890 35.6300   1
  -3   7 -21 191.190 33.3400   1
   7  21  -3 200.740 51.2400   1
   7 -21   3 251.250 42.0100   1
   7  21   3 284.340 58.8600   1
   3  21  -7 199.500 36.0700   1
   3  21   7 209.530 66.2000   1
   7   3  21 276.320 59.3500   1
  -3  21  -7 156.690 46.0400   1
   3   7 -21 190.640 51.2000   1
  -3  21   7 198.480 66.0200   1
   3   7  21 205.600 45.3200   1
   7  15 -15 89.2900 35.8200   1
  15  15  -7 42.2000 45.7700   1
  15  15   7 82.6700 51.8100   1
  15   7  15 61.8200 44.3800   1
   7  15  15 181.360 67.3100   1
   7  15  15 95.1900 49.6800   1
  15 -15   7 78.9500 34.7500   1
  15   7 -15 69.1500 34.0400   1
   3  21   7 173.750 53.7700   1
  10  12 -16 227.630 39.6000   1
  16  12 -10 160.770 35.2700   1
  16 -10  12 200.470 38.3000   1
  10  16 -12 160.400 30.8600   1
  12  16 -10 167.460 32.6200   1
  16  10  12 229.360 37.6400   1
  16  12  10 77.8000 51.9000   1
  12  16  10 150.790 56.4500   1
  12  10  16 158.370 56.5600   1
  10  16  12 214.370 61.4900   1
  10  12  16 124.970 61.9600   1
  12 -16  10 133.070 42.4800   1
   0  20  10 453.950 57.6400   1
  10   0  20 472.120 41.6700   1
  20   0 -10 465.950 43.6700   1
   0  10 -20 526.130 41.7000   1
   0 -20  10 487.280 41.1900   1
  20  10   0 398.280 49.7900   1
  20   0  10 530.760 50.5900   1
  10  20   0 441.130 50.0100   1
   0  20 -10 588.310 54.1700   1
   0  10 -20 572.060 54.8200   1
  10   0  20 554.920 60.1200   1
   0  20  10 370.770 68.1800   1
   6  20   8 2161.45 85.7000   1
   8   6  20 2067.75 76.7900   1
   6   8  20 2149.35 80.8100   1
   6   8 -20 2107.12 75.1000   1
  20  -8   6 2134.66 77.7100   1
  20   6  -8 2109.95 81.7400   1
  -6 -20   8 1814.64 84.4700   1
   8  20  -6 2224.95 81.4800   1
  20  -6   8 2086.56 78.9800   1
  20   8  -6 2099.14 73.2200   1
  -8   6 -20 2124.13 89.4900   1
  20   6   8 2121.36 78.1100   1
  20   8   6 2127.33 81.7000   1
   6 -20   8 1956.60 84.4500   1
 -10   0 -20 495.570 42.6900   1
   6   8  20 2167.22 96.7700   1
   8   6  20 2201.93 98.8500   1
   6  20   8 2146.09 97.6100   1
   8  20   6 2008.14 84.7300   1
   8 -20   6 2112.63 92.9000   1
   6  20  -8 2215.32 79.8100   1
  22   4   0 76.6700 45.5100   1
  22   0   4 94.7100 35.2700   1
  22  -4   0 51.4000 35.0400   1
  22   0  -4 53.6900 37.1600   1
  -4  22   0 123.790 48.4800   1
   0   4 -22 58.6600 33.4400   1
   0  22   4 68.3400 37.8600   1
   0  22  -4 53.4300 47.1000   1
   0  -4 -22 19.0500 38.5600   1
  10  12  16 139.550 36.6700   1
  12 -16  10 178.420 33.0800   1
  12  10 -16 192.750 44.6800   1
  16 -12  10 222.300 38.1200   1
  -4  22   0 29.7600 48.9000   1
   0  22   4 -33.200 62.7600   1
   0  22  -4 42.1200 53.5500   1
   0   4 -22 44.6900 43.4600   1
   4  22   0 27.3900 49.8600   1
  16  10 -12 241.980 37.3900   1
   0 -22   4 72.2500 27.6800   1
   2  22   4 173.610 48.0400   1
  -2  22  -4 112.100 33.7000   1
  -2  22   4 106.380 49.5600   1
  -4  22  -2 201.350 48.7900   1
  -4  22   2 115.960 48.6100   1
  22  -4  -2 128.390 50.8300   1
  22  -2  -4 122.380 47.2900   1
  22   2  -4 156.450 38.4200   1
  22  -4   2 141.320 44.3600   1
  22  -2   4 111.780 48.8800   1
  22   4  -2 151.470 51.7800   1
  22   2   4 188.270 45.8400   1
  22   4   2 165.980 50.7800   1
   2 -22   4 142.910 36.7400   1
  -4   2 -22 130.830 36.6900   1
  -2   4 -22 174.610 39.3300   1
   4  22  -2 61.6800 51.6000   1
   4  22   2 147.830 43.4500   1
   2  22  -4 240.890 54.7000   1
   2  22   4 123.620 44.9500   1
   2   4 -22 122.330 52.6600   1
   4   2 -22 109.870 41.2900   1
  -2  22  -4 141.720 55.6500   1
  -2  22   4 79.8400 64.6800   1
  -4  22  -2 144.520 54.0100   1
  -4  22   2 170.620 54.3400   1
  -2  20  10 -19.970 51.4800   1
   2  20  10 -20.160 36.4600   1
  -2  20 -10 20.2300 35.0500   1
   6  12 -18 275.830 39.3500   1
   6  12  18 253.000 60.8000   1
   6  18  12 165.740 48.0600   1
  12  -6  18 267.020 49.5900   1
  12   6  18 265.300 41.5200   1
   6  18 -12 228.130 36.5900   1
  18   6  12 280.380 49.9600   1
  18  -6  12 206.210 40.9100   1
  18   6 -12 236.280 53.7400   1
 -12   6 -18 246.810 36.7800   1
  -6 -18  12 192.400 29.5300   1
  12   6 -18 244.140 49.3200   1
   6  12  18 181.860 50.6300   1
   6  18  12 254.700 41.3900   1
  12   6  18 313.610 42.4500   1
  -2  20  10 41.9200 66.3800   1
   2  10  20 -13.590 46.8200   1
   2  20  10 -62.250 61.7500   1
  10  -2  20 10.5500 42.9200   1
  10   2  20 14.6000 47.8100   1
  10 -20   2 -2.7600 48.6000   1
  10  20   2 0.34000 50.5500   1
  10  20  -2 62.4200 44.2800   1
  20   2  10 38.9500 45.0900   1
  20  10   2 67.3500 50.4000   1
  20  -2  10 -18.210 39.0900   1
  20  10  -2 -5.1500 51.0900   1
  20   2 -10 19.5300 51.5500   1
  20 -10   2 30.0500 43.3900   1
   4  22   2 89.7600 56.2500   1
  -2   4 -22 165.650 36.0500   1
  18  12   6 258.150 51.0700   1
  18  12  -6 200.820 46.5600   1
  18 -12   6 265.240 32.9900   1
  12  18   6 306.650 55.6400   1
  12 -18   6 268.300 50.5200   1
  12 -18   6 215.290 42.5800   1
  12  18  -6 264.560 35.3900   1
   7  13 -17 60.6000 36.7000   1
  19 -11   5 270.940 45.2800   1
  -5  19 -11 275.740 39.7100   1
   5  11  19 379.290 51.8800   1
  11   5  19 341.360 45.6600   1
   7  17  13 65.1400 36.5300   1
   5  19  11 349.710 42.5300   1
   7  13  17 108.490 35.5600   1
  13  17  -7 92.1500 44.0200   1
  17  -7  13 49.1800 36.3700   1
  17  13  -7 20.5100 48.6900   1
  13 -13  13 865.800 48.1800   1
  13   7 -17 39.9400 47.2900   1
  17 -13   7 140.380 39.6200   1
  17   7 -13 52.0800 49.8700   1
  13 -17   7 130.310 35.0900   1
  11  19  -5 273.780 44.6000   1
  19   5  11 285.680 48.6900   1
   5  11  19 275.350 64.4600   1
  11  -5  19 248.530 52.1400   1
  11 -19   5 227.710 46.3900   1
   5  19  11 279.790 63.6200   1
  11   5  19 265.250 58.5000   1
  11  19   5 450.830 57.4900   1
   5  19 -11 276.940 37.6600   1
  19  11   5 284.510 38.2300   1
  19  -5  11 251.280 38.9200   1
   5 -19  11 311.380 35.6500   1
  19  11  -5 258.040 48.5200   1
 -11   5 -19 293.590 37.4500   1
   5  11 -19 362.420 40.5500   1
   7  13  17 224.230 49.8000   1
   7  17  13 55.0300 59.0800   1
  13  -7  17 77.0600 39.8700   1
  13   7  17 94.0200 48.7700   1
  13  17   7 118.750 48.0700   1
  17   7  13 96.6700 48.1300   1
  17  13   7 93.9500 37.3500   1
   7  17 -13 113.040 33.8000   1
  13  13 -13 770.250 45.2000   1
  13  13  13 769.810 51.5100   1
  -5 -19  11 255.230 35.9600   1
  19   5 -11 279.270 39.9700   1
   0  16  16 1671.75 95.0700   1
   0  16 -16 1656.79 88.1000   1
  16   0  16 1509.56 71.1300   1
  16  16   0 1472.74 68.9300   1
   7 -21   5 1020.66 64.1600   1
   5 -21   7 977.600 60.6000   1
  -5   7 -21 1099.08 55.6200   1
   5  21   7 1172.90 59.2300   1
  -5  21  -7 1012.88 57.8400   1
  -7   5 -21 1124.01 57.3500   1
  21  -7   5 1167.30 61.5200   1
  21   5  -7 1084.87 65.5500   1
  21  -5   7 1120.20 51.5600   1
  21   7  -5 1219.60 67.3000   1
  21   7   5 1070.39 52.8700   1
  13  15  11 819.440 66.6800   1
  15  11  13 891.650 63.4300   1
  15  13  11 869.290 51.8200   1
  13 -11  15 850.210 57.1000   1
  15 -11  13 844.850 47.2400   1
  17  -1  15 851.340 54.1900   1
   1  17  15 714.030 59.9200   1
  17  15   1 828.580 48.4700   1
  15  17  -1 837.770 48.3200   1
  15  17   1 666.270 45.6300   1
  21   5   7 965.060 50.4700   1
  17   1  15 793.640 54.4800   1
   1  15 -17 865.550 51.6000   1
  15  -1  17 736.070 52.2700   1
  15   1  17 785.110 56.4300   1
   1  17 -15 799.960 51.3300   1
  -1  17 -15 913.690 83.1000   1
  13 -15  11 852.220 55.0300   1
   5  21   7 1155.10 79.6900   1
  15 -13  11 793.590 48.7400   1
  15  11 -13 836.750 56.4800   1
  11  13 -15 805.460 52.8200   1
  15  13 -11 821.720 47.3900   1
  13  15 -11 802.050 52.2400   1
  -1  15  17 734.530 60.7600   1
  -1  17  15 811.550 75.1600   1
   7  21   5 974.780 58.8200   1
   1  15  17 798.660 63.5400   1
   1  17  15 812.990 64.8600   1
   5   7  21 1131.14 81.8500   1
  17  15  -1 717.700 46.4600   1
  11  15 -13 803.800 44.7200   1
 -15   1 -17 724.760 48.5700   1
   1  15  17 809.720 57.7700   1
   5  21  -7 1089.89 53.5900   1
   7  21  -5 1151.55 63.0200   1
  13  11  15 801.590 52.6400   1
  11  15  13 726.400 67.2400   1
  11  13  15 855.510 70.5500   1
  13 -15  11 869.860 68.2800   1
   7   5  21 1057.95 76.6900   1
  13 -15  11 795.800 54.2800   1
  15 -13  11 802.700 51.3900   1
  15 -11  13 850.780 56.1800   1
  13  11 -15 775.880 55.3700   1
  14 -16   8 -26.630 36.8900   1
  14  16  -8 -15.520 45.8800   1
   4  22   4 129.770 54.0900   1
   8  14  16 -10.230 35.1900   1
   8  16  14 -8.8400 35.4000   1
  16  16   2 362.540 54.4000   1
  -4  22   4 179.720 50.1400   1
  22  -4  -4 112.580 51.3700   1
  22  -4   4 83.0300 46.2400   1
  -2  16  16 428.790 66.8000   1
   2  16  16 468.380 76.5000   1
  22   4  -4 100.510 47.4300   1
  22   4   4 114.010 50.4000   1
   4 -22   4 155.180 40.3800   1
  -4   4 -22 153.240 33.2000   1
   4  20  10 80.8900 53.4300   1
   4  22  -4 65.3400 51.3200   1
  -4  20 -10 56.9700 38.4500   1
  20 -10   4 -1.2200 38.1600   1
  20   4 -10 16.8100 47.0900   1
  -4 -20  10 45.4000 36.3900   1
 -10   4 -20 33.9000 29.7500   1
  20  10  -4 -13.700 49.2100   1
   4  22   4 95.6500 43.5800   1
   4   4 -22 119.610 55.3000   1
  -4  22   4 142.420 60.6100   1
  -4  22  -4 103.270 45.3500   1
   4   4  22 119.990 52.3900   1
  16  16  -2 409.090 52.9800   1
 -16   2 -16 273.150 35.9500   1
   2  16  16 318.630 55.8100   1
  -2  16 -16 328.860 36.7200   1
  10  20  -4 12.2800 46.7100   1
  20  -4  10 31.4900 38.1200   1
  20  10   4 58.7900 36.2700   1
  20   4  10 44.7300 41.8500   1
   4  20 -10 23.2600 39.6400   1
  10  20   4 -31.300 47.9600   1
  10 -20   4 -11.770 47.3000   1
  10   4  20 52.8500 51.1000   1
   4  20  10 4.20000 66.0300   1
   4  10  20 39.9200 47.5400   1
  -4  20  10 -133.07 61.6700   1
  16   2  16 309.790 35.5300   1
   8  14  16 18.9900 65.0400   1
   8  16  14 -56.320 63.6400   1
  14   8  16 -17.900 47.5700   1
  16   8  14 -6.8200 44.3200   1
  14  16   8 44.8700 37.1400   1
  16  14   8 -5.7100 49.6600   1
   8  16 -14 -25.740 32.6400   1
  16  14  -8 23.4600 33.4400   1
   8  14 -16 21.7500 26.4300   1
  16   8 -14 -18.990 48.2200   1
  14   8 -16 -7.0400 43.3800   1
  16 -14   8 13.7900 38.1700   1
  10   4  20 51.5500 34.9700   1
  16  -2  16 366.400 35.0700   1
   2  16 -16 351.810 37.8800   1
  -4  22  -4 51.4000 45.4000   1
  18  14   0 680.020 52.6800   1
 -14   0 -18 595.870 45.8400   1
   0  18  14 724.260 59.9800   1
   0  18  14 639.580 77.8900   1
   0  14  18 627.540 56.5900   1
   0  18 -14 686.000 53.0300   1
  14   0  18 759.220 53.5100   1
  14  18   0 669.630 57.4900   1
  18   0  14 614.950 49.1000   1
   6   0  22 93.1500 49.5300   1
   0  22   6 112.830 47.7500   1
   0  22  -6 134.040 51.7700   1
  22   0  -6 184.060 47.1300   1
   0  22  -6 41.4300 46.9300   1
   0  22   6 131.180 38.7800   1
   0   6 -22 109.440 36.7100   1
  22  -6   0 126.440 48.9400   1
  22   0   6 30.3000 46.9800   1
  22   6   0 187.070 47.5700   1
   0 -22   6 75.4700 32.0300   1
  -6   0 -22 76.8900 37.0400   1
   6  22   0 160.120 38.9800   1
   9 -19   9 172.870 37.8300   1
  19   9   9 248.320 37.5500   1
   9   9  19 246.090 63.1300   1
 -17   3 -15 49.2400 32.4800   1
   9   9 -19 203.000 33.8300   1
  17   3 -15 125.970 51.5700   1
   9   9  19 219.630 47.8000   1
   3  15  17 67.2300 36.8600   1
  17   3  15 127.950 46.1100   1
   3  17 -15 57.5300 34.1100   1
  15  17   3 70.0100 36.4700   1
  17  -3  15 162.000 40.7200   1
  17  15   3 58.9300 50.9100   1
  15  17  -3 95.8200 35.9000   1
   3  17  15 73.7900 37.8900   1
  17  15  -3 94.9300 36.2800   1
  15  -3  17 92.0800 35.7600   1
  15   3  17 88.1400 46.9800   1
   3  17  15 169.900 71.6600   1
   3  15  17 80.1400 69.8100   1
   3  15 -17 75.6200 32.8000   1
  -3  17 -15 67.9900 33.9300   1
  19   9  -9 235.700 39.5300   1
   9  19  -9 203.210 33.0500   1
  19  -9   9 198.480 31.9100   1
   9  19   9 289.370 59.3300   1
 -15   3 -17 76.1500 34.4900   1
  21   1   9 258.030 36.2900   1
  -9   1 -21 207.950 37.3300   1
  -9  -1 -21 218.050 29.9200   1
   9  21  -1 251.130 52.2600   1
   9  21   1 315.230 52.0100   1
   1  21  -9 198.300 48.3500   1
   9   1  21 267.730 57.8300   1
  -1  21  -9 253.910 51.4200   1
   1   9 -21 212.340 52.3500   1
   1  21   9 114.760 69.2300   1
   9  -1  21 235.290 55.1900   1
  -1  21   9 246.360 71.6600   1
  -1  21   9 186.250 40.0900   1
  -1  21  -9 277.540 45.6900   1
   1  21   9 291.810 57.0400   1
  21  -9  -1 247.430 39.5300   1
  21  -1  -9 244.280 54.4500   1
  -1   9 -21 244.890 35.2200   1
   1   9 -21 283.840 39.9000   1
  21  -9   1 318.020 50.8800   1
  21   1  -9 188.560 54.6000   1
  -1 -21   9 225.080 38.0400   1
  21   9  -1 224.390 39.3600   1
  21  -1   9 207.330 46.8100   1
   1 -21   9 242.560 36.5500   1
  21   9   1 234.640 52.8700   1
   2  14  18 8.76000 48.3900   1
   2  22  -6 5.05000 45.8900   1
   2 -22   6 -4.9100 24.8200   1
  -2 -22   6 -13.000 37.1200   1
  22  -2   6 44.9800 42.3100   1
  22   2  -6 -83.260 46.0100   1
  22  -2  -6 2.95000 50.8200   1
   2  18  14 -51.230 66.0100   1
  -2  22   6 96.0900 37.7100   1
  18  10 -10 17.9200 34.7400   1
   2  22   6 22.8100 54.2700   1
  -2  22  -6 12.9100 32.4300   1
  22   2   6 -30.890 44.2600   1
  10  10 -18 61.7700 38.5700   1
  18 -10  10 56.8700 37.1300   1
  10  18 -10 21.7900 28.3500   1
  18  10  10 -43.230 48.8100   1
  10  18  10 68.0100 51.7100   1
  10  10  18 -15.470 60.5100   1
   2  18  14 -106.71 47.1200   1
   2  14  18 -13.720 48.8400   1
  18   2 -14 -4.8000 46.9200   1
 -14   2 -18 -23.340 33.3300   1
  18  14  -2 23.6100 50.9700   1
  18  14   2 17.1900 35.1900   1
  18  -2  14 -3.3000 36.1500   1
  14  18  -2 5.23000 42.4500   1
  18   2  14 -2.8700 31.6400   1
  14  18   2 -52.980 50.7000   1
  14  -2  18 -5.9700 36.3100   1
  14   2  18 -0.8000 47.5800   1
  10  10  18 7.84000 41.3200   1
  -2  18  14 20.2000 63.8300   1
  -2  22   6 41.5200 62.7900   1
   2  22   6 7.34000 56.0500   1
   6   2  22 -7.4300 39.4000   1
  22   6   2 -19.220 49.5300   1
  22  -6   2 14.8000 47.8300   1
  22   6  -2 63.0200 48.9700   1
   6  22   2 116.250 41.1300   1
   6  22  -2 35.5300 36.7600   1
  22  -6  -2 25.9200 34.8500   1
   2   6 -22 18.3200 48.8600   1
   4  16  16 887.350 63.0200   1
  -4  16 -16 880.570 57.1100   1
   8   8  20 1010.31 54.4500   1
  16   4 -16 854.060 52.5600   1
 -16   4 -16 771.590 50.1100   1
  16  16  -4 728.100 59.5300   1
  16  16   4 897.340 61.9400   1
  16  -4  16 782.230 53.5300   1
  16   4  16 842.730 59.7900   1
   8   8  20 1151.02 70.6500   1
   8  20   8 1161.03 80.4800   1
   8 -20   8 1086.14 60.5800   1
   8  20  -8 1170.26 56.8700   1
  20   8   8 1204.40 69.3500   1
  20   8  -8 1239.77 70.6500   1
  20  -8   8 1067.84 53.3000   1
   8   8 -20 1194.09 65.0700   1
   4  16 -16 761.590 47.6600   1
   4  16  16 851.580 66.7400   1
 -13  -1 -19 253.500 31.3700   1
 -13   1 -19 279.090 35.8200   1
  -1 -19  13 333.020 40.3800   1
   1 -19  13 325.840 39.6600   1
  -1  19  13 348.050 54.8100   1
   1  19  13 296.230 50.3800   1
  13  -1  19 319.980 42.0400   1
  13   1  19 309.030 42.2800   1
  -1  19 -13 353.490 43.9300   1
  19  -7  11 316.650 44.6700   1
  19   1 -13 255.250 40.9000   1
   9  15  15 23.8000 65.1000   1
  15   9  15 105.010 37.9200   1
  15  15   9 125.310 37.4500   1
  15  -9  15 109.280 32.3300   1
  15  15  -9 64.2800 33.9200   1
   9  15 -15 84.1300 29.0000   1
  15   9 -15 146.530 49.0200   1
  15 -15   9 86.5700 36.8000   1
  15 -15   9 54.5500 37.7300   1
   9  15  15 51.4900 51.0300   1
  23   1  -1 4181.55 142.790   1
  23  -1   1 4341.91 157.100   1
  23   1   1 4026.31 147.480   1
  -1   1 -23 3997.77 152.900   1
   1   1 -23 4090.84 173.910   1
   1  23   1 3995.24 151.990   1
   1  23  -1 4186.96 161.480   1
  -1  23   1 4246.24 160.040   1
  -1  23  -1 3823.27 145.770   1
   1   1 -23 3811.65 146.470   1
  -1  23  -1 4148.07 149.170   1
   1  -1 -23 3593.06 140.690   1
  -1  23   1 3893.99 133.420   1
   1  23   1 4143.72 143.230   1
   1  23  -1 3987.27 136.700   1
  -1   1 -23 3843.69 146.680   1
  -1  -1 -23 3841.83 149.820   1
  11  11  17 618.920 54.5300   1
  11 -17  11 506.870 42.6600   1
  11  11 -17 533.600 48.2500   1
  17  11 -11 473.800 50.6400   1
  17 -11  11 489.090 45.6500   1
   3  21   9 64.1900 37.6400   1
  -3  21  -9 14.1600 39.8200   1
  -3  21   9 38.1400 37.1000   1
  21  -9   3 9.43000 32.2100   1
  21   3  -9 -2.6300 52.8000   1
  21   9  -3 5.00000 44.9700   1
  21  -3   9 42.4000 44.2500   1
  21   9   3 -2.0800 35.2900   1
  21   3   9 -11.300 46.4900   1
   9  21  -3 7.97000 31.9500   1
   9  21   3 37.9600 49.6400   1
   3  21  -9 -17.280 40.7300   1
   9 -21   3 -2.4200 44.6900   1
   3  21   9 -51.750 64.6700   1
   9   3  21 -59.380 55.7600   1
   3   9  21 -29.420 63.1200   1
  -3  21   9 62.7500 63.5600   1
   3   9 -21 -3.3700 42.4600   1
  11  17 -11 533.250 40.6200   1
  17  11  11 496.900 44.1900   1
  11  17  11 519.830 50.4200   1
  11 -17  11 512.960 48.4700   1
  11  11  17 432.860 49.6400   1
  23  -1  -1 4147.94 139.810   1
  11  -7  19 349.050 51.5700   1
   7  11  19 350.030 50.9500   1
  11 -19   7 293.230 48.6100   1
  11   7  19 393.230 59.5600   1
   7  19  11 433.310 67.4600   1
  11  19   7 316.670 55.8900   1
   7  19 -11 342.470 44.1500   1
  11  19  -7 329.880 48.4700   1
  19   7  11 306.370 50.8200   1
  19  11   7 349.230 40.5300   1
   7 -19  11 348.290 37.0300   1
  19  11  -7 327.240 52.2300   1
   7  11 -19 344.070 42.9900   1
  19   7 -11 337.310 41.1900   1
  19 -11   7 306.600 41.3900   1
  -7 -19  11 285.610 41.8000   1
 -11   7 -19 317.990 38.3900   1
  11   7 -19 294.180 45.4900   1
   7  11  19 353.090 52.4000   1
  11   7  19 392.320 48.1300   1
   7  19  11 342.090 43.2500   1
   1  13 -19 344.420 50.8800   1
   1  13  19 321.320 52.5300   1
  -1  19  13 299.640 53.6900   1
   1  19  13 242.900 64.0900   1
  -1  19 -13 331.730 52.2800   1
  13  -1  19 413.130 52.8200   1
   1  19 -13 317.630 46.6200   1
  13   1  19 229.470 47.1600   1
  13  19   1 281.280 53.3700   1
  13  19  -1 305.290 51.4100   1
  19   1  13 299.090 46.2300   1
  19  -1  13 307.730 35.3000   1
  19  13   1 349.900 41.1000   1
   1  13 -19 297.240 36.9800   1
  19  13  -1 310.930 55.0600   1
  12   8  18 176.950 57.1200   1
   8  12  18 192.850 66.4900   1
  12  -8  18 172.080 45.6100   1
   8  18  12 71.1300 43.3700   1
  18   8  12 169.070 37.5000   1
   8  18 -12 134.710 38.9600   1
  18  -8  12 178.390 39.3300   1
   8  12 -18 155.880 40.8400   1
  18   8 -12 189.910 52.3400   1
  12   8 -18 123.270 42.4000   1
  -8 -18  12 130.020 39.4000   1
   8  12  18 158.480 37.1800   1
  12   8  18 116.460 46.8700   1
   8  18  12 67.4700 39.1800   1
  12 -18   8 165.180 43.4900   1
  12  18   8 241.250 55.4900   1
  18  12   8 146.870 52.0400   1
  12  18  -8 153.310 44.3800   1
  18  12  -8 107.930 49.3500   1
  18 -12   8 114.520 37.0700   1
   6  20  10 701.860 64.7300   1
  20   6  10 743.590 48.0200   1
  10  20  -6 749.620 54.2800   1
   6  20 -10 785.570 53.4200   1
  10  20   6 677.890 52.0700   1
  10 -20   6 738.240 62.8800   1
   6  20  10 688.890 59.7600   1
  10   6  20 802.530 72.5800   1
   6  10  20 862.190 81.9900   1
  10  -6  20 763.370 63.7200   1
  10   6  20 681.890 45.0500   1
  14  14 -12 786.660 48.1400   1
   4  22   6 108.190 39.1000   1
   6  10  20 686.010 58.0600   1
  -4  22  -6 69.6100 40.6100   1
  -4  22   6 94.2700 37.0900   1
  22  -6  -4 41.4100 35.4500   1
  22  -6   4 105.170 34.3000   1
  22   4  -6 0.48000 54.1200   1
  22  -4   6 71.9500 45.4500   1
  22   6  -4 48.9800 50.4200   1
  22   6   4 45.4600 35.7000   1
  22   4   6 56.4600 44.8200   1
   4 -22   6 81.6700 35.9200   1
  -4   6 -22 73.1400 35.5400   1
   6 -22   4 23.3100 33.8300   1
  22  -4  -6 18.1300 52.5000   1
   4  22  -6 -7.4300 43.8500   1
   6  22   4 -41.470 53.4200   1
   4  22   6 45.6700 45.3800   1
   6   4  22 40.9200 55.9900   1
   4   6 -22 65.1300 46.3300   1
   4   6  22 35.2800 40.5500   1
  -4  22   6 -59.140 52.2900   1
  14 -12  14 904.880 54.8100   1
  14  14  12 885.310 67.4700   1
  14  12  14 874.870 68.7100   1
   6  22  -4 25.9800 33.7500   1
  12  14  14 911.770 72.1200   1
   6  10 -20 712.290 50.9000   1
 -14   4 -18 470.690 41.5300   1
   4  14 -18 492.050 43.7400   1
  18  14  -4 474.950 57.1400   1
  18  -4  14 464.540 43.8500   1
  14  18  -4 518.800 42.9800   1
  18  14   4 461.750 56.7800   1
  18   4  14 442.030 48.5100   1
  20   6 -10 709.090 61.1800   1
  -6 -20  10 582.230 46.3100   1
 -10   6 -20 729.270 47.6700   1
  20  10  -6 699.910 58.2200   1
  20  -6  10 732.110 54.1700   1
   6 -20  10 730.210 50.2200   1
  20  10   6 755.980 60.3500   1
  14 -18   4 515.170 64.5700   1
   4  14  18 450.490 75.6000   1
   4  18  14 345.310 55.6000   1
  14  -4  18 494.560 49.6300   1
  14   4  18 427.060 44.0100   1
  14  18   4 554.070 59.6500   1
   4  18 -14 439.190 42.2800   1
  14  -4  18 513.270 45.3100   1
   4  18  14 403.430 58.8200   1
  -4  18 -14 484.100 45.2400   1
   4  14  18 462.560 52.4400   1
 -18   4 -14 370.920 40.2500   1
  18   4 -14 429.350 43.6000   1
  14 -14  12 850.570 52.9000   1
  14  12 -14 861.130 60.1600   1
  14 -14  12 894.050 57.9700   1
  12  14 -14 809.310 56.5200   1
  20 -10   6 742.560 52.5500   1
  13   3  19 64.0800 45.7700   1
  13  19   3 7.15000 46.2300   1
  13  19  -3 82.0700 44.2000   1
  19   3  13 101.200 32.1900   1
  19  -3  13 58.2700 40.1600   1
  19  13   3 40.2900 36.5000   1
  19  13  -3 62.4700 51.3600   1
 -13   3 -19 36.7500 33.9300   1
  19   3 -13 46.3300 52.2600   1
   3  13  19 31.8200 45.4700   1
   3  19  13 87.6900 53.3100   1
  -3  19 -13 54.3700 35.2300   1
  15   5 -17 1697.08 78.4100   1
 -15   5 -17 1428.01 74.1300   1
  17   5 -15 1744.91 82.5600   1
  17  15  -5 1602.51 69.9900   1
   5  15 -17 1617.36 70.1600   1
  15  17  -5 1762.73 80.0200   1
   5  17 -15 1705.85 72.5200   1
  17  -5  15 1737.02 80.6500   1
  17  15   5 1699.76 82.4700   1
  15  17   5 1700.31 78.6300   1
  17   5  15 1600.18 74.5400   1
  15  -5  17 1713.58 84.8500   1
  15   5  17 1731.49 81.2000   1
   5  17  15 1540.45 81.9400   1
   5  15  17 1635.91 85.3000   1
  15 -17   5 1401.41 82.5500   1
  21   7  -7 706.780 58.3900   1
  21  -7   7 711.040 54.8700   1
  21   7   7 700.120 56.0300   1
   7 -21   7 673.800 50.9700   1
   7  21  -7 667.660 51.1200   1
   7  21   7 669.630 71.8900   1
   9  17  13 32.2400 38.2400   1
   9  13  17 -17.740 50.1200   1
  13   9 -17 44.0700 42.5100   1
  17   9 -13 51.8700 48.6400   1
   9  13 -17 -12.620 38.8600   1
  17  -9  13 15.2300 35.6400   1
   9  17 -13 -6.2300 35.3800   1
  17   9  13 33.1700 48.6900   1
  13   9  17 -16.970 39.2500   1
   9  17  13 -18.690 59.0800   1
   9  13  17 -42.470 44.8700   1
   5  17  15 1735.18 83.9400   1
   5  15  17 1783.56 84.9200   1
  -3  19  13 8.89000 44.3400   1
   3  13  19 -1.5800 62.7700   1
   3  19  13 -62.890 67.4000   1
  13 -19   3 6.24000 51.2900   1
  13  17   9 57.8100 54.8600   1
  -7   7 -21 739.860 47.9400   1
  -3   1 -23 1285.37 69.7300   1
  -3  -1 -23 1240.23 66.6700   1
  23   3  -1 1422.04 74.7600   1
  23  -1   3 1477.08 75.0700   1
  23   1  -3 1422.09 76.3600   1
  23  -3   1 1440.27 65.8600   1
  23  -1  -3 1469.20 76.8900   1
   3   1 -23 1349.07 71.5600   1
  -3  23  -1 1469.08 72.2200   1
   1   3 -23 1388.30 70.7400   1
  -3  23   1 1497.49 77.2200   1
   3  -1 -23 1254.44 61.8500   1
  -1  23   3 1431.62 75.0900   1
   1  23   3 1438.53 77.1300   1
  -1  23  -3 1473.52 73.0100   1
   1  -3 -23 1222.19 70.7300   1
  -1   3 -23 1364.51 72.2900   1
   1  23  -3 1577.99 76.9800   1
   3  23   1 1429.37 74.7200   1
   3  23  -1 1508.44 69.0200   1
  -1  -3 -23 1327.46 68.7600   1
  23   3   1 1362.24 63.3800   1
  23   1   3 1482.56 71.8900   1
  13 -17   9 17.3000 37.5500   1
  17  13  -9 17.7200 34.7400   1
  13  17  -9 3.03000 31.3700   1
   7   7  21 685.750 73.2700   1
   7   7  21 699.920 51.9400   1
   1  23   3 1325.48 75.3100   1
  -1  23   3 1432.84 91.5300   1
  -3  23   1 1381.30 84.3300   1
  -3  23  -1 1447.48 77.5500   1
  -1  23  -3 1378.85 86.1400   1
   1  23  -3 1405.31 83.6500   1
  23  -3  -1 1427.66 74.4900   1
   1   3 -23 1388.54 81.4200   1
   3  23  -1 1536.37 86.0600   1
   3  23   1 1403.22 73.7400   1
  -1   3 -23 1431.75 81.6700   1
  16  12 -12 749.990 57.9800   1
  16 -12  12 810.780 50.6200   1
  12  16 -12 686.570 53.5100   1
   0  12 -20 349.010 49.0600   1
  12   0  20 231.960 49.7100   1
  12  20   0 231.850 52.5800   1
  16  12  12 727.130 63.0600   1
  12  16  12 846.290 58.1600   1
  12  12  16 748.080 70.8500   1
  12 -16  12 815.850 65.5500   1
   0  12  20 372.440 50.5500   1
   0  20  12 359.870 55.3500   1
   0  20 -12 276.510 50.6900   1
   0 -20  12 302.830 40.4800   1
  12  12 -16 804.520 56.2000   1
  16 -12  12 752.550 53.8000   1
  20   0 -12 290.840 51.5600   1
   0  20  12 307.460 41.5300   1
  20  12   0 337.470 50.1300   1
  20   0  12 288.490 46.4100   1
 -12   0 -20 244.220 35.6200   1
  12   0  20 337.260 40.0400   1
  23  -3  -3 651.830 48.2400   1
  -3  23   3 636.850 58.8800   1
  -3  23  -3 571.890 52.6200   1
   3  23   3 653.130 59.8600   1
  21  -9   5 269.400 35.8500   1
  21   5  -9 220.790 39.4400   1
  -5 -21   9 233.680 40.8900   1
  21   9  -5 179.590 39.1700   1
  21  -5   9 219.020 33.3200   1
  -3  23  -3 538.400 61.8100   1
  21   9   5 183.600 52.3500   1
  21   5   9 155.930 48.9800   1
   9  -5  21 248.770 44.4400   1
   9  21  -5 203.960 46.9500   1
   5  21  -9 200.970 41.8700   1
  -3  23   3 561.050 71.7600   1
   3   3 -23 508.590 65.0400   1
   5 -21   9 206.160 34.1400   1
   3  23   3 650.680 72.2800   1
   3  23  -3 585.050 59.5600   1
  -3   3 -23 525.320 48.2800   1
  23   3   3 569.070 45.2500   1
  23   3  -3 584.130 59.0700   1
  23  -3   3 567.470 44.1500   1
   9  21   5 217.210 53.2900   1
   9 -21   5 222.930 42.2100   1
   5  21   9 211.630 49.3500   1
   9   5  21 300.740 64.1200   1
   5   9  21 188.170 69.1200   1
   5  21   9 190.950 56.9100   1
   9   5  21 243.540 41.8900   1
  -5  21  -9 243.130 40.8300   1
   5   9 -21 182.910 40.0000   1
  -9   5 -21 223.080 35.7000   1
  12   2  20 193.040 50.9300   1
   2  20 -12 192.990 41.4000   1
   6  16  16 1446.97 93.9800   1
  16   6  16 1434.25 72.8500   1
  16  -6  16 1505.72 76.7600   1
  16  16   6 1420.15 66.6500   1
   6  16 -16 1575.14 70.5600   1
  -2  20 -12 153.100 36.4300   1
  12   2  20 195.630 40.4200   1
   2  20  12 77.2100 56.0000   1
  12  -2  20 185.500 39.2900   1
  -2  20  12 167.280 55.9300   1
  20   2 -12 76.2500 53.8000   1
  -2 -20  12 142.900 34.6800   1
   2 -20  12 142.220 34.6600   1
   2  12 -20 165.220 34.5000   1
 -12   2 -20 167.380 35.6400   1
  20  12  -2 154.240 51.4400   1
  20  12   2 144.870 38.1900   1
  20  -2  12 159.320 44.0400   1
  20   2  12 179.360 42.6100   1
  12  20  -2 167.300 50.2500   1
  12  20   2 104.930 36.9000   1
   6  16  16 1590.08 77.0000   1
  16 -16   6 1338.23 73.1700   1
  16   6 -16 1497.15 73.5700   1
   0  22  -8 278.550 48.3000   1
   0  22   8 371.500 44.5000   1
  22  -8   0 205.160 37.5100   1
  22   0  -8 228.750 49.7700   1
  22   8   0 193.140 54.4100   1
  16  16  -6 1606.51 73.9800   1
  22   0   8 259.190 49.9500   1
   0 -22   8 163.040 37.0500   1
  -8   0 -22 185.480 34.3200   1
   8  22   0 286.160 54.1800   1
   0   8 -22 258.570 48.1100   1
   0  22  -8 213.510 47.0800   1
   0  22   8 397.180 71.4500   1
   8   0  22 119.240 48.9700   1
  -2  20  12 151.980 52.3100   1
  -2  20 -12 189.230 52.0200   1
   2  12  20 220.390 65.8000   1
   2  20  12 208.160 65.2300   1
  12  -2  20 183.340 50.1100   1
  16  14  10 6.31000 36.6500   1
  14 -16  10 20.3000 34.3900   1
  14  16  10 -41.840 55.7700   1
  14  16 -10 24.9700 31.5200   1
  16  14 -10 6.30000 48.1300   1
  -2 -22   8 256.000 40.8800   1
  22  -2   8 262.920 48.4000   1
  22   8  -2 275.920 55.1800   1
  22   2  -8 277.700 51.7400   1
  22  -2  -8 202.980 40.6100   1
  22  -8  -2 214.640 52.8900   1
  -2  22   8 229.020 52.2300   1
   2  22   8 255.720 57.9600   1
  -2  22  -8 194.530 47.3600   1
  -2   8 -22 209.890 36.5300   1
   8  -2  22 190.540 51.1000   1
  22   8   2 136.060 37.2200   1
  22   2   8 161.800 36.0100   1
   2 -22   8 193.910 37.5000   1
  -2  22  -8 254.740 53.7700   1
  -2  22   8 239.360 69.5800   1
  10  14  16 14.2900 62.3600   1
  14  10  16 20.2900 52.4000   1
  14  10 -16 -34.500 47.5000   1
  16  10  14 -61.780 51.1500   1
  22  -8   2 195.950 36.6800   1
  10  14  16 -18.780 46.0500   1
  10  16 -14 85.4400 41.1800   1
   8   2  22 162.970 42.5300   1
  10  16  14 -14.680 37.8800   1
   2   8 -22 241.000 53.1300   1
   2  22   8 235.640 69.8400   1
   2  22  -8 218.430 51.4800   1
   8  22   2 189.710 55.0700   1
  10  14 -16 7.24000 37.2200   1
   8  22  -2 213.020 39.4200   1
  16  10 -14 6.40000 34.4900   1
  -2   8 -22 192.380 37.2400   1
  -8   2 -22 181.320 36.0500   1
  19  13  -5 442.640 51.0700   1
   5  13 -19 498.000 44.5900   1
 -13   5 -19 414.230 38.7400   1
  -5 -19  13 448.210 43.8500   1
  19 -13   5 383.690 44.7500   1
  -5  19 -13 502.490 44.4300   1
   5  13  19 498.760 55.7900   1
   5  19  13 430.180 45.8600   1
  13   5  19 474.450 46.4800   1
  13   5  19 418.960 46.0200   1
  19   5 -13 448.440 44.5000   1
   5  13  19 403.230 76.0000   1
  13 -19   5 385.440 58.1800   1
   5  19  13 325.600 66.4100   1
  13  -5  19 455.270 50.9900   1
  13  19   5 441.080 44.7200   1
   5  19 -13 440.940 43.1400   1
  19   5  13 498.720 54.3700   1
  13  19  -5 434.660 48.5800   1
  19  13   5 442.620 56.4200   1
  19  -5  13 495.940 48.1800   1
   1  23   5 643.810 62.3900   1
  23   1  -5 683.650 62.0000   1
  -1  23   5 626.090 48.8900   1
  -5  23  -1 561.440 44.8900   1
   1   5 -23 581.690 45.6100   1
  -1  23   5 550.150 68.7500   1
  -1   5 -23 470.830 49.4100   1
  -1  23  -5 534.150 64.6800   1
   1  23   5 515.190 71.3800   1
   1  23  -5 630.090 60.8100   1
  -5  23   1 629.910 46.5600   1
   5  23   1 482.180 59.2900   1
   1   5 -23 510.820 57.3400   1
   5  23  -1 652.310 52.5800   1
  23  -1  -5 615.390 55.6100   1
  23  -5  -1 599.990 58.2900   1
   1  23  -5 542.320 44.9500   1
  -1   5 -23 568.040 48.8400   1
  23  -5   1 657.510 57.9900   1
  23  -1   5 594.050 44.5700   1
  23   5  -1 472.550 57.0200   1
  23   1   5 562.630 55.5300   1
  -5  -1 -23 456.880 46.3600   1
  23   5   1 663.350 55.4600   1
   1 -23   5 495.560 46.2500   1
  -5   1 -23 550.190 43.7900   1
  -1  23  -5 529.700 42.9300   1
  14  18   6 1584.11 79.7300   1
   6  14  18 1366.61 73.6400   1
  18 -14   6 1458.99 69.2600   1
  14   6 -18 1411.48 71.0300   1
 -14   6 -18 1338.15 71.1600   1
   6  14 -18 1536.53 68.5000   1
  18  14  -6 1475.24 66.4900   1
  14  18  -6 1519.16 74.2300   1
  18  14   6 1397.91 70.6300   1
  14   6  18 1480.43 76.8300   1
   6  14  18 1487.13 81.5800   1
  14 -18   6 1358.30 87.1800   1
  14  -6  18 1483.90 79.1200   1
  18   6  14 1523.81 75.4700   1
   6  18  14 1376.17 66.1100   1
  -6   6 -22 130.360 32.0000   1
   6  18  14 1483.18 80.7900   1
  18  -6  14 1491.26 70.5800   1
  18   6 -14 1503.85 77.2400   1
   6   6  22 145.580 63.0100   1
   6  18 -14 1545.22 71.7000   1
   6  22   6 175.570 58.1300   1
  22  -6   6 94.4400 33.3700   1
   6  22   6 139.050 64.3400   1
  22   6   6 125.070 36.6900   1
   6 -22   6 170.690 37.9700   1
   6  22  -6 126.740 35.0200   1
  22   6  -6 56.8100 52.6600   1
  -4 -20  12 131.810 33.9100   1
  20   4 -12 74.0500 52.3800   1
  20 -12   4 85.8600 44.5400   1
   4  12  20 26.4700 43.7100   1
  -4  20 -12 90.9500 40.3700   1
   4  20  12 39.9500 48.7500   1
  12   4  20 118.170 41.4900   1
   4  12  20 74.2400 69.0300   1
   4  20  12 29.9500 61.4600   1
  12 -20   4 104.120 46.5900   1
  12  -4  20 61.4200 44.6600   1
  12   4  20 197.230 53.0700   1
   4  20 -12 93.4800 40.7300   1
  12  20   4 70.1400 48.9800   1
  12  20  -4 109.390 35.0200   1
  20   4  12 96.4100 33.3200   1
  20  12   4 113.900 49.8700   1
  20  -4  12 99.7800 42.8200   1
  20  12  -4 118.770 46.4800   1
 -12   4 -20 94.2300 32.4400   1
   4  12 -20 98.0300 33.7100   1
  15 -17   7 1121.02 84.4400   1
  17 -15   7 1228.29 66.9200   1
  15  17  -7 1241.19 68.1200   1
  15 -17   7 998.070 59.9600   1
  17 -15   7 1057.96 68.8400   1
  17  15  -7 1268.00 70.3100   1
  17  15   7 1167.28 60.0900   1
  15  17   7 1151.45 70.2400   1
   3  23  -5 224.990 48.9100   1
  -5  23  -3 123.780 46.4300   1
  13 -15  13 1072.68 82.1800   1
  13  13  15 1077.53 71.1900   1
  13  15  13 924.560 57.7200   1
  15  13  13 989.420 58.1700   1
  15 -13  13 1054.80 66.9000   1
  13 -15  13 1158.38 68.3000   1
  13  15 -13 1065.34 62.6900   1
  15  13 -13 1143.07 66.4200   1
  13  13 -15 1062.08 59.7500   1
  15 -13  13 929.770 60.3800   1
   3  23   5 131.510 64.2900   1
   3   5 -23 190.070 55.9200   1
  -3  23   5 239.240 67.3000   1
  -3  23  -5 198.130 51.8100   1
  15   7 -17 1282.29 70.4900   1
   7  15  17 1121.56 68.8900   1
  11   9  19 70.1900 45.5300   1
   9  11  19 47.8500 34.1200   1
  11   9 -19 32.7800 41.3300   1
   9  11 -19 108.050 38.7400   1
  23   5  -3 228.130 48.6800   1
  11  19   9 46.5500 42.5700   1
  19 -11   9 82.1500 29.7300   1
  19   9 -11 112.840 52.8400   1
  23   5   3 115.980 50.9300   1
  -3  23   5 265.570 41.3500   1
   7  15  17 1159.82 82.7700   1
   5  23   3 185.860 56.2800   1
   3  23   5 238.040 51.9100   1
  -3  23  -5 236.900 49.0400   1
   7  17  15 1116.87 85.3000   1
  15   7  17 1101.72 60.3100   1
  19   9  11 56.1100 35.0400   1
   7  17  15 1084.16 69.2700   1
  15  -7  17 1236.35 67.4500   1
  11 -19   9 53.8200 41.1300   1
   9  19  11 -10.070 61.0900   1
  11   9  19 99.3100 56.7300   1
   9  11  19 122.220 59.3000   1
  17   7 -15 1281.91 72.3800   1
   7  15 -17 1212.49 61.7300   1
   7  17 -15 1139.06 58.2200   1
  17  -7  15 1147.43 62.6100   1
  19  11  -9 55.7000 35.5400   1
  17   7  15 1155.63 65.9300   1
   5  23  -3 244.080 54.3600   1
  23  -3   5 163.900 48.2500   1
  23  -5   3 298.400 52.1900   1
  23   3  -5 195.940 54.4700   1
  23  -5  -3 199.070 52.8600   1
  23  -3  -5 257.790 41.0400   1
  -5  23   3 178.680 38.8800   1
  -3   5 -23 202.510 35.4400   1
  -5   3 -23 169.950 35.9500   1
   3 -23   5 170.160 40.0500   1
  23   3   5 144.830 37.9800   1
  19  -9  11 59.8100 36.1700   1
   9  19 -11 78.8500 41.6500   1
  11  19  -9 73.1600 39.6000   1
  19  11   9 63.5500 36.5300   1
 -11   1 -21 369.310 38.2000   1
   1  11  21 515.260 69.1800   1
   1  11 -21 483.950 57.8400   1
  11  -1  21 366.950 56.8000   1
  11   1  21 430.600 60.6900   1
  -1  11 -21 500.940 45.2100   1
 -11  -1 -21 376.550 42.8500   1
   1  11 -21 430.070 40.5700   1
  11   1  21 426.170 44.9000   1
   1  21 -11 466.260 52.1500   1
   1  21  11 259.640 54.5500   1
  11  21   1 392.870 42.6900   1
  11  21  -1 506.720 56.8700   1
  21   1  11 409.810 50.5600   1
  21  -1  11 426.510 49.5500   1
  -1  21 -11 411.010 43.2900   1
  21  11   1 435.000 43.0100   1
  21  11  -1 449.270 43.3800   1
   1 -21  11 405.930 39.3900   1
  -1 -21  11 363.920 41.4600   1
  -1  21  11 440.210 57.3700   1
  21   1 -11 564.010 60.6000   1
  21  -1 -11 494.130 58.9200   1
  21 -11   1 375.810 51.0800   1
  -1  21  11 342.630 52.9900   1
  -1  21 -11 445.870 58.2800   1
   1  21  11 411.230 55.3700   1
   8  20  10 2.67000 45.2500   1
  20   8  10 56.0500 44.9300   1
  20  -8  10 -17.640 37.1600   1
  20   8 -10 -15.170 35.9500   1
   8  20  10 -74.990 54.7500   1
   8  20 -10 13.4800 36.9500   1
  -4  22  -8 51.3700 30.6900   1
  22  -4  -8 177.820 55.3500   1
  22  -8   4 65.7700 46.4700   1
  22   4  -8 40.1700 37.8400   1
  22  -4   8 24.3100 32.2000   1
  22   8  -4 40.9600 51.9400   1
  22   8   4 114.490 52.3000   1
  22   4   8 27.3000 43.2800   1
   8  10  20 -45.720 63.6800   1
  10   8  20 -53.540 59.1500   1
   4 -22   8 45.1000 35.0000   1
  10  20   8 8.60000 58.9500   1
  10  20  -8 17.9800 39.2200   1
   8  22  -4 71.9800 34.3200   1
  20  10   8 25.0100 49.4800   1
   8 -22   4 30.2200 41.2200   1
  20  10  -8 -9.7800 34.8400   1
   4  22  -8 42.3800 40.9300   1
  20 -10   8 -4.2800 37.2300   1
   8  10 -20 -19.900 29.3200   1
   8  10  20 19.1500 42.2400   1
  10   8  20 14.2200 41.3300   1
   8  22   4 72.2900 41.2100   1
   4  22   8 50.8300 47.9200   1
   8   4  22 27.9800 42.9100   1
  -8   4 -22 45.1800 31.5100   1
  -4  22   8 23.3600 43.5100   1
   4   8  22 -20.220 63.6500   1
  -4 -22   8 43.9500 33.8900   1
  10   8 -20 3.14000 40.5300   1
   4  22   8 75.6500 50.8000   1
  12  18  10 333.830 45.7400   1
  18  10  12 307.790 54.6300   1
  10  18 -12 344.200 44.0800   1
  12  18 -10 314.210 42.7100   1
  18 -10  12 336.260 43.2700   1
  18  12 -10 372.660 40.1900   1
  18 -12  10 309.850 42.8500   1
  10  12 -18 305.230 35.6600   1
  18  10 -12 383.150 49.5700   1
  12  10 -18 398.580 48.2800   1
  10 -18  12 376.460 41.4700   1
  12  10  18 386.180 53.2000   1
  18  12  10 349.540 41.4700   1
  10  12  18 410.280 64.7700   1
  12 -18  10 354.300 47.3500   1
  10  18  12 255.660 63.9500   1
  10  12  18 232.890 51.9400   1
  12  10  18 353.090 63.1000   1
   7 -21   9 145.210 36.7300   1
   9  21   7 197.720 63.6800   1
   9 -21   7 162.300 40.0800   1
   7  21  -9 176.840 41.4200   1
   9   7  21 142.340 57.6700   1
   7   9  21 251.620 50.8800   1
   9  21  -7 159.500 45.3700   1
   7  21   9 218.040 61.9500   1
  21   9  -7 238.220 49.3500   1
  21  -7   9 73.6300 42.2200   1
  21   7  -9 168.160 52.9400   1
  21  -9   7 183.720 47.0200   1
  -9   7 -21 163.800 33.5900   1
   7   9 -21 142.130 42.5900   1
   9   7 -21 132.960 34.9700   1
   7   9  21 194.650 43.7100   1
   9   7  21 275.030 46.2900   1
   7  21   9 195.280 59.0300   1
  21   9   7 217.740 51.7400   1
  21   7   9 166.470 51.6700   1
  15 -15  11 30.1500 39.5200   1
   3  21  11 129.920 68.6400   1
  11  -3  21 17.1900 48.8100   1
  11   3  21 9.90000 49.9500   1
  11  21   3 34.7700 53.0700   1
  11  21  -3 49.6900 34.2500   1
  15  15 -11 -111.74 46.5400   1
  21   3  11 110.820 46.0600   1
   3  11  21 139.260 66.8000   1
  15 -15  11 43.2400 36.2100   1
  15 -15  11 31.2400 37.9700   1
  15  11 -15 31.6500 48.1300   1
  21  11   3 -17.440 50.6700   1
  21  11  -3 15.1100 36.1700   1
 -11   3 -21 50.4200 32.1500   1
   3  11 -21 40.3200 32.5700   1
  11  15 -15 -22.740 41.3500   1
  -3 -21  11 68.4900 36.6400   1
  21   3 -11 96.1000 53.5500   1
  21 -11   3 28.5100 46.1500   1
  11   3  21 18.9100 39.3900   1
  21  -3  11 49.3100 43.4300   1
  -3  21 -11 62.6300 40.6700   1
   3  21  11 -26.550 54.7700   1
  -3  21  11 -38.140 58.6000   1
  15  15  11 -56.470 52.7700   1
  15  11  15 -12.820 39.4900   1
  11  15  15 -40.200 55.0800   1
  16 -16   8 751.900 52.8600   1
  16   8 -16 780.510 61.2700   1
   8  16 -16 741.700 51.6700   1
  16  16  -8 725.530 48.0500   1
  16  -8  16 761.600 51.3600   1
  16  16   8 706.190 63.4300   1
   8  16  16 781.840 78.7900   1
  24   0   0 5552.55 214.320   1
   0  24   0 5243.15 199.140   1
   0  24   0 4904.57 175.630   1
  16   8  16 742.390 51.6300   1
   0   0 -24 4713.71 166.530   1
   8  16  16 782.810 63.8500   1
  16 -16   8 685.410 50.3400   1
  19  13  -7 600.530 47.1000   1
  13  19  -7 615.740 54.2300   1
  19  13   7 644.950 47.8000   1
  19 -13   7 534.760 40.8600   1
  13  19   7 667.670 51.5700   1
  13 -19   7 442.390 50.1900   1
  13 -19   7 559.150 59.1700   1
   1  23  -7 346.620 56.8600   1
   1   7 -23 230.550 49.6700   1
  -1   7 -23 279.080 42.5900   1
   7  23   1 233.720 42.6800   1
   7  23  -1 341.220 42.7900   1
  -7  -1 -23 263.710 41.5100   1
  -7   1 -23 254.340 38.6500   1
   1 -23   7 272.880 37.7900   1
  -1 -23   7 216.250 41.1800   1
  23   7   1 272.940 54.6900   1
  23   1   7 312.560 38.5800   1
  23  -1   7 337.790 50.7300   1
  23   7  -1 295.160 50.6100   1
  23   1  -7 298.570 42.0800   1
  23  -7   1 215.620 37.2600   1
  23  -1  -7 325.350 52.3200   1
  23  -7  -1 293.370 52.6000   1
  -1  23   7 280.570 42.1500   1
   1  23   7 363.600 53.5600   1
  -1   7 -23 323.420 41.4200   1
  -1  23  -7 341.470 45.4900   1
   1  23  -7 297.190 38.1600   1
  13   7  19 531.300 53.8800   1
   7  19  13 441.690 45.6600   1
   7  13  19 484.680 44.0300   1
 -13   7 -19 532.170 45.3100   1
  -7 -19  13 484.060 47.0000   1
  13   7 -19 427.210 49.3100   1
  13 -17  11 191.290 44.2400   1
  11  13  17 162.970 46.0900   1
  11  17  13 227.160 46.6800   1
  13  11  17 212.110 56.8100   1
  13  17  11 225.410 59.9100   1
  17  11  13 231.070 39.6200   1
  17  13  11 183.510 54.3800   1
  23  -5   5 104.430 34.3300   1
  11  17 -13 245.160 45.3800   1
  13  17 -11 176.950 46.1500   1
  17 -11  13 233.710 39.9200   1
  17  13 -11 212.880 50.4000   1
  11  13 -17 196.550 45.6500   1
  17 -13  11 213.110 39.3800   1
  17  11 -13 179.220 37.4000   1
  13 -17  11 230.190 38.0600   1
  17 -13  11 146.130 37.9500   1
  11  13  17 130.750 52.0300   1
  19   7 -13 575.410 54.8100   1
   7  13 -19 610.420 45.3600   1
  19  -7  13 653.500 50.1200   1
   7  19 -13 524.330 47.0100   1
  19   7  13 599.800 46.2500   1
  13   7  19 519.670 65.0100   1
   7  19  13 563.250 57.2100   1
  13  -7  19 626.710 54.3300   1
   7  13  19 528.520 73.8300   1
  -1  17  17 -81.200 66.6600   1
   1  17  17 13.2400 50.8200   1
  17   1  17 -64.600 45.0800   1
  17  -1  17 -16.830 41.7700   1
  17  17   1 17.3100 35.3500   1
  17  17  -1 -5.6700 34.9900   1
   1  17  17 -6.3800 47.6500   1
   5   5  23 58.2600 40.4200   1
   5   5 -23 -37.600 47.8200   1
   5  23   5 67.8000 65.1100   1
   5  23  -5 45.7700 50.3000   1
   5 -23   5 59.2900 38.4300   1
  -5   5 -23 57.1800 34.4500   1
  23   5   5 69.2900 51.1900   1
  13  11 -17 144.590 47.6700   1
  23   5  -5 34.6700 54.0600   1
  23  -5  -5 26.0500 52.5200   1
  -5  23  -5 10.3800 40.7800   1
   5  23   5 113.890 56.7000   1
   7   1  23 302.040 57.1000   1
  -1  23   7 342.210 54.7400   1
  -1  23  -7 273.150 52.0200   1
   1  23   7 379.420 53.7700   1
  20 -12   6 230.720 42.8900   1
   0  24  -2 3210.10 113.230   1
   2  24   0 3424.86 125.470   1
  -2  24   0 3429.89 144.950   1
   0  24  -2 3405.14 140.210   1
   0  24   2 3361.65 133.650   1
   0   2 -24 3189.18 140.040   1
  24   2   0 3379.42 120.850   1
  24   0   2 3381.07 119.690   1
   6  20  12 226.840 41.7300   1
  12   6  20 159.310 43.5600   1
   6  12  20 197.030 51.7700   1
  12   6 -20 225.260 51.6400   1
   0  16  18 21.7900 66.2800   1
  -6 -20  12 130.450 35.4600   1
  20  -6  12 185.400 43.3800   1
 -12   6 -20 195.800 36.0500   1
   0  18  16 6.95000 72.1200   1
  16   0  18 -26.130 43.8300   1
  18   0  16 -7.3900 38.7900   1
  16  18   0 4.72000 50.1300   1
  18  16   0 15.5800 50.8800   1
   0  18  16 69.6200 39.0800   1
   2  24   0 3564.45 139.060   1
   6  20  12 294.950 70.6700   1
  12  -6  20 175.630 45.7300   1
   6  12  20 268.060 51.2600   1
  20   6 -12 172.890 49.1500   1
   6  12 -20 222.870 40.7500   1
  20  12  -6 211.900 38.9500   1
  24  -2   0 3441.32 122.150   1
  24   0  -2 3412.04 120.660   1
   2   0 -24 3149.49 136.820   1
  20  12   6 197.620 38.7200   1
  20   6  12 222.930 48.6200   1
  12  20  -6 199.150 48.3800   1
   6  20 -12 212.520 41.0500   1
  12  20   6 161.240 59.4000   1
  12   6  20 176.670 55.8500   1
  12 -20   6 174.890 48.3700   1
  -2  24   0 3651.57 131.450   1
   0  24   2 3569.05 127.890   1
   0   2 -24 3199.01 129.920   1
  18   8  14 300.280 52.8400   1
  18  14   8 226.240 54.8200   1
   8  18 -14 354.220 40.0300   1
  14  18  -8 318.730 38.0600   1
  18  -8  14 328.250 41.0100   1
  18  14  -8 400.770 54.9500   1
   8  14 -18 310.670 43.3200   1
  18   8 -14 330.270 54.9500   1
  14   8 -18 323.420 53.2100   1
  18 -14   8 349.810 41.2500   1
   8  14  18 308.970 41.7200   1
  14 -18   8 298.980 44.7900   1
   8  18  14 395.210 43.4000   1
   8   6  22 67.5400 62.5400   1
  24   2   2 2453.97 99.7800   1
  24  -2   2 2361.14 96.2700   1
  24   2  -2 2393.54 98.3100   1
  24  -2  -2 2524.11 104.490   1
   2   2 -24 2291.84 101.300   1
  -2  24   2 2279.76 93.0500   1
  -2  24  -2 2333.96 95.5300   1
   2  24   2 2410.33 92.1700   1
   2  24  -2 2384.57 97.2700   1
  14  18   8 446.440 56.5600   1
   6   8 -22 50.4500 42.3800   1
   8   6  22 48.9200 39.1300   1
  14   8  18 329.940 53.8200   1
   6   8  22 70.1200 65.3100   1
  14  -8  18 327.500 47.8000   1
   8  22   6 65.5900 56.0300   1
   0  22  10 599.210 61.6400   1
  10   0  22 511.840 63.2700   1
   0  22 -10 475.620 55.2400   1
   0  10 -22 516.290 51.5600   1
  10  22   0 471.910 57.3100   1
 -10   0 -22 451.120 43.6600   1
  22   0  10 513.740 41.7000   1
  22  10   0 476.190 56.4600   1
   0 -22  10 489.790 43.7400   1
   0  10 -22 505.260 44.9100   1
  22   0 -10 597.450 62.1300   1
  22 -10   0 546.910 56.9400   1
  22   8  -6 20.1900 52.4900   1
  22  -8   6 59.4100 45.6900   1
   2  16  18 147.670 53.3800   1
   2  18  16 167.820 54.6000   1
   2  18 -16 169.130 37.9300   1
  16   2  18 235.300 47.3100   1
  16  -2  18 129.260 45.3900   1
  18   2  16 193.550 44.0600   1
   2  16 -18 214.460 37.2800   1
  18  -2  16 118.050 43.5800   1
  16  18  -2 168.870 52.7100   1
  18  16   2 262.870 54.0400   1
  18  16  -2 189.330 37.8200   1
  -2  24  -2 2620.64 115.660   1
  -2  24   2 2314.77 102.770   1
   2  24   2 2513.06 114.620   1
   2  24  -2 2216.55 96.9800   1
 -16   2 -18 234.120 39.5300   1
  -2   2 -24 2221.29 102.390   1
   2  16  18 176.770 49.2300   1
   2  18  16 78.4800 56.6300   1
  -2  18  16 154.770 48.4100   1
  -2  18 -16 147.440 36.0700   1
  -2  16 -18 181.540 35.0800   1
   8 -22   6 70.8500 39.3600   1
   8  22  -6 97.8800 34.3300   1
  16  18   2 206.660 40.2400   1
   0  22  10 451.250 45.5600   1
   0  22 -10 524.510 53.1600   1
  22   8   6 -43.800 49.9000   1
  -8   6 -22 88.9100 31.9300   1
  14 -18   8 250.230 53.6300   1
   8  14  18 301.770 53.2900   1
   8  18  14 305.560 53.1400   1
   6  22   8 146.150 51.0500   1
   6  22   8 4.65000 65.5500   1
   6  22  -8 111.250 46.7700   1
  22   6  -8 87.4000 38.6900   1
  22  -6   8 110.340 43.5700   1
  22   6   8 37.6800 48.8500   1
  15  19   1 -55.650 50.1600   1
  15   1  19 -6.8300 33.8700   1
  15  -1  19 30.8700 41.7900   1
   1  19  15 112.390 72.9400   1
   1  15  19 -69.420 70.2200   1
  -1  19  15 -3.1500 50.4900   1
  -1  15  19 71.6200 48.0200   1
  11  -5  21 199.200 48.2000   1
   5  21  11 17.1600 53.5300   1
  11   5  21 93.4800 37.4700   1
  -5  21 -11 221.860 41.4200   1
   3  23   7 -22.430 38.2800   1
  -3  23  -7 30.4800 31.9200   1
  -3  23   7 -36.950 52.1200   1
  23  -7  -3 63.5800 36.9100   1
  23  -3  -7 7.86000 52.7300   1
  23  -7   3 91.2100 35.1800   1
  23   3  -7 66.7800 38.8300   1
  23  -3   7 109.340 47.1800   1
  23   7  -3 65.6200 47.8700   1
  23   7   3 32.4100 36.6400   1
  23   3   7 73.5800 45.8500   1
  -7   3 -23 55.3900 31.7000   1
   7  23  -3 140.750 48.2600   1
   3  17  17 753.930 77.8000   1
  17   3  17 835.290 51.0300   1
  17  -3  17 896.500 58.1500   1
   3  17 -17 798.140 50.7300   1
  17  17   3 864.720 53.7900   1
  17  17  -3 867.090 60.6600   1
 -17   3 -17 757.650 51.7100   1
  17   3 -17 863.180 62.7200   1
   3  17  17 821.530 52.5100   1
  -3  17 -17 847.670 56.3500   1
   7  23   3 -31.080 52.1000   1
   3  23  -7 92.0500 45.2500   1
   3  23   7 24.3200 46.3600   1
   3   7 -23 -25.050 51.3800   1
   7   3  23 60.7100 52.2200   1
  -3  23   7 59.3000 46.6300   1
  -3  23  -7 28.2400 42.8100   1
   3   7  23 114.130 43.8200   1
   5  11  21 134.040 49.0600   1
  21 -11   5 170.160 47.1200   1
  21   5 -11 192.800 50.1900   1
   5  11 -21 115.340 36.4500   1
  -5 -21  11 139.300 39.1600   1
 -11   5 -21 144.000 32.1500   1
  21  11  -5 122.620 37.7300   1
   5 -21  11 118.710 32.5800   1
  21  -5  11 182.760 45.0000   1
  21  11   5 253.320 39.2300   1
  21   5  11 160.770 35.9600   1
  11  21  -5 211.880 44.7000   1
   5  21 -11 137.530 42.9500   1
  11  21   5 156.380 53.4900   1
  11 -21   5 196.630 49.8700   1
  11   5  21 181.500 60.4800   1
   5  21  11 126.450 62.9400   1
   5  11  21 97.9400 49.0800   1
   1  19  15 49.8900 52.5400   1
 -15   1 -19 2.78000 36.2000   1
  19  15  -1 -80.250 51.2300   1
  19  15   1 49.2200 51.8100   1
  19  -1  15 -10.160 42.0000   1
  15  19  -1 -1.8200 36.1200   1
  19   1  15 -13.540 44.1900   1
  14  14  14 1106.93 69.7700   1
  14 -14  14 1167.71 67.6100   1
  14  14 -14 1168.64 68.7600   1
   2  22  10 200.860 52.7600   1
  -2  22 -10 229.560 34.8600   1
   2  10  22 211.230 59.3100   1
  -2  22  10 216.090 52.9600   1
  -2  22 -10 231.740 51.4600   1
  10  -2  22 201.160 54.0700   1
   2  10 -22 261.310 51.3300   1
 -10   2 -22 198.950 36.5600   1
  10   2  22 208.590 53.5600   1
  14 -14  14 1166.95 86.6200   1
  10  22  -2 297.420 39.9500   1
   2  22  10 406.510 74.1500   1
   2  22 -10 251.620 49.0200   1
  10  22   2 252.350 57.4300   1
  22   2  10 258.820 38.2800   1
  22  10   2 169.700 48.4400   1
  22  -2  10 204.730 43.1600   1
   2 -22  10 248.460 37.2100   1
  22  10  -2 302.420 54.5500   1
  -2 -22  10 217.030 39.9900   1
  22   2 -10 203.930 54.6500   1
   2  10 -22 256.890 41.1700   1
  22 -10   2 384.430 52.6400   1
  22  -2 -10 229.420 42.2300   1
  -2  22  10 287.840 57.8400   1
   0  24  -4 1693.41 88.6100   1
   0  24   4 1564.25 87.6500   1
  -4  24   0 1542.80 82.7200   1
  24   0  -4 1600.06 76.4800   1
  24  -4   0 1692.70 84.9500   1
   4  24   0 1839.28 93.1000   1
   0  24  -4 1844.70 90.0000   1
   0   4 -24 1547.85 81.6900   1
   0  24   4 1696.06 88.5100   1
  -4  24   0 1653.49 78.1800   1
  24   4   0 1755.23 88.6900   1
  24   0   4 1750.90 79.8300   1
  -4   0 -24 1421.83 77.4500   1
   0   4 -24 1619.71 90.7200   1
   4  24   0 1663.79 91.6800   1
  15 -17   9 200.720 51.3300   1
  15  17   9 258.950 56.9200   1
  17  15   9 230.770 55.9000   1
  15  17  -9 273.410 46.3500   1
  17  15  -9 207.490 37.4900   1
  17 -15   9 279.430 42.3900   1
  15 -17   9 254.960 41.0200   1
  17 -15   9 247.670 44.3700   1
  15 -17   9 207.450 43.2500   1
  19  15  -3 435.510 52.6500   1
 -15   3 -19 389.300 43.1700   1
  19   3 -15 413.150 45.7300   1
   3  15  19 277.520 54.3900   1
   3  19  15 331.840 45.3400   1
  -3  19 -15 434.830 43.5400   1
  15  -3  19 404.360 45.0300   1
  15   9  17 347.840 58.5200   1
  15  19   3 318.080 57.2100   1
   3  15  19 472.810 60.0700   1
   3  19  15 446.430 61.1600   1
   9  15  17 154.320 61.0100   1
   9  17  15 168.160 50.0200   1
  15  -3  19 409.150 47.4800   1
  15  -9  17 257.660 37.3500   1
  17   9  15 220.550 40.0900   1
  15   3  19 505.410 58.4700   1
  17  -9  15 242.560 39.4900   1
   3  19 -15 416.220 43.2500   1
   9  17 -15 253.480 42.8800   1
  19   3  15 424.480 51.6200   1
   9  15 -17 286.300 44.1600   1
  17   9 -15 199.520 47.4500   1
  15   9 -17 219.110 37.8600   1
  15  19  -3 369.580 53.1400   1
  19  -3  15 480.690 48.9500   1
  19  15   3 399.400 52.4100   1
   3  15 -19 447.560 43.3500   1
   9  15  17 148.040 47.9000   1
   9  17  15 147.620 54.5300   1
   4  18  16 1622.33 104.160   1
   4  16  18 1551.97 103.900   1
  14   0  20 130.460 40.9800   1
   0  20  14 120.410 55.1000   1
  20  14   0 158.840 52.5300   1
  20   0  14 149.880 45.6000   1
  14  20   0 111.190 53.2200   1
  16  18  -4 1741.78 79.6300   1
   0  20 -14 141.040 45.3100   1
   0  20  14 95.1300 66.9800   1
   0  14  20 71.3800 45.8500   1
  -4  24  -2 1080.12 73.5500   1
  14 -16  12 183.590 48.5400   1
  12  16  14 168.650 57.8700   1
  -4  24   2 1086.17 69.7200   1
  -2  24   4 1079.86 86.0900   1
  14  16  12 176.820 54.0700   1
  16  12  14 161.820 56.1800   1
  16  14  12 206.570 50.5100   1
  16 -12  14 179.500 34.8700   1
  12  16 -14 245.080 44.0100   1
  14  16 -12 129.950 42.4600   1
  16  14 -12 166.930 45.5700   1
  -2  24  -4 1112.53 82.5100   1
  16 -14  12 190.250 37.6700   1
  16  12 -14 154.020 48.8000   1
   2   4 -24 984.480 75.4800   1
  14 -16  12 173.250 37.6700   1
  16 -12  14 178.890 38.8500   1
  16 -14  12 169.490 41.6500   1
   2  24   4 1074.28 71.6700   1
   2  24  -4 1191.15 77.7600   1
   4  24   2 1164.96 83.0400   1
   4  24  -2 1198.27 83.2700   1
  -2   4 -24 1075.55 65.3400   1
  -4   2 -24 1036.06 62.6000   1
  24   4   2 1125.86 62.4300   1
  24   2   4 1090.27 71.3700   1
  24   4  -2 1104.04 72.0400   1
  24  -2   4 1138.43 69.9800   1
  24  -4   2 1179.06 63.1400   1
  24   2  -4 1284.90 74.6100   1
  24  -2  -4 1093.95 73.4100   1
  24  -4  -2 1059.74 60.7900   1
  -4  24   2 1104.60 61.4400   1
   2   4 -24 1078.19 65.4900   1
  -4  24  -2 1192.29 64.2800   1
  -2  24   4 1099.70 62.6100   1
  -2  24  -4 1133.91 70.4900   1
   2  24   4 1085.91 68.3400   1
   2  24  -4 1132.09 68.7800   1
   4  24   2 1218.17 77.8700   1
   4  18  16 1671.98 89.5900   1
  14   0  20 183.910 51.7100   1
   4  16  18 1862.44 92.5500   1
  -4  18 -16 1706.31 89.4800   1
  16   4 -18 1704.68 96.7900   1
  18   4 -16 1719.14 89.1500   1
 -16   4 -18 1443.34 74.6200   1
  18  16  -4 1760.65 81.4300   1
   4  16 -18 1734.82 87.3500   1
  18  16   4 1589.91 81.6100   1
  18  -4  16 1752.69 85.3800   1
   4  18 -16 1828.94 87.7200   1
  16  18   4 1846.24 84.8900   1
  18   4  16 1744.98 87.6600   1
  16  -4  18 1769.12 91.5600   1
  16   4  18 1753.63 87.6000   1
  14  12 -16 156.690 47.2400   1
  14  12  16 127.630 53.4600   1
  12  14 -16 185.960 44.9800   1
  12  14  16 177.220 45.4400   1
  10 -22   4 -11.030 44.6600   1
   4  22 -10 14.0300 43.8000   1
  10  22   4 -7.2900 38.7800   1
  10   4  22 -24.860 59.8400   1
   4  10  22 -49.530 59.6100   1
  14  20  -2 55.8600 44.8700   1
  20   2  14 20.9000 44.6500   1
  -4  22  10 -33.480 45.7600   1
  20  -2  14 -20.660 29.5700   1
  20  14   2 -9.8200 45.2900   1
  14   2  20 40.3500 39.4200   1
  20  10 -10 242.210 53.8200   1
   2  20  14 -46.170 38.3500   1
  -2 -20  14 30.1100 38.1200   1
  20   2 -14 -72.550 53.7200   1
 -14   2 -20 9.76000 34.0700   1
  20  14  -2 -50.990 46.7700   1
  22  -4  10 -1.7600 44.5000   1
  22  10  -4 22.0500 53.2800   1
  -4 -22  10 -10.280 32.4100   1
  22   4 -10 -41.660 52.6500   1
  22 -10   4 21.4100 32.7800   1
  10   4  22 3.40000 38.6300   1
  -4  22 -10 25.7100 37.3700   1
   4  22  10 13.5200 56.8000   1
   2  20  14 -12.100 73.5400   1
  14  -2  20 83.3100 46.3500   1
  14   2  20 40.7700 50.7300   1
  14  20   2 -6.2900 35.6800   1
  22  10   4 68.8400 46.9500   1
  22   4  10 -8.1200 43.9500   1
  -2  20  14 -69.300 68.2500   1
  10  22  -4 -35.850 43.4900   1
   2  14  20 -18.720 70.3600   1
   4  22  10 -3.4200 47.7400   1
  10  10  20 214.620 66.3100   1
  10  20  10 186.840 64.7700   1
  10 -20  10 226.450 37.9200   1
  10  20 -10 218.820 45.3800   1
  20  10  10 216.720 50.9300   1
  20 -10  10 225.510 44.2100   1
  10  10 -20 233.870 47.1600   1
  10  10  20 225.090 46.3000   1
   5 -23   7 9.59000 34.8000   1
   7 -23   5 -4.9800 34.1800   1
   7  23  -5 5.82000 50.9100   1
   5  23  -7 13.9100 48.9900   1
   7  23   5 -65.960 62.6100   1
   5  23   7 -16.090 65.6600   1
  17   5 -17 2425.63 101.680   1
   5  17  17 2445.33 127.270   1
  17   5  17 2318.10 105.550   1
  17  -5  17 2366.25 108.350   1
  17  17   5 2378.08 100.170   1
   5  17 -17 2363.20 105.760   1
  17  17  -5 2554.85 110.190   1
   5  17  17 2282.13 114.560   1
  -5  23  -7 75.0200 39.1500   1
   5  23   7 -75.500 51.1300   1
  23  -7  -5 11.7600 55.1700   1
  23  -5  -7 19.4500 48.5000   1
  23  -7   5 -13.690 46.3100   1
  23   5  -7 24.0200 37.9600   1
  23  -5   7 25.8400 32.5400   1
  23   7  -5 47.2400 52.6800   1
  23   7   5 -13.250 51.8700   1
  23   5   7 57.9300 48.9400   1
  11 -19  11 526.370 47.9800   1
  19  11 -11 489.110 57.7500   1
  11  11 -19 471.880 52.5000   1
   7   5  23 -4.9500 56.8900   1
  11  11  19 554.300 67.4300   1
  11  11  19 512.290 55.4400   1
  21   9  -9 20.7100 47.4000   1
  11  19  11 351.640 48.4700   1
   5   7  23 -19.640 58.1300   1
   9   9  21 124.100 63.9500   1
   9  21   9 92.7600 46.1800   1
  21   9   9 -72.130 50.7100   1
   9  21  -9 102.880 44.8000   1
  21  -9   9 59.8000 30.6800   1
   9   9 -21 12.9100 43.1500   1
   9   9  21 1.55000 45.9500   1
  19  11  11 556.100 55.2300   1
  11  19 -11 439.200 39.7200   1
  19 -11  11 477.230 47.3700   1
  20  -8  12 13.2300 40.3200   1
  20  12   8 -45.310 52.4400   1
  12  20  -8 -56.490 44.8000   1
  20   8  12 21.7900 35.7400   1
   8  20 -12 28.5600 35.9200   1
  12  20   8 120.240 60.8800   1
   8  20  12 54.6500 69.0900   1
  20  12  -8 -14.480 52.3100   1
  24  -4   4 733.280 56.7300   1
   8  12  20 5.19000 59.2200   1
   8  20  12 -16.410 55.6400   1
  12   8  20 33.5300 43.7300   1
   8  12  20 -20.670 45.0700   1
  12   8 -20 51.8300 41.5700   1
  12   8  20 27.8300 41.0700   1
  20 -12   8 3.27000 41.0200   1
  20   8 -12 47.9400 47.2000   1
   8  12 -20 26.3300 39.8100   1
   4  24   4 690.020 65.1500   1
  -4  24  -4 841.410 63.2100   1
  -4  24   4 832.380 55.4000   1
  24  -4  -4 844.010 55.3200   1
  24   4  -4 758.690 66.3000   1
  24   4   4 794.770 60.7000   1
  -4   4 -24 716.920 50.3000   1
   4  24  -4 818.210 59.3000   1
   4  24   4 732.510 60.7500   1
   4   4 -24 781.300 74.9300   1
  -4  24   4 770.910 69.4500   1
  -4  24  -4 806.470 58.3300   1
  -1  23   9 190.430 57.4500   1
  23  -9  -1 258.630 39.7400   1
   1   9 -23 338.740 43.8700   1
  -1   9 -23 300.390 40.2000   1
  23  -9   1 221.300 51.6800   1
  23  -1  -9 293.610 43.0600   1
  23   1  -9 275.710 52.1400   1
  23   9  -1 331.560 42.9900   1
  23  -1   9 321.320 51.4100   1
   5  19 -15 1459.26 72.7400   1
  19   5  15 1453.58 78.6900   1
  19  15   5 1511.43 73.1000   1
  19  -5  15 1459.55 76.8200   1
  15  19  -5 1406.48 74.1800   1
  19  15  -5 1300.10 66.7100   1
   5  15 -19 1467.56 81.8700   1
  19   5 -15 1410.37 80.7300   1
   1 -23   9 257.470 36.1700   1
  23   9   1 246.520 49.7000   1
  23   1   9 312.560 52.1600   1
  -9   1 -23 268.160 40.2300   1
   9  23   1 310.950 43.7500   1
   1   9 -23 243.360 47.0600   1
   1  23  -9 279.960 54.1300   1
  -1  23  -9 296.370 56.3400   1
 -15   5 -19 1209.47 66.5000   1
  15   5 -19 1500.56 81.4700   1
   5  15  19 1279.65 67.3800   1
   5  19  15 1282.70 68.6700   1
   9  19  13 -10.270 68.9200   1
  13 -19   9 118.050 45.2300   1
   9  13  19 -36.530 67.0700   1
   1  23   9 470.590 77.3200   1
   9   1  23 198.560 60.9300   1
  -1  23   9 341.360 68.9000   1
   9  -1  23 297.550 60.9100   1
  19  13  -9 89.7700 50.8900   1
  -1 -23   9 226.340 42.0600   1
  13   9  19 68.0000 34.4700   1
   9  19  13 80.0100 58.6900   1
   9  23  -1 204.550 40.6400   1
   9  13  19 67.2200 45.4500   1
  13   9 -19 95.6600 47.6700   1
  15  19   5 1567.39 85.7900   1
  15   5  19 1399.73 73.2500   1
  15  -5  19 1410.99 78.0200   1
   5  19  15 1456.53 96.4100   1
   5  15  19 1458.16 87.7700   1
  15 -19   5 1230.06 77.0600   1
  19 -13   9 159.440 40.4100   1
  19   9 -13 147.740 52.5500   1
   9  13 -19 133.140 41.9200   1
  13   9  19 162.430 60.3200   1
  13  19   9 98.1000 43.1800   1
  19   9  13 116.290 51.9400   1
  19  13   9 150.420 49.8800   1
   9  19 -13 75.3500 40.9600   1
  13  19  -9 141.790 46.7700   1
  19  -9  13 102.570 39.6100   1
  -1  21 -13 459.370 48.5100   1
  13   1  21 484.000 47.4300   1
  13  -1  21 483.130 47.3500   1
   1  21  13 410.950 46.1600   1
  -1  21  13 432.250 61.1600   1
  21   1 -13 361.410 58.8000   1
  -1 -21  13 447.590 44.4700   1
   1 -21  13 453.970 44.3000   1
 -13   1 -21 340.720 41.3500   1
   1  13 -21 465.540 40.1700   1
  21  13  -1 459.720 45.4600   1
  21  13   1 464.000 46.8200   1
  21  -1  13 490.600 51.1000   1
  21   1  13 461.820 41.6000   1
  13  21  -1 532.750 57.8500   1
  13  21   1 428.960 44.5700   1
  13   1  21 422.630 47.4700   1
  13  -1  21 439.580 54.5300   1
   1  21 -13 474.460 51.6900   1
   1  13 -21 497.730 57.0800   1
  -1  21 -13 505.440 57.6600   1
   1  21  13 502.440 61.4400   1
  -1  21  13 554.440 78.2100   1
   1  13  21 469.250 69.2400   1
   7  21  11 17.3000 54.8900   1
  11   7  21 -13.150 43.6500   1
   7  11  21 -68.510 44.0400   1
  11   7 -21 -17.210 42.3900   1
  21 -11   7 -4.4400 38.1400   1
   7  11 -21 17.2100 39.7800   1
  21   7 -11 10.7500 47.3000   1
  21  11  -7 129.730 52.5200   1
  21  -7  11 61.7800 43.3600   1
  21  11   7 13.0300 50.4500   1
  21   7  11 -1.9900 45.1600   1
  11  21  -7 13.0600 45.7800   1
   7  21 -11 26.9500 41.5200   1
  11  21   7 1.35000 42.3100   1
   7  21  11 -64.490 48.1000   1
   7  11  21 95.8900 67.3400   1
   1  23  -9 312.720 39.2300   1
  -1  23  -9 312.180 49.6300   1
  -1   9 -23 307.260 38.9100   1
   1  23   9 266.180 60.9700   1
  16 -16  10 10.5700 36.8300   1
  -4  20 -14 113.680 37.7500   1
  -4 -20  14 100.960 38.4600   1
  20 -14   4 131.580 48.8400   1
  20  14   4 133.840 38.8700   1
  20  -4  14 156.540 42.2000   1
  14  20  -4 198.190 51.2400   1
  14  20   4 65.7500 49.5500   1
  20   4 -14 94.3900 38.1700   1
   4  20 -14 167.310 38.9000   1
   4  20  14 86.8600 52.1900   1
  16  16  10 -28.150 49.2700   1
  16  16 -10 12.4500 44.7400   1
  20   4  14 187.230 37.3200   1
   4  20  14 65.1600 39.1900   1
  22   8   8 110.960 50.7900   1
   0   6 -24 501.930 54.0800   1
  24   0   6 471.540 51.4100   1
  24   6   0 448.350 53.1300   1
  24   0  -6 543.670 62.2800   1
  24  -6   0 510.010 45.6100   1
   0   6 -24 427.220 42.1500   1
   0  24   6 629.650 51.1000   1
   6  24   0 482.200 50.7500   1
  10  16  16 37.6600 48.4800   1
  16  10  16 -38.560 56.3900   1
  10  16 -16 -12.900 40.8700   1
  16  10 -16 53.3400 45.3900   1
  10  16  16 0.33000 48.0900   1
   8 -22   8 97.7100 31.8000   1
  12 -18  12 213.020 39.2800   1
  22   8  -8 196.550 50.2800   1
  22  -8   8 70.7500 41.0900   1
  12  12  18 171.190 52.3000   1
   0  24  -6 467.210 54.5800   1
   4  14  20 152.610 46.4900   1
   8   8 -22 104.150 44.8400   1
   8   8  22 131.870 43.0400   1
  14   4  20 150.280 40.2500   1
   8  22  -8 105.780 34.2200   1
   8   8  22 184.250 61.3900   1
   4  14  20 123.550 70.5300   1
  14  -4  20 138.270 49.7500   1
  14   4  20 64.4500 54.6600   1
   8  22   8 99.4700 65.1800   1
   0  24   6 495.140 73.0300   1
  12  12  18 128.860 63.8000   1
  12  18  12 38.5300 43.4700   1
   0  24  -6 489.520 58.7500   1
  18  12  12 274.930 42.4800   1
  12  18 -12 142.090 45.4400   1
  18 -12  12 181.700 40.1700   1
  18  12 -12 217.400 47.0700   1
  12  12 -18 167.930 46.3800   1
  12 -18  12 214.930 36.8800   1
   4  14 -20 140.350 34.8000   1
 -14   4 -20 109.220 34.9300   1
  -2  24  -6 219.870 49.8500   1
   2  24   6 364.780 60.4100   1
   2   6 -24 244.230 48.8000   1
  -2  24   6 270.900 57.6200   1
  24  -2  -6 265.200 41.9500   1
  24  -6  -2 171.370 54.5700   1
  24   2  -6 235.040 40.8600   1
  24   6  -2 219.770 40.1900   1
  24  -2   6 242.690 37.8400   1
   6  24  -2 222.470 51.6800   1
  24   2   6 419.510 54.9500   1
  16  -6  18 2563.86 119.050   1
  24   6   2 336.080 55.7700   1
  -2  24   6 228.560 71.9300   1
  16 -18   6 2151.25 128.610   1
   2  24  -6 192.910 57.0400   1
   2  24  -6 261.700 40.0600   1
  16   6  18 2405.57 112.430   1
   2  24   6 224.460 68.9000   1
  16  18  -6 2512.72 108.020   1
   6  18 -16 2352.35 102.560   1
   6  24   2 261.210 63.9800   1
   6  16  18 2340.28 123.340   1
  16  18   6 2480.70 104.480   1
  18   6  16 2491.49 112.640   1
  -2   6 -24 249.420 40.7800   1
   6  18  16 2579.02 114.410   1
   6  16  18 2377.27 105.580   1
  16   6 -18 2447.51 106.040   1
  18   6 -16 2462.43 102.770   1
   6  16 -18 2522.96 108.290   1
   6  18  16 2468.77 125.690   1
  18  16  -6 2581.67 111.460   1
  24  -6   2 324.080 48.6900   1
  -2  24  -6 304.220 55.3900   1
  -6   2 -24 228.840 38.9700   1
   2 -24   6 156.650 39.8000   1
  18  16   6 2360.31 99.6700   1
  18  -6  16 2568.82 113.430   1
  13  21  -3 100.760 36.2300   1
  21   3  13 114.850 47.0600   1
  21  13   3 130.870 38.0100   1
  21  -3  13 85.3100 39.9600   1
  21  13  -3 111.050 38.8200   1
  15  13  15 214.370 60.6600   1
   3  13 -21 106.290 35.3900   1
  15  15  13 214.910 44.1100   1
   9  23   3 82.5100 53.4900   1
 -13   3 -21 109.950 35.5600   1
  15 -13  15 235.770 39.4100   1
  15  15 -13 252.640 45.8000   1
  13  15 -15 224.200 44.4400   1
  15 -15  13 241.720 39.2600   1
  15  13 -15 269.340 50.8600   1
  15 -15  13 201.260 42.2000   1
  21 -13   3 138.520 48.6600   1
   3  21  13 45.1800 38.8500   1
  -3  21 -13 114.260 35.1700   1
  13   3  21 89.2100 40.6900   1
   3   9  23 53.4800 59.9800   1
  -3  23   9 9.17000 44.8000   1
   9   3  23 24.2400 58.7400   1
   3  23   9 74.6500 50.0200   1
   3  23  -9 29.3900 33.7400   1
  15 -15  13 240.930 50.0100   1
  23  -3   9 13.5700 47.9600   1
  23   3   9 23.1400 48.0200   1
  -9   3 -23 41.7100 32.2400   1
   3 -23   9 28.3900 33.5200   1
  21   3 -13 110.820 50.5100   1
   9  23  -3 30.4400 45.7200   1
  -3 -21  13 88.7800 36.3500   1
  13  15  15 225.970 61.5700   1
   3  23   9 83.5300 40.9000   1
  -3  23  -9 12.8300 39.0800   1
  -3  23   9 38.8200 39.0700   1
  23  -9  -3 3.89000 37.1000   1
   3  21  13 32.0500 72.6000   1
  23  -9   3 -15.780 47.8700   1
  23   3  -9 -15.370 53.9200   1
  -3 -23   9 17.7200 36.5900   1
  23   9  -3 -28.390 38.2000   1
  23   9   3 99.5500 53.3900   1
  13   3  21 175.360 58.0900   1
   3  21 -13 95.2900 41.0900   1
  -3  21  13 100.550 48.2700   1
   3  13  21 27.2500 50.7500   1
  13  21   3 18.4800 53.7800   1
  23  -3  -9 -5.7400 52.8400   1
  10   6  22 -25.230 37.4300   1
  10  18  14 -26.400 55.8300   1
  10  14  18 -22.270 34.9400   1
  18 -14  10 17.7500 37.4700   1
  14  10 -18 65.6800 47.3000   1
  18 -14  10 45.4000 39.8200   1
  18  10 -14 -39.460 45.3600   1
  22   6 -10 64.8700 49.3000   1
  22  10  -6 -90.460 37.5700   1
  22  -6  10 49.9200 44.8100   1
  22  10   6 9.60000 46.0100   1
  22   6  10 -12.550 48.0700   1
  10  22  -6 -47.230 46.4100   1
  10 -22   6 24.2500 40.9600   1
  10  22   6 -73.990 58.8900   1
   6  22  10 -46.190 61.4200   1
   6  22  10 2.67000 49.7900   1
   6  10  22 18.2400 32.9300   1
   6  10 -22 1.02000 34.1400   1
  22 -10   6 37.2500 41.8300   1
  18  14  10 71.9700 37.6900   1
  10  14 -18 -15.470 37.6600   1
  18  14 -10 17.0200 35.7100   1
  18 -10  14 21.6400 37.4100   1
  10  18 -14 -57.820 40.2600   1
  14  18 -10 -35.760 45.5300   1
  18  10  14 84.5000 46.2800   1
  14  18  10 49.8300 40.9500   1
  14  10  18 -23.910 39.9100   1
  10  18  14 -17.340 59.6100   1
  10  14  18 -34.410 47.7700   1
  10   6  22 10.9300 54.0900   1
   6  10  22 50.7700 67.8700   1
   6  22 -10 -13.110 39.0200   1
  17  17  -7 2462.03 102.450   1
   7  23  -7 179.190 51.2300   1
  17 -17   7 2112.04 135.660   1
   7 -23   7 130.320 33.9800   1
  17  17   7 2159.81 95.0800   1
   7  23   7 111.920 41.7700   1
  23   7  -7 146.680 40.1700   1
  23  -7   7 206.630 43.4600   1
   7  23   7 164.060 68.0700   1
  23   7   7 150.130 52.9500   1
   7  17 -17 2541.15 109.810   1
   1  25  -1 3804.42 117.910   1
  17  -7  17 2580.00 118.770   1
   1   1 -25 3250.22 144.010   1
   7  17  17 2731.43 133.510   1
  25   1  -1 3722.72 150.010   1
  25  -1  -1 3827.31 102.270   1
   1  25   1 3863.12 117.200   1
  17 -13  13 60.0600 39.6500   1
  13  13 -17 86.8200 41.6500   1
  -1  25  -1 3576.25 138.610   1
  17   7  17 2493.76 106.900   1
   7  17  17 2422.57 109.760   1
  25  -1   1 3775.11 103.290   1
  17  13 -13 58.7500 49.5900   1
  -1  25   1 3767.00 129.010   1
  17 -13  13 26.8600 35.9300   1
  13  17 -13 4.98000 44.9200   1
  17  13  13 57.0500 48.4400   1
  13  17  13 50.2800 41.9600   1
  13  13  17 46.6600 60.3900   1
  -1  25  -1 3892.15 125.640   1
  -1  25   1 3671.81 149.940   1
  25   1   1 3846.65 113.690   1
   7   7  23 120.350 67.4700   1
  17   7 -17 2294.09 97.3600   1
   1  25   1 3920.20 123.210   1
   1  25  -1 3878.86 103.430   1
  -1   1 -25 3370.35 151.050   1
   0  12 -22 1308.02 85.7100   1
  12   0  22 1253.45 83.7100   1
   0  22 -12 1403.54 85.9700   1
   0  22  12 1348.84 98.0400   1
  12   0  22 1294.32 71.4400   1
   0  22  12 1252.89 76.1400   1
  22   0 -12 1281.60 75.4300   1
   0 -22  12 1236.53 71.2300   1
  22  12   0 1293.21 74.1800   1
  -4  24   6 86.2000 56.0000   1
   6   4  24 -23.640 56.2700   1
   4   6 -24 92.0300 56.9800   1
  22   0  12 1351.66 71.6400   1
  12  22   0 1200.09 65.4500   1
   0  22 -12 1233.12 63.6800   1
   4  24   6 179.480 61.4700   1
   6  24   4 55.1500 65.3600   1
   4  24  -6 81.1500 46.4800   1
   6  24  -4 145.990 51.8200   1
  -4   6 -24 80.6000 31.4100   1
   4 -24   6 74.4600 37.6700   1
  24   4   6 65.1500 52.1800   1
  24   6   4 82.2000 37.6000   1
  24   6  -4 46.6900 48.4300   1
  24  -4   6 84.3600 47.9600   1
  24   4  -6 17.0600 38.8900   1
  24  -6   4 63.8600 35.4600   1
  24  -4  -6 31.0100 53.9300   1
  24  -6  -4 23.9400 48.2000   1
  -4  24   6 99.9400 54.5000   1
  -4  24  -6 100.740 33.8100   1
   4  24   6 67.1700 56.1300   1
   6  24   4 78.4000 57.7500   1
   6  14  20 262.490 40.4200   1
  14   6  20 284.090 54.4900   1
  14   6 -20 258.340 52.4200   1
 -14   6 -20 210.590 36.8200   1
  20 -14   6 245.730 46.6000   1
  14  20   6 314.500 59.8800   1
   6  14 -20 284.330 41.2000   1
  20  14   6 275.660 51.0100   1
   6  14  20 333.350 56.6800   1
  14 -20   6 274.720 49.6500   1
  14  20  -6 262.470 38.4500   1
  20  14  -6 221.990 54.5200   1
  14   6  20 247.210 48.2200   1
  14  -6  20 285.820 54.2900   1
  -2 -22  12 793.700 51.7900   1
   2 -22  12 872.160 57.6900   1
   2  12 -22 916.020 60.0100   1
 -12   2 -22 817.520 51.8400   1
  22  12  -2 993.830 70.7200   1
  22  12   2 1010.67 70.8000   1
  22  -2  12 964.030 63.1400   1
  22   2  12 897.890 53.6900   1
  12  22  -2 1057.38 70.2800   1
  12  22   2 961.880 72.2200   1
   2  22 -12 1015.74 67.8000   1
  12   2  22 1019.19 74.0900   1
  12  -2  22 1025.84 75.8400   1
   2  22  12 939.400 84.1100   1
   2  12 -22 1029.21 78.0800   1
  -2  22  12 791.710 74.6700   1
   2  12  22 914.620 77.2300   1
  -2  22 -12 975.090 68.4600   1
   6  20  14 342.100 56.2000   1
   6  20 -14 288.450 42.2800   1
  20   6  14 286.440 53.1600   1
  20  -6  14 282.390 45.1900   1
  20   6 -14 337.310 56.8100   1
  -6 -20  14 215.560 38.8700   1
   6  20  14 212.380 43.6500   1
  22   2 -12 899.120 70.3500   1
  -2  22 -12 908.980 58.1500   1
   2  22  12 892.120 58.4100   1
  12   2  22 906.170 58.9100   1
  -2  22  12 794.240 69.1500   1
  22  -2 -12 942.140 61.5300   1
  22 -12   2 1050.58 69.8800   1
   3  25   1 2359.48 105.110   1
  15  11 -17 -28.190 43.2200   1
  17 -15  11 39.3800 36.9800   1
  11  15  17 111.260 52.5700   1
  15 -17  11 18.4400 38.4500   1
  11  17  15 -63.950 48.4200   1
  19  15   7 979.090 66.4600   1
   7  19 -15 998.290 59.4400   1
  15  19  -7 949.790 66.4200   1
  21  13   5 113.600 55.8800   1
   5  23   9 73.2800 39.8600   1
  -5  23  -9 22.2900 42.6100   1
   5   9 -23 -0.9200 39.2800   1
  23  -9   5 -87.100 46.7400   1
  23   5  -9 29.7500 54.3500   1
  19  -7  15 968.890 59.9500   1
  19  15  -7 1091.36 71.7700   1
   7  15 -19 996.180 59.8000   1
  19   7 -15 900.890 57.7000   1
  15   7 -19 966.160 58.0800   1
  19 -15   7 1002.25 63.4700   1
   3  25  -1 2143.89 94.7800   1
  23   9   5 -5.6800 37.0600   1
  21   5  13 56.8700 43.8500   1
  13  21  -5 73.6500 49.5000   1
   5  21 -13 39.7000 38.0100   1
  13  21   5 -2.9700 39.5600   1
  13   5  21 -66.670 40.3900   1
   5  21  13 -15.400 71.0600   1
  -1   3 -25 2057.09 102.170   1
  19   7  15 964.040 64.3900   1
   7  15  19 872.410 56.2800   1
  11  15  17 13.9600 61.2100   1
  11  17  15 50.6500 68.1300   1
  15  11  17 -10.860 39.8200   1
  15  17  11 49.5700 40.5500   1
  17  11  15 72.8600 37.5200   1
  17  15  11 44.1200 39.6800   1
  17 -11  15 60.0900 34.5900   1
  15  17 -11 31.0200 32.6800   1
  17  15 -11 -12.350 49.7800   1
  11  15 -17 -7.3300 42.3000   1
  17  11 -15 10.5800 35.3500   1
  15  19   7 994.920 69.0900   1
   5   9  23 41.4500 46.7700   1
   7  19  15 1067.31 71.9500   1
  13   5  21 -21.070 41.8500   1
  15  -7  19 994.650 66.3800   1
  15   7  19 958.630 62.4200   1
   7  19  15 942.100 71.5500   1
   7  15  19 919.030 81.1500   1
   5  13  21 38.0100 72.9200   1
   9   5  23 23.5900 43.7000   1
   5  23   9 59.9100 68.7100   1
  25   3  -1 2284.38 104.170   1
  23   5   9 6.07000 50.6100   1
   9  23  -5 34.9800 44.5700   1
   9 -23   5 1.11000 42.0300   1
  -3  25  -1 2297.61 113.970   1
  -3  25   1 2316.02 114.560   1
  -1  25  -3 2242.02 115.510   1
  -1  25   3 2247.34 109.430   1
   1  25   3 2203.15 116.360   1
   1  25  -3 2129.83 102.220   1
   3  25   1 2339.38 118.180   1
   3  25  -1 2083.34 99.7300   1
   1   3 -25 2165.99 124.290   1
  -1   3 -25 2006.83 106.800   1
  -3   1 -25 2034.85 103.000   1
  25   3   1 2184.57 93.3000   1
  25   1   3 2283.26 97.9500   1
   5  13  21 -45.810 49.3600   1
  25  -1   3 2275.72 100.500   1
  25  -3   1 2166.09 97.8400   1
  25   1  -3 2240.26 97.5700   1
  25  -3  -1 2221.91 101.430   1
  25  -1  -3 2384.70 108.290   1
  -3  25   1 2370.29 104.990   1
   3   1 -25 1929.60 92.6900   1
  -3  25  -1 2306.60 104.050   1
  -1  25   3 2439.77 109.910   1
   1   3 -25 1957.51 97.5000   1
  -1  25  -3 2214.01 98.6500   1
   1  25   3 2221.38 97.8500   1
   1  25  -3 2231.97 102.360   1
  23   9  -5 -82.090 54.4200   1
  23  -5   9 -92.280 44.5000   1
   5  21  13 7.45000 40.0500   1
  21 -13   5 5.37000 40.9700   1
  21   5 -13 -73.220 37.9100   1
   5  23  -9 3.08000 31.8600   1
   9  23   5 98.8100 62.6400   1
  21  13  -5 33.5400 53.3200   1
  15 -19   7 822.800 68.7700   1
  21  -5  13 32.5600 39.4100   1
  24   0   8 141.220 44.7900   1
   0  24  -8 210.960 44.5300   1
   0  24   8 153.850 41.4300   1
   0   8 -24 153.500 36.9500   1
  24  -8   0 224.480 48.2000   1
   0 -24   8 141.280 39.4200   1
  24   0  -8 182.480 41.3600   1
  24   8   0 131.100 39.5800   1
  -8   0 -24 143.080 28.5400   1
   8  24   0 193.450 56.5800   1
   0   8 -24 106.710 45.7200   1
   0  24  -8 149.590 56.3200   1
   0  24   8 183.400 73.8500   1
   8   0  24 148.060 54.5400   1
  25  -3   3 1456.14 80.5200   1
  25   3  -3 1462.82 79.1900   1
  25  -3  -3 1471.49 82.9000   1
   3  25  -3 1475.69 83.4700   1
   3   3 -25 1296.86 78.9100   1
  -3  25   3 1661.24 88.1800   1
  -3  25  -3 1410.88 78.6200   1
   3  25   3 1539.59 84.9800   1
  11   9  21 511.480 71.8700   1
  -3   3 -25 1313.17 74.8900   1
   9  21  11 401.300 71.0400   1
  -3  25  -3 1565.06 94.9100   1
  -3  25   3 1530.58 96.9800   1
   3  25   3 1464.37 95.1900   1
   3  25  -3 1406.56 77.7300   1
  25   3   3 1527.54 83.2800   1
   9  21  11 396.240 48.0000   1
  11   9  21 380.680 52.7100   1
   9  11  21 353.120 53.8700   1
  11   9 -21 376.160 40.3700   1
   9  11 -21 361.360 49.0400   1
  21   9 -11 437.250 59.2400   1
  21  -9  11 387.190 45.3300   1
   9 -21  11 383.790 41.8600   1
  21   9  11 422.990 55.8800   1
   9  21 -11 442.310 49.3200   1
   9  11  21 448.640 72.7700   1
  11 -21   9 339.900 43.8200   1
  21 -11   9 446.400 49.6400   1
  21  11  -9 259.170 49.9400   1
  11  21   9 287.330 63.4800   1
  11  21  -9 319.110 51.0000   1
  21  11   9 314.570 56.0700   1
   4  12 -22 403.990 44.3600   1
  -4 -22  12 320.730 43.0700   1
  22   4 -12 463.100 61.5400   1
  22 -12   4 444.840 50.3600   1
  24  -8  -2 79.3300 53.8400   1
  16  18  -8 1528.62 72.7700   1
  18  16  -8 1415.40 69.6900   1
   8  16 -18 1506.06 80.6100   1
  18   8 -16 1377.10 70.0200   1
  16   8 -18 1411.52 70.6000   1
  18 -16   8 1478.12 79.8200   1
  18 -16   8 1182.51 79.8800   1
   8  16  18 1374.17 80.1400   1
  16 -18   8 1302.48 80.3600   1
   8  18  16 1491.28 84.5800   1
   2  24   8 62.9900 56.1900   1
  12  20 -10 718.470 53.6000   1
  -2  24   8 -9.0800 53.9800   1
  24  -2  -8 10.2200 54.0000   1
  24  -8   2 10.0200 49.3900   1
  24   2  -8 -0.5500 53.3600   1
  24   8  -2 28.7700 39.6000   1
  24  -2   8 -3.0400 47.9000   1
  24   8   2 40.0600 38.2200   1
  24   2   8 22.3200 46.1800   1
   2 -24   8 8.59000 36.0700   1
  -8   2 -24 27.3200 33.9300   1
   8  24  -2 32.2200 53.4400   1
   8  24   2 -4.1200 59.1500   1
   2  24  -8 14.6100 45.6900   1
   2  24   8 64.0900 50.6900   1
  -2  24  -8 6.42000 46.1600   1
   8   2  24 3.78000 57.3300   1
  -2  24   8 65.4900 70.7900   1
  16 -18   8 1432.72 95.7400   1
   8  16  18 1564.08 102.240   1
   8  18  16 1538.40 93.9600   1
  10  12  20 825.360 65.3300   1
  12  10  20 722.250 76.0500   1
  10  20  12 620.260 58.2100   1
  12  20  10 671.680 56.3000   1
  20  12  10 813.910 65.7400   1
  20  10  12 684.250 63.9900   1
  10  20 -12 737.770 55.0400   1
  10 -20  12 744.990 55.4900   1
  20 -10  12 721.310 54.6000   1
  20  12 -10 741.560 60.0700   1
  20  10 -12 764.170 63.4400   1
  20 -12  10 713.970 51.7000   1
  10  12 -20 729.780 57.5100   1
  12  10 -20 828.190 62.1300   1
  10  12  20 658.860 49.1800   1
  12  10  20 570.780 53.0300   1
  10  20  12 623.940 52.5600   1
  16   8  18 1515.52 85.5400   1
  16  -8  18 1669.01 85.7400   1
  18   8  16 1484.71 78.5000   1
  16  18   8 1245.22 68.9700   1
  18  16   8 1509.73 81.3600   1
  18  -8  16 1620.58 82.6000   1
   8  18 -16 1541.66 75.6700   1
  -4  22 -12 346.210 42.0900   1
   4  22  12 421.540 46.5100   1
   4  12  22 443.210 75.6700   1
  12  -4  22 426.710 60.2900   1
   4  22  12 282.600 55.3600   1
  12   4  22 368.100 48.7600   1
   4  22 -12 384.320 49.1300   1
  12  22   4 503.620 59.6700   1
  12  22  -4 365.920 53.7100   1
  12   4  22 440.360 49.1900   1
  -2  24  -8 67.0700 41.4600   1
  22   4  12 375.790 52.8400   1
  22  12   4 484.130 59.2600   1
  22  -4  12 329.120 45.3800   1
  22  12  -4 429.080 57.5900   1
 -12   4 -22 314.660 38.7600   1
   4 -22  12 398.320 41.8600   1
  22  10  -8 42.7900 53.4700   1
  22  -8  10 89.0400 44.2900   1
  22   8  10 49.9900 50.9300   1
   0  18  18 5.43000 68.7000   1
  22  10   8 73.3100 52.7200   1
   8 -22  10 67.7500 31.1300   1
  10  22  -8 -35.300 47.0800   1
   8  22 -10 32.4400 38.7500   1
   8  10 -22 123.040 44.4600   1
  22 -10   8 94.0500 32.3800   1
  10  22   8 98.3300 45.3100   1
   8  22  10 78.9300 41.9200   1
   8  22  10 30.0400 47.9100   1
  14  14  16 88.0800 44.1500   1
  16  14  14 37.7300 57.3000   1
  14  16 -14 20.0200 47.1100   1
  10   8  22 220.740 66.1900   1
   6   6  24 88.1700 63.4900   1
  22   8 -10 47.2800 38.9600   1
   8  10  22 70.2100 68.5300   1
  16  14 -14 57.4700 43.3000   1
  18  18   0 70.3400 51.5600   1
  14  14 -16 21.0800 40.6200   1
  14  16  14 -53.760 42.1800   1
  18   0  18 105.240 45.7900   1
  10   8  22 108.860 34.3300   1
  10   8 -22 32.5000 40.8500   1
   8  10  22 68.9300 49.2400   1
  24  -6   6 133.200 48.7200   1
  24  -6  -6 51.6700 50.0000   1
   6  24   6 -40.850 58.6000   1
   6  24  -6 42.5600 36.2600   1
   6 -24   6 25.9800 38.4500   1
  24   6   6 13.2700 35.3300   1
  24   6  -6 34.4200 53.4200   1
   6  24   6 61.8500 67.4200   1
  -5   1 -25 503.780 44.9300   1
  25   5   1 575.710 60.7000   1
  25   1   5 582.470 47.1600   1
  25   5  -1 605.260 58.6900   1
  25  -1   5 623.510 56.0900   1
  25  -5   1 723.970 62.2500   1
   5  25   1 608.690 71.0000   1
   1   5 -25 561.400 61.5600   1
  13 -19  11 224.430 36.8900   1
  11  19 -13 224.180 33.6500   1
  13  19 -11 213.930 42.6400   1
  19  11  13 214.460 49.8800   1
  19  13  11 229.680 56.1100   1
  13  19  11 232.410 47.0800   1
  13 -19  11 196.030 44.1700   1
  11  19  13 320.290 50.5600   1
  13  11  19 194.330 58.3200   1
  11  13  19 332.920 69.7600   1
   1  25   5 702.880 63.0900   1
  13  11 -19 256.360 46.1200   1
  19 -13  11 167.070 36.8000   1
  11  13 -19 341.960 49.0100   1
  19  11 -13 252.180 53.6000   1
  23  -1  11 1638.10 80.0000   1
  23  11   1 1518.34 79.6100   1
  23  11  -1 1607.91 83.5400   1
 -11   1 -23 1355.04 78.4900   1
  -1  25  -5 721.780 72.0600   1
   1 -23  11 1532.77 86.0100   1
  -1 -23  11 1490.09 85.9700   1
   1  11 -23 1635.14 83.1200   1
  23   1 -11 1542.55 81.0800   1
  23 -11   1 1715.22 86.8900   1
  23  -1 -11 1711.60 81.4800   1
  23 -11  -1 1602.99 78.9000   1
  -1  23  11 1631.92 88.9500   1
  -1  23 -11 1532.47 76.6600   1
   1  23 -11 1622.39 81.5100   1
  -1  25   5 717.030 65.3900   1
  19  13 -11 275.420 53.6500   1
  19 -11  13 245.620 42.4000   1
  -1  17  19 220.140 70.5100   1
  -1  19  17 114.820 71.5300   1
   1  17  19 261.540 75.9300   1
   1  19  17 143.040 40.6600   1
  25   1  -5 636.730 64.3400   1
  25  -1  -5 582.440 49.5600   1
  25  -5  -1 568.950 47.9200   1
  -5  25  -1 634.460 61.0000   1
  -5  25   1 678.620 62.3900   1
   1   5 -25 510.730 47.5400   1
   1  19  17 239.370 75.9800   1
   1  19 -17 192.580 46.3500   1
  17   1  19 223.220 39.0300   1
  17  -1  19 185.490 49.9300   1
  19  -1  17 172.400 41.8900   1
  19   1  17 216.370 49.1900   1
  17  19   1 208.920 54.7500   1
  17  19  -1 196.610 38.2900   1
  19  17   1 194.740 54.8100   1
  19  17  -1 153.500 53.6300   1
  -1  23 -11 1731.47 94.4700   1
  11  -1  23 1822.86 101.460   1
  11   1  23 1687.05 89.5200   1
   1  23 -11 1731.62 95.7100   1
   1  11 -23 1711.94 99.1000   1
  11  23   1 1789.15 93.5800   1
  11  23  -1 1617.89 83.7500   1
  -1  11 -23 1732.46 89.7100   1
  -1  19 -17 184.040 38.8600   1
   5  25   1 582.560 64.6800   1
  -1   5 -25 570.140 48.8400   1
   1  25  -5 639.770 59.8300   1
  -1  25  -5 616.340 48.1600   1
   1  25   5 553.570 62.5400   1
  -1  25   5 561.370 49.5200   1
  -1  23  11 1696.53 107.290   1
   1  23  11 1635.88 92.4200   1
   1  25  -5 588.060 67.0400   1
   5  25  -1 545.510 52.9000   1
  -1   5 -25 574.260 53.7200   1
  13  11  19 260.170 52.9100   1
  11  13  19 205.050 48.1700   1
  18  -2  18 735.540 58.1900   1
   2  18 -18 801.480 56.2800   1
  18  18   2 846.020 63.2000   1
  18  18  -2 777.710 52.7800   1
   2  18  18 876.290 69.3900   1
  -2  18 -18 771.350 53.2400   1
  18   2  18 803.330 61.3800   1
   2  18  18 766.080 78.3500   1
  24  -4   8 32.8700 46.8500   1
  24   8   4 -23.320 53.0100   1
  24   4   8 -10.970 45.9800   1
   4 -24   8 48.2200 35.1800   1
   8  24  -4 86.7800 46.7500   1
   4  24  -8 10.0300 44.7600   1
   8  24   4 32.3400 62.2900   1
   0  20  16 -20.560 55.7500   1
  20  16   0 -20.560 52.0700   1
  16  20   0 43.7100 37.3900   1
  20   0  16 -3.7000 45.4000   1
  16   0  20 -24.180 42.8000   1
  12  16  16 -72.700 54.7300   1
  16  12 -16 -8.8000 44.6700   1
  12  16 -16 82.1200 39.7300   1
   4   8 -24 25.3100 51.9800   1
   4  24   8 -79.560 68.9500   1
   4  24   8 26.1500 55.8700   1
  -4  24  -8 27.4900 32.4400   1
  24  -8  -4 -27.930 54.0200   1
  24  -4  -8 47.2600 51.6200   1
  24  -8   4 20.0000 48.4700   1
  24   4  -8 25.4800 57.0800   1
  24   8  -4 -100.32 39.7400   1
  -4  24   8 -20.060 63.6400   1
  16  16 -12 127.210 48.8600   1
  16  16  12 -2.1800 40.7300   1
  16  12  16 113.920 57.1300   1
  12  16  16 -37.240 64.1100   1
   8   4  24 26.9800 61.1900   1
   4   8  24 -64.150 60.6000   1
   0  16  20 53.9700 65.1200   1
   0  20  16 102.250 71.7700   1
  23   9  -7 126.930 39.7800   1
  23   7  -9 207.300 56.6200   1
  23  -9   7 145.990 47.0700   1
   7   9 -23 105.820 43.5200   1
   7  23   9 153.040 59.2200   1
   9  17  17 918.800 57.9800   1
  17 -17   9 789.750 55.7700   1
  17 -17   9 899.430 58.6700   1
  17   9 -17 901.450 63.2400   1
  17  17  -9 872.530 61.2900   1
   9  17 -17 929.970 59.2500   1
  17  -9  17 888.030 57.1500   1
  17  17   9 873.150 65.8400   1
  17   9  17 816.090 69.4300   1
   9  17  17 876.690 68.8000   1
  17 -17   9 693.370 59.5000   1
  -3  19 -17 1527.53 70.4900   1
   3  19  17 1473.67 74.6000   1
   3  17  19 1385.05 70.5200   1
  19   3 -17 1579.67 74.0300   1
  19  17  -3 1582.15 74.4200   1
  17  19  -3 1565.31 68.9900   1
  19  17   3 1515.33 73.5600   1
   3  17 -19 1465.19 60.8200   1
  19  -3  17 1567.22 77.3200   1
  17  19   3 1633.37 69.7100   1
  19   3  17 1459.10 75.7300   1
   3  19 -17 1475.56 78.9400   1
  17  -3  19 1496.94 79.5000   1
  17   3  19 1530.59 84.4700   1
   3  19  17 1477.99 97.9200   1
   3  17  19 1437.18 96.7400   1
  13  -7  21 134.530 51.7500   1
   7  13  21 63.2500 69.2900   1
   7  21  13 215.240 72.8700   1
  13   7  21 154.430 56.9400   1
  13 -21   7 128.640 43.0900   1
  13  21   7 28.2600 52.3500   1
   7  21 -13 112.550 42.1300   1
  13  21  -7 53.0800 48.5700   1
  21   7  13 95.3500 46.9700   1
  21  13   7 47.4000 52.6500   1
  21  -7  13 133.920 43.6200   1
  21  13  -7 79.7900 38.6300   1
   7  13 -21 84.9500 36.5000   1
  21   7 -13 125.710 55.1400   1
  21 -13   7 171.960 42.3300   1
  13   7 -21 96.6500 45.2100   1
 -13   7 -21 123.710 33.8800   1
   7  13  21 113.860 37.6400   1
  13   7  21 125.660 46.0700   1
   7  21  13 102.330 51.3200   1
  -3  25  -5 355.170 53.7400   1
  -3  25   5 429.410 54.4100   1
   3   5 -25 414.410 62.0200   1
   3  25   5 338.000 63.7900   1
   5  25   3 365.850 50.9100   1
   3  25  -5 294.560 45.3400   1
   5  25  -3 370.850 62.2800   1
  -3   5 -25 327.800 41.6000   1
  -5   3 -25 291.090 40.6100   1
  25   5   3 409.720 53.5100   1
  25   3   5 323.550 50.5600   1
  25   5  -3 357.360 58.1300   1
  25  -3   5 415.540 54.3600   1
  25  -5   3 312.390 55.3600   1
  25   3  -5 329.260 41.9800   1
  25  -3  -5 347.940 58.3400   1
  25  -5  -3 395.820 45.1100   1
  -5  25  -3 300.280 48.3700   1
  -3  25   5 378.770 57.8500   1
  -3  25  -5 358.240 48.3800   1
   3  25   5 257.250 58.3300   1
   5  25   3 170.880 59.0300   1
   3  25  -5 394.910 57.8800   1
  23   7   9 130.750 50.7700   1
   7   9  23 121.780 67.4500   1
   9   7  23 150.520 48.0900   1
   7  23   9 106.240 68.7800   1
   9  23   7 188.220 59.0900   1
   7  23  -9 160.790 42.7300   1
   9 -23   7 85.5400 40.1100   1
   9  23  -7 118.250 34.7700   1
   7 -23   9 76.8500 37.3800   1
  23   9   7 10.8200 51.5100   1
  23  -7   9 77.7200 46.0900   1
  -3  23  11 1063.62 78.4500   1
   3  11  23 1057.54 84.8100   1
   3  11 -23 1058.89 79.9200   1
  11  -3  23 1111.43 79.1100   1
   3  23  11 1227.41 88.9700   1
  11   3  23 1012.55 80.3600   1
   3  23 -11 1065.72 69.6300   1
  11  23   3 1000.56 73.7800   1
  11  23  -3 892.350 55.9400   1
  23   3  11 1069.77 67.1200   1
  23  11   3 1016.21 59.7800   1
  23  -3  11 956.550 55.8500   1
 -11   3 -23 899.820 54.2200   1
  23  11  -3 1022.71 60.5200   1
   3 -23  11 1046.83 69.4300   1
  -3 -23  11 930.080 60.2500   1
   3  11 -23 1059.05 61.7900   1
  23   3 -11 1076.81 74.4200   1
  23 -11   3 1078.87 69.7700   1
  23  -3 -11 1144.02 78.6300   1
  11   3  23 988.520 61.6700   1
  -3  23 -11 1093.72 63.0600   1
   3  23  11 1042.35 73.7900   1
  20  -2  16 246.820 43.3700   1
  20   2 -16 269.070 58.2600   1
 -16   2 -20 196.730 39.0200   1
  20  16  -2 216.500 54.7300   1
  20  16   2 158.340 58.0500   1
  16  20  -2 294.690 53.8700   1
   2  20 -16 191.060 42.4600   1
   2  16 -20 201.260 34.7000   1
  14   8  20 -63.610 46.7600   1
  16  20   2 148.220 54.9400   1
  16   2  20 224.190 39.3800   1
  16  -2  20 238.930 44.6100   1
  20  14   8 50.6300 54.9400   1
   2  16  20 258.920 75.2900   1
  -2  20  16 149.580 48.9400   1
   2  20  16 224.770 76.9300   1
  20   8  14 -30.050 50.6400   1
   8  20  14 -35.280 56.6400   1
   8  14  20 17.2300 36.0600   1
  14   8 -20 23.4800 49.2500   1
  20   8 -14 -34.060 37.3300   1
   8  14 -20 18.7900 39.1400   1
  -2  20 -16 197.810 39.4600   1
  16  -2  20 223.840 42.6300   1
  20   2  16 217.350 49.3100   1
   2  20  16 241.920 59.1200   1
  20  14  -8 -57.300 36.7000   1
  14  20   8 -20.190 59.5400   1
  14  20  -8 6.87000 42.3500   1
   8  20 -14 28.2700 36.3400   1
   8  14  20 -31.970 62.8100   1
   8  20  14 -79.470 70.7500   1
  14 -20   8 1.13000 47.1100   1
  14   8  20 -34.960 56.0800   1
  18 -14  12 89.8200 42.3900   1
   4  18  18 2477.53 95.2900   1
  18   4  18 2577.29 79.0800   1
  18  -4  18 2502.25 92.2800   1
  18 -14  12 97.6600 37.3400   1
  18  14 -12 108.070 36.2400   1
  18  18   4 2519.70 76.9800   1
  14  18 -12 47.0700 46.1600   1
   4  18 -18 2679.85 89.5300   1
  18  18  -4 2628.30 85.7300   1
  18  14  12 72.8600 55.2600   1
  14  18  12 114.280 42.5200   1
  14 -18  12 86.8000 39.7100   1
  18   4 -18 2639.03 81.3200   1
   4  18  18 2516.18 88.3500   1
  14  12 -18 109.350 43.8600   1
  18  12 -14 108.380 37.1500   1
  12  14 -18 60.4500 43.7700   1
  18 -12  14 117.140 37.1200   1
  12  18 -14 104.600 44.9300   1
  18  12  14 83.2900 38.9300   1
  14  12  18 49.9400 55.2000   1
  12  18  14 64.8400 46.5800   1
  12  14  18 148.680 66.8900   1
  22  12   6 516.130 44.2800   1
  22   6  12 429.060 42.0000   1
  12  22  -6 362.070 47.2000   1
  12  -6  22 533.020 60.9800   1
   6  12  22 521.170 70.8900   1
   6  22  12 412.800 57.0400   1
  12   6  22 522.960 67.9300   1
  12 -22   6 402.160 53.2900   1
  12  22   6 448.600 57.0400   1
  22  -6  12 406.620 38.1000   1
   6  22 -12 469.920 47.0200   1
   6  22  12 382.160 60.7500   1
  12   6  22 436.490 49.7100   1
   6  12  22 400.470 53.6500   1
  22 -12   6 448.660 39.8400   1
 -12   6 -22 389.000 37.0500   1
  22   6 -12 426.930 53.9900   1
   6  12 -22 440.390 43.4000   1
  22  12  -6 417.410 42.9900   1
   6 -22  12 472.020 42.1700   1
  -6 -22  12 302.760 44.4500   1
  12  14  18 85.8600 48.0500   1
  18 -12  14 67.7000 39.4200   1
  19  -9  15 339.720 41.4400   1
   9  15  19 319.180 42.1800   1
  15   9 -19 331.730 54.7500   1
   9  15 -19 235.490 43.9100   1
  15   9  19 312.820 44.8900   1
  19   9 -15 298.370 40.8700   1
  15  -9  19 367.160 50.3800   1
   9  19 -15 391.170 45.0300   1
   9  19  15 183.510 58.0900   1
  19   9  15 331.250 50.5700   1
   9  15  19 304.560 52.9800   1
   9  19  15 297.900 66.5200   1
  21  15  -1 -17.890 48.6800   1
  15 -19   9 239.940 51.4300   1
  19  15  -9 279.840 54.9400   1
  15  19  -9 348.920 46.5000   1
  19  15   9 321.420 59.2400   1
  21  -1  15 31.6000 45.4000   1
  15  19   9 327.460 56.9600   1
  -1  21 -15 94.3700 35.0700   1
  15  -1  21 48.9600 39.2400   1
  19 -15   9 367.820 47.1000   1
  19 -15   9 203.910 44.9600   1
   1  21  15 77.1900 56.1400   1
  21   1 -15 70.6900 50.7000   1
  15 -19   9 291.250 46.5500   1
  21   1  15 124.390 46.8400   1
  -1  21  15 100.550 52.5800   1
  15  21  -1 51.3000 48.2300   1
  15  21   1 57.3800 48.4200   1
  15   1  21 12.5600 46.8200   1
  15  -1  21 53.8500 50.2300   1
   1  21  15 106.850 53.5700   1
   1  15  21 -29.590 47.9500   1
  21  15   1 56.3700 52.9900   1
  16   4 -20 1512.47 63.0800   1
  -4  20 -16 1405.80 61.6800   1
  20   4 -16 1680.88 75.1300   1
  16  20  -4 1523.50 58.6400   1
  20  16   4 1570.19 69.0400   1
  20  -4  16 1610.17 62.7300   1
 -16   4 -20 1314.15 68.1600   1
  16  20   4 1671.08 75.9600   1
   4  20 -16 1643.46 63.7900   1
  16  -4  20 1636.15 73.8400   1
  16   4  20 1760.28 78.6800   1
  20  16  -4 1559.37 60.6600   1
  20   4  16 1521.93 65.3000   1
   4  16 -20 1628.28 69.4200   1
  16  -4  20 1551.90 77.3400   1
   4  20  16 1405.83 69.0600   1
   4  16  20 1401.92 69.9200   1
   4  16  20 1569.05 95.3800   1
   4  20  16 1684.16 98.2500   1
  25  -5  -5 20.6100 55.6000   1
  25  -5   5 -49.680 50.0900   1
  25   5  -5 14.1300 55.1600   1
  25   5   5 -110.38 52.6200   1
  25   1  -7 39.1400 40.0200   1
   5  25   5 101.010 60.8200   1
   5  19  17 3285.78 94.0200   1
  19  -5  17 3437.09 112.680   1
  -1  25  -7 15.3200 38.5600   1
   5  19 -17 3465.03 102.700   1
  19  17   5 3384.32 95.2900   1
   5  17 -19 3429.52 98.5600   1
  17  19  -5 3229.00 86.8900   1
  19  17  -5 3553.79 103.460   1
  19   5 -17 3296.73 93.2200   1
   5  17  19 3289.28 92.4800   1
   1  25  -7 1.31000 49.8800   1
  -1  25  -7 15.2400 43.6500   1
  -1  25   7 -15.040 55.8200   1
   1   7 -25 59.0000 38.2400   1
  25  -7  -1 8.32000 37.3200   1
  25  -1  -7 98.4400 56.1500   1
  25  -7   1 77.6300 53.4800   1
  25   7  -1 16.8500 47.6500   1
  25  -1   7 29.6500 45.2000   1
  25   7   1 75.8000 39.4800   1
  25   1   7 92.1800 44.7800   1
  -7   1 -25 9.47000 35.4400   1
   7  25  -1 92.0800 56.7700   1
   7  25   1 63.4800 42.2500   1
   1   7 -25 23.8400 45.6500   1
   1  25  -7 47.2500 54.6800   1
   1  25   7 69.1100 64.7300   1
  17   5 -19 3432.79 95.1500   1
   5  25  -5 23.3500 48.1900   1
   5  17  19 3554.32 121.690   1
   5  19  17 3403.64 118.200   1
  17   5  19 3379.06 105.320   1
  17  -5  19 3494.30 106.720   1
  19   5  17 3256.31 94.2200   1
  17  19   5 3290.02 92.7200   1
  -1  25   7 -15.320 49.2100   1
   5  25   5 -67.610 56.0700   1
  -5  25  -5 1.61000 41.8000   1
  11  -5  23 684.570 58.7200   1
   5  11  23 700.150 61.1500   1
  11   5  23 623.170 84.4800   1
   5  23  11 512.200 76.3800   1
  11  23   5 605.780 51.4800   1
   5  23 -11 638.470 49.6000   1
  11  23  -5 618.170 44.4300   1
  23   5  11 624.570 44.6600   1
  23  11   5 608.950 54.4100   1
  23  -5  11 659.590 49.9000   1
   5 -23  11 572.590 50.1100   1
  23  11  -5 568.530 59.8700   1
 -11   5 -23 608.040 43.1500   1
  23   5 -11 749.000 63.2500   1
   5  11 -23 643.990 48.6300   1
  23 -11   5 675.910 62.8100   1
  -5  23 -11 647.980 51.5500   1
  11   5  23 624.430 52.0600   1
   5  23  11 631.220 65.8900   1
   3  21  15 -112.89 74.3800   1
 -15   3 -21 47.5000 34.7200   1
  21   3  15 13.4900 47.2900   1
   3  21  15 -120.06 56.6300   1
  15  15 -15 -0.0700 46.6100   1
  15  15  15 -53.180 60.1000   1
   3  15  21 -44.150 72.9000   1
  15  -3  21 65.7800 43.0700   1
  15   3  21 51.7600 39.1300   1
   3  21 -15 70.0500 38.7100   1
  15  21   3 30.3600 48.8700   1
  15  21  -3 119.410 51.2800   1
  15   3  21 68.9700 40.9900   1
  21   3 -15 -86.010 49.6300   1
  21  15  -3 69.0600 39.1500   1
  21  15   3 3.02000 55.0800   1
  21  -3  15 5.33000 43.8400   1
  10   0  24 1392.73 81.7200   1
   0  24 -10 1412.75 77.3800   1
   0  10 -24 1254.75 74.7400   1
  10  24   0 1429.93 74.2000   1
  24   0  10 1363.17 65.2800   1
  24  10   0 1439.47 69.7900   1
   0  10 -24 1326.95 69.5300   1
  24   0 -10 1392.39 59.5400   1
   6   8 -24 303.720 57.5200   1
  24   8   6 330.170 42.0400   1
   8   6  24 477.580 70.7700   1
   6  24   8 259.550 71.9400   1
   8  24   6 310.190 66.7000   1
  24 -10   0 1429.05 65.7200   1
   0  10 -24 1280.81 67.1000   1
   0  24  10 1332.01 66.2100   1
   0  24 -10 1271.54 60.2800   1
   8 -24   6 228.540 43.4800   1
   8  24  -6 348.050 49.8400   1
  24   6   8 376.400 51.9600   1
   6 -24   8 221.150 38.8700   1
  -8   6 -24 289.470 39.3600   1
  24   8  -6 277.590 56.4700   1
  24  -6   8 323.550 50.0500   1
  24   6  -8 261.400 58.4100   1
  24  -8   6 307.710 51.0400   1
   6  24  -8 339.230 47.9800   1
   6   8 -24 328.330 44.8300   1
   6   8  24 342.100 53.5900   1
  24  -6  -8 309.580 46.1200   1
   6  24   8 261.990 44.6900   1
   0  24  10 1391.70 76.0900   1
   0  26   0 3923.16 121.160   1
  26   0   0 3729.69 99.1200   1
   0  26   0 3721.90 103.270   1
  -2  24  10 1182.32 56.6700   1
   2  24  10 1273.33 67.7500   1
  -2  24 -10 1092.71 51.3700   1
  16 -18  10 327.120 45.6800   1
  18 -16  10 390.140 47.2300   1
  16 -18  10 400.930 43.8300   1
  18 -16  10 382.360 43.8100   1
  10  -2  24 1275.96 75.7400   1
  18  16 -10 451.220 42.7900   1
  16  18 -10 424.600 48.2500   1
  18  16  10 428.000 60.1600   1
  16  18  10 348.000 56.4200   1
  16 -18  10 329.090 54.3700   1
  -2  24 -10 1164.03 70.9900   1
  -2  24  10 1114.20 85.1600   1
  10   2  24 1246.67 75.8100   1
   2  24  10 1241.03 90.1200   1
   2  10 -24 1117.63 76.4500   1
   2  24 -10 1196.68 69.1200   1
  10  24   2 1065.89 65.5700   1
  10  24  -2 1122.94 68.2500   1
  -2  10 -24 1167.98 59.5800   1
  24   2  10 1197.08 64.4900   1
  24  10   2 1269.41 68.4300   1
 -10   2 -24 1092.63 63.6300   1
  24  -2  10 1289.26 64.1800   1
   2 -24  10 1064.52 62.1300   1
  24  10  -2 1196.55 67.0200   1
  -2 -24  10 991.970 56.4600   1
  24   2 -10 1212.86 71.1500   1
  24 -10   2 1086.24 63.8000   1
   2  10 -24 1228.22 62.0600   1
  24  -2 -10 1230.58 71.5000   1
  24 -10  -2 1282.07 68.8400   1
  -2  26   0 2470.64 97.5800   1
   0  26   2 2627.34 107.380   1
   0  26  -2 2489.46 102.530   1
   2  26   0 2617.16 101.530   1
  26   2   0 2329.10 75.4200   1
  26   0   2 2355.52 81.4300   1
  26  -2   0 2322.49 81.1100   1
  26   0  -2 2587.72 83.6600   1
  -2  26   0 2463.99 85.7000   1
   0  26   2 2243.54 73.4000   1
   0  26  -2 2337.15 84.4600   1
   2  26   0 2377.06 86.0400   1
   0   2 -26 2214.96 87.3400   1
  14   0  22 863.630 54.8000   1
  14   0  22 790.210 62.5800   1
   0  22  14 688.900 63.3400   1
  22   0 -14 958.940 67.5300   1
  22  14   0 897.480 51.0200   1
  22   0  14 816.780 51.7500   1
   0 -22  14 742.270 57.1100   1
  18  10  16 443.850 43.8800   1
  14  22   0 768.930 48.7600   1
  16  10  18 343.980 56.3200   1
   0  22 -14 865.530 69.9700   1
   0  22  14 993.660 85.7600   1
  18 -10  16 460.070 43.2500   1
   0  22 -14 885.040 52.8800   1
  16  10 -18 527.840 56.9500   1
  10  16  18 427.470 58.0900   1
  10  18  16 461.360 45.3000   1
  18  10 -16 381.320 43.8300   1
  10  16 -18 502.120 48.2500   1
  10  18 -16 395.800 45.6800   1
  16 -10  18 464.650 47.4400   1
  10  18  16 401.150 67.4900   1
  10  16  18 424.280 55.3200   1
  13  17 -15 38.5800 45.3000   1
  17  15  13 81.7700 57.8100   1
  17  13  15 12.6000 38.3300   1
  15  17  13 0.69000 41.9100   1
  15  13  17 -9.3900 60.4900   1
  13  17  15 -17.850 45.4100   1
  13  15  17 10.4600 45.3600   1
  -3  25  -7 -6.1800 47.5000   1
  -3  25   7 29.4800 38.8200   1
  25  -7  -3 -16.280 38.1800   1
  25  -3  -7 54.4200 50.3700   1
  25  -7   3 9.74000 45.1100   1
  25   3  -7 60.7800 56.3600   1
  25  -3   7 -14.390 35.0700   1
  25   7  -3 31.8700 39.7600   1
  11  11  21 1451.01 64.8900   1
  11  11 -21 1388.59 55.7500   1
  -3  25  -7 -32.480 49.8700   1
   3  25   7 -36.600 61.9100   1
  25   7   3 25.0800 37.5100   1
  11  11  21 1495.03 86.7500   1
  25   3   7 24.3900 46.7200   1
   7  25  -3 90.1900 53.7100   1
  13  15 -17 13.0200 46.3300   1
   3   7 -25 -13.760 51.1900   1
  15  17 -13 5.21000 41.6800   1
   7   3  25 12.0300 40.6300   1
  17  15 -13 -41.810 50.2800   1
  17  13 -15 32.6600 49.5400   1
   3  25   7 -73.580 57.4100   1
  15  13 -17 3.72000 42.3700   1
  13  15  17 -32.750 37.1000   1
   3  25  -7 26.8300 53.3000   1
   7  25   3 -18.150 57.1600   1
  21  11 -11 1528.78 60.3300   1
  21 -11  11 1368.18 53.7100   1
  21  11  11 1490.25 60.3000   1
  11  21  11 1405.46 66.9000   1
  11  21 -11 1480.87 63.9900   1
  10  22  10 608.080 71.8900   1
  10  10  22 693.120 75.7600   1
  22  10  10 673.840 54.8400   1
  22 -10  10 623.850 51.5000   1
   6  18 -18 4363.45 163.250   1
  22  10 -10 691.930 56.8200   1
  10  10 -22 722.430 54.3600   1
  10  10  22 591.220 43.8200   1
   2  14  22 445.460 66.6300   1
  -2  22  14 310.160 72.2500   1
   2  14 -22 424.830 57.4300   1
  -2  26  -2 2223.23 97.1600   1
  -2  26   2 2105.99 93.3200   1
   2  26   2 1969.08 96.1400   1
   2  26  -2 2119.78 93.9600   1
  -2   2 -26 1824.91 87.8800   1
  26   2   2 2030.87 78.6400   1
  26   2  -2 2047.51 69.7200   1
  26  -2   2 1960.48 68.7500   1
  26  -2  -2 2017.72 78.5400   1
  -2  26   2 1960.97 68.6000   1
  -2  26  -2 1945.94 73.8500   1
   2  26   2 1944.15 74.6100   1
   2  26  -2 2078.04 76.3900   1
  10  22 -10 676.900 50.7800   1
   6  18  18 4006.30 128.320   1
  18   6  18 4279.69 121.590   1
  18  -6  18 4443.53 169.470   1
  18  18   6 4484.85 158.520   1
  18  18  -6 4291.65 108.780   1
  18   6 -18 4256.11 115.100   1
   6  18  18 4236.99 123.850   1
   2  22  14 311.250 57.9400   1
  14  -2  22 360.620 56.6600   1
  14   2  22 513.860 49.8000   1
   2  22 -14 393.290 49.5300   1
  14  22   2 349.820 57.5900   1
  14  22  -2 404.310 56.1600   1
  22   2  14 396.870 39.9500   1
  22  -2  14 472.580 51.1700   1
  22  14   2 404.450 42.4100   1
   2  14 -22 440.420 41.1600   1
  22  14  -2 361.630 43.3800   1
 -14   2 -22 346.880 37.6500   1
  22   2 -14 432.890 45.4900   1
  -2 -22  14 376.550 42.0400   1
  14  -2  22 414.330 44.1600   1
   2  22  14 252.730 59.9900   1
  14   2  22 355.480 44.4100   1
  -2  22 -14 405.900 46.8400   1
  10 -22  10 626.100 46.6600   1
  12  20  12 615.080 56.0600   1
  12  12  20 714.830 46.7000   1
  12  12 -20 734.900 51.8900   1
  20 -12  12 780.680 52.0800   1
  12  20 -12 712.640 49.3200   1
  20  12  12 721.570 48.9000   1
  12  12  20 745.400 67.8100   1
  20  12 -12 736.700 56.1200   1
  13  21  -9 459.870 51.5400   1
  21  13   9 535.810 46.2700   1
   9  21 -13 491.000 48.6700   1
  21   9  13 461.620 57.7400   1
  13  21   9 627.180 69.7200   1
  13 -21   9 427.050 49.7900   1
  13   9  21 484.060 70.8200   1
   9  21  13 505.610 55.1200   1
   9  13  21 579.110 69.9100   1
  23   9  -9 9.64000 54.5300   1
  23  -9   9 -33.180 44.4000   1
 -15   5 -21 269.780 41.3300   1
   9   9 -23 20.5500 39.7000   1
   9  23   9 -20.750 42.8600   1
  21  13  -9 435.680 58.3600   1
  21  -9  13 465.000 44.2600   1
  21  15  -5 331.050 57.1900   1
   9  21  13 470.320 57.0600   1
  21   5  15 359.450 53.1300   1
   9   9  23 -103.80 66.8200   1
   9  23   9 22.5700 46.3200   1
  15   5  21 268.010 45.7900   1
   5  21  15 354.150 55.0500   1
   5  15  21 366.970 56.8200   1
  15   5 -21 420.940 52.9700   1
  21 -15   5 322.320 47.1200   1
   9  23  -9 10.2900 42.4300   1
  21   5 -15 329.350 58.8500   1
   5  15 -21 338.730 42.1400   1
  23   9   9 15.4600 53.1400   1
  21  -5  15 303.800 45.7800   1
  21  15   5 304.260 55.1400   1
  15  21  -5 360.840 40.3100   1
  15  21   5 314.700 59.8500   1
   5  21 -15 333.160 42.8700   1
  15   5  21 398.520 56.3500   1
  15  -5  21 407.490 55.4000   1
   5  21  15 245.010 66.8800   1
   5  15  21 253.300 76.3100   1
  13   9  21 456.500 48.3000   1
   9  13  21 414.170 42.0300   1
  13   9 -21 439.640 49.4300   1
  21 -13   9 489.320 50.2400   1
  21   9 -13 467.330 55.1000   1
   9  13 -21 538.480 45.1600   1
   6  16  20 1752.14 97.9500   1
   6  20  16 1838.09 98.1900   1
  16  -6  20 1850.87 76.7300   1
  16  20   6 1652.72 65.4200   1
  20   6  16 1620.51 61.7300   1
   6  20 -16 1782.92 74.5200   1
  20  16   6 1714.03 75.1800   1
  20  -6  16 1776.59 73.7700   1
  16  20  -6 1657.79 67.0300   1
  20  16  -6 1979.08 76.9500   1
  -4  26   0 793.150 65.4000   1
  16   6  20 1718.04 74.5900   1
   4  24 -10 615.450 58.5500   1
   0  26   4 729.490 78.2300   1
   0  26  -4 922.030 70.6100   1
   4  26   0 796.030 74.1700   1
   0   4 -26 815.540 58.5900   1
  26   4   0 901.730 63.8900   1
  26   0  -4 850.240 51.0400   1
  26  -4   0 735.610 61.6200   1
  -4  26   0 786.070 56.5900   1
   0  26   4 748.770 63.4100   1
   0  26  -4 847.990 63.2400   1
   0   4 -26 740.040 51.5600   1
  24  -4  10 553.350 42.5200   1
  24  10  -4 665.030 48.1900   1
   4  24  10 554.720 50.0000   1
  24   4 -10 648.060 61.6300   1
   6  20  16 1693.32 65.2000   1
   4  10  24 544.740 66.7600   1
   4  24  10 465.670 77.2900   1
  10   4  24 586.690 73.1600   1
  24 -10   4 572.550 56.2400   1
   4  10 -24 666.350 47.9600   1
  24  -4 -10 528.770 64.0600   1
   6  16  20 1765.06 74.7200   1
  20 -16   6 1747.10 74.0700   1
  16   6 -20 1824.32 70.9500   1
  -4  24 -10 596.060 52.7100   1
  20   6 -16 1698.69 64.7500   1
   6  16 -20 1737.11 70.7100   1
   4  10 -24 575.320 63.8300   1
  10  24   4 691.090 52.8400   1
  10  24  -4 634.530 55.3100   1
  24   4  10 620.600 45.0300   1
  24  10   4 599.270 54.4800   1
   4 -24  10 580.610 44.5000   1
 -10   4 -24 486.590 44.2300   1
  26   0   4 850.150 49.1300   1
   4  26   0 823.560 51.4400   1
  12  22  -8 762.540 52.1600   1
  22   8  12 620.640 57.6600   1
  22  12   8 643.320 59.8800   1
  22  -8  12 678.760 52.7000   1
  22  12  -8 619.740 60.1100   1
   8  12 -22 722.780 51.3300   1
  22   8 -12 721.700 49.2600   1
  22 -12   8 639.600 49.0300   1
  12   8 -22 632.760 44.8100   1
   8  12  22 633.900 58.5200   1
  12   8  22 590.300 54.2800   1
   8  22  12 711.910 60.3400   1
   8  22 -12 672.270 51.0300   1
   8  22  12 457.180 75.1100   1
  12 -22   8 569.970 52.6300   1
   8  12  22 657.130 73.9800   1
  12   8  22 614.270 70.4400   1
  12  22   8 768.170 64.2000   1
  22   4  14 53.6300 49.2400   1
  22  14   4 104.580 40.1400   1
  22  -4  14 121.360 44.9400   1
  22  14  -4 136.460 53.7400   1
   4  14 -22 132.740 37.4100   1
 -14   4 -22 109.030 34.9400   1
  22   4 -14 125.760 40.4900   1
  22 -14   4 118.300 45.3400   1
  -4 -22  14 78.1100 38.0900   1
  -4  22 -14 145.000 37.1900   1
   4  22  14 120.670 58.1000   1
  14   4  22 130.400 39.4700   1
  10  14  20 -30.770 69.7500   1
  10  20  14 93.5700 51.5300   1
  14  10  20 -70.390 42.7400   1
  14  20  10 20.7800 55.3200   1
  20  10  14 -43.930 52.7600   1
  20  14  10 50.0500 38.3400   1
  10  20 -14 28.0300 42.1800   1
  14  20 -10 -60.720 48.2500   1
  20 -10  14 21.5400 39.6100   1
  20  14 -10 14.6300 47.4200   1
  10  14 -20 23.3400 29.7300   1
  20  10 -14 85.3400 54.1600   1
  20 -14  10 12.1600 42.1100   1
  14  10 -20 60.6500 50.1000   1
  10  14  20 18.8100 36.5300   1
  14  10  20 31.4300 44.4700   1
  10  20  14 29.9900 41.1500   1
   2  26  -4 408.070 58.2800   1
   4  14  22 66.0700 52.2300   1
   4  22  14 127.740 54.1200   1
  14  -4  22 120.980 51.3800   1
  14   4  22 120.320 58.9700   1
   4  22 -14 139.020 42.9500   1
  14  22   4 101.170 40.4200   1
  14  22  -4 70.8000 51.8200   1
  -4  26  -2 435.250 57.4700   1
  -4  26   2 478.690 61.0100   1
  -2  26   4 342.930 64.3400   1
  -2  26  -4 416.280 50.6000   1
   2  26   4 400.260 67.6500   1
   4  26   2 549.640 64.1900   1
   4  26  -2 428.960 58.9500   1
  -2   4 -26 319.320 44.7400   1
  -4   2 -26 422.430 45.3800   1
  26   4   2 470.550 53.6500   1
  26   2   4 433.300 42.4600   1
  26   4  -2 408.370 57.4800   1
  26  -2   4 395.390 51.2500   1
  26  -4   2 408.450 42.1300   1
  26   2  -4 406.280 59.7100   1
  26  -4  -2 478.980 59.4900   1
  26  -2  -4 478.640 60.5200   1
  -4  26   2 418.440 57.2800   1
  -4  26  -2 446.550 43.5400   1
   2   4 -26 400.940 45.0800   1
  -2  26   4 472.830 45.6100   1
  -2  26  -4 518.860 43.6400   1
   2  26   4 463.090 63.4600   1
   4  26   2 519.890 60.1700   1
   2  26  -4 425.390 57.3800   1
   4  26  -2 443.320 61.1300   1
  17  -7  19 3259.92 116.030   1
  25  -7   5 281.720 51.6300   1
  25   5   7 317.360 50.3300   1
   7  25   5 181.660 54.1900   1
   5  25   7 265.900 59.7100   1
  -5  25  -7 255.980 45.0100   1
  25  -5  -7 214.240 41.7000   1
  25  -7  -5 264.720 57.3400   1
  25   5  -7 316.480 51.9900   1
  17 -11  17 495.380 45.4000   1
  17  17 -11 488.350 54.7100   1
  11  17 -17 506.910 49.1300   1
  17  11 -17 557.470 57.2000   1
  17 -17  11 540.390 46.3200   1
  17 -17  11 407.380 45.9700   1
  11  17  17 487.230 59.4500   1
  17   7  19 3047.27 95.2300   1
   7  19  17 3026.77 114.210   1
   7  17  19 3115.91 117.570   1
  17  11  17 512.230 47.3600   1
  11  17  17 559.980 76.2400   1
   7  11  23 467.250 56.8800   1
   1  13 -23 1658.86 74.8300   1
  23   1 -13 1783.59 66.2600   1
  23  -1 -13 1750.24 78.0900   1
  23 -13   1 1842.06 74.7200   1
  -1  23  13 1584.74 74.2300   1
  13   1  23 1847.34 72.1000   1
   1  23  13 1897.17 80.7300   1
  -1  23 -13 1723.91 71.3800   1
  25  -5   7 271.230 37.6400   1
  17  17  11 404.060 60.8000   1
  25   7  -5 213.300 58.3800   1
  25   7   5 323.270 56.3500   1
   7  17  19 2874.61 98.5200   1
  -7   5 -25 203.420 37.1700   1
  11   7  23 417.480 68.6000   1
   7  23  11 533.420 58.5800   1
  11  23   7 380.230 65.1600   1
  11 -23   7 378.950 48.2500   1
   7  23 -11 534.220 50.1200   1
  11  23  -7 454.210 41.1200   1
  23   7  11 405.910 55.6100   1
  23  11   7 433.380 57.6000   1
   7  25  -5 258.420 51.4700   1
   5  25  -7 284.870 50.6800   1
   7  25   5 272.240 68.8900   1
   5  25   7 401.950 72.0200   1
   7   5  25 316.320 63.6100   1
  19   7  17 2923.14 98.9600   1
  17  19   7 3055.66 90.8800   1
  19  17   7 2973.44 88.4000   1
  19  -7  17 2964.67 105.750   1
   7  19 -17 3019.57 93.9000   1
  17  19  -7 3019.71 89.5500   1
  23  -7  11 399.780 50.1800   1
   7  17 -19 3011.72 97.0000   1
  13  19 -13 299.530 44.4800   1
  19  17  -7 2744.19 79.9900   1
  19   7 -17 3105.36 97.7500   1
  23  11  -7 400.150 43.0400   1
  23   7 -11 480.530 59.3200   1
  23 -11   7 393.960 51.4200   1
   7  11 -23 482.680 47.5500   1
  11   7 -23 481.810 54.3600   1
   7  11  23 393.250 41.3600   1
  11   7  23 375.410 45.2900   1
   5   7  25 202.130 63.6500   1
  17   7 -19 2977.01 90.2100   1
  19 -17   7 3014.65 97.2000   1
   7  23  11 379.890 46.0800   1
  -1  23  13 1637.05 79.6500   1
  13  13  19 416.190 61.2600   1
  13  19  13 232.200 46.5400   1
  19  13  13 316.110 43.5700   1
  13  23   1 1732.26 71.1200   1
   1  23  13 1702.47 91.8300   1
  19 -13  13 243.070 41.0500   1
  19  13 -13 245.880 52.8200   1
  13  13 -19 283.500 44.9500   1
  13  13  19 228.870 40.2800   1
  23  -1  13 1802.47 69.9000   1
  -1  23 -13 1986.15 94.4300   1
  13  -1  23 1757.59 102.930   1
   1  23 -13 1730.67 78.9800   1
  13   1  23 1577.72 77.9400   1
  13  23  -1 1619.20 63.2900   1
  23   1  13 1674.62 66.0200   1
  23  13   1 1767.52 75.0100   1
  23  13  -1 1830.47 75.4600   1
   7  19  17 2897.03 94.6300   1
   8  24   8 352.780 64.2300   1
   8   8 -24 344.510 46.0500   1
  24  -8   8 390.540 52.2600   1
  24   8  -8 350.440 53.4400   1
  24   8   8 365.060 50.8000   1
   8  24  -8 477.060 52.3600   1
   8  24   8 339.760 65.4200   1
   8   8  24 397.610 73.2200   1
  -3  23  13 1143.81 83.3500   1
   3  13  23 1034.67 78.5700   1
   3  23  13 1086.88 91.0800   1
  13  -3  23 1168.82 74.1400   1
   9  25   1 740.430 52.8500   1
  13   3  23 1229.72 77.6300   1
   3  23 -13 992.790 61.1400   1
  13  23   3 1108.63 67.5200   1
  13  23  -3 1067.69 52.2100   1
  23   3  13 918.800 55.4200   1
  23  13   3 1165.60 66.1000   1
  23  -3  13 1006.79 49.3300   1
  23  13  -3 1083.85 62.5700   1
   3  13 -23 1129.89 57.2300   1
 -13   3 -23 943.480 53.6300   1
  23   3 -13 1048.96 55.2800   1
  23 -13   3 1179.48 65.4300   1
   3  23  13 1097.32 65.4700   1
  -3  23 -13 1071.95 58.4000   1
  11  15  19 20.3800 53.2900   1
  11  19  15 149.040 53.5700   1
  25   9  -1 565.060 62.0100   1
  25  -1   9 753.700 54.7300   1
  25   9   1 702.630 57.9500   1
  25  -9  -1 665.660 46.9800   1
  19  11 -15 98.1000 47.8900   1
  15  11 -19 -14.820 50.4100   1
  11  19  15 126.870 49.8300   1
  11  15  19 -7.5100 68.4900   1
  25  -1  -9 684.200 63.8900   1
   1  25  -9 698.320 57.2800   1
  -1  25  -9 705.130 57.4400   1
   1  25   9 700.990 60.9300   1
  -1  25   9 733.200 64.7900   1
  25   1   9 731.730 57.4600   1
   9  25  -1 619.690 58.5800   1
  25  -9   1 742.800 60.1200   1
  11  19 -15 102.440 31.9400   1
  15  11  19 -35.570 41.7600   1
  19  11  15 21.6000 47.3800   1
  19 -11  15 65.7000 37.5600   1
  -1   9 -25 748.130 51.0600   1
   1  25  -9 774.920 64.9800   1
   9  -1  25 778.330 60.7400   1
   9   1  25 708.570 68.3700   1
  25   1  -9 607.210 47.9600   1
   1  25   9 690.540 80.4900   1
  -1  25  -9 684.790 66.5700   1
   1   9 -25 700.320 48.1400   1
  11  15 -19 50.6000 31.3500   1
  13   3  23 1105.75 58.1200   1
  -1  25   9 582.140 62.0700   1
  19 -15  11 41.9400 39.8300   1
  15  19 -11 53.6200 34.0800   1
  15  19  11 19.7500 56.0400   1
  19 -15  11 63.3300 39.6800   1
  19  15 -11 134.920 47.5500   1
  19  15  11 119.490 41.6100   1
  -4  26   4 -52.140 49.2700   1
   4  26   4 104.170 60.5500   1
  -4  26   4 30.8500 43.4700   1
   4  26  -4 -10.910 52.0800   1
  26   4   4 99.1600 48.6000   1
  -4   4 -26 22.8700 34.9100   1
   4  26   4 109.780 57.8300   1
  -4  26  -4 72.5600 39.8300   1
  26   4  -4 80.7300 50.7100   1
  26  -4   4 -18.190 44.5000   1
  26  -4  -4 52.8500 55.7400   1
  -4  26  -4 -92.490 48.6200   1
   4  26  -4 37.9700 38.9500   1
  14  16  16 -44.580 64.1300   1
  16  14  16 51.2400 41.8800   1
  14  16 -16 35.7500 41.4800   1
  16  14 -16 -57.490 49.5100   1
  16  16  14 52.6500 60.5500   1
  16  16 -14 42.4900 49.9800   1
  18   8 -18 2361.86 85.2600   1
   6  10  24 164.960 50.4400   1
  18 -18   8 2306.30 84.4500   1
   8  18  18 2086.78 77.7000   1
   6  26   0 -9.3100 53.6700   1
   8  18  18 2213.96 102.340   1
   6  24  10 194.930 73.4300   1
  24   6 -10 99.9100 51.5300   1
  24  10  -6 35.1200 56.4600   1
   6  24  10 245.390 55.3000   1
  26  -6   0 30.5800 52.7100   1
  10  24   6 126.450 45.9500   1
  26   6   0 0.82000 38.4200   1
  10   6  24 84.3400 60.7300   1
  24 -10   6 141.900 50.2000   1
   0  26   6 102.860 71.4900   1
   0  26  -6 27.3600 51.8900   1
   6  24 -10 105.340 47.7800   1
  10  24  -6 177.660 36.9400   1
  26   0  -6 -18.840 55.8100   1
   6  10 -24 195.550 38.6200   1
  24  10   6 63.1600 39.3100   1
  24  -6  10 134.740 35.2700   1
  18  18   8 2031.33 70.7100   1
  18   8  18 2237.40 86.1100   1
   0  26   6 30.7100 52.1200   1
  24   6  10 100.500 37.3300   1
  10   6  24 91.8700 45.5700   1
  18  -8  18 2328.23 82.9100   1
   8  18 -18 2214.50 83.3500   1
  18  18  -8 2190.59 78.8900   1
   0  26  -6 12.6500 44.6700   1
  26   0   6 58.6500 35.7400   1
  25   3   9 474.180 55.2600   1
  -3  25  -9 559.410 57.7900   1
  -3  25   9 400.800 66.3900   1
   9   3  25 512.830 53.1200   1
   3  25   9 464.470 77.0300   1
   3  25  -9 378.780 52.3700   1
   9  25   3 439.430 48.9500   1
   9  25  -3 471.900 58.4500   1
  -9   3 -25 392.610 40.5900   1
  21  15  -7 97.4500 38.6200   1
  25   9   3 435.250 59.1700   1
  25  -3   9 431.690 41.1700   1
  25   9  -3 476.350 60.8600   1
  25   3  -9 540.080 62.2800   1
  25  -9   3 395.990 51.1100   1
  25  -3  -9 480.690 56.5700   1
  25  -9  -3 409.760 44.4200   1
   3   9 -25 451.710 46.3000   1
  -3  25   9 395.120 59.7400   1
   3  25   9 458.670 61.6800   1
   7  21  15 74.4000 52.4200   1
  21  -7  15 160.000 43.0200   1
  15  21  -7 125.290 37.2000   1
  21  15   7 51.8300 56.8500   1
  21   7  15 247.110 49.6500   1
   7  21 -15 153.480 42.1800   1
  15  21   7 146.120 43.6300   1
  15   7  21 106.760 59.6100   1
  15  -7  21 198.900 52.9100   1
  -3  25  -9 512.400 52.6800   1
   7  15  21 169.040 66.6700   1
  15   7  21 67.1300 41.2600   1
   7  21  15 136.520 43.3600   1
   7  15  21 120.620 52.0800   1
  15   7 -21 141.020 38.6000   1
  21 -15   7 103.630 46.1700   1
  21   7 -15 134.640 56.5200   1
   7  15 -21 146.970 38.5300   1
  26  -2   6 -31.630 36.8300   1
  26   2   6 14.8800 36.2100   1
  26   6   2 -24.930 37.7600   1
   6  26  -2 2.68000 60.6900   1
   6  26   2 -28.370 63.3500   1
   6  14  22 49.4200 51.7000   1
  14   6 -22 57.2300 37.5900   1
  14  14 -18 -28.580 32.8300   1
   6  14  22 181.270 54.8400   1
  14   6  22 117.270 61.2100   1
  14   6  22 116.020 45.7100   1
   6  26   2 13.0600 57.7000   1
   2  26  -6 8.79000 51.0300   1
   2  26   6 -63.320 41.0600   1
  18  14 -14 -13.410 35.4300   1
  14  18 -14 -54.470 46.1100   1
  18  14  14 14.7900 39.9500   1
  -2  26  -6 -61.580 49.4300   1
  14  14  18 -80.300 64.8700   1
  -2  26   6 8.78000 57.5200   1
  26  -6  -2 -19.000 49.8000   1
  -2  26   6 61.3000 69.6000   1
  -2  26  -6 -48.970 56.0900   1
   2  26   6 17.1300 48.5500   1
   2  26  -6 -54.200 56.2400   1
   2   6 -26 0.00000 43.9100   1
  26   6  -2 -19.240 39.5900   1
  26  -2  -6 19.4600 51.5100   1
  26  -6   2 38.3600 36.6400   1
   6  14 -22 89.4100 37.1000   1
  14  -6  22 68.6700 47.2900   1
  26   2  -6 -13.300 40.4700   1
  14  18  14 -9.4600 44.6000   1
  22   6  14 -26.410 50.6100   1
  22  14   6 73.2400 40.0900   1
  22  -6  14 77.7500 31.8200   1
  22  14  -6 6.15000 37.6400   1
  22   6 -14 50.7900 40.1900   1
  22 -14   6 65.5600 41.9000   1
   6  22  14 87.2900 42.6700   1
  14  22   6 65.3400 60.2900   1
   6  22  14 -78.760 72.7900   1
   6  22 -14 117.990 40.7200   1
  14  22  -6 31.7700 50.6300   1
  16   8 -20 1049.96 53.0700   1
   0  24 -12 2368.15 103.600   1
  20   8  16 960.930 52.1200   1
  16  20   8 945.790 55.2900   1
  16   8  20 1012.64 57.3200   1
   8  16  20 896.060 50.9100   1
  20 -16   8 1001.79 54.5800   1
  20  16   8 1180.26 69.3500   1
  20   8 -16 917.140 63.3600   1
  20  16  -8 1011.42 62.8300   1
  16  20  -8 1064.30 61.7400   1
   0  24  12 2306.05 104.120   1
  20  -8  16 969.860 55.2800   1
   8  20 -16 1019.08 53.9900   1
  16  -8  20 1044.20 63.5300   1
   8  20  16 1062.83 67.5000   1
   8  16  20 1209.83 89.7900   1
  12   0  24 2307.48 94.8300   1
   0  12 -24 2324.60 88.6200   1
   8  16 -20 1022.60 55.4200   1
  24   0  12 2185.64 76.5600   1
   0  24 -12 2222.32 76.3400   1
   0  24  12 1972.79 78.3400   1
  24 -12   0 2149.12 71.4900   1
  24   0 -12 2328.30 85.2200   1
   8  20  16 1001.63 68.6300   1
  24  12   0 2019.74 70.5000   1
  12  24   0 2441.52 87.7500   1
  25   7  -7 778.930 49.9400   1
  25   7   7 940.620 60.0500   1
  25  -7   7 887.700 55.3900   1
   7  25  -7 947.730 61.0100   1
   7  25   7 1147.85 82.3200   1
  25  -7  -7 856.710 54.6000   1
   7  25   7 720.740 52.7800   1
   5  13  23 819.100 82.3300   1
   5  23 -13 769.390 55.2900   1
  19  19  -1 111.410 47.5500   1
  23  -5  13 647.490 53.6600   1
  23  13  -5 743.670 61.8300   1
   5  13 -23 813.640 50.3700   1
  23   5 -13 678.120 59.5100   1
   7   7  25 1025.36 66.5000   1
  23 -13   5 758.970 53.7500   1
  13   5  23 732.340 50.3000   1
  -1  19  19 182.050 71.1400   1
   1  19  19 206.130 74.6700   1
  19  -1  19 170.720 43.0100   1
  19   1  19 235.120 50.6900   1
  19  19   1 182.710 39.2600   1
  -5  23 -13 684.010 51.1300   1
  -1  19 -19 248.010 40.6600   1
   5  23  13 796.580 52.3800   1
  13   5  23 703.830 56.6600   1
   5  23  13 678.870 73.9300   1
  13  -5  23 810.890 66.0400   1
  23  13   5 760.490 61.7900   1
  23   5  13 750.520 57.0700   1
  13  23  -5 738.650 54.1900   1
  13  23   5 813.020 53.5900   1
  18  20   0 84.8300 39.1800   1
  20  18   0 65.0500 37.9500   1
  12  24  -2 2046.04 75.3900   1
  24   2 -12 2051.17 70.8100   1
   2  12 -24 2023.85 82.2100   1
  24  12  -2 1910.53 74.5200   1
  24  -2  12 1932.54 65.7900   1
  24  12   2 2030.29 69.4400   1
  24   2  12 2017.67 67.1300   1
  12  24   2 2044.34 83.6000   1
   2  24 -12 1879.58 82.8000   1
  12   2  24 1810.36 85.4800   1
  12  -2  24 1951.57 94.2500   1
   2  24  12 1961.71 101.920   1
  -2  24  12 2057.22 91.4700   1
  -2  24 -12 2041.97 88.4100   1
  16  18 -12 277.420 47.5900   1
  12  16  18 285.340 40.9000   1
  16 -18  12 299.540 44.7000   1
  16  12 -18 394.550 49.8100   1
  18 -16  12 306.240 47.3300   1
  12  16 -18 314.860 47.5800   1
  18  16 -12 280.860 49.1800   1
  12  16  18 269.390 66.5100   1
  18  16  12 307.310 53.9800   1
  16  18  12 299.140 64.1800   1
  16  12  18 397.420 59.4500   1
  -2  24 -12 2016.85 76.8700   1
   2  24  12 1952.61 70.6900   1
  -2  24  12 1980.98 71.5700   1
  24  -2 -12 1950.77 69.9300   1
  24 -12   2 2106.67 78.8200   1
   0  18  20 -1.3500 68.4600   1
   0  20  18 -5.4900 70.0900   1
  18   0  20 84.7300 35.6800   1
  20   0  18 104.640 47.1200   1
  12  18  16 303.830 53.2400   1
  18 -12  16 302.560 42.5400   1
  12  18  16 283.170 58.3800   1
  18  12  16 237.510 50.8100   1
  12  18 -16 297.860 47.3400   1
  18  12 -16 260.350 49.5800   1
  10  22 -12 1374.39 59.7400   1
  12  22  10 1376.58 82.8200   1
  10  22  12 1525.20 73.4500   1
  12  10  22 1486.29 86.2700   1
  10  12  22 1457.17 88.6000   1
  -4  26   6 291.850 66.7800   1
   4  26   6 194.900 64.7800   1
  10  12  22 1403.47 68.8500   1
   6  26   4 268.020 49.9100   1
  12  10  22 1371.26 63.3100   1
   4  26  -6 222.430 52.3100   1
   6  26  -4 201.570 49.1100   1
  10  22  12 1500.81 77.6500   1
  26   4   6 374.370 42.9800   1
  26   6  -4 206.170 57.0300   1
  26  -4   6 256.540 38.8800   1
  26   4  -6 179.150 58.6100   1
  26  -6   4 246.200 48.2800   1
  26  -6  -4 151.680 57.1200   1
  26  -4  -6 160.560 42.1600   1
  -4  26   6 158.540 41.4800   1
  -4  26  -6 332.380 48.8800   1
  10  12 -22 1326.63 58.4300   1
  22 -12  10 1397.96 64.8500   1
  22  10 -12 1368.52 70.1200   1
  22  12 -10 1351.24 69.9700   1
   4  26   6 204.270 53.5500   1
   6  26   4 309.720 60.3700   1
  -2  20 -18 275.890 44.2500   1
   2  20 -18 263.990 44.2600   1
  12  22 -10 1308.15 63.9900   1
  -2  18 -20 332.160 41.4800   1
   2  20  18 210.580 50.9700   1
  20   2 -18 257.590 58.9000   1
  20  18  -2 222.820 53.9900   1
  20  18   2 278.440 51.2700   1
  18  20  -2 388.580 55.4800   1
  18  20   2 242.790 58.1100   1
  20  -2  18 232.910 48.9800   1
  20   2  18 221.310 36.8100   1
  18  -2  20 266.950 50.7200   1
   2  18 -20 274.680 42.8800   1
  18   2  20 294.330 54.9000   1
   2  20  18 170.200 76.1000   1
   2  18  20 433.940 80.7100   1
  22  12  10 1286.37 57.2100   1
  22 -10  12 1365.87 63.5200   1
  22  10  12 1339.99 57.3500   1
  12  10 -22 1438.56 67.5600   1
  26   6   4 287.110 56.3400   1
   1  21  17 -37.720 39.5500   1
  21   1 -17 55.4700 41.4100   1
  21  17  -1 -47.920 54.4400   1
  21  17   1 24.4800 39.7400   1
  23   9 -11 755.710 62.6100   1
  23  11  -9 913.590 59.1000   1
  23  -9  11 862.270 56.0400   1
  23  11   9 999.250 60.5400   1
  23   9  11 821.850 57.8500   1
  11  23  -9 969.940 59.3700   1
   9  23 -11 842.530 55.9300   1
  11  23   9 680.020 66.0000   1
   9  23  11 940.890 80.1000   1
  11   9  23 1009.63 79.3300   1
   9  11  23 828.560 64.9000   1
  17  21  -1 40.5800 54.9900   1
  21  -1  17 59.0400 46.1700   1
  17  21   1 -5.0300 39.0800   1
  21   1  17 33.6400 42.7200   1
  17  -1  21 15.3000 34.5900   1
  17   1  21 28.9200 36.2500   1
   1  21  17 83.2400 65.9200   1
   1  17  21 -25.940 71.1100   1
  -1  21  17 24.7300 62.3000   1
  11  21  13 469.940 63.5700   1
  13  11  21 630.410 52.5500   1
  11  13  21 650.630 49.8800   1
  25  -9  -5 44.9700 57.5400   1
  -5  25  -9 44.2900 40.9000   1
   5  25   9 -47.550 58.1300   1
  13  11 -21 565.310 54.9700   1
  11  13 -21 676.200 50.4600   1
  21 -13  11 649.510 55.1700   1
  21  11 -13 689.470 56.8200   1
  21  13 -11 651.670 60.8100   1
  21 -11  13 670.690 54.4200   1
  21  11  13 703.780 52.1800   1
  13  21 -11 795.170 59.5600   1
  11  21 -13 727.170 49.3100   1
  21  13  11 626.870 63.5200   1
  13  21  11 741.480 59.1700   1
  11  21  13 794.330 73.3400   1
   5   9  25 -12.700 56.2200   1
   9   5  25 37.4200 57.2700   1
   5  25   9 -160.32 70.9700   1
   9  25   5 16.2700 45.3000   1
   5  25  -9 39.9200 44.8300   1
   9  25  -5 79.8000 47.3000   1
  25   5   9 42.8300 46.7300   1
  25   9   5 -55.900 54.8500   1
  25  -5   9 5.76000 34.0100   1
  25   9  -5 19.4600 39.5900   1
  25  -9   5 4.41000 49.8400   1
  25   5  -9 -16.070 40.1900   1
   5   9 -25 46.3900 43.2500   1
  25  -5  -9 0.38000 40.9800   1
  13  11  21 733.760 58.7600   1
  11  13  21 697.090 58.8100   1
   3  19 -19 747.360 50.9800   1
   3  19  19 563.040 85.6800   1
  19   3  19 794.380 64.6700   1
  19  -3  19 754.160 55.0300   1
  19  19   3 748.610 66.3400   1
  19  19  -3 624.500 48.2500   1
  19   3 -19 670.750 66.3200   1
   3  19  19 731.780 60.6500   1
  -3  19 -19 778.130 60.3500   1
   1  27   1 1968.57 69.6300   1
   1  27  -1 1960.00 89.1500   1
  -1  27  -1 1871.14 88.6900   1
  -1  27   1 2069.19 96.4000   1
  27  -1  -1 1923.24 79.9300   1
  27  -1   1 2039.16 91.9300   1
  27   1  -1 1996.17 93.4400   1
  27   1   1 1942.80 86.9100   1
   1  27   1 2086.41 98.1600   1
   1  27  -1 2287.05 102.710   1
  -1  27   1 2088.08 86.4100   1
  -1  27  -1 2396.13 110.150   1
   9  23  11 879.110 70.2400   1
  11   9  23 823.450 60.1800   1
   9  11  23 774.820 55.5800   1
  11   9 -23 805.380 47.3300   1
   9  11 -23 802.690 55.4500   1
  23 -11   9 791.220 55.0800   1
   9  17  19 1008.35 83.3700   1
   9  19  17 1159.90 68.9200   1
  17   9  19 1152.94 65.8100   1
  17  -9  19 1138.49 62.2500   1
  17  19   9 1123.79 57.5700   1
  19   9  17 1111.54 54.8400   1
  19  17   9 1176.66 64.0600   1
  19  -9  17 1088.80 65.4000   1
   9  19 -17 1127.94 59.4500   1
  17  19  -9 1124.89 69.2200   1
   9  17 -19 1093.38 55.7900   1
  19  17  -9 1092.92 58.7300   1
  19   9 -17 1172.17 66.7100   1
  17   9 -19 1077.43 53.3700   1
  19 -17   9 1104.61 65.8100   1
  17 -19   9 1101.90 61.0500   1
   9  17  19 1072.55 70.6900   1
   9  19  17 1172.62 65.9900   1
  -1  21 -17 13.6100 38.1300   1
  24   4 -12 1455.06 81.3500   1
   4  12 -24 1455.01 73.1200   1
  24  12  -4 1485.84 80.9900   1
  24  -4  12 1511.82 77.8900   1
   4  24  12 1385.78 78.1300   1
  -4  24 -12 1450.42 78.2900   1
  12   4  24 1371.90 71.2900   1
  24  12   4 1467.36 69.4500   1
  24   4  12 1607.26 80.6800   1
  12  24  -4 1460.66 78.8300   1
  12  24   4 1589.55 88.4800   1
   4  24  12 1403.95 98.2200   1
  12  -4  24 1541.89 89.0600   1
   4  12  24 1457.96 93.2900   1
   4  24 -12 1452.46 78.0500   1
  12   4  24 1436.87 86.6200   1
  24 -12   4 1608.46 77.5800   1
  21   3 -17 360.950 44.5500   1
  21  17  -3 330.640 43.1000   1
  21  17   3 331.590 54.6800   1
   3  17 -21 309.110 39.9900   1
  17  21  -3 283.330 51.1500   1
  21  -3  17 342.960 45.6300   1
  21   3  17 292.680 47.9000   1
  17  21   3 175.760 58.1200   1
  17   3  21 267.830 51.6800   1
  17  -3  21 324.790 51.9600   1
   3  21  17 368.070 74.5400   1
   3  17  21 407.150 79.2600   1
  27  -3   1 424.030 58.1300   1
  27   1  -3 561.480 48.1300   1
  27  -3  -1 501.270 60.8900   1
  27  -1  -3 534.680 63.9400   1
  -3  27  -1 531.990 60.2200   1
  -3  27   1 361.320 55.3500   1
  -1  27   3 571.300 58.8900   1
  -1  27  -3 476.950 59.0200   1
   1  27   3 473.730 61.5200   1
   3  27  -1 522.030 62.8800   1
   3  27   1 518.090 57.1300   1
   1  27  -3 546.750 60.4500   1
  17  15 -15 112.040 44.7200   1
  15  15 -17 75.6700 47.9400   1
  15  17 -15 64.8300 34.9000   1
  17  15  15 86.5400 43.6100   1
  15  17  15 108.210 63.8900   1
  15  15  17 92.9400 44.3000   1
  -3  27   1 673.100 71.8000   1
  -3  27  -1 574.470 70.1800   1
  -1  27  -3 404.750 68.7100   1
  -1  27   3 575.630 77.6100   1
   1  27   3 503.220 76.8100   1
   1  27  -3 609.790 73.7100   1
   3  27   1 484.510 73.3100   1
   3  27  -1 392.570 70.5700   1
  27   3   1 542.090 48.1400   1
  27   1   3 484.610 47.0400   1
  27   3  -1 520.360 47.6800   1
  27  -1   3 557.960 47.1200   1
  17  -3  21 287.410 42.6700   1
  -3  21 -17 237.290 44.5700   1
   3  21  17 289.650 46.1500   1
  20   4 -18 1223.45 76.2200   1
  10   8 -24 63.9000 46.7500   1
   4  18  20 1178.82 73.1900   1
  20 -14  12 86.1300 41.0900   1
  20  18   4 1368.57 79.3100   1
  20  14 -12 109.730 47.8400   1
   8  10 -24 74.4000 40.4700   1
  14  20 -12 92.1100 42.0500   1
  20  -4  18 1259.17 70.3100   1
   4  18  20 1317.94 98.0500   1
  18  20   4 1408.88 76.8800   1
   8  26   0 327.970 62.8300   1
  20   4  18 1277.82 73.4600   1
   4  20 -18 1294.08 67.7000   1
  18   4 -20 1185.80 70.9300   1
  26   0  -8 326.970 53.9200   1
  18  -4  20 1337.11 76.5200   1
  18   4  20 1411.01 76.0900   1
  20  14  12 218.460 57.3900   1
  24   8 -10 20.1800 39.3300   1
  24 -10   8 -15.340 46.7300   1
  24  -8  10 93.5800 43.4300   1
  24  10   8 115.650 56.5200   1
  24   8  10 126.770 53.5600   1
  10  24  -8 73.4000 44.0800   1
   8  24 -10 59.0200 43.1600   1
   0  26  -8 422.730 64.9200   1
  10  24   8 19.0000 65.9100   1
   8  24  10 28.7600 49.5800   1
  10   8  24 2.92000 67.3900   1
   8  10  24 119.880 51.6800   1
  24  10  -8 152.460 41.6100   1
   0  26  -8 300.280 40.2500   1
   0  26   8 355.730 46.7600   1
  26  -8   0 266.170 57.9900   1
  26   8   0 280.510 53.9400   1
  26   0   8 377.790 43.0800   1
  14  20  12 91.8800 45.6400   1
   0  26   8 360.700 70.7800   1
   4  20  18 1113.16 76.1700   1
   4  20  18 1199.37 96.7100   1
   4  18 -20 1193.60 65.9600   1
  18  20  -4 1276.22 75.0100   1
  20  18  -4 1283.74 63.6000   1
   8  10  24 126.170 44.3700   1
  10   8  24 125.390 42.0600   1
   8  24  10 128.650 51.7600   1
  14 -20  12 110.090 38.5900   1
   0  22 -16 275.860 52.3900   1
  16   0  22 267.580 46.0000   1
   0  22  16 175.890 53.3100   1
  22   0 -16 310.020 47.1700   1
  22  16   0 183.550 56.2600   1
  16   0  22 204.420 51.1400   1
  20  12  14 129.460 40.3200   1
  16  22   0 323.710 57.5300   1
  12  20  14 221.420 61.4100   1
  14  12  20 119.060 47.1000   1
  12  14  20 143.780 49.3200   1
  20 -12  14 73.3300 42.3600   1
  12  20 -14 85.1400 44.8600   1
  22   0  16 250.090 50.3600   1
   0  22  16 150.270 55.8600   1
  12  14 -20 127.180 42.1000   1
  14  12  20 77.2900 51.6100   1
  12  14  20 101.480 52.5400   1
   0  22 -16 277.730 41.4900   1
  14  12 -20 120.320 49.9500   1
  20  12 -14 20.6500 55.1100   1
  16   2  22 18.5900 40.0800   1
  22   2 -16 -24.020 50.0700   1
   2  22  16 20.5000 41.8900   1
  -2  22 -16 28.0500 38.1200   1
  14   8  22 223.680 36.7500   1
  16   2  22 21.1100 48.6600   1
  -2  26   8 141.300 72.7000   1
   8  14  22 178.060 54.8100   1
  14   8 -22 183.400 52.3900   1
  22   2  16 42.3000 48.8800   1
   8   2  26 149.620 52.3900   1
  -2  26  -8 131.430 56.1300   1
  -2  26   8 155.980 42.3900   1
   2  26   8 29.8600 73.4000   1
   2  26  -8 98.3300 50.6400   1
   8  26   2 86.8000 61.8500   1
   8  26  -2 175.530 42.0200   1
  26   8   2 55.6300 51.2700   1
  26   2   8 159.920 38.5300   1
  26  -2   8 174.280 47.3400   1
   2  26   8 136.060 43.5500   1
  26   2  -8 85.0400 56.5800   1
  26  -8   2 112.660 37.9100   1
  26  -8  -2 153.100 56.7200   1
  26  -2  -8 150.130 42.3300   1
   8  14 -22 183.200 37.8100   1
  14   8  22 178.470 59.3000   1
  -2  22  16 12.4900 62.7900   1
  26   8  -2 176.320 57.8600   1
   8  14  22 153.800 74.1700   1
  14  -8  22 250.220 57.1500   1
  -2  26  -8 210.780 37.5900   1
   2  26  -8 133.240 53.3900   1
   2  16  22 5.32000 63.0600   1
   2  22  16 76.0000 55.1500   1
  16  -2  22 32.9600 44.8000   1
   8  22  14 323.640 61.8500   1
  22 -14   8 198.490 42.4400   1
  22  16  -2 31.5000 39.4700   1
  22   8 -14 207.190 57.6400   1
   8  22  14 104.560 63.7600   1
  22  -8  14 235.540 46.6900   1
  14  22  -8 229.810 51.5300   1
  22   8  14 126.730 49.2100   1
  22  14   8 138.780 51.3400   1
  16  22  -2 24.5600 53.4300   1
   8  22 -14 215.720 44.2100   1
  22  16   2 84.7600 49.9900   1
  14  22   8 174.960 45.0100   1
  22  14  -8 322.300 43.9700   1
  16  22   2 -9.8600 39.9400   1
   7  23 -13 614.560 53.4500   1
   5  19  19 2292.83 114.540   1
  13  23   7 606.420 69.8800   1
   5  19  19 1987.96 85.1000   1
   7  23  13 613.010 65.9500   1
   7  23  13 467.500 59.9100   1
  17  17  13 270.830 64.4300   1
  17  17 -13 258.680 47.2600   1
  17 -17  13 271.730 40.4100   1
   1  11 -25 1831.64 91.2100   1
  19  19  -5 2161.71 95.6400   1
  23 -13   7 536.540 54.9500   1
  23   7 -13 507.310 57.4600   1
  23  13  -7 547.200 48.1500   1
  23  -7  13 494.870 42.2600   1
  23  13   7 557.700 61.2700   1
  11   1  25 1834.75 97.4000   1
  11  -1  25 1826.11 100.280   1
  23   7  13 564.730 46.1900   1
  19   5  19 2185.22 94.5000   1
  19  -5  19 2283.57 94.3600   1
  19  19   5 2274.47 88.9500   1
   5  19 -19 2213.58 96.2800   1
  19   5 -19 2204.32 90.3800   1
  13  23  -7 536.650 45.1100   1
  27   3   3 79.9200 47.9300   1
  21   9 -15 8.02000 39.4100   1
   9  15 -21 19.9800 36.4000   1
  21  15  -9 -24.370 37.9500   1
   1  25 -11 1878.36 84.2000   1
  25 -11  -1 1797.61 88.3700   1
  25 -11   1 1824.21 87.1000   1
  25  -1 -11 1936.24 93.9300   1
  25   1 -11 1815.50 81.3000   1
   7  13  23 598.800 75.4600   1
   9  15  21 41.4300 50.7500   1
   9  21  15 -70.640 72.4500   1
  15   9  21 -94.980 55.8300   1
  -1  25 -11 1790.97 84.9000   1
   1  25  11 1550.99 80.4100   1
   7  13  23 626.090 48.4000   1
  13  -7  23 577.880 59.2200   1
  21   9  15 -18.560 46.9600   1
  15  21   9 -31.220 55.5500   1
  13   7  23 649.680 73.5400   1
   7  13 -23 608.850 50.8700   1
   3  27  -3 -28.550 59.9700   1
  21  15   9 -0.4500 38.4300   1
   3  27  -3 80.7500 39.2900   1
   3  27   3 16.4000 57.9700   1
  -3  27  -3 12.1500 52.3600   1
  -3  27   3 63.6000 50.4200   1
  27  -3  -3 -83.630 56.3600   1
  27  -3   3 -18.590 36.7900   1
  27   3  -3 71.0400 40.3800   1
  21  -9  15 -30.990 40.9500   1
   3  27   3 -2.8400 59.4900   1
  -3  27   3 4.29000 63.5100   1
  -3  27  -3 53.3300 52.0900   1
  11  25  -1 1844.30 91.0400   1
  11  25   1 1692.43 88.6800   1
   1  25 -11 1738.02 89.5000   1
   1  25  11 1648.53 89.5100   1
  -1  25 -11 1804.43 100.040   1
  -1  25  11 1646.05 104.740   1
   9  21 -15 -7.3500 36.9700   1
  15  21  -9 67.6300 34.5200   1
  -1  25  11 1577.80 74.3300   1
  15   9  21 -43.050 46.8500   1
   9  21  15 -58.010 52.7500   1
   9  15  21 47.8800 38.3800   1
  25  11   1 1839.49 89.2700   1
  25  -1  11 1788.81 84.1100   1
  25   1  11 1747.24 80.2500   1
  13  17  17 288.030 54.8100   1
  17  13 -17 272.900 39.5900   1
  13  17 -17 250.480 43.9700   1
  17 -13  17 262.270 40.6100   1
  17  13  17 257.660 57.2100   1
  13  17  17 264.190 70.5400   1
  13   7 -23 595.630 59.6900   1
  13   7  23 578.520 55.4000   1
  15   9 -21 -3.6800 52.0000   1
  21 -15   9 -45.700 42.7000   1
   6  26   6 903.310 83.3300   1
   6  26  -6 778.110 63.5300   1
  26   6   6 830.160 54.1600   1
  26  -6   6 762.510 50.4300   1
  26   6  -6 825.620 55.6000   1
  26  -6  -6 700.460 53.2700   1
   6  26   6 795.850 70.3400   1
  18  18  10 835.670 55.7700   1
  18  10  18 935.670 66.8000   1
  10  18  18 833.210 67.2300   1
  18 -10  18 898.100 60.5000   1
  10  18  18 930.830 70.2800   1
  18 -18  10 976.100 60.0900   1
  18  10 -18 957.920 68.0100   1
  10  18 -18 881.080 57.4100   1
  18  18 -10 920.530 65.0500   1
   6   6  26 783.720 60.3500   1
   5  27   1 -49.530 50.6700   1
   5  27  -1 20.2300 51.8800   1
   1  27  -5 -5.7500 52.2900   1
  -1  27  -5 -43.340 51.6600   1
   1  27   5 -29.920 40.1200   1
  -1  27   5 -114.80 40.5100   1
  -5  27   1 -7.6600 37.3100   1
  -5  27  -1 6.15000 51.6700   1
  27  -1  -5 80.8000 39.6600   1
  27  -5  -1 -14.380 54.0400   1
  27   1  -5 6.92000 52.8800   1
  27  -5   1 -13.380 54.1100   1
  27  -1   5 31.0800 46.6100   1
  27   5  -1 -55.130 49.9000   1
  27   5   1 -44.110 38.2200   1
  27   1   5 38.1700 47.5800   1
   5  27   1 2.33000 44.5400   1
   5  27  -1 -64.930 56.1600   1
   1  27  -5 11.6100 55.9000   1
   1  27   5 94.0500 71.6400   1
  -1  27  -5 -47.140 61.8700   1
  -1  27   5 36.1000 63.0600   1
  -3  25 -11 1360.79 72.5400   1
  25 -11  -3 1422.39 82.1100   1
  25  -3 -11 1241.63 78.7600   1
  -1  23 -15 878.900 67.0300   1
  -1  23  15 883.160 85.0200   1
   1  23  15 920.760 90.2900   1
  25 -11   3 1415.49 76.7500   1
   3  11 -25 1373.65 73.5100   1
  25   3 -11 1351.49 79.4300   1
  25  11  -3 1382.42 75.8100   1
  25  -3  11 1329.12 64.3000   1
  25  11   3 1445.99 80.3800   1
  25   3  11 1399.08 72.9900   1
  11  25  -3 1413.43 75.9700   1
  11  25   3 1538.66 87.1300   1
   3  25 -11 1453.37 82.4800   1
   3  25  11 1318.41 81.3700   1
  11   3  25 1649.40 94.0800   1
  11  -3  25 1447.68 83.6600   1
  13  15  19 127.840 69.9800   1
  23  15  -1 743.450 52.2800   1
  23  15   1 739.620 58.9300   1
  23  -1  15 807.280 49.9000   1
  -3  25  11 1287.65 84.7200   1
  23   1  15 696.750 48.2500   1
  23   1 -15 901.680 66.8900   1
  23  -1 -15 881.630 65.7600   1
  15  23  -1 674.160 63.9500   1
   1  23  15 784.530 63.7800   1
  15  13 -19 43.8500 43.7000   1
  15  23   1 941.020 70.2000   1
  15  -1  23 800.520 56.6500   1
  15   1  23 785.160 55.2300   1
  15   1  23 856.900 61.0100   1
  -1  23 -15 749.270 54.8300   1
  15  -1  23 920.440 72.8100   1
   1  23 -15 926.180 68.4600   1
   9  25  -7 109.060 47.6200   1
   7  25  -9 104.150 48.4700   1
   9  25   7 131.260 50.3800   1
   5  17  21 773.940 81.1500   1
   5  21  17 925.930 72.3700   1
  17  -5  21 911.320 61.6600   1
  17   5  21 896.650 69.7100   1
   5  21 -17 800.810 54.1500   1
  21   5  17 958.920 65.9000   1
  17  21   5 719.950 53.6500   1
  21  17   5 834.790 68.7800   1
  21  -5  17 913.740 61.3800   1
  17  21  -5 845.020 53.4600   1
   5  17 -21 857.430 51.2700   1
  21  17  -5 942.470 67.8600   1
  21   5 -17 698.920 52.3300   1
  17   5 -21 766.400 53.7500   1
  21 -17   5 893.450 67.3000   1
   5  17  21 743.170 52.9600   1
   5  21  17 903.530 71.0100   1
   7  25   9 46.7500 72.7900   1
   9   7  25 24.0300 60.1400   1
   7   9  25 183.190 52.2600   1
  15  13  19 13.9200 55.6900   1
  13  19  15 190.150 48.8400   1
  19  15  13 94.9800 57.6100   1
  19  13  15 169.230 51.7400   1
  19 -13  15 112.020 38.2500   1
  13  19 -15 94.8700 46.0300   1
  15  19 -13 101.100 43.6800   1
  19  15 -13 84.7100 52.9800   1
  19 -15  13 89.9200 39.7000   1
  13  15 -19 112.730 43.8100   1
  19  13 -15 129.870 48.4200   1
  13  15  19 88.3200 39.0000   1
  25   7   9 112.590 38.1300   1
  25   9   7 108.970 39.0700   1
  25  -7   9 -8.0900 48.1300   1
  25   9  -7 76.9600 50.4200   1
  25  -9   7 105.920 49.8500   1
  25   7  -9 69.4000 52.1900   1
   7   9 -25 60.6600 39.6700   1
   7  25   9 72.7400 42.7500   1
  15  19  13 177.870 59.3300   1
   3  25  11 1227.94 77.1500   1
   4  26   8 18.4000 41.4900   1
  -4  26  -8 -22.120 42.0300   1
  26  -8  -4 28.9100 57.0100   1
   6  12  24 791.190 83.9400   1
   6  24  12 747.620 82.6100   1
  12   6  24 625.230 58.7200   1
  12  24   6 670.290 55.3500   1
   6  24 -12 706.470 58.7600   1
  12  24  -6 708.960 60.9300   1
  24   6  12 670.540 48.6100   1
  24  12   6 641.350 50.7600   1
  24  -6  12 666.590 46.6100   1
   4  16  22 115.830 54.7800   1
   4  22  16 -84.980 69.7700   1
  16  -4  22 43.4200 44.7600   1
  16   4  22 -50.450 49.4700   1
  22  -4  16 3.41000 31.1800   1
  16  22  -4 17.3500 36.2300   1
  22   4  16 156.440 52.4400   1
  16  22   4 39.7200 56.8400   1
  26   8  -4 19.0000 40.2200   1
  26  -8   4 1.61000 37.1300   1
  26   4  -8 -47.170 40.4200   1
  24 -12   6 758.800 60.7200   1
   6  12 -24 740.320 54.2800   1
  24   6 -12 690.900 67.5700   1
  24  12  -6 718.560 60.6200   1
  16   4  22 49.0300 44.6200   1
  10  16  20 71.2200 65.5900   1
  10  20  16 170.830 74.1000   1
  16  10  20 159.010 45.4000   1
   4  22  16 44.7200 52.0100   1
  20  10  16 239.740 51.2300   1
  20  16  10 -14.720 57.5600   1
  10  20 -16 196.290 39.6700   1
  20 -10  16 199.800 46.9200   1
  16  20 -10 227.190 50.4100   1
  20  16 -10 191.810 55.2300   1
  10  16 -20 154.550 44.0400   1
  20  10 -16 195.000 40.9500   1
  -4  26   8 -22.310 47.9900   1
   8   4  26 -48.420 60.1400   1
  -4  22 -16 19.1600 37.9100   1
   4  26   8 59.4700 73.2400   1
   4  26  -8 68.6500 56.9200   1
   8  26   4 -37.910 46.1400   1
   8  26  -4 -56.050 55.1800   1
  26  -4  -8 -8.1100 39.9100   1
   6  24  12 808.990 72.2800   1
  12   6  24 797.310 59.8000   1
  26   4   8 -2.3600 48.0200   1
  26   8   4 -5.5500 54.5000   1
  22 -16   4 10.1200 44.4500   1
  26  -4   8 -27.150 48.7000   1
  22   4 -16 -56.540 57.1800   1
  22  16  -4 5.39000 54.3000   1
  22  16   4 30.9800 39.8300   1
  16  10 -20 167.000 52.6600   1
  20 -16  10 201.490 44.4000   1
  10  16  20 237.070 50.7000   1
  10  20  16 94.7600 42.3300   1
  16  20  10 126.500 57.2700   1
   6  18  20 1832.41 89.3300   1
   6  20  18 1800.67 80.7200   1
  18  20   6 2011.42 85.3200   1
   6  18  20 1920.19 98.1200   1
   6  20  18 1966.65 100.350   1
  18   6  20 2071.90 95.1800   1
  18  -6  20 2103.19 102.650   1
  20   6  18 1999.67 89.0100   1
  20  18   6 2241.93 92.4900   1
  20  -6  18 2107.11 103.120   1
   6  20 -18 2062.81 92.1800   1
   6  18 -20 2045.13 90.1300   1
  18  20  -6 1833.55 78.4500   1
  20  18  -6 1850.56 78.9700   1
  20   6 -18 1938.10 92.2400   1
  18   6 -20 2011.67 90.1900   1
  -3  27  -5 272.610 59.9600   1
   3  23 -15 352.570 49.1000   1
  15  23   3 334.290 45.1500   1
  -3  27   5 169.310 59.5000   1
   3  23  15 296.640 47.2100   1
   3  27   5 241.590 54.0700   1
   5  27   3 285.250 71.0400   1
   3  27  -5 180.690 45.4100   1
   5  27  -3 105.980 62.7900   1
  23 -15   3 321.600 42.1800   1
  -3  23 -15 339.890 45.5900   1
  27   3   5 169.110 49.6900   1
  15  23  -3 342.320 53.2600   1
  23   3 -15 369.800 61.1500   1
  23   3  15 300.700 39.8600   1
  23  15   3 339.880 58.5100   1
  23  -3  15 428.710 41.2300   1
  27   5   3 197.810 57.3800   1
  27  -3  -5 225.320 43.9100   1
  27   3  -5 139.850 57.8500   1
  27  -5   3 249.490 49.5100   1
  27   5  -3 149.050 56.5800   1
  27  -3   5 203.680 38.8200   1
  15   3  23 306.230 47.2500   1
   3  15 -23 341.620 40.7100   1
   3  27  -5 258.070 52.1100   1
   5  27   3 256.080 59.5400   1
   3  27   5 195.770 44.0100   1
  -3  27  -5 208.660 39.8400   1
  -3  27   5 122.110 56.9400   1
  -5  27  -3 216.680 39.9000   1
  27  -5  -3 125.750 56.9700   1
  23  15  -3 254.920 59.1500   1
   3  15  23 246.050 64.4700   1
   3  23  15 392.160 80.7100   1
  15  -3  23 389.230 59.6400   1
  15   3  23 318.380 63.5800   1
  16  16  16 246.350 58.1900   1
  16  16 -16 231.980 38.9100   1
  19  19  -7 2032.05 91.4600   1
  19  19   7 2122.26 88.9100   1
   7  19 -19 1896.69 87.2900   1
  19   7  19 1818.32 87.0000   1
   7  19  19 2193.06 100.100   1
  11  19  17 313.220 59.7000   1
  11  17  19 389.930 45.7200   1
  17 -19  11 419.560 47.6900   1
  19 -17  11 380.790 47.3300   1
  17  11 -19 346.780 51.2600   1
  19  11 -17 397.520 58.6700   1
  19  17 -11 357.880 42.3300   1
  11  17 -19 363.650 44.6800   1
  17  19 -11 373.200 55.9200   1
  11  19 -17 335.770 46.7700   1
  19 -11  17 358.760 44.7300   1
  19  17  11 242.300 61.0500   1
  19  11  17 404.010 56.1300   1
  17  19  11 375.950 56.6700   1
  17  11  19 273.930 58.4400   1
  11  19  17 317.080 69.8300   1
  11  17  19 616.060 81.2600   1
  19   7 -19 2022.83 93.5200   1
  19  -7  19 1932.42 94.1700   1
  11  11  23 1922.03 86.3100   1
  11  11 -23 2030.51 83.6600   1
  11  23  11 2163.00 106.590   1
  11  11  23 2178.88 112.680   1
  23  11 -11 2046.74 90.8800   1
  23 -11  11 2097.62 88.6900   1
  23  11  11 2272.68 89.5200   1
  11  23 -11 2139.50 92.2900   1
  17 -11  19 382.000 48.5100   1
  25  11   5 487.910 56.3600   1
  25   5  11 551.500 59.5000   1
  11  25  -5 467.320 44.8200   1
  11  25   5 484.320 68.4400   1
   5  25 -11 500.630 57.5800   1
  25  -5  11 597.580 56.3100   1
   5  25  11 572.540 73.9700   1
  11   5  25 564.090 68.9300   1
  25  11  -5 633.760 59.5100   1
  25   5 -11 464.940 57.6000   1
   5  11 -25 527.930 48.8100   1
  25 -11   5 575.170 53.7900   1
  25  -5 -11 505.950 66.7200   1
  -5  25 -11 537.750 49.9000   1
   5  25  11 543.370 51.5400   1
   5  11  25 614.040 70.3400   1
   7  19  19 1820.75 94.6900   1
  12  22 -12 1687.59 100.910   1
  22  12  12 1723.00 87.1600   1
   0  24 -14 1678.03 95.3100   1
   0  24  14 1848.97 95.3400   1
  14   0  24 1589.27 87.9200   1
   0  24 -14 1543.57 73.3700   1
  12  12  22 1597.04 85.8600   1
  22 -12  12 1648.65 75.6900   1
  12  12 -22 1697.71 78.4200   1
  12  12  22 1722.58 88.0500   1
  12  22  12 1627.38 83.3500   1
  22  12 -12 1808.07 87.2000   1
  14  24   0 1544.79 82.4200   1
  24   0  14 1682.18 78.4400   1
  24   0 -14 1592.68 74.8100   1
  24  14   0 1775.36 87.9800   1
   0  24  14 1547.68 74.2100   1
  10  24  10 937.940 75.9600   1
   0  26 -10 1016.11 66.4000   1
   0  10 -26 1016.30 60.5600   1
  26 -10   0 930.840 62.7700   1
  26   0 -10 1048.62 74.1900   1
  26  10   0 837.730 67.7100   1
  26   0  10 869.600 63.1200   1
  10  26   0 933.430 60.2400   1
   0  26 -10 1031.18 76.0800   1
   0  26  10 997.650 74.4900   1
  10   0  26 997.610 70.7100   1
   8  26   6 461.270 50.2800   1
  26  -8  -6 415.310 63.3200   1
  26  -8   6 444.930 51.1900   1
  26   8  -6 427.820 61.6800   1
  26   8   6 533.140 56.8900   1
   8  26  -6 432.540 45.5000   1
   8  26   6 474.330 57.2500   1
   0  26  10 916.500 73.0000   1
   6   8  26 380.550 69.4600   1
  14  16  18 205.950 41.1900   1
  18 -14  16 311.480 41.8100   1
  14  18 -16 253.180 44.8900   1
  18  14  16 399.920 64.4200   1
  24 -10  10 1051.51 63.9700   1
  24  10  10 1007.73 65.5800   1
  10  24 -10 1041.68 62.2100   1
  10  24  10 952.600 82.2000   1
  18  14 -16 264.530 53.7400   1
  24  10 -10 993.100 58.3700   1
  14  16 -18 316.690 47.2800   1
  14  16  18 226.860 61.1100   1
  14  18  16 289.780 51.7000   1
  16  14  18 398.410 66.1900   1
  16  14 -18 285.390 48.0400   1
   8   6  26 417.690 71.3700   1
  26   6  -8 391.860 60.5500   1
  26  -6  -8 427.830 47.5600   1
   6  26   8 424.550 63.8800   1
  18 -16  14 312.820 45.7800   1
  10  10  24 1043.51 73.0300   1
  10  10 -24 1105.06 68.8600   1
  10  10  24 968.090 66.2800   1
  16   6  22 191.520 46.9800   1
   6  22  16 235.450 54.8000   1
   6  16  22 180.980 40.0600   1
  16   6 -22 165.120 40.1400   1
  22 -16   6 158.390 45.6900   1
  22   6 -16 104.120 58.0100   1
   6  16 -22 203.810 42.6900   1
  22  16  -6 129.450 39.0400   1
  16  22  -6 164.550 38.4200   1
  22  16   6 172.690 41.3700   1
  22   6  16 249.210 49.5400   1
   6  22 -16 188.530 43.1900   1
  16  22   6 216.380 42.7800   1
  16   6  22 262.120 46.2900   1
   6  22  16 228.540 78.0900   1
   6  16  22 17.1800 66.2700   1
  -2  24 -14 1455.57 72.9900   1
   2  24  14 1446.69 72.1800   1
  14   2  24 1453.26 75.9400   1
  24 -14   2 1360.96 67.1800   1
  24  -2 -14 1645.97 88.2700   1
  24   2 -14 1381.97 79.7300   1
   2  14 -24 1430.42 75.0800   1
  24  14  -2 1533.03 72.4500   1
  24  14   2 1373.40 73.7800   1
  24   2  14 1422.48 66.6000   1
  14  24  -2 1594.10 83.5500   1
  14  24   2 1489.70 83.3700   1
   2  24 -14 1461.07 84.5600   1
  14   2  24 1536.64 92.3000   1
  14  -2  24 1525.73 89.7200   1
   2  24  14 1410.30 84.4400   1
  -2  24  14 1630.84 87.1500   1
   2  14  24 1490.24 95.5600   1
  16  18  14 279.310 65.3800   1
  18  16  14 279.140 45.5800   1
  16  18 -14 283.910 39.2300   1
  18  16 -14 378.840 42.3300   1
  24  -2  14 1491.54 74.8800   1
   6  26   8 416.300 76.4000   1
   6  26  -8 477.810 56.4000   1
  26   6   8 458.150 58.2000   1
  26  -6   8 445.950 56.0400   1
  27  -7   1 87.8200 48.8600   1
  15   5  23 74.7900 46.2700   1
   5  23  15 85.1500 60.5600   1
  15   5 -23 106.360 51.7300   1
  27  -1   7 68.3800 46.8900   1
  27   1  -7 72.3300 41.2100   1
  13  13  21 704.990 73.5900   1
  27  -7  -1 28.9600 55.3200   1
  27  -1  -7 -35.610 50.7000   1
  -1  27   7 60.1900 57.5400   1
   1  27   7 94.6800 59.0900   1
  -1  27  -7 12.9300 44.5800   1
   1  27  -7 9.94000 46.7100   1
   5  15  23 34.9300 75.5600   1
   5  23  15 42.2200 54.8600   1
  15   5  23 54.5400 44.1500   1
   5  23 -15 70.9100 41.4500   1
  15  23   5 40.5900 60.2700   1
  15  23  -5 191.680 49.9400   1
  23   5  15 105.280 37.8600   1
  23  15   5 100.980 56.5600   1
  23  -5  15 46.9400 32.3800   1
   9  23  13 1183.21 72.9600   1
  23  15  -5 21.1700 50.3300   1
  23 -15   5 47.7600 49.8400   1
   5  27   5 869.090 66.7000   1
   5  27  -5 1077.88 79.7700   1
  27   5   5 1081.52 70.0800   1
  27   5  -5 961.610 58.9400   1
   7  17  21 1188.68 91.3900   1
   7  21  17 1136.81 94.3400   1
  17  -7  21 1067.91 72.1500   1
  17   7  21 1021.30 76.5600   1
  17  21   7 951.580 67.3800   1
  21   7  17 946.490 63.3100   1
  21  17   7 1098.69 73.9300   1
   7  21 -17 1038.60 60.4800   1
  21  -7  17 975.740 61.0600   1
  17  21  -7 1013.29 56.8000   1
   7  17 -21 1001.58 57.5900   1
  21  17  -7 1049.34 70.1300   1
  21   7 -17 972.090 70.9700   1
  17   7 -21 960.600 57.7800   1
  21 -17   7 1047.01 62.2000   1
  27  -5   5 944.860 55.6100   1
  13   9  23 1035.79 67.5900   1
   9  13  23 998.000 57.7900   1
  13   9 -23 1109.56 71.0200   1
  23 -13   9 1144.16 67.8000   1
   9  13 -23 1156.89 65.4600   1
  23   9 -13 1068.16 60.6900   1
  23  13  -9 1075.65 60.0200   1
  23  -9  13 1093.33 65.3600   1
  23  13   9 1020.62 58.4200   1
  13  23  -9 997.460 56.0700   1
  23   9  13 1075.87 67.3100   1
   9  23 -13 1132.50 65.3600   1
  13  23   9 1025.82 74.8400   1
   9  23  13 962.550 80.8100   1
  13   9  23 1147.85 86.6000   1
   9  13  23 1032.51 73.1900   1
   7  17  21 879.290 67.7500   1
  27  -5  -5 762.890 54.2300   1
  -5  27  -5 905.730 61.2700   1
   5  27   5 981.700 66.8100   1
  -1  27   7 24.0400 51.2100   1
   7  21  17 869.890 58.1400   1
  -1  27  -7 -5.0800 58.6100   1
   1  27   7 117.540 71.4800   1
  21 -13  13 611.880 52.8000   1
   1  27  -7 16.7800 52.1600   1
  21  13 -13 578.830 56.4900   1
   7  27  -1 -81.740 60.7200   1
   7  27   1 11.2000 55.2500   1
  13  13 -21 577.360 46.0800   1
  13  13  21 521.540 58.6300   1
  27   1   7 114.990 53.7800   1
  27   7   1 81.3600 56.5700   1
  13  21 -13 579.600 50.5300   1
  27   7  -1 -10.310 55.8600   1
  21  13  13 508.270 57.8900   1
  23   5 -15 60.5600 52.0500   1
  13  21  13 573.790 56.6200   1
  10  14  22 541.470 73.3100   1
  10  22  14 574.740 80.6400   1
  10   2  26 881.050 65.0600   1
   2  26  10 783.180 68.1700   1
  22 -14  10 535.640 52.4900   1
  10  22  14 560.490 65.8400   1
  14  10  22 492.410 52.5300   1
   2  26 -10 814.270 53.5800   1
  -2  26 -10 803.200 57.0400   1
   2  26  10 834.540 57.7400   1
  -2  26  10 593.100 65.3000   1
  26 -10  -2 918.530 69.4100   1
   2  26 -10 731.150 67.5600   1
  26  -2 -10 874.700 57.6600   1
   2  10 -26 812.280 57.3700   1
  26 -10   2 856.110 62.3300   1
  26   2 -10 794.420 70.1500   1
  14  10  22 651.100 69.9300   1
  26  10  -2 788.930 53.8100   1
  14  22  10 484.100 70.6700   1
  22  10  14 572.810 48.2900   1
  26  -2  10 936.050 55.2000   1
  26  10   2 851.980 67.1800   1
  26   2  10 754.690 58.3400   1
  10  26  -2 835.070 56.6200   1
  22  14  10 542.200 63.0200   1
  10  22 -14 599.200 54.8500   1
  14  22 -10 582.750 57.2500   1
  22 -10  14 638.580 54.5000   1
  22  14 -10 564.890 48.3000   1
  10  14  22 496.330 46.2500   1
  10  26   2 778.070 86.6300   1
  -2  26 -10 715.120 64.4800   1
  -2  26  10 748.700 80.2200   1
  22  10 -14 599.450 63.1100   1
  14  10 -22 636.460 59.2200   1
  10  14 -22 515.260 51.2900   1
   8  12 -24 784.230 57.7400   1
  24 -12   8 833.740 56.9300   1
  24   8 -12 846.250 69.2100   1
  24  12  -8 870.750 55.2700   1
  24  -8  12 901.290 63.3400   1
  24  12   8 800.600 66.6600   1
  24   8  12 819.670 65.8400   1
  12  24  -8 816.890 62.2000   1
   8  24 -12 809.500 50.5200   1
  12  24   8 820.060 72.7100   1
   8  24  12 801.250 67.8800   1
  12   8  24 862.220 82.2300   1
   8  12  24 889.150 87.3500   1
  12   8 -24 879.020 65.1800   1
   8  24  12 750.390 70.9900   1
  12   8  24 835.310 57.8600   1
   8  12  24 721.920 62.3900   1
   0  28   0 1208.16 74.7600   1
   0  28   0 1442.44 89.5900   1
  28   0   0 1370.61 78.4300   1
  15  11 -21 103.240 46.3600   1
   3  27   7 51.8600 51.6800   1
  21 -15  11 91.2000 38.8200   1
   9   9  25 112.070 50.6800   1
   3  27  -7 63.2700 48.5200   1
  15  21 -11 142.810 37.2700   1
  21  15  11 75.4900 51.7800   1
   7  27   3 62.3400 43.9000   1
  15  21  11 91.5800 66.1000   1
  15  11  21 116.490 46.3700   1
  11  15  21 46.4300 54.4600   1
   9  25   9 -5.0800 43.0300   1
   9   9 -25 22.4300 42.2100   1
  25   9  -9 58.1400 56.4100   1
  25   9   9 102.830 55.5700   1
   9  25  -9 22.4600 44.4200   1
   9  25   9 -13.610 50.8300   1
  11  15  21 132.700 66.1000   1
  15 -21  11 83.1300 42.9000   1
  21  15 -11 62.6800 38.7200   1
  27   7  -3 58.8700 50.8700   1
  -3  27  -7 17.8500 47.0700   1
  -3  27   7 122.630 59.6200   1
   3  27   7 99.5200 73.2400   1
   3  27  -7 49.2300 58.1700   1
   7  27   3 151.940 68.0100   1
   7  27  -3 114.890 43.2700   1
  27   7   3 54.1900 54.6600   1
  27   3   7 -4.5800 53.9700   1
  27  -3   7 49.4300 37.4800   1
  15  11  21 68.9100 52.0800   1
  27   3  -7 36.9000 50.7500   1
  27  -7   3 115.690 54.5100   1
  27  -3  -7 47.4200 51.9900   1
  27  -7  -3 44.4500 51.0600   1
  -3  27   7 25.2300 51.2900   1
  -3  27  -7 126.290 46.2600   1
  21  11 -15 150.850 56.2600   1
  21 -11  15 91.6900 43.1000   1
  21  11  15 74.0900 39.6300   1
  11  21  15 105.540 72.7800   1
  11  21 -15 63.2100 39.3500   1
  11  21  15 3.90000 59.8000   1
   4  24  14 770.120 81.8000   1
  14   4  24 693.960 75.4200   1
   4  24 -14 591.920 54.9400   1
  14  24   4 674.610 55.8600   1
  14  24  -4 660.470 63.0300   1
  24   4  14 741.190 50.3900   1
  24  14   4 614.190 50.0600   1
  24  -4  14 740.640 59.1900   1
  24  14  -4 777.490 67.4800   1
   4  14 -24 663.860 50.0600   1
  24   4 -14 675.840 53.8100   1
  24 -14   4 600.580 47.9000   1
  -4  24 -14 651.470 52.6300   1
  14   4  24 616.720 50.0600   1
   4  24  14 673.630 69.0800   1
   8  20  18 1253.38 95.4900   1
  18   8  20 1467.01 80.6600   1
  18  -8  20 1331.27 76.7900   1
  20   8  18 1403.04 79.8800   1
  18  20   8 1402.17 77.6900   1
  20  18   8 1432.22 78.1000   1
  20  -8  18 1421.55 74.1100   1
   8  20 -18 1406.43 66.6600   1
  18  20  -8 1257.74 63.1900   1
  20  18  -8 1466.02 75.3100   1
   8  18 -20 1420.29 71.2300   1
  20   8 -18 1300.28 73.0500   1
  18   8 -20 1504.57 82.0300   1
  20 -18   8 1363.45 69.4200   1
   8  18  20 1332.08 67.9000   1
   8  20  18 1324.05 79.5800   1
   8  18  20 1332.18 98.3900   1
   4  14  24 868.740 80.4400   1
  14  -4  24 735.700 69.1700   1
  -2  28   0 486.380 67.4700   1
   0  28  -2 639.320 75.4700   1
   0  28   2 468.230 76.8200   1
   2  28   0 479.890 66.6300   1
  28   2   0 514.370 60.0700   1
  28   0   2 464.590 58.9900   1
  28  -2   0 381.470 60.1800   1
  28   0  -2 497.580 61.1300   1
  -2  28   0 397.760 45.3900   1
   0  28   2 382.780 61.3100   1
   0  28  -2 389.490 58.4100   1
   2  28   0 463.220 47.0800   1
  26  -4  10 193.010 50.9000   1
  26  10   4 102.820 56.7400   1
  -4  26 -10 152.140 48.0600   1
   4  26  10 83.5800 53.8300   1
   4  26  10 164.760 55.2200   1
   4  26 -10 207.950 51.8200   1
  26   4 -10 97.1700 42.4800   1
  26 -10  -4 150.450 42.5300   1
  26  -4 -10 199.470 44.7200   1
   4  10 -26 202.870 42.2800   1
  26 -10   4 164.370 38.4700   1
  26   4  10 138.540 47.2200   1
  10  26   4 42.7300 64.3600   1
  10  26  -4 211.230 57.2600   1
  10   4  26 80.0100 58.4000   1
  26  10  -4 170.940 57.5700   1
  20  14 -14 22.3200 37.8600   1
  14  14  20 49.4800 47.7700   1
  14  20  14 -96.500 47.0900   1
  14  20 -14 47.7600 33.5700   1
  18 -18  12 329.950 48.9300   1
  28  -2   2 43.0200 54.7800   1
   2  28  -2 69.7900 39.9700   1
   2  28   2 -25.530 58.6400   1
  -2  28   2 89.3400 40.4200   1
  28  -2  -2 52.3300 57.5400   1
  20  14  14 -44.070 40.5000   1
  28   2  -2 2.11000 55.6400   1
  14  14 -20 -36.370 47.4000   1
  14  14  20 -6.1100 37.5000   1
  28   2   2 156.730 56.9200   1
  12  18  18 263.140 43.5200   1
   2  28  -2 43.3300 45.6500   1
  12  18 -18 317.270 43.9600   1
  -2  28  -2 19.3300 38.6500   1
  -2  28   2 123.210 69.4000   1
  18  12 -18 287.390 50.3100   1
  18  18  12 302.740 46.7700   1
  18 -12  18 313.460 43.3100   1
  18  18 -12 320.440 54.3700   1
  -2  28  -2 70.4000 63.1000   1
  12  18  18 217.030 53.1200   1
  18  12  18 379.560 63.3800   1
  -1  25 -13 2080.62 111.590   1
  -1  25  13 2133.73 111.360   1
   1  25  13 1913.18 113.600   1
  25  -1  13 1985.68 88.7400   1
  25   1  13 1868.47 78.6500   1
  13  25  -1 1878.09 91.0200   1
  25  13  -1 1852.80 89.9100   1
  25  13   1 1821.90 79.9300   1
   7  11  25 175.840 66.8000   1
  11   7  25 183.870 61.6100   1
   7  25  11 149.450 74.5900   1
  11  25   7 215.160 60.0100   1
  25 -13  -1 1896.73 89.2100   1
   7  25 -11 231.450 51.5800   1
  11  25  -7 218.380 53.6600   1
  25   7  11 168.110 40.0000   1
  25  11   7 274.870 42.8900   1
  25  -7  11 175.480 36.3100   1
  25  11  -7 170.530 58.8700   1
  11   7  25 305.470 50.8600   1
  25  -1 -13 1929.72 84.3500   1
  -1  25  13 1631.87 77.5100   1
   1  25  13 1830.94 88.8900   1
  -1  25 -13 1816.92 85.2400   1
  25 -11   7 192.350 51.5200   1
  25   7 -11 214.880 43.4900   1
   7  11 -25 152.390 45.2200   1
  11   7 -25 297.590 50.2000   1
  25 -13   1 1847.05 80.6300   1
  25   1 -13 1758.12 88.4700   1
   1  25 -13 1866.93 98.4400   1
  13   1  25 1910.69 104.330   1
  13  -1  25 2057.12 106.670   1
   1  25 -13 1885.40 87.1500   1
   7  25  11 119.590 60.9800   1
   0  28   4 19.3800 63.1900   1
  16  12  20 67.0800 37.0700   1
  12  20  16 -16.620 43.0500   1
  16  20  12 69.1400 62.3000   1
  20   0  20 64.1800 44.3200   1
  12  16  20 16.6200 39.2500   1
  16 -20  12 47.2900 40.7000   1
  16  12  20 139.770 45.6300   1
  16  12 -20 57.7500 37.3600   1
  20  12 -16 84.3500 49.0800   1
  20 -16  12 47.3700 41.3500   1
  12  16 -20 102.410 33.8300   1
  20  16 -12 41.2600 51.9700   1
  16  20 -12 19.2000 43.9800   1
  12  20 -16 -2.4100 38.0500   1
  20 -12  16 69.7000 44.2000   1
  20  16  12 17.5400 42.0700   1
  12  16  20 42.6200 51.1900   1
  20  20   0 2.05000 54.0000   1
  20  12  16 -97.560 55.7000   1
   0  20  20 -131.12 71.3700   1
  -4  28   0 136.170 45.0100   1
   0  28  -4 -21.460 62.0600   1
   4  28   0 72.4800 47.3300   1
  28   4   0 0.60000 56.9900   1
  28   0   4 31.0800 39.2800   1
  28  -4   0 78.5100 55.9700   1
  28   0  -4 38.9900 41.2600   1
  -4  28   0 32.9700 47.8600   1
   0  28   4 -50.570 40.5100   1
   0  28  -4 -22.940 53.9000   1
   4  28   0 -71.280 40.2100   1
   7  27   5 630.730 61.0200   1
   5  27   7 651.740 80.6100   1
   7   5  27 659.190 72.0800   1
  27  -5  -7 689.600 60.4600   1
  19 -19   9 1145.48 65.3400   1
  19   9 -19 1110.13 65.4500   1
  19  19  -9 1112.80 67.3200   1
   9  19 -19 1099.33 58.0700   1
  19  19   9 1133.65 61.4400   1
  19  -9  19 1245.23 69.8100   1
  19   9  19 1244.02 79.5200   1
   9  19  19 1083.04 83.9300   1
  15   7 -23 -2.6600 53.3700   1
  23   7  15 49.5300 48.7400   1
  15  23  -7 -46.210 46.5800   1
  15  23   7 40.6700 55.4100   1
  15   7  23 49.6100 44.6200   1
   7  23  15 17.5000 74.1900   1
   7  15  23 59.7900 66.0700   1
  23  15   7 6.97000 56.4600   1
  23  -7  15 11.3000 46.7200   1
  23  15  -7 4.32000 39.6800   1
   7  15 -23 70.1200 39.0000   1
  23   7 -15 35.1300 51.8200   1
  -5  27  -7 566.740 53.0300   1
  23 -15   7 55.3900 43.1400   1
  15   7  23 39.0500 43.3900   1
  -1  21  19 102.350 71.9100   1
   1  19  21 47.6900 73.1900   1
   1  21  19 24.7800 78.3700   1
  19  -1  21 77.3300 44.5500   1
  19   1  21 38.4100 52.1000   1
  21   1  19 59.7400 36.4700   1
  21  -1  19 69.9500 42.3500   1
  19  21   1 45.1500 51.2800   1
  19  21  -1 101.710 40.6600   1
  21  19   1 -51.360 55.2300   1
  21  19  -1 75.1300 39.4300   1
  21   1 -19 74.0800 54.9100   1
   7  23  15 34.3300 54.5000   1
   7  15  23 2.35000 48.1800   1
  -3  25 -13 1259.68 65.6700   1
  25  -3 -13 1270.70 64.8900   1
  25 -13   3 1396.81 69.1900   1
  25   3 -13 1375.08 70.3600   1
   3  13 -25 1401.13 72.7300   1
  25  13  -3 1447.25 75.9100   1
  25  -3  13 1376.65 74.1500   1
  25  13   3 1207.61 59.6500   1
  25   3  13 1252.81 69.0500   1
  13  25  -3 1322.81 76.6600   1
  13  25   3 1289.83 79.1500   1
   3  25 -13 1331.71 80.4200   1
  13   3  25 1343.23 85.6600   1
   3  25  13 1250.17 89.8700   1
  13  -3  25 1314.23 81.6100   1
  -3  25  13 1423.35 81.7200   1
   3  13  25 1237.13 86.8500   1
   9  19  19 1111.36 59.4200   1
  15  17 -17 599.780 57.1200   1
  17  17  15 613.520 54.4600   1
  17  15  17 638.610 70.1500   1
  15  17  17 717.030 75.3600   1
   7  23 -15 34.5700 41.2700   1
   7  27   5 605.510 62.3600   1
   5  27   7 512.190 50.8400   1
  17  17 -15 541.230 45.2800   1
   3  25  13 1274.22 77.0800   1
  17  15 -17 611.980 54.3500   1
  27  -7  -5 551.510 58.5000   1
  27   5  -7 536.890 64.7600   1
  27  -7   5 623.260 59.5300   1
  27   7  -5 591.530 64.1400   1
  27  -5   7 570.130 58.2400   1
  27   7   5 677.710 64.4300   1
  27   5   7 733.570 59.2300   1
   7  27  -5 636.680 67.1700   1
   5  27  -7 629.950 61.0800   1
  20  20   2 342.510 43.9500   1
  28   2   4 185.710 39.9900   1
  28   4   2 275.400 58.7900   1
   4  28  -2 266.630 49.0100   1
   4  28   2 185.190 50.6300   1
   2  28  -4 166.080 64.9300   1
   2  28   4 185.200 71.4900   1
  -2  20 -20 265.910 41.8300   1
  20   2 -20 231.980 61.9500   1
  20  20  -2 234.770 51.5000   1
  28  -4   2 166.910 50.1600   1
  20   2  20 383.520 56.6700   1
  20  -2  20 267.220 47.2800   1
   2  20  20 243.310 79.3700   1
   8   8 -26 133.040 49.2000   1
  26  -8  -8 151.670 54.5000   1
   8  26   8 83.9000 53.8500   1
  -2  28   4 161.310 52.4400   1
   8  22  16 100.210 69.6300   1
  16   8  22 -41.700 62.9400   1
  -2  28  -4 244.180 64.9800   1
   8  16  22 -30.930 75.5100   1
   8   8  26 162.560 63.2900   1
   8  26   8 127.790 51.6300   1
   8  26  -8 125.030 46.3600   1
  26   8   8 229.260 53.3700   1
  26   8  -8 112.830 52.1400   1
  26  -8   8 53.7400 35.3000   1
  22   8  16 94.6500 38.1700   1
   8  22 -16 90.3100 37.8300   1
   8  16 -22 97.9900 41.2100   1
  -4  28   2 145.840 58.1400   1
  16   8  22 56.4400 42.4900   1
   8  22  16 -25.050 59.7400   1
   8  16  22 165.070 55.8300   1
  16   8 -22 132.580 47.8500   1
  22   8 -16 54.2000 40.0100   1
  22  -8  16 103.590 44.2600   1
  28   4  -2 153.450 50.9400   1
  28  -2   4 146.760 39.0100   1
  28   2  -4 218.500 43.0200   1
  28  -4  -2 203.350 56.2400   1
  28  -2  -4 285.670 53.5200   1
  -4  28   2 208.220 58.3900   1
  -4  28  -2 107.210 38.1800   1
  -2  28   4 113.270 42.3800   1
  -2  28  -4 140.820 53.8500   1
   2  28   4 112.500 41.9300   1
   2  28  -4 114.300 49.9300   1
   4  28   2 124.960 59.4500   1
   4  28  -2 107.820 56.3300   1
  22 -16   8 128.590 40.3300   1
  16  22  -8 119.730 45.8600   1
  22  16  -8 60.3500 39.6400   1
  16  22   8 10.9600 64.5900   1
  22  16   8 17.2500 40.2200   1
   6  14  24 476.350 61.3600   1
  14  -6  24 419.840 64.2300   1
  14   6  24 340.450 62.2100   1
  14   6  24 327.670 45.4100   1
  14   6 -24 310.470 55.5400   1
   6  14 -24 335.510 43.3200   1
  18   0  22 -62.430 46.8600   1
   6  24 -14 335.470 44.9000   1
  22   0  18 0.84000 49.9600   1
  24  14   6 322.030 44.3900   1
  24   6  14 312.360 55.8100   1
  14  24  -6 266.200 55.9700   1
   0  22 -18 -32.350 40.1300   1
  22   0 -18 6.28000 43.1700   1
  22  18   0 -8.5000 38.6800   1
  18  22   0 41.7000 57.0600   1
   6  24  14 315.790 81.2400   1
  14  24   6 393.430 49.0600   1
   6  24  14 350.150 46.8400   1
  24 -14   6 344.020 48.4600   1
  24   6 -14 345.600 55.6500   1
  24  14  -6 399.270 44.3800   1
  24  -6  14 415.140 47.8100   1
   0  22  18 16.8600 51.9800   1
  21  -9  17 383.540 47.8800   1
   9  21 -17 337.550 41.6300   1
   9  17 -21 325.810 45.1400   1
  21   9 -17 332.700 53.7200   1
  17   9 -21 419.040 45.1800   1
   9  17  21 315.670 44.2900   1
   9  21  17 258.000 56.2200   1
   3  19  21 604.860 77.4100   1
   3  21  19 514.030 65.0600   1
   3  21 -19 535.680 48.6700   1
  19  -3  21 501.130 55.2800   1
  19   3  21 574.990 48.9200   1
  21   3  19 532.670 53.9100   1
  21  -3  19 516.310 48.1500   1
  19  21   3 574.380 63.3200   1
  21  19   3 601.930 49.3300   1
  19  21  -3 535.270 59.6100   1
  21  19  -3 483.510 61.6200   1
  21   3 -19 439.090 47.9100   1
  19   3 -21 425.450 48.8000   1
   3  21  19 489.910 58.4300   1
  -3  21 -19 471.640 46.4600   1
  21   9  17 318.420 43.4700   1
  15  15  19 240.720 51.3800   1
  15  15 -19 125.740 44.7700   1
  15  15  19 233.030 67.9200   1
   9  17  21 388.640 72.6200   1
   9  21  17 263.280 71.3800   1
  17   9  21 347.420 59.4100   1
   1  27   9 359.990 57.1300   1
  19  15  15 191.120 55.5200   1
  15  19 -15 241.510 49.9600   1
  19  15 -15 161.970 54.2400   1
  -1  27   9 257.810 68.4500   1
   1  27  -9 261.230 61.0900   1
   1   9 -27 265.320 42.7900   1
   9  27  -1 271.870 63.6100   1
   9  27   1 279.640 48.3900   1
  27   1  -9 286.590 45.3500   1
  27   1   9 291.130 48.7900   1
  27   9   1 345.730 59.7100   1
  27  -1   9 283.510 40.7200   1
  27   9  -1 322.640 54.0400   1
  15  19  15 138.490 62.5000   1
  27  -9   1 257.190 42.5200   1
  27  -1  -9 313.700 56.4300   1
  27  -9  -1 318.830 43.7600   1
  21 -17   9 371.330 49.7800   1
  21  17  -9 413.710 52.4300   1
  17  21  -9 403.580 42.3300   1
  21  17   9 469.490 63.6800   1
  17  21   9 479.480 66.1300   1
   1  27  -9 271.130 48.2700   1
  -1  27  -9 309.540 48.6300   1
   1  27   9 354.650 62.1900   1
  -1  27   9 343.870 48.0200   1
  -1   9 -27 334.210 45.4700   1
  -1  27  -9 357.600 60.8500   1
   2  18  22 -69.240 64.8600   1
  26  10  -6 20.6300 40.2800   1
  22  -2  18 26.4900 33.2300   1
  18  22  -2 -9.3800 55.6700   1
  22  18  -2 -1.3100 55.8900   1
  22   2 -18 137.980 54.1200   1
  26 -10   6 6.03000 49.8600   1
   2  22  18 155.730 60.0800   1
   6  26  10 -29.890 53.7800   1
  26  -6 -10 10.3100 54.6900   1
   6  10 -26 22.6400 43.3300   1
  26   6 -10 -69.790 58.2000   1
  -2  22 -18 -9.7100 36.9100   1
  18   2  22 54.6800 44.2700   1
  26  -6  10 -15.580 44.0600   1
  26  10   6 -36.970 48.1600   1
  26   6  10 -75.830 51.8500   1
  10  26  -6 26.7900 37.5700   1
   6  26 -10 34.8700 34.7000   1
  10  26   6 -51.410 65.2700   1
   6  26  10 -51.180 66.4500   1
  10   6  26 12.5100 67.8700   1
   6  10  26 14.9500 58.6300   1
  22   2  18 8.24000 44.7300   1
  22  18   2 -68.160 57.1600   1
   2  22  18 47.9500 55.6800   1
  18   2  22 1.50000 50.2100   1
  18  -2  22 10.8700 51.3000   1
  18  22   2 93.7800 41.0100   1
   4  28  -4 724.180 65.9600   1
   4  28   4 760.560 53.0500   1
  -4  28  -4 878.100 63.8700   1
  -4  28   4 707.140 66.3800   1
  28   4  -4 751.380 52.5500   1
  28   4   4 702.040 57.5500   1
  28  -4   4 793.500 63.3200   1
  28  -4  -4 695.560 51.3800   1
  -4  28   4 951.850 65.5700   1
  20   4 -20 1094.84 72.6700   1
  20  20  -4 1025.09 55.5800   1
   4  20  20 1087.61 71.8600   1
   4  20  20 1077.14 76.2700   1
   4  28  -4 861.150 61.6200   1
   4  28   4 813.940 74.1400   1
  20   4  20 1090.54 70.6700   1
  20  -4  20 1005.08 58.3500   1
   4  20 -20 1048.87 57.4900   1
  20  20   4 1068.41 71.6700   1
  13  23  11 2333.14 104.470   1
  11  23  13 2523.72 114.340   1
  13  11  23 2296.57 96.1700   1
  11  13  23 2337.21 111.610   1
  13  -5  25 504.830 58.9700   1
   5  13  25 647.010 82.5100   1
  13   5  25 599.960 74.3600   1
   5  25  13 450.910 60.8500   1
   5  25 -13 516.100 51.4100   1
  13  25   5 486.570 62.6000   1
  13  25  -5 658.090 56.1500   1
  25   5  13 572.410 57.5500   1
  25  13   5 463.360 55.6000   1
  25  -5  13 499.580 49.1000   1
  25  13  -5 665.940 64.1400   1
   5  13 -25 561.600 50.7000   1
  25   5 -13 634.630 64.9700   1
  25 -13   5 578.100 46.5800   1
  13   5  25 475.190 50.6800   1
   5  25  13 539.410 50.3300   1
  23   1 -17 96.9500 61.2000   1
  13  17  19 201.120 73.2100   1
  13  19  17 281.060 65.6100   1
  17  13  19 435.710 65.2400   1
  17  19  13 271.590 59.3800   1
  19  17  13 245.780 60.9200   1
  17  19 -13 249.160 48.0900   1
  13  19 -17 375.730 45.8400   1
  19  17 -13 252.520 41.1300   1
  13  17 -19 279.350 49.7300   1
  19 -17  13 346.610 45.1100   1
  19  13 -17 303.450 50.4400   1
  17  13 -19 221.150 54.2200   1
  13  17  19 278.180 42.9700   1
  13  19  17 274.230 61.6000   1
  19  13  17 218.020 61.0400   1
  -3  27   9 29.0900 67.8000   1
   9   3  27 15.8800 53.1500   1
   3  27   9 -21.630 52.7600   1
   3  27  -9 -74.310 55.2100   1
   9  27   3 -5.8800 62.8600   1
   9  27  -3 -13.510 40.9200   1
  27   3   9 -31.660 52.2600   1
  27   9   3 17.7900 56.4200   1
  27  -3   9 35.8300 51.9500   1
  27   9  -3 2.73000 50.7500   1
  27   3  -9 19.0500 54.2400   1
  27  -9   3 -40.160 51.8000   1
  27  -3  -9 47.1400 52.2900   1
  27  -9  -3 -39.750 39.7700   1
   3   9 -27 46.4000 42.0700   1
  -3  27   9 -1.9300 42.4400   1
   3  27   9 -90.910 59.4000   1
   3  27  -9 44.8600 38.4000   1
  17   1  23 148.440 43.5400   1
   1  17  23 273.890 65.6200   1
  -1  23 -17 37.2200 39.9600   1
   1  23  17 89.9900 43.0200   1
  23  -1 -17 100.620 56.6800   1
  -1  23  17 -5.7000 52.3000   1
   1  23  17 29.1900 69.2600   1
  17   1  23 25.0200 40.7400   1
  17  -1  23 106.700 54.9100   1
  17  23   1 156.770 57.6300   1
  17  23  -1 94.6200 49.6200   1
  23   1  17 14.0500 49.3600   1
  23  -1  17 48.5100 43.5300   1
  13  11 -23 2349.11 104.380   1
  23  17   1 11.8900 39.7400   1
  23  17  -1 43.3100 54.7600   1
  11  13  23 2149.92 88.9000   1
  11  23  13 2216.56 92.1500   1
  11  13 -23 2193.03 86.7500   1
  23  11 -13 2149.40 82.1700   1
  23 -13  11 2186.91 92.4900   1
  23  13 -11 2314.95 83.1500   1
  23 -11  13 2230.05 95.6000   1
  13  23 -11 2435.12 91.4200   1
  23  13  11 2256.74 92.1600   1
  11  23 -13 2205.48 84.9800   1
  23  11  13 2255.52 91.9400   1
  10  24 -12 2161.71 87.7300   1
  12   0  26 1676.63 92.7000   1
   0  26 -12 1697.14 78.5700   1
   0  26  12 1561.02 81.4300   1
  10  12 -24 2225.72 90.4000   1
  10  24  12 1960.94 86.0400   1
  12  10  24 2151.42 91.8000   1
  10  12  24 2105.10 88.2600   1
  24  12 -10 2186.63 81.1600   1
  12  24  10 2313.66 105.540   1
  10  24  12 2036.04 90.4000   1
  12  10  24 2294.55 108.080   1
  10  12  24 2177.36 96.1300   1
  24 -12  10 2287.77 85.9700   1
   0  26 -12 1689.49 91.3500   1
  24  10 -12 2097.27 86.4300   1
  12  26   0 1580.05 82.4700   1
  24 -10  12 2123.88 82.9100   1
  12  10 -24 2236.69 90.4500   1
  26   0  12 1496.85 69.0900   1
  26  12   0 1699.29 70.6700   1
  26   0 -12 1669.02 83.2500   1
  26 -12   0 1649.33 76.3400   1
   0  28   6 56.1800 51.7200   1
   0  28  -6 29.5600 59.9400   1
  12  24 -10 2167.71 78.9900   1
   6  28   0 -6.6900 64.8100   1
  28   6   0 106.340 57.7000   1
  28   0   6 128.430 54.0300   1
  28  -6   0 -12.470 54.5800   1
  28   0  -6 -47.190 58.0200   1
   0  28   6 52.6300 58.8300   1
   6  28   0 11.2800 58.5800   1
   0  28  -6 18.1100 47.5900   1
  24  12  10 2091.54 85.0600   1
  24  10  12 2071.09 78.7200   1
   0  26  12 1756.50 103.530   1
  -2  26  12 1170.32 88.2700   1
  12   2  26 1200.22 79.0200   1
  12  -2  26 1081.39 74.1900   1
   2  26 -12 1114.71 68.3200   1
  -2  26 -12 1076.77 60.2800   1
   2  26  12 926.880 57.3800   1
  26 -12  -2 1041.22 65.2000   1
  26  -2 -12 998.950 73.1100   1
  26 -12   2 1143.83 70.1400   1
  26  12  -2 1138.54 71.4700   1
  26  -2  12 1054.44 60.8300   1
  26  12   2 1051.62 64.9200   1
  26   2  12 1029.57 64.8200   1
  12  26  -2 1109.36 68.7000   1
  12  26   2 1177.96 77.7500   1
  18 -20  10 449.720 49.3500   1
  20  18 -10 543.370 53.3100   1
  18  20  10 484.190 66.6200   1
   2  26 -12 1182.44 73.8900   1
   2  26  12 1120.42 91.9000   1
  18  20 -10 447.710 51.0200   1
  26   2 -12 1149.22 61.7400   1
  20  18  10 327.640 57.5100   1
   6  28   2 174.910 59.9500   1
   6  28  -2 48.4200 64.7000   1
  28   6   2 296.370 59.4900   1
  28   6  -2 226.890 43.1000   1
  28  -6   2 221.010 41.6600   1
  28  -6  -2 212.900 53.4700   1
   6  28   2 111.800 43.2900   1
  22  12  14 981.760 65.2400   1
  22  14  12 1124.45 60.0700   1
  12  22 -14 1049.52 58.6000   1
  14  22 -12 1175.83 94.0400   1
  22 -12  14 1147.07 65.5600   1
  22  14 -12 1087.97 57.8100   1
  22 -14  12 1115.70 63.6500   1
  12  14 -22 972.550 52.2000   1
  22  12 -14 1050.54 57.0900   1
  14  12 -22 1112.06 67.2200   1
  12  14  22 1092.63 68.7700   1
  14  12  22 889.180 52.5300   1
  12  22  14 1172.69 77.6900   1
   4  18  22 613.880 64.5900   1
   4  22  18 588.620 85.3800   1
  18  -4  22 616.970 59.8300   1
  18   4  22 589.520 65.8800   1
   4  22 -18 520.410 50.9200   1
  18  22   4 602.170 62.6200   1
  22   4  18 633.960 55.4700   1
  22  -4  18 545.780 49.6700   1
  22  18   4 530.150 59.4800   1
  18  22  -4 526.040 55.5100   1
  22  18  -4 662.580 57.3200   1
  22   4 -18 532.590 63.4000   1
  18   4 -22 399.850 61.6200   1
   4  22  18 526.550 50.0200   1
  18   4  22 487.220 52.3900   1
  10  20  18 575.670 82.4300   1
  10  18  20 433.940 58.9800   1
  18  10  20 428.690 59.8600   1
  20  10  18 478.860 47.6000   1
  20 -10  18 513.290 47.9600   1
  10  20 -18 435.910 47.1400   1
  10  18 -20 461.620 48.4300   1
  20  10 -18 508.690 56.0400   1
  -2  28  -6 240.610 63.2200   1
  -2  28   6 30.1700 72.8100   1
   2  28   6 273.080 68.2600   1
   2  28  -6 188.360 56.7800   1
  18  10 -20 636.900 61.4800   1
  10  18  20 361.500 54.9700   1
  10  20  18 518.350 59.4000   1
  28  -2   6 185.410 39.3200   1
  12  14  22 1371.05 93.1200   1
  28   2  -6 115.800 58.6100   1
  14  12  22 1166.20 79.6900   1
  28  -2  -6 127.220 60.0400   1
  12  22  14 1114.11 85.7700   1
  -2  28   6 135.190 59.5400   1
  -2  28  -6 176.470 39.2700   1
   2  28  -6 251.640 40.3800   1
  14  22  12 969.760 75.4100   1
   5  19  21 1177.24 60.4600   1
  19   5 -21 1282.08 69.8000   1
  21   5 -19 1172.51 61.1000   1
  21  19  -5 1358.55 72.8000   1
  19  21  -5 1247.51 71.6100   1
  27  -7  -7 616.400 50.2000   1
   5  21  19 1103.66 68.2700   1
   7  27   7 512.150 59.7000   1
   5  19 -21 1256.98 63.3700   1
   3  17  23 4.76000 54.2700   1
   3  23  17 106.150 79.4100   1
  17  -3  23 120.190 55.3600   1
  27   7  -7 543.010 48.6700   1
  27  -7   7 667.980 59.8400   1
  21  19   5 1292.63 75.0100   1
  21  -5  19 1252.83 66.6500   1
  19  21   5 1302.22 71.1300   1
   5  21 -19 1315.91 65.0800   1
  21   5  19 1190.12 69.8500   1
   3  23 -17 68.9300 47.1000   1
  17   3  23 -23.320 58.9800   1
  17  23   3 -17.470 59.0600   1
  23   3  17 -7.3100 36.1500   1
  17  23  -3 -2.7500 38.5400   1
  23  -3  17 -4.6400 42.3500   1
  23  17   3 -2.8600 51.4200   1
  23  17  -3 -0.5500 49.8400   1
  23   3 -17 31.2600 52.3600   1
   3  23  17 35.8300 59.8000   1
  -3  23 -17 33.6200 39.2500   1
  17   3  23 -10.070 37.7600   1
  11  25   9 1033.56 66.0700   1
  19  -5  21 1314.58 66.8200   1
  25   9 -11 981.460 65.1600   1
  25 -11   9 1005.08 52.6700   1
   9  11 -25 1058.63 59.6800   1
  19   5  21 1389.52 75.0400   1
   5  21  19 1382.76 99.6100   1
  11  25  -9 1120.79 62.7300   1
   5  19  21 1315.17 91.6100   1
  11   9 -25 949.750 64.7400   1
  25  -9  11 926.530 61.7500   1
   9  11  25 879.520 59.1100   1
   9  25  11 728.350 75.8100   1
  11   9  25 972.230 79.2500   1
   9  25 -11 1092.62 65.3500   1
   9  25  11 930.720 65.8700   1
  25   9  11 1054.43 67.4600   1
  25  11   9 958.800 68.0000   1
   9  11  25 887.040 86.0900   1
  11   9  25 932.600 61.6300   1
   7   7  27 593.280 72.1800   1
   7  27   7 650.470 73.4900   1
   7  27  -7 644.110 64.5300   1
  27   7   7 662.480 49.6700   1
  25  11  -9 1142.40 71.8000   1
  16  24   0 568.790 48.2700   1
  16   0  24 593.030 67.7400   1
   0  24  16 528.580 82.8900   1
   0  24 -16 485.240 50.1700   1
  16   0  24 516.250 50.8300   1
   0  24  16 461.370 48.9600   1
  24   0 -16 519.670 65.9900   1
  24  16   0 536.790 47.0400   1
  24   0  16 493.570 43.4700   1
  21 -13  15 113.430 42.3400   1
  15   9  23 39.9400 66.6800   1
  15  23   9 94.9600 60.5900   1
   9  23 -15 155.570 40.7400   1
  23   9  15 101.980 50.8800   1
  23  15   9 10.5700 58.8600   1
  15  23  -9 155.620 53.7400   1
  23  -9  15 93.5100 41.5300   1
  21  13 -15 67.2100 48.4500   1
  23  15  -9 41.1200 40.2400   1
   9  15 -23 137.010 44.6500   1
  23   9 -15 103.480 57.9600   1
   9  23  15 116.580 44.1900   1
  -5  27  -9 170.430 44.8100   1
  27  -5  -9 87.9500 42.7200   1
  27  -9  -5 272.900 61.3100   1
   9   5  27 103.710 60.1400   1
   5   9 -27 187.550 46.5000   1
  27   5  -9 161.850 59.5700   1
  27  -9   5 221.900 54.4900   1
  21 -15  13 132.930 44.6700   1
  27   9  -5 226.620 54.5900   1
  27  -5   9 211.350 38.6800   1
  21  15 -13 146.540 49.3900   1
  27   5   9 177.320 40.6400   1
   5  27   9 266.100 55.5700   1
  27   9   5 116.470 57.1400   1
  13  15  21 195.970 73.1000   1
  13  21  15 0.56000 71.0900   1
  15  13  21 83.2700 48.2600   1
   9  27  -5 227.530 57.7100   1
  23 -15   9 123.910 48.1200   1
  15   9 -23 138.220 48.6600   1
   9  15  23 130.740 55.7800   1
  15   9  23 121.400 50.2400   1
   5  27   9 132.490 45.0600   1
  13  15  21 79.1200 39.6600   1
  15  13  21 128.080 46.5400   1
  13  21  15 197.460 56.1400   1
  13  15 -21 112.470 48.7800   1
   5  27  -9 148.250 50.6800   1
   9  27   5 253.390 69.1000   1
   9  15  23 108.740 68.9000   1
   9  23  15 175.860 55.8800   1
  15  21  13 113.950 60.6600   1
  21  15  13 125.840 60.1700   1
  21  13  15 77.3400 41.4800   1
  15  21 -13 110.390 50.4600   1
  13  21 -15 125.670 41.8400   1
  15  13 -21 101.650 45.2300   1
  14  24   8 380.790 69.1200   1
  26 -12   4 397.590 57.6300   1
  26  -4 -12 432.220 65.9600   1
  -4  26 -12 485.700 52.4600   1
   4  26  12 408.550 64.8800   1
   6  28   4 980.580 71.0500   1
  28  -4   6 766.680 57.2200   1
  28   6  -4 857.780 67.7200   1
  28  -6   4 944.290 65.2900   1
  28   4  -6 903.980 55.5200   1
  28  -6  -4 883.190 55.4500   1
  28  -4  -6 783.250 68.2200   1
   8  24  14 307.020 46.9600   1
  14   8  24 279.450 51.6700   1
  14   8 -24 347.890 42.5400   1
  24 -14   8 292.640 47.9600   1
  24   8 -14 369.090 54.7500   1
   8  14 -24 362.890 47.2900   1
  24  14  -8 290.720 44.2400   1
  24  -8  14 292.400 45.6900   1
  24  14   8 331.610 54.4500   1
  24   8  14 333.170 57.7200   1
  14  24  -8 302.440 49.7100   1
   8  24 -14 316.250 44.1400   1
  14   8  24 318.060 52.3000   1
   8  24  14 201.390 78.0400   1
   8  14  24 281.210 78.0100   1
  28   4   6 946.430 62.3600   1
  28   6   4 873.260 61.3000   1
   6  28   4 854.270 74.5800   1
   4  28  -6 961.510 74.9200   1
   4  28   6 875.020 84.3200   1
  18  16 -16 628.760 59.1500   1
  16  16 -18 656.200 58.4400   1
  16  18 -16 617.610 56.4700   1
  18  16  16 632.080 69.7400   1
  16  18  16 703.180 74.0600   1
  16  16  18 720.220 58.3000   1
   8  14  24 270.970 55.9400   1
  -4  28  -6 984.640 64.5600   1
   6  20  20 1504.78 101.370   1
  20   6  20 1435.03 78.4600   1
  20  -6  20 1414.54 67.8500   1
  20  20   6 1522.40 75.7600   1
   6  20 -20 1357.25 62.3300   1
  20  20  -6 1313.00 61.2100   1
  20   6 -20 1449.11 72.7400   1
   6  20  20 1414.08 73.5500   1
  24  -2  16 130.070 48.3700   1
  26  12   4 479.130 62.1200   1
  -2  24  16 201.410 73.9200   1
   2  16  24 137.260 66.5100   1
   2  24  16 264.860 60.0000   1
   2  24 -16 250.520 53.3100   1
  16  -2  24 334.590 62.2800   1
  16   2  24 187.800 64.3200   1
  16  24   2 261.900 53.8800   1
  16  24  -2 209.370 41.7800   1
  24   2  16 198.780 38.5200   1
   4  28   6 810.900 55.5300   1
  24  16   2 362.320 61.2100   1
  24  16  -2 250.670 59.0300   1
  24   2 -16 191.120 44.3900   1
  24 -16   2 136.500 58.2900   1
  24  -2 -16 153.520 67.2500   1
   2  24  16 298.550 62.7800   1
  -2  24 -16 236.370 44.3600   1
  16   2  24 219.700 43.7000   1
  26   4 -12 580.210 65.0100   1
   4  12 -26 426.470 44.1200   1
  26  12  -4 465.530 47.1500   1
  26  -4  12 442.480 55.0700   1
  26   4  12 366.710 42.4600   1
  12  26  -4 466.990 47.0500   1
  12  26   4 614.110 69.4900   1
   4  26 -12 500.410 54.9000   1
   4  26  12 552.060 82.6000   1
  12   4  26 520.790 73.9500   1
   4  12  26 463.810 66.2700   1
   4  28  -6 939.210 69.3100   1
  10  26   8 20.7600 55.5700   1
  22 -10  16 33.1800 44.2600   1
  16  22 -10 -72.560 50.5200   1
  10  22 -16 47.7700 44.7400   1
  22  16  10 3.96000 41.0400   1
  22  10  16 -30.380 38.9400   1
  16  22  10 57.4000 46.3100   1
  16  10  22 -13.260 45.6200   1
  10  22  16 36.4400 54.0000   1
  10  16  22 -115.19 76.0800   1
   8  26  10 100.870 61.7900   1
   8  10  26 35.4700 71.9500   1
  10   8  26 -31.990 70.5600   1
   8  26  10 21.4500 65.8700   1
  10  26   8 -50.270 68.5400   1
   8  26 -10 69.5100 44.7200   1
  10  26  -8 -26.210 51.0000   1
  26   8  10 50.5000 38.6500   1
  26  10   8 -11.460 39.6500   1
  26  -8  10 58.1900 45.2500   1
  26  10  -8 -65.020 41.0700   1
  26   8 -10 9.33000 59.2200   1
  26 -10   8 90.2400 50.1700   1
   8  10 -26 77.6600 47.0200   1
  10   8 -26 98.2800 50.5700   1
  16  10  22 -11.140 44.8300   1
  10  22  16 -15.310 53.1600   1
  10  16  22 18.1700 38.5700   1
  16  10 -22 -5.5500 53.2200   1
  22 -16  10 19.2000 45.6700   1
  22  10 -16 -17.280 50.7000   1
  10  16 -22 4.02000 42.7500   1
  22  16 -10 -27.190 39.8500   1
   5  23  17 242.040 46.7600   1
  17   5 -23 104.630 57.3600   1
  23 -17   5 311.680 41.7300   1
  23  17  -5 238.740 42.9000   1
   5  17 -23 304.160 41.0600   1
  -1  29  -1 139.110 41.2800   1
  23  -5  17 275.110 47.6900   1
  17  23  -5 221.390 40.8100   1
  23   5  17 361.330 51.2900   1
  17  23   5 327.890 45.6600   1
  13  25   7 385.680 51.6300   1
   5  23 -17 266.730 44.4700   1
  17   5  23 247.260 64.4600   1
  17  -5  23 265.880 54.4200   1
   5  23  17 290.060 60.7600   1
   5  17  23 251.360 79.8100   1
   1  29   1 130.760 52.9100   1
  23  17   5 188.530 57.9500   1
   1  29  -1 163.100 50.4800   1
  -1  29   1 276.880 70.4500   1
   7  25 -13 472.490 53.7100   1
  -1  29  -1 264.240 70.9000   1
   1  29  -1 107.280 56.7200   1
  11  19 -19 326.860 43.1600   1
  19  19 -11 322.470 56.9700   1
  19  11 -19 290.010 42.5700   1
  19 -19  11 284.730 45.6900   1
  11  19  19 397.280 55.4000   1
  23   5 -17 188.040 43.5200   1
  17   5  23 261.010 43.8200   1
  13  25  -7 358.460 42.3000   1
  25   7  13 319.430 42.4000   1
  25  13   7 236.320 43.1100   1
  25  -7  13 362.830 47.8800   1
  25  13  -7 363.720 55.6600   1
   7  13 -25 354.690 46.1600   1
  25   7 -13 412.250 57.5300   1
  25 -13   7 325.070 39.8500   1
  13   7 -25 386.830 56.2000   1
  13   7  25 423.750 48.6800   1
   7  25  13 433.480 49.5300   1
   1  29   1 325.180 73.4700   1
  19  19  11 251.180 56.1700   1
  19  11  19 256.530 55.5000   1
  11  19  19 228.410 77.3800   1
   7  25  13 326.730 79.9300   1
   7  13  25 321.910 71.7900   1
  -1  29   1 153.260 42.5300   1
  29   1   1 200.470 42.1800   1
  29  -1  -1 130.070 51.8900   1
  29  -1   1 211.510 52.2000   1
  13   7  25 388.160 53.6600   1
  29   1  -1 182.620 42.0200   1
  14  18  18 615.470 59.6000   1
  18  14 -18 529.980 44.7700   1
  14  18 -18 617.640 56.8800   1
  14  18  18 624.000 70.2700   1
  18  14  18 576.440 63.1400   1
   6  18 -22 881.860 54.0700   1
  18  22  -6 839.830 58.7700   1
  22  -6  18 924.740 56.3200   1
  22  18   6 937.810 56.1400   1
  18  22   6 787.650 54.9100   1
   6  22 -18 880.560 54.9400   1
  22   6  18 792.850 58.8100   1
  18   6  22 931.900 60.1100   1
  18  -6  22 801.640 62.5000   1
   6  22  18 1001.51 73.0400   1
  18  18 -14 617.530 47.3900   1
   6  18  22 974.710 91.6600   1
  18   6 -22 688.510 50.6700   1
  18   6  22 843.940 62.1600   1
  18  18  14 597.420 64.3000   1
   6  18  22 824.110 61.1600   1
  22 -18   6 712.660 59.7900   1
  22   6 -18 846.150 69.3100   1
  22  18  -6 889.460 54.0000   1
   6  22  18 820.200 70.3200   1
   4  24  16 -74.710 70.2300   1
  16  -4  24 7.42000 53.1600   1
  16   4  24 -37.250 54.2400   1
   4  24 -16 -10.870 47.0000   1
  16  24   4 -38.660 59.3300   1
  16  24  -4 25.6000 38.0400   1
  24   4  16 -5.4500 45.6000   1
  24  16   4 -67.240 51.9000   1
  24  -4  16 99.0000 49.0100   1
  24   4 -16 20.4300 52.8800   1
  24 -16   4 -26.050 52.0600   1
   0  28  -8 -63.370 46.2700   1
   0  28   8 40.4700 42.0800   1
  28  -8   0 68.8500 40.4800   1
  28   0  -8 23.1400 59.0700   1
  28   8   0 116.030 52.7700   1
  28   0   8 -45.050 52.8100   1
   8  28   0 86.1300 64.5700   1
   0  28  -8 32.2600 51.7800   1
   0  28   8 -74.580 52.3300   1
   4  24  16 47.2400 42.6000   1
  16   4  24 -22.220 38.6800   1
   4  16  24 -28.130 75.6900   1
  15   1  25 848.060 58.6500   1
   1  25  15 731.890 69.0600   1
  -1  25 -15 813.840 58.2100   1
   1  25 -15 825.400 60.7400   1
  21 -19   7 1056.49 65.4600   1
   7  19  21 941.780 68.5200   1
   7  21  19 1069.46 60.0400   1
  11  -1  27 697.280 67.0400   1
  11   1  27 713.630 66.8500   1
  29  -1   3 174.810 56.5400   1
  11  17  21 -39.300 74.2400   1
  17  11  21 170.550 58.7900   1
  11  17 -21 95.3600 39.5700   1
  29   3  -1 120.430 40.8900   1
  17  11 -21 60.3300 48.0100   1
  11  17  21 147.990 57.7600   1
  17  11  21 126.450 53.5500   1
   3  29   1 -11.060 47.2300   1
  29   3   1 3.54000 39.1300   1
  29   1   3 43.2100 48.9000   1
   3  29  -1 21.4900 45.9100   1
   7  19  21 1082.08 87.9000   1
   1  29  -3 42.1200 66.8300   1
   1  29   3 39.7100 71.0600   1
  -1  29   3 194.740 52.1000   1
  -1  29  -3 -29.970 64.5400   1
   7  21  19 1176.33 77.5500   1
  19   7  21 1065.21 73.7000   1
  19  -7  21 1018.02 64.4000   1
  21   7  19 1041.57 64.8800   1
  19  21   7 984.940 66.7100   1
  21  -7  19 1056.60 60.9500   1
  21  19   7 878.870 69.3200   1
   7  21 -19 966.250 55.5800   1
  19  21  -7 1118.87 68.2700   1
   7  19 -21 971.480 54.7400   1
  21  19  -7 974.890 66.3700   1
  21   7 -19 1057.58 67.1300   1
  19   7 -21 1006.66 70.3800   1
  -1  25  15 805.330 64.7300   1
  -3  29  -1 115.380 56.5300   1
  -3  29   1 85.6000 58.2100   1
   1  25  15 963.570 83.9500   1
   1  25 -15 918.070 70.2500   1
  15  -1  25 938.130 75.8700   1
  15   1  25 871.310 76.5500   1
  15  25   1 782.850 53.7300   1
  15  25  -1 825.770 53.5100   1
  25   1  15 808.120 49.4900   1
  25  -1  15 861.130 50.5400   1
  25  15   1 839.470 60.8300   1
  25  15  -1 664.950 58.5400   1
  25   1 -15 936.150 57.9200   1
  25  -1 -15 1012.87 67.8000   1
  25 -15   1 859.720 68.4600   1
   3  29   1 73.9700 52.0900   1
   3  29  -1 80.3300 57.7500   1
   1  29  -3 -2.7400 56.7400   1
   1  29   3 58.4200 41.5300   1
  -1  29  -3 -29.660 49.2400   1
  -1  29   3 1.08000 40.5900   1
  -3  29  -1 91.7900 56.7000   1
  -3  29   1 34.8500 55.7200   1
  29  -1  -3 -38.120 57.8100   1
  29  -3  -1 89.7300 57.6400   1
  29   1  -3 24.2800 57.1600   1
  29  -3   1 -33.730 54.6900   1
  21  11  17 61.4800 50.8800   1
  17  21  11 94.9500 57.6800   1
  11  21  17 188.530 54.1900   1
  21 -11  17 75.2100 41.9100   1
   1  27  11 687.710 85.6500   1
  21  17  11 208.050 60.1100   1
   1  27 -11 623.610 53.4700   1
  -1  27 -11 759.370 67.7600   1
  -1  27  11 696.090 84.5500   1
  -1  27 -11 635.400 52.8400   1
   1  27  11 702.980 53.3700   1
  -1  27  11 633.870 61.3800   1
  27 -11  -1 720.370 64.9700   1
  27 -11   1 665.650 63.2600   1
  27   1 -11 544.880 60.2900   1
   1  27 -11 663.290 66.6700   1
  11  27   1 915.660 73.4600   1
  11  27  -1 705.880 53.8000   1
  27   1  11 634.110 47.2100   1
  27  -1  11 718.080 60.3000   1
  27  11   1 697.860 60.2800   1
  27  11  -1 665.950 50.5200   1
  11  21  17 51.8400 59.4900   1
  17 -21  11 116.160 42.0800   1
  21 -17  11 160.250 45.6900   1
  21  11 -17 113.990 50.7600   1
  21  17 -11 115.090 56.0200   1
  17  21 -11 154.050 53.6100   1
  11  21 -17 99.5200 40.1200   1
  14  16 -20 100.270 35.4600   1
  20  14  16 28.1900 59.5800   1
  16  14  20 32.4700 39.3100   1
  16  14  20 73.0800 58.2800   1
  14  20  16 52.6200 61.1100   1
  14  16  20 -6.5600 50.0600   1
  14  20  16 50.1700 43.1300   1
  14  16  20 135.810 49.2500   1
  16  14 -20 40.6300 51.0900   1
  20  14 -16 121.100 55.8200   1
  14  20 -16 -13.520 47.4200   1
  16  20  14 44.8000 66.0800   1
   8  28   2 -17.380 46.3300   1
   8  28  -2 5.18000 43.2300   1
  28  -8  -2 57.6300 41.0400   1
  28   2   8 0.15000 47.9300   1
  28   8   2 41.6300 56.5400   1
  28  -2   8 42.7200 36.8700   1
  28   8  -2 30.9800 41.6400   1
  28   2  -8 -29.110 58.8000   1
  28  -8   2 -3.8000 48.5600   1
  28  -2  -8 91.9900 58.9700   1
   2  28  -8 11.9000 47.6300   1
   2  28   8 -41.760 53.9500   1
  -2  28  -8 42.7800 54.5700   1
  -2  28   8 3.14000 68.2800   1
   2  28   8 15.9100 53.6500   1
  20 -16  14 88.3200 41.6200   1
  20  16 -14 58.7500 49.1300   1
  -2  28  -8 27.0300 45.8200   1
  16  20 -14 105.700 45.4900   1
  20  16  14 24.6100 41.9800   1
   2  28  -8 102.460 60.0900   1
  -2  28   8 109.530 52.7200   1
  12  26   6 102.600 67.7500   1
   6  26 -12 75.1400 48.7100   1
   6  26  12 136.290 53.5800   1
  12   6  26 111.580 70.4400   1
   6  12  26 76.2500 73.3000   1
  28  -6  -6 1157.15 68.0800   1
  28   6  -6 1059.04 58.0200   1
  28   6   6 965.370 55.2700   1
   6  28  -6 888.930 72.0100   1
   6  28   6 1079.51 80.8600   1
  26  12  -6 -14.840 57.0300   1
  26  -6  12 155.220 45.5000   1
  26  12   6 67.7600 57.5600   1
  26   6  12 55.3600 54.0500   1
  12  26  -6 107.090 52.9800   1
  28  -6   6 1004.60 65.7000   1
   6  26  12 71.6400 45.1300   1
  26 -12   6 104.390 36.9400   1
  26   6 -12 43.7900 42.5100   1
   6  12 -26 76.6200 42.4400   1
   6  28   6 1107.23 74.3400   1
  27 -11  -3 43.6100 59.0800   1
  -3  27 -11 163.650 44.1900   1
   3  27 -11 223.300 54.3400   1
   3  27  11 102.630 62.4500   1
  27  -7   9 76.1100 50.0700   1
  27   9  -7 119.530 59.2300   1
  27   7  -9 133.570 43.4000   1
  27  -9   7 173.060 37.4100   1
   7   9 -27 108.450 42.2300   1
  27  -9  -7 144.870 60.6200   1
  27  -7  -9 136.910 43.5000   1
   7  27   9 220.550 45.8700   1
   9  27   7 153.450 64.7600   1
   3  15  25 228.660 64.7100   1
  25  15  -3 320.660 59.7300   1
  25   3 -15 441.270 64.3000   1
  25 -15   3 332.000 57.4400   1
  25  -3 -15 295.330 60.8600   1
  15   3  25 295.170 47.5100   1
   3  25  15 310.300 81.4600   1
  -3  25 -15 315.210 47.6700   1
  27   3  11 121.680 53.1200   1
  11  27  -3 170.530 52.0700   1
  11  27   3 244.560 66.5200   1
  29  -3   3 338.750 57.7100   1
  15  25   3 344.590 47.4200   1
   3  29  -3 337.400 60.0600   1
   3  29   3 434.600 48.1100   1
  -3  29  -3 430.390 45.1400   1
  -3  29   3 419.540 55.1700   1
  29  -3  -3 630.980 63.9700   1
  29   3  -3 319.670 59.3700   1
  29   3   3 407.440 45.2200   1
   3  29  -3 526.550 71.4000   1
   3  29   3 458.160 57.6300   1
  -3  29  -3 461.800 65.6600   1
   7   9  27 110.400 67.5100   1
   9   7  27 17.6300 69.1100   1
   7  27   9 196.290 76.3800   1
   3  27 -11 205.560 56.4900   1
   3  27  11 205.030 79.3700   1
  11   3  27 183.530 59.1800   1
   9  27   7 84.4800 69.7400   1
  -3  27  11 91.9800 71.8000   1
   3  25  15 351.290 58.0100   1
  15  25  -3 385.160 44.1400   1
   7  27  -9 113.350 47.1000   1
   9  27  -7 146.430 49.7500   1
  27   7   9 233.230 55.0300   1
   3  25 -15 275.000 51.1200   1
  27   9   7 123.540 41.1200   1
  15   3  25 258.650 65.4900   1
  25   3  15 335.310 41.4300   1
  25  15   3 316.510 44.9900   1
  25  -3  15 337.650 40.3900   1
  -3  29   3 471.030 54.9700   1
  15  -3  25 377.220 61.6900   1
  27  11   3 60.7500 59.1300   1
  27  -3  11 207.210 47.0500   1
  27  11  -3 128.910 59.7200   1
  27   3 -11 130.290 61.1700   1
   3  11 -27 161.870 40.3600   1
  27 -11   3 158.060 40.0500   1
  27  -3 -11 86.3700 43.9700   1
  28   4  -8 467.230 58.0300   1
  20  -8  20 700.750 55.4200   1
  20   8  20 701.000 61.4400   1
   8  20  20 735.260 66.5800   1
  12  12  24 3579.93 109.950   1
  28   8   4 493.470 61.2800   1
  28  -8   4 386.780 43.6100   1
  28   8  -4 319.650 55.9000   1
  28  -4  -8 343.780 62.8100   1
  20   8 -20 673.000 58.5200   1
  12  24  12 3088.72 119.330   1
  20 -20   8 625.840 56.0400   1
   8  20  20 569.930 65.7600   1
   8  28   4 404.990 65.6000   1
   4  28  -8 386.770 58.6200   1
  20  20   8 674.480 51.8100   1
   8  20 -20 585.910 48.0500   1
  12  24  12 3511.19 90.6400   1
   4  28   8 352.120 62.9900   1
  -4  28  -8 353.260 54.2600   1
  28  -4   8 407.700 57.2900   1
  12  24 -12 3494.34 81.9300   1
  20  20  -8 608.000 46.4100   1
  28  -8  -4 514.630 62.6000   1
  28   4   8 356.610 43.7800   1
   8  28   4 492.640 73.6100   1
   4  28  -8 367.290 46.9600   1
   4  28   8 402.670 58.2400   1
  24  12  12 3135.54 113.660   1
  24 -12  12 3349.18 101.200   1
  24  12 -12 3332.10 90.5300   1
  12  12 -24 3258.41 89.0700   1
   8  28  -4 364.710 57.3600   1
   7  23  17 297.540 46.2000   1
  23 -17   7 262.510 46.4500   1
  23   7 -17 258.160 44.7500   1
  23  -7  17 311.750 48.7400   1
  17  23  -7 322.540 50.5400   1
  23  17   7 203.120 60.8800   1
  23   7  17 284.840 56.9300   1
  17  23   7 265.070 63.8500   1
   7  23  17 295.180 80.1400   1
   7  23 -17 289.310 40.0900   1
  23  17  -7 294.320 43.3800   1
  17  17  17 696.350 57.4400   1
  17  17 -17 856.020 62.4500   1
   1  29  -5 310.700 52.7700   1
  -1  29  -5 351.100 57.1700   1
   1  29   5 319.960 62.2500   1
  -1  29   5 294.430 56.5200   1
  25  11  11 2313.36 83.2300   1
  29  -5  -1 304.660 59.5900   1
  29   1  -5 304.460 44.7500   1
  29  -5   1 369.390 59.8100   1
  29   5  -1 332.680 54.3100   1
  29  -1   5 287.940 42.5300   1
  29   1   5 305.300 56.5400   1
  29   5   1 242.340 43.2800   1
   5  29  -1 207.810 67.9100   1
   5  29   1 329.300 71.9300   1
   1  29  -5 411.520 70.3600   1
   1  29   5 300.540 69.3000   1
  25 -11  11 2355.16 85.8500   1
  -1  29   5 366.950 75.9100   1
  25  11 -11 2422.38 96.0000   1
  11  11 -25 2443.51 103.020   1
  11  11  25 2288.42 96.9100   1
  11  25  11 2533.43 103.810   1
  13  13  23 1947.88 77.9200   1
  29  -1  -5 231.900 44.5500   1
  13  13 -23 2213.04 83.9900   1
  23  13 -13 2249.78 90.3900   1
  23 -13  13 2422.93 97.7300   1
  13  23 -13 2223.04 79.5700   1
  23  13  13 2205.51 88.2900   1
  13  23  13 2165.60 99.1200   1
  13  13  23 2334.63 111.310   1
  11  11  25 2234.12 97.8400   1
  17   7  23 234.060 50.3100   1
  11  25  11 2662.31 111.530   1
   7  17  23 222.960 51.5500   1
  17   7 -23 239.180 51.6300   1
   7  17 -23 284.450 41.3700   1
  17   7  23 319.690 50.2100   1
   7  17  23 401.280 61.2000   1
  11  25 -11 2459.40 92.8000   1
   5  29   1 298.880 45.0600   1
   5  29  -1 260.900 59.9500   1
  -1  29  -5 431.450 68.3400   1
  20  18  12 237.570 54.6900   1
  12  20 -18 195.210 47.3700   1
  18  20 -12 216.620 53.9500   1
  20  18 -12 125.560 39.5900   1
  12  18 -20 272.910 43.4600   1
  20  12 -18 305.810 57.9600   1
  18  12 -20 163.450 54.9500   1
  12  18  20 212.470 58.8000   1
  12  20  18 265.830 55.1500   1
  12  18  20 174.100 54.6500   1
   6  16  24 150.000 57.6700   1
   6  24  16 75.9500 73.0700   1
  16   6  24 52.1300 65.0400   1
  16  24   6 61.6000 57.0200   1
   6  24 -16 2.91000 42.2100   1
  24   6  16 91.8500 48.6600   1
  16  24  -6 5.23000 37.1000   1
  24  16   6 37.0300 41.0900   1
  24  -6  16 75.9000 42.6200   1
  24  16  -6 102.700 41.4000   1
   6  16 -24 42.4300 36.2400   1
  24   6 -16 94.3400 60.6500   1
  24 -16   6 77.2500 51.0800   1
  16   6 -24 89.5800 54.5600   1
   6  24  16 19.8200 60.1800   1
  16   6  24 -13.830 47.0600   1
  12  20  18 316.230 76.6400   1
  18  12  20 224.060 64.2400   1
  20  12  18 315.990 64.3800   1
  18  20  12 297.890 65.6700   1
   0  26 -14 1019.46 75.8300   1
  14  10  24 1246.00 72.7800   1
  14  24  10 1265.28 68.6500   1
  10  24 -14 1193.51 61.4200   1
  24  10  14 1257.27 73.6600   1
   0  26  14 945.830 71.7700   1
  24  14  10 1133.23 73.3200   1
  24  14 -10 1232.68 61.8300   1
  14  24 -10 1280.98 65.9500   1
   0  26 -14 924.640 61.1200   1
  10  14  24 1279.89 77.9300   1
  26 -14   0 1107.43 67.5200   1
  26   0 -14 904.230 63.3500   1
  26  14   0 944.290 60.6500   1
  26   0  14 963.600 48.7600   1
  14  26   0 1096.29 68.3500   1
  14   0  26 1217.79 84.9700   1
   8  18 -22 404.260 45.7600   1
   0  26  14 1134.79 75.7300   1
  10  24  14 1215.43 85.7600   1
  22   8 -18 483.010 62.5200   1
  18   8 -22 364.030 53.9400   1
   8  18  22 365.670 60.4200   1
  24 -10  14 1249.30 64.0100   1
   8  18  22 510.370 64.4300   1
   8  22  18 578.810 83.2800   1
  18   8  22 486.770 66.4300   1
  22   8  18 472.010 60.1800   1
   8  22 -18 437.250 43.8300   1
  22  -8  18 384.120 45.7600   1
  18   8  22 363.190 54.0900   1
  10  14  24 1055.74 57.4000   1
  24 -14  10 1313.17 69.0600   1
  24  10 -14 1216.34 69.4300   1
  14  10 -24 1231.94 60.8000   1
  10  14 -24 1198.95 61.3700   1
  14  10  24 1170.27 64.5400   1
   8  22  18 416.500 57.2600   1
  18  22  -8 513.580 57.3600   1
  22  18  -8 432.840 45.7400   1
  22  18   8 339.730 56.7000   1
  22 -18   8 488.380 54.4000   1
  18  22   8 513.320 66.8100   1
   3  29   5 686.470 66.0500   1
  15  25  -5 76.3000 39.0800   1
  25   5  15 -47.980 37.7800   1
  25  15   5 -13.640 52.6200   1
  25  -5  15 10.4500 40.9100   1
  25  15  -5 71.9200 41.4600   1
  25   5 -15 43.0200 42.0300   1
  25 -15   5 81.9900 52.4400   1
  23  11  15 714.160 57.4300   1
   5  25  15 139.540 57.8900   1
  15   5  25 56.8000 57.1500   1
   3  29  -5 862.260 64.7200   1
   5  29   3 785.810 65.1700   1
   5  29  -3 896.900 66.0700   1
   3  29  -5 813.100 57.7600   1
  15  17  19 517.210 48.4100   1
  15   5 -25 39.2800 40.6400   1
  15  -5  25 60.7100 53.4000   1
   9  13  25 1023.27 86.8900   1
  15   5  25 -7.0400 39.8600   1
   5  25  15 130.860 62.7000   1
  11  23  15 542.260 48.8000   1
  15  17  19 688.110 69.8600   1
  17  15  19 559.580 54.2100   1
  17  19  15 538.010 63.7100   1
  19  17  15 559.280 62.1000   1
  11  23  15 690.520 62.3400   1
  15  25   5 -38.950 43.7900   1
  11  23 -15 654.500 48.5900   1
  23 -11  15 685.310 53.7900   1
  17  19 -15 616.690 52.2600   1
  23  11 -15 637.930 62.9500   1
  13   9  25 791.760 72.2200   1
   9  25  13 1046.18 86.8000   1
  13  25   9 839.070 59.3800   1
   9  25 -13 1009.85 58.4500   1
  13  25  -9 948.460 60.8400   1
  25   9  13 963.040 59.2300   1
  25  -9  13 944.180 59.1600   1
  25  13  -9 1102.56 60.6300   1
   9  13 -25 1029.19 52.5600   1
  25 -13   9 1045.20 60.1600   1
  25   9 -13 903.010 51.5000   1
  19  17 -15 670.130 58.9900   1
  15  17 -19 701.500 51.9200   1
  17  15 -19 620.640 45.6100   1
  -3  29  -5 701.130 62.4900   1
  -3  29   5 750.980 67.5200   1
   3  29   5 844.960 65.3600   1
   5  29   3 866.210 80.4500   1
   5  29  -3 793.830 74.3500   1
  29   3   5 849.450 62.3900   1
  29   5   3 706.770 48.9100   1
  29  -3   5 799.460 55.8300   1
  29   5  -3 782.900 63.2400   1
  29   3  -5 875.550 51.3400   1
  29  -5   3 775.080 47.4800   1
  29  -3  -5 833.630 59.3500   1
  13   9 -25 951.280 49.8300   1
   9  13  25 830.020 48.5400   1
  13   9  25 928.530 55.0800   1
   9  25  13 931.970 64.1200   1
   5  15  25 85.6300 54.6900   1
  29  -5  -3 870.400 51.6400   1
  -3  29   5 773.570 64.8700   1
  -5  29  -3 769.430 48.4100   1
  -3  29  -5 705.190 60.4600   1
   5  27  11 7.83000 54.6500   1
  27   5  11 12.6000 37.1100   1
  11  27  -5 3.44000 48.7500   1
  11  27   5 26.9000 59.1800   1
   5  27 -11 -69.770 45.3700   1
   5  27  11 -115.61 66.9300   1
  11   5  27 58.1700 48.8700   1
   5  11  27 -37.430 58.6200   1
  15  11 -23 740.980 59.9900   1
  11  15  23 707.320 56.3400   1
  23  15 -11 775.930 48.7000   1
  11  15 -23 694.070 53.3200   1
  19  15 -17 619.780 53.7400   1
  -5  27 -11 -15.440 40.5300   1
  27  -5 -11 -79.360 54.0900   1
  27 -11   5 30.8200 37.2600   1
  27   5 -11 4.22000 41.7200   1
  27  11  -5 47.8300 51.7900   1
  27  -5  11 20.7700 44.8800   1
  27  11   5 -11.480 56.8000   1
  23  15  11 603.900 59.8700   1
  15  23  11 809.560 68.8800   1
  23 -15  11 775.590 54.8500   1
  15  11  23 646.490 68.6300   1
  11  15  23 648.370 61.8300   1
  19  15  17 630.630 62.2600   1
  15  19  17 643.500 68.0700   1
  15  11  23 624.290 58.2100   1
  15  23 -11 668.820 44.5800   1
  15  19 -17 594.480 50.3000   1
  27 -11  -5 39.6600 43.6300   1
   2  26 -14 661.540 59.6100   1
  14   2  26 804.870 68.0800   1
  14  -2  26 626.330 69.7300   1
   2  26  14 644.070 66.0200   1
  -2  26  14 669.290 70.4600   1
   2  26  14 709.150 52.2200   1
  10  10  26 701.000 80.9300   1
  10  26  10 861.420 82.1900   1
  10  26 -10 784.370 59.4800   1
  26  10  10 813.890 62.9400   1
  26 -10  10 781.760 52.7900   1
  26  10 -10 846.310 50.3200   1
  10  10 -26 848.770 58.0700   1
  10  26  10 754.040 69.1100   1
   2  26 -14 675.890 56.8700   1
  -2  26 -14 661.260 53.0500   1
  26 -14  -2 680.080 52.1200   1
  26  -2 -14 708.790 51.6100   1
  26 -14   2 643.990 56.3000   1
  26   2 -14 683.390 65.7900   1
  26  14  -2 722.430 58.5000   1
  26  14   2 696.280 48.3900   1
  26  -2  14 637.590 43.1900   1
  26   2  14 683.990 52.2700   1
  14  26  -2 600.160 47.2200   1
  14  26   2 603.100 60.4700   1
  14  14  22 702.230 56.2100   1
  14  14 -22 608.320 56.3200   1
  22  14 -14 561.610 60.0800   1
  22 -14  14 638.790 51.7200   1
  14  22 -14 770.590 56.3400   1
  22  14  14 694.790 66.8500   1
  14  22  14 751.300 58.2500   1
  14  14  22 626.200 77.0100   1
  19   9  21 256.020 62.3300   1
  21   9  19 321.450 55.5400   1
  21  19   9 107.730 53.2300   1
  21 -19   9 259.520 49.2000   1
  19   9 -21 318.580 58.8600   1
  21   9 -19 211.510 57.1700   1
  21  19  -9 260.410 57.1100   1
   9  19 -21 239.250 42.8500   1
  19  21  -9 275.770 56.7600   1
  19  21   9 249.910 63.0500   1
  21  -9  19 273.630 45.1200   1
   9  21 -19 231.930 42.9100   1
   1  21  21 59.8600 75.4300   1
  21  -1  21 222.110 49.1100   1
  21   1  21 245.850 56.8300   1
  21  21   1 187.310 52.9800   1
  21  21  -1 218.860 57.6100   1
  19 -21   9 243.400 47.7800   1
   9  19  21 237.740 59.5800   1
   9  21  19 184.200 53.7100   1
   9  19  21 261.850 79.1000   1
   9  21  19 267.750 72.3400   1
   8  12  26 354.780 70.6500   1
  26  12   8 408.050 55.8800   1
  26  -8  12 363.260 48.8700   1
  26  12  -8 337.600 61.0800   1
  26 -12   8 385.160 40.9900   1
  26   8 -12 392.320 62.6400   1
   8  12 -26 383.000 50.4400   1
  12   8 -26 352.600 41.9500   1
  12   8  26 321.960 47.5300   1
   8   6  28 712.070 64.8300   1
   6  28   8 856.730 83.2000   1
   8  26  12 337.380 57.9400   1
   8  26  12 514.390 73.2300   1
  20   0  22 270.670 51.1300   1
   6  28  -8 709.590 66.8600   1
  28   6  -8 815.710 50.3900   1
  28   6   8 921.000 62.7800   1
  22  20   0 314.660 59.2700   1
  20  22   0 331.890 44.8500   1
  28  -6  -8 616.200 59.1400   1
   6   8 -28 682.590 52.9600   1
   6  28   8 692.830 60.9800   1
  22   0  20 191.810 47.4900   1
   0  28  10 189.430 68.1000   1
   0  28 -10 193.070 59.7700   1
  10  28   0 175.530 46.7100   1
  28   0  10 149.860 48.6000   1
  28  -6   8 666.960 45.0200   1
  28  10   0 169.470 42.5300   1
  28   0 -10 258.700 61.9100   1
  28 -10   0 169.290 57.8900   1
   0  28  10 255.210 62.1300   1
   0  28 -10 225.360 39.4100   1
   0  22  20 229.610 76.2700   1
  12   8  26 363.150 73.7800   1
  12  26   8 471.840 73.0100   1
   8  26 -12 329.250 48.3000   1
  12  26  -8 363.520 42.1000   1
  26   8  12 414.950 57.5200   1
  12  16  22 77.3600 67.5600   1
  12  22  16 70.2800 53.7000   1
  16  12  22 109.910 48.1200   1
  16  22  12 30.5900 59.4600   1
  22  12  16 100.720 41.4400   1
  22  16  12 118.700 53.4500   1
  12  22 -16 91.8600 41.6400   1
  16  22 -12 95.0800 45.5500   1
  22 -12  16 141.170 43.9900   1
  22  16 -12 209.320 56.6200   1
  12  16 -22 140.200 41.6200   1
  22  12 -16 -2.5800 56.5400   1
  22 -16  12 151.280 45.3400   1
  16  12 -22 104.170 38.0300   1
   8  28  -6 741.610 60.0600   1
  28   8   6 690.200 56.6400   1
  28   8  -6 651.150 64.0100   1
  12  16  22 125.480 50.6400   1
  16  12  22 187.330 54.0100   1
  12  22  16 51.7900 60.1200   1
  28  -8   6 659.710 45.2500   1
  28  -8  -6 765.980 59.3800   1
   8  28   6 609.360 60.3400   1
   8  28   6 550.600 70.0900   1
   0  22 -20 216.230 41.4000   1
  28   2  10 41.0800 47.5400   1
  28  10   2 -3.7200 57.9200   1
  28  -2  10 14.3100 53.6600   1
  28  10  -2 -98.530 58.1500   1
  28   2 -10 5.50000 59.9400   1
  28 -10   2 37.9900 49.2100   1
  28  -2 -10 82.5800 60.8100   1
  28 -10  -2 -53.720 57.3500   1
  -2  28  10 57.6400 53.8200   1
   2  28  10 43.4200 44.1300   1
  -4  26 -14 120.580 44.1700   1
   4  26  14 98.4300 62.8700   1
  14   4  26 126.820 46.1900   1
  26  -4 -14 96.9100 55.5800   1
  26 -14   4 204.540 40.9100   1
  26   4 -14 151.030 44.1800   1
  26  14   4 189.040 58.1300   1
  10  28  -2 23.4200 58.5300   1
  -2  28 -10 15.9000 50.4000   1
  -2  28  10 65.9700 73.4500   1
   2  28  10 -47.490 75.7400   1
  10   2  28 -3.2800 59.9100   1
  26  14  -4 137.800 59.4900   1
  26  -4  14 104.240 36.1900   1
   4  26  14 192.800 81.7700   1
  14   4  26 106.670 66.3600   1
   4  26 -14 144.200 50.0400   1
  14  26   4 168.870 55.8700   1
   2  28 -10 -21.130 56.3800   1
  26   4  14 127.020 46.7100   1
  20  22  -2 75.0500 51.6700   1
  22  20   2 35.2900 52.8900   1
  20  22   2 127.600 52.2000   1
  22   2  20 82.1000 46.0600   1
  20   2  22 133.350 40.3500   1
  14  26  -4 89.7900 49.0100   1
  -2  28 -10 40.4000 45.4900   1
   2  22  20 21.7400 56.8800   1
   2  20  22 17.7300 66.0600   1
  10  28   2 4.37000 63.3400   1
  22  20  -2 82.4400 40.6900   1
   2  28 -10 -15.480 51.8400   1
   4  14  26 51.3900 69.3600   1
  14  -4  26 104.250 63.8800   1
  20  -2  22 113.060 47.1000   1
  20   2 -22 125.330 44.5500   1
  22   2 -20 151.140 44.0400   1
  13  19  19 437.190 70.3400   1
  13  19  19 435.120 45.3300   1
  13  19 -19 363.950 50.0900   1
  19  13 -19 446.380 43.7900   1
  19  13  19 346.790 59.8300   1
  29  -1   7 164.070 54.6800   1
  29   1   7 133.340 49.6800   1
   7  29  -1 158.550 60.3800   1
   7  29   1 187.640 68.0300   1
   1  29  -7 152.160 61.9500   1
   1  29   7 146.800 68.4600   1
  -1  29  -7 181.160 62.6800   1
  -1  29   7 234.760 75.7100   1
   5  29  -5 1286.13 63.5300   1
   5  29   5 1173.40 56.0700   1
  -5  29  -5 1221.43 60.2100   1
  29  -5  -5 1262.99 69.6500   1
  29  -5   5 1226.55 64.0000   1
  29   5  -5 1150.56 62.2800   1
  29   5   5 1304.49 55.7800   1
   5  29  -5 1390.61 72.8200   1
   5  29   5 1277.31 69.6500   1
  15  15  21 -40.240 51.0000   1
  19  19 -13 445.930 50.9600   1
  19  19  13 346.350 61.3300   1
   9  27   9 -25.980 55.3200   1
   9   9 -27 13.6100 43.2700   1
   7  29  -1 106.270 42.9100   1
   7  29   1 226.320 62.1100   1
   1  29  -7 71.5600 38.9200   1
  -1  29  -7 58.7300 38.3100   1
   1  29   7 90.2000 42.9100   1
  -1  29   7 273.380 63.9400   1
  29  -1  -7 122.280 42.7200   1
  15  21  15 125.980 48.6500   1
   1  19  23 265.250 76.3500   1
  -1  23  19 214.310 69.0500   1
   1  23  19 243.770 58.8300   1
  19  -1  23 206.890 56.6200   1
  19   1  23 239.270 59.8000   1
  23   1  19 142.410 46.0800   1
  21  21  -3 57.2900 57.2300   1
  21  21   3 113.240 53.5700   1
  21  -3  21 69.8700 43.1800   1
  29  -7  -1 178.210 42.0400   1
  21   3  21 50.1000 54.4500   1
  29  -7   1 145.710 40.7800   1
  15  15  21 97.4700 39.9500   1
  15  15 -21 -41.700 34.8200   1
  21  15 -15 48.8200 49.3300   1
  15  21 -15 -7.5900 33.8100   1
  21  15  15 -11.080 41.0800   1
   3  21  21 30.2700 57.7100   1
   9   9  27 -144.21 71.9000   1
   9  27   9 -54.550 64.0100   1
   9  27  -9 -14.690 37.3200   1
  27   9   9 68.8300 50.3000   1
  19  23   1 288.210 59.1900   1
  23  -1  19 248.790 52.3000   1
  19  23  -1 71.8700 57.1900   1
  23  19   1 129.400 59.6300   1
  23  19  -1 231.140 41.9600   1
  19   1  23 220.520 44.5500   1
  27   9  -9 28.5100 58.9300   1
  27  -9   9 -20.770 35.0600   1
  29   1  -7 162.230 43.3300   1
  29   7  -1 123.230 51.8900   1
  29   7   1 159.380 43.0000   1
  21   3 -21 15.2900 59.1700   1
  23   1 -19 144.080 55.8800   1
  -1  23 -19 114.630 40.6100   1
   1  23 -19 128.820 44.5400   1
   8  16 -24 4.40000 41.4700   1
   8  16  24 -7.0000 38.9600   1
   8  16  24 -117.38 76.9400   1
  16   8 -24 25.5200 53.7900   1
   8  24 -16 29.1200 38.0300   1
  16  24   8 -54.920 45.7000   1
   8  24  16 109.970 78.7800   1
  24   8  16 49.5600 56.0600   1
  16  24  -8 -25.660 53.5700   1
  24  16   8 26.1300 41.4400   1
  24  -8  16 -52.060 47.1500   1
  24  16  -8 51.1300 40.5700   1
  16   8  24 -49.460 43.0800   1
  24   8 -16 -14.650 59.5000   1
  24 -16   8 -43.680 47.4300   1
   8  24  16 -4.5000 61.0900   1
  16   8  24 37.9700 58.9300   1
  23   3  19 -35.510 46.5200   1
  17  13  21 -44.250 48.1400   1
  13  21  17 17.8300 52.1500   1
  13  17  21 -51.680 57.4800   1
  17  13 -21 7.86000 53.1800   1
  21  13 -17 -11.670 48.8200   1
  21 -17  13 -16.220 42.2800   1
  13  17 -21 68.1500 42.2600   1
  29  -7   3 581.880 59.9800   1
  29  -3   7 646.990 46.0700   1
  29   7  -3 599.500 58.8400   1
  29   3   7 631.730 46.9200   1
  29   7   3 600.460 47.7200   1
   7  29  -3 633.010 53.0800   1
   7  29   3 703.380 68.6400   1
   3  29  -7 632.310 70.8400   1
   3  29   7 740.160 77.3000   1
  -3  29   7 597.060 68.4700   1
  21  17 -13 -17.060 49.4300   1
  13  21 -17 67.3100 40.7300   1
  17  21 -13 -10.320 43.9000   1
  21  17  13 27.0500 53.7900   1
  21  13  17 108.740 58.6000   1
  17  21  13 54.4300 46.8200   1
  17  13  21 -13.280 59.4000   1
  13  21  17 73.7500 75.8800   1
  13  17  21 69.3600 74.7200   1
  19   3  23 -51.600 57.5500   1
  19  -3  23 113.800 53.5700   1
   3  23  19 -23.600 79.9200   1
   3  19  23 -87.460 55.3400   1
   9  23  17 94.1600 54.8200   1
   9  17  23 42.6000 56.2800   1
  17   9 -23 -68.530 49.2600   1
  23 -17   9 85.1300 47.7900   1
  23   9 -17 86.5400 42.6800   1
   9  17 -23 13.6700 40.5400   1
  23  17  -9 -80.400 38.5500   1
  23  -9  17 -18.050 39.7500   1
  17  23  -9 96.3000 52.9200   1
  23  17   9 39.6300 53.3300   1
   9  23 -17 82.8100 38.3400   1
  23   9  17 72.7600 51.5900   1
  17  23   9 95.2800 46.1000   1
  17   9  23 54.0600 65.5700   1
   9  23  17 98.3500 79.4900   1
   9  17  23 89.2600 77.7800   1
   7  15  25 10.5200 77.7500   1
   7  25  15 -36.520 69.9500   1
  15   7  25 14.6600 68.9600   1
  15  25   7 42.3100 65.4100   1
   7  25 -15 -21.370 39.1900   1
  15  25  -7 107.620 54.1900   1
  25   7  15 -29.030 38.4200   1
  25  15   7 28.9300 58.5800   1
  25  -7  15 -40.950 47.4600   1
  25  15  -7 -8.7200 40.3500   1
   7  15 -25 -32.730 39.0900   1
  25   7 -15 -103.98 52.6500   1
  25 -15   7 19.7500 50.4400   1
  15   7 -25 -1.8700 39.5700   1
  15   7  25 72.8200 43.1200   1
   7  25  15 -61.190 54.7100   1
  29   3  -7 592.310 48.7400   1
  29  -7  -3 497.410 57.5500   1
  29  -3  -7 613.220 49.5900   1
  -3  29   7 479.780 64.3900   1
  -3  29  -7 570.250 58.6100   1
   3  29   7 625.040 59.9500   1
   3  29  -7 552.380 60.1500   1
   7  29   3 562.790 49.8700   1
  11   7  27 -19.070 61.9400   1
   7  27  11 -138.52 77.8900   1
  11  27   7 51.8700 62.1500   1
   7  27 -11 2.37000 44.6300   1
  11  27  -7 -26.160 55.1400   1
  27   7  11 -58.320 54.6100   1
  27  11   7 32.1200 57.7100   1
  27  -7  11 29.7900 49.8200   1
  27  11  -7 -51.550 42.0500   1
  27 -11   7 28.0600 51.5700   1
  27   7 -11 10.1800 59.1000   1
   7  11 -27 24.8800 44.0300   1
  11   7 -27 43.9300 47.7200   1
  27  -7 -11 -41.210 63.2500   1
   7  27  11 30.7900 42.9600   1
  -1  27  13 604.290 78.6300   1
  13  -1  27 547.200 68.6800   1
   1  27  13 485.280 74.4900   1
  13   1  27 695.600 73.6000   1
   1  27 -13 662.490 64.9900   1
  13  27   1 677.310 66.6400   1
  13  27  -1 491.680 48.5600   1
  27   1  13 714.320 57.6000   1
  27  -1  13 652.150 57.5400   1
  27  13   1 606.200 47.7700   1
  27  13  -1 676.680 64.1500   1
  27   1 -13 653.340 66.3000   1
  27  -1 -13 707.620 67.5200   1
  27 -13   1 557.820 46.6800   1
  -1  27  13 511.980 67.1100   1
   1  27  13 521.270 49.8500   1
  -1  27 -13 515.670 48.4600   1
   1  27 -13 624.680 50.4500   1
  27 -13  -1 613.420 48.7300   1
  19   3  23 50.8100 45.5800   1
   3  23  19 -24.790 42.9200   1
  19   3 -23 59.4700 61.5200   1
  23   3 -19 -7.1300 59.5800   1
  23  19  -3 19.0600 40.2200   1
  23  19   3 40.8700 41.3900   1
  19  23  -3 -5.2900 55.6800   1
  23  -3  19 13.8300 49.6200   1
  19  23   3 -6.3000 53.2200   1
  28   4 -10 82.8500 44.5100   1
  10  20  20 -30.990 58.2800   1
  22  -4  20 42.0300 42.7400   1
  20  22   4 26.2500 60.8100   1
  22  20   4 -14.120 52.2800   1
  20  22  -4 99.1600 49.6400   1
  22   4  20 36.4600 49.6500   1
  10   4  28 129.220 48.3700   1
   4  28  10 147.400 77.0600   1
   4  28 -10 118.170 50.2400   1
  10  28   4 154.340 61.3600   1
  10  28  -4 129.020 42.3500   1
  22  20  -4 34.2000 39.9600   1
   4  10 -28 74.6100 46.8200   1
  22   4 -20 83.8300 52.9600   1
  20   4 -22 36.3900 41.3500   1
  28   4  10 44.4400 55.9700   1
  28  10   4 182.750 58.7700   1
  28  -4  10 122.350 37.7200   1
  28  10  -4 30.2500 41.7800   1
   4  20  22 -91.540 68.8300   1
   4  22  20 94.3600 80.8900   1
  20   4  22 36.7700 56.7500   1
  20  -4  22 51.6800 49.1100   1
   0  30   0 143.240 64.2800   1
  28  -4 -10 150.800 62.4000   1
   4  22  20 71.7400 62.5600   1
  28 -10  -4 34.6400 42.7200   1
  -4  28 -10 120.740 44.3100   1
   4  28  10 90.4400 61.7600   1
   0  24  18 239.130 77.3300   1
  30   0   0 178.880 44.1700   1
   0  24 -18 264.770 44.6700   1
  24   0 -18 297.710 64.6500   1
  24  18   0 280.420 53.5800   1
  24   0  18 285.770 54.5200   1
  18  24   0 265.060 43.0700   1
  18   0  24 365.720 64.4600   1
  28 -10   4 105.140 54.3100   1
  20 -20  10 129.770 45.6000   1
  20  10 -20 53.8900 51.8800   1
  20  20 -10 150.400 39.1400   1
  10  20 -20 102.250 41.6600   1
  20  20  10 -56.180 54.4200   1
  20  10  20 175.750 43.7600   1
  10  20  20 18.3100 53.3700   1
   0  30   0 163.470 42.2300   1
   2  18  24 31.6400 51.6600   1
  16  18 -18 1003.31 48.8000   1
  18  18 -16 1060.86 62.2400   1
  18  18  16 1006.55 67.8600   1
  18  16  18 1114.59 69.2300   1
  16  18  18 1152.18 80.4100   1
  18   2  24 107.090 43.9300   1
  -2  30   0 -133.82 57.5800   1
   0  30   2 42.1100 41.8700   1
   0  30  -2 23.5100 40.4100   1
   2  30   0 10.4800 42.5200   1
  30  -2   0 13.9200 40.4100   1
  24   2  18 136.840 38.4800   1
  -2  30   0 -30.200 59.5200   1
  18  16 -18 1039.32 75.0300   1
  18  24  -2 28.7900 40.7100   1
  18  24   2 162.520 42.1200   1
  18   2  24 192.670 54.5500   1
  18  -2  24 139.390 57.2300   1
   2  30   0 -46.730 48.2200   1
   0  30   2 23.1300 64.0200   1
   2  24  18 171.490 72.2800   1
   0  30  -2 82.2600 69.6400   1
  -2  24 -18 69.0800 40.5700   1
   2  24  18 26.8800 62.3600   1
  24   2 -18 174.020 43.5600   1
  24  18  -2 33.6400 40.2400   1
  24  18   2 147.700 58.7200   1
  24  -2  18 158.920 45.8900   1
  30   2   0 127.690 50.8600   1
  30   0   2 -23.330 39.6900   1
  30   0  -2 -1.0800 40.3400   1
   3  27 -13 193.280 53.3000   1
  13   3  27 126.660 68.2400   1
   5  21  21 52.6000 41.5300   1
  27   3  13 102.160 48.2000   1
  27  -3  13 103.220 46.2600   1
  27  13  -3 121.990 42.5200   1
  27 -13   3 181.940 56.6400   1
  27   3 -13 96.2800 44.3000   1
  27  -3 -13 168.410 62.6700   1
   3  27  13 262.430 59.9100   1
  21   5 -21 152.030 52.1000   1
  21  21   5 92.8400 59.3600   1
  21  -5  21 106.430 43.2400   1
  21   5  21 103.630 50.9600   1
   5  21  21 141.000 81.7900   1
  13  -3  27 128.450 56.3400   1
  27 -13  -3 67.0400 53.5200   1
   3  27  13 162.150 63.6100   1
  -3  27 -13 171.900 42.9200   1
  13  27   3 196.230 64.1300   1
  13  27  -3 283.050 55.3300   1
  21  21  -5 154.210 56.3300   1
   3  27 -13 170.960 47.9600   1
  14   6  26 16.2700 40.8500   1
  14   6 -26 -71.820 55.7200   1
  14   6  26 -81.280 66.9900   1
   6  14  26 -5.2600 53.2400   1
  30  -2   2 26.8500 38.7800   1
  30   2  -2 89.1100 41.1400   1
  30   2   2 28.6500 55.8500   1
   2  30  -2 -67.020 66.3700   1
   2  30   2 50.9800 73.8800   1
  -2  30  -2 82.9200 47.9000   1
  -2  30   2 10.1800 49.6400   1
   6  26  14 -16.140 56.0600   1
  14  26   6 52.4000 57.0400   1
  14  26  -6 72.1300 55.2700   1
  26   6  14 -50.170 54.2200   1
  26  14   6 -41.730 59.0700   1
  26  -6  14 52.1300 35.4900   1
  26  14  -6 79.2300 51.9000   1
  26 -14   6 25.9000 52.7400   1
   6  26  14 72.3500 55.3100   1
   2  30  -2 116.450 41.5900   1
  10  18  22 -93.270 54.1200   1
  10  22  18 37.8300 78.2600   1
  18  10  22 40.1200 63.5800   1
  18  22  10 -11.050 46.2700   1
  22  10  18 -60.220 38.8300   1
  22  18  10 -0.5300 60.0700   1
  22 -10  18 61.0400 43.5600   1
  10  22 -18 -5.9600 41.5700   1
  18  22 -10 -7.2800 53.6200   1
  22  18 -10 104.130 50.2000   1
  10  18 -22 47.4200 42.2700   1
  22  10 -18 -16.070 40.8100   1
  26   6 -14 141.530 64.2800   1
  18  10 -22 -6.3100 48.8000   1
  22 -18  10 -46.090 40.3700   1
  18 -22  10 45.6600 44.9700   1
  10  18  22 -11.660 50.1100   1
  10  22  18 52.6500 55.9300   1
  18  10  22 173.460 47.0700   1
   2  30   2 10.1600 51.6900   1
  -2  30  -2 103.360 56.0100   1
  -2  30   2 71.9700 51.4600   1
  30  -2  -2 -6.0300 57.9600   1
  16  16 -20 699.700 56.8000   1
  20  16 -16 673.030 60.7900   1
  28   8   8 313.600 42.8700   1
  16  20 -16 632.370 67.7100   1
  20  16  16 516.170 66.9100   1
  16  20  16 432.630 74.4900   1
  16  16  20 654.740 76.5500   1
  16  16  20 448.860 46.0800   1
   8   8  28 263.910 63.0200   1
   8  28   8 306.770 55.5800   1
   8  28  -8 329.480 51.9000   1
  28   8  -8 430.250 62.4700   1
  28  -8   8 369.020 55.0500   1
  28  -8  -8 245.640 56.9300   1
   8   8 -28 348.760 48.4800   1
   8  28   8 429.470 47.6200   1
  11  25  13 1936.78 64.3600   1
  13  11  25 2017.07 68.7200   1
  25  11 -13 2107.57 63.0900   1
  25 -13  11 2178.67 76.6500   1
  25  13 -11 2246.64 109.410   1
  25 -11  13 2246.72 111.840   1
  25  11  13 2208.02 106.780   1
   5  29  -7 1068.54 61.7700   1
   7  29   5 1036.22 54.0100   1
   5  29   7 1120.28 56.7900   1
  -5  29  -7 999.720 58.0500   1
  29  -7  -5 1022.16 54.2300   1
  29  -5  -7 1169.52 69.6700   1
  29  -7   5 1102.78 51.1900   1
  29   5  -7 1121.29 55.5000   1
  29  -5   7 1105.20 62.5600   1
  29   7  -5 1195.90 70.8300   1
  29   7   5 1191.45 53.8800   1
  29   5   7 1177.17 65.6100   1
   7  29  -5 1168.91 60.4100   1
  -1  25  17 229.120 74.8200   1
   1  25  17 269.360 59.5500   1
  17   1  25 215.340 64.6400   1
  17  -1  25 375.450 64.1100   1
  11  13  25 2160.65 77.8300   1
  17  25  -1 327.120 58.8300   1
  25  -1  17 222.450 54.4100   1
  25   1  17 249.370 40.0800   1
  25  17   1 345.390 61.2600   1
  25  17  -1 366.980 43.4700   1
  25   1 -17 229.680 46.0800   1
  23  19  -5 127.690 51.1800   1
  23   5 -19 4.78000 43.0200   1
  11  13 -25 2178.61 78.3700   1
  17  25   1 383.460 60.9100   1
  13  11 -25 2215.92 102.450   1
  19   5  23 112.880 43.1400   1
   5  23  19 -5.3600 55.7600   1
   5  19  23 130.020 42.2100   1
  23 -19   5 68.7800 47.7200   1
  25  -1 -17 264.950 57.6000   1
   5  19  23 186.440 79.8300   1
   5  23  19 144.590 60.8600   1
  19  -5  23 101.660 51.1000   1
  19   5  23 84.8300 60.7600   1
  19  23   5 145.990 43.9900   1
  23   5  19 116.660 54.4800   1
  23  -5  19 57.9400 42.1300   1
  23  19   5 87.9900 60.6100   1
  19  23  -5 68.4300 56.1500   1
   1  25  17 310.640 64.5900   1
  11  13  25 2222.17 118.300   1
  13  11  25 2269.06 123.660   1
  11  25  13 2388.56 129.090   1
  13  25  11 2270.76 120.040   1
  11  25 -13 2215.35 106.510   1
  13  25 -11 2188.21 69.1200   1
  25  13  11 2190.59 76.1400   1
  -1  25 -17 256.310 45.1200   1
   1  25 -17 323.190 49.0400   1
   5  29   7 842.380 84.7700   1
   7  29   5 1173.06 76.4600   1
   5  29  -7 1072.16 68.2000   1
  19   5 -23 35.3900 59.0400   1
  24  18  -4 -78.030 49.6200   1
  12  14  24 2069.76 80.2200   1
  30   4   0 374.630 59.8100   1
   4  30   0 259.990 71.3400   1
   0  30   4 371.710 69.1400   1
  14  12  24 1866.00 71.1600   1
   0  30  -4 322.190 69.7500   1
  18   4  24 60.5900 45.6900   1
  18  -4  24 41.5900 52.3900   1
   4  24  18 -14.220 62.4200   1
  24 -18   4 19.7600 55.5600   1
  18   4 -24 85.4100 51.8600   1
  24   4 -18 15.2400 61.8600   1
  14  12 -24 2012.81 67.8800   1
  24  18   4 8.60000 52.1000   1
  24  -4  18 10.1800 40.7600   1
  18  24  -4 27.9000 38.6300   1
  24   4  18 12.2700 52.3200   1
  18  24   4 109.180 61.1600   1
  18   4  24 -27.700 61.4000   1
   4  24  18 -6.3600 72.8800   1
   4  18  24 84.0400 78.0900   1
  12  14  24 1851.91 73.0600   1
  12  14 -24 1762.41 65.0400   1
  24  12 -14 2009.14 69.5800   1
  24 -14  12 1936.69 81.2700   1
  24  14 -12 1928.62 73.6000   1
  24 -12  14 1935.58 74.1800   1
  14  24 -12 1910.59 69.4000   1
  12  24 -14 2007.14 67.5600   1
  24  14  12 1968.85 75.8300   1
  24  12  14 1916.95 70.2700   1
  14  24  12 1752.23 82.2000   1
  12  24  14 1975.28 93.9000   1
   4  30   0 232.370 53.8100   1
   0  30  -4 301.060 57.5800   1
   0  30   4 118.870 58.8700   1
  -4  30   0 270.250 52.8200   1
  30   0  -4 179.960 60.8200   1
  30  -4   0 202.540 60.6100   1
  30   0   4 164.030 41.4000   1
  14  12  24 1755.43 90.4100   1
  26  10  12 1264.06 54.6000   1
  26  12  10 1104.72 52.7400   1
  12  26 -10 1138.47 64.2000   1
  10  26 -12 1261.30 57.5800   1
  12  26  10 1251.48 77.9300   1
  12  10  26 1200.17 79.1900   1
  10  12  26 1204.40 87.3400   1
  14  18  20 322.010 69.1100   1
   4  30  -2 304.140 44.0200   1
  18  14  20 309.590 62.6000   1
  18  20  14 171.790 60.6400   1
  20  14  18 451.640 50.2000   1
  20  18  14 363.550 61.2400   1
  18  20 -14 255.450 40.6800   1
  14  20 -18 324.170 46.7400   1
  14  18 -20 324.540 46.4200   1
  20  18 -14 347.770 56.9200   1
  20  14 -18 351.970 52.0800   1
  18  14 -20 402.210 51.2200   1
  14  18  20 380.050 53.6900   1
  14  20  18 495.510 62.7900   1
  14  20  18 485.220 78.5600   1
  22  20   6 150.800 55.3600   1
  30  -2   4 393.160 58.7900   1
  30   2   4 377.300 53.4900   1
  30   4   2 562.280 61.1400   1
   4  30  -2 419.460 70.6300   1
   4  30   2 430.990 76.3600   1
   2  30  -4 367.750 53.6500   1
   2  30   4 408.980 78.8700   1
  -2  30  -4 441.490 65.6900   1
  -2  30   4 576.050 73.3000   1
  20  22  -6 118.190 50.7800   1
  22  20  -6 174.450 40.5800   1
  22   6 -20 230.250 61.4400   1
  20   6 -22 127.820 42.6200   1
  22 -20   6 198.110 54.1800   1
   6  20  22 155.710 52.3500   1
   6  22  20 123.910 54.7500   1
  -4  30   2 368.710 60.1900   1
  -4  30  -2 398.590 54.1100   1
  30  -2  -4 377.960 45.4500   1
  30  -4  -2 389.800 62.3600   1
  30  -4   2 458.350 59.8200   1
  30   2  -4 461.610 62.3000   1
  30   4  -2 370.650 45.2300   1
  26 -10  12 1273.07 63.1100   1
  10  28   6 27.2000 55.2400   1
   6  28  10 153.240 58.5400   1
  28 -10  -6 227.480 56.3300   1
  28  -6 -10 262.990 45.3700   1
  26  12 -10 1201.63 63.3700   1
  26 -12  10 1201.63 61.8800   1
  26  10 -12 1112.51 69.3500   1
  10  12 -26 1307.32 62.9200   1
  12  10 -26 1188.83 60.2800   1
  10  12  26 1203.77 53.2800   1
  12  10  26 1066.49 61.5500   1
  10   6  28 203.960 70.4500   1
   6  10  28 176.860 70.3000   1
   6  10 -28 176.450 45.8700   1
  28   6 -10 259.300 56.0300   1
  28 -10   6 263.890 54.2900   1
  28  10  -6 217.870 43.1200   1
  28  -6  10 227.300 53.0100   1
  28  10   6 202.530 58.7800   1
  28   6  10 154.340 40.6700   1
  10  28  -6 208.860 52.1400   1
  10  28   6 230.330 52.1300   1
   6  28 -10 195.660 51.3600   1
   6  28  10 243.940 55.4800   1
   6  22  20 121.870 73.7600   1
   6  20  22 206.890 58.1500   1
  20   6  22 77.3600 54.0100   1
  20  -6  22 120.020 48.4500   1
  22   6  20 129.950 56.2300   1
  22  -6  20 91.5500 47.4300   1
  -2  30   4 450.330 57.1100   1
  -2  30  -4 469.500 45.2200   1
  20  22   6 220.290 43.8400   1
   2  30   4 376.620 62.9100   1
  10  26  12 1223.52 57.6600   1
   4  30   2 534.110 64.0300   1
   2  30  -4 361.290 44.9100   1
  11  19  21 146.550 77.3900   1
  11  21  19 52.0900 68.8600   1
  19  11  21 77.0300 61.8400   1
  19  21  11 -2.6700 59.0400   1
  21  11  19 39.4300 59.9400   1
  21  19  11 -20.270 42.7400   1
  11  21 -19 26.3500 43.5900   1
  19  21 -11 -11.320 37.3700   1
  21  19 -11 27.5100 48.1000   1
  11  19 -21 8.90000 37.8100   1
  21  11 -19 14.7900 40.1300   1
  21 -19  11 -7.7500 44.0200   1
   1  29  -9 -8.8900 52.4200   1
  -1  29  -9 -34.570 45.5300   1
  29  -1  -9 1.40000 42.4700   1
  29  -9  -1 -4.7400 59.8200   1
  29  -9   1 64.6100 57.2600   1
  29   1  -9 -52.010 42.6700   1
   5  13  27 -67.600 69.1000   1
  13   5  27 -64.470 60.8300   1
   5  27  13 -77.890 78.2700   1
   5  27 -13 72.9400 45.9500   1
  25 -17   3 1.37000 49.0700   1
  25   3 -17 93.7800 60.9700   1
  25  17  -3 -25.190 40.7200   1
  25  17   3 62.0000 42.0000   1
  19  11 -21 26.1400 39.9600   1
  11  19  21 105.470 52.2200   1
  11  21  19 48.7400 53.9200   1
  17   3  25 -6.8000 43.7000   1
  25  -3  17 67.5500 43.8000   1
  25   3  17 -19.470 46.1500   1
  17  25  -3 -94.830 48.6600   1
  17  25   3 81.4400 53.1900   1
  17   3  25 2.60000 55.1800   1
   3  25  17 70.7700 81.2800   1
   3  17  25 -128.84 73.3000   1
  -1  29  -9 -42.870 57.2600   1
  -1  29   9 -18.950 76.0800   1
   1  29   9 83.1500 78.9200   1
   1  29  -9 -64.010 58.9800   1
   9  29   1 -32.810 58.0200   1
   9  29  -1 76.7900 64.6900   1
  13  23  15 888.090 69.9000   1
  15  13  23 877.550 62.0600   1
  13  15  23 785.450 48.9600   1
  15  13 -23 878.150 70.5200   1
  23  13 -15 846.600 58.4900   1
  13  15 -23 882.840 58.0300   1
  23 -15  13 878.310 56.5500   1
  15  23  13 750.720 71.3600   1
  29   9   1 9.90000 40.4700   1
  29  -1   9 -40.350 53.1800   1
  13  23  15 973.050 85.9300   1
  15  13  23 908.940 81.5000   1
  13  15  23 884.220 65.6700   1
  29   1   9 21.4600 38.8000   1
  -3  25 -17 24.3100 42.4700   1
   3  25  17 77.2700 44.6800   1
  17  -3  25 -7.5700 56.2800   1
  23  15 -13 798.120 63.7600   1
  23 -13  15 873.510 55.6500   1
  15  23 -13 914.030 59.2000   1
  13  23 -15 940.350 57.9700   1
  -1  29   9 34.4100 43.4300   1
   5  27  13 -19.060 62.0300   1
  27  -5 -13 9.38000 56.2300   1
  27 -13   5 69.4800 48.6000   1
  27   5 -13 -17.960 54.9200   1
  27  13  -5 -1.1400 52.4600   1
  27  -5  13 -11.010 44.7400   1
  27  13   5 -50.690 57.8300   1
  27   5  13 -26.980 38.4100   1
  13  27   5 -38.600 63.2800   1
  29   9  -1 63.8100 58.3000   1
  23  15  13 792.660 51.3700   1
  23  13  15 982.040 68.3500   1
  28   0 -12 292.760 46.9700   1
  28  12   0 311.650 45.5000   1
  28   0  12 392.400 51.1200   1
  12  28   0 390.500 58.0200   1
   0  28 -12 324.430 53.8000   1
   0  28  12 302.700 79.6200   1
   0  28 -12 311.470 40.2200   1
  28 -12   0 285.520 44.1900   1
   0  28  12 270.970 57.1900   1
  25  -9  15 343.500 52.1800   1
  25  15  -9 306.630 44.7000   1
   9  15 -25 272.230 45.7600   1
  25   9 -15 292.190 60.3600   1
  25 -15   9 281.760 46.8500   1
  15   9 -25 311.700 58.4900   1
   9  15  25 184.370 56.5300   1
  15   9  25 149.510 38.0400   1
   9  25  15 347.430 60.2100   1
  -3  29   9 117.550 72.5900   1
   3  29   9 229.860 79.6400   1
   3  29  -9 186.380 53.0700   1
  11  27   9 215.650 47.7100   1
   9  27  11 277.770 48.4300   1
  11   9 -27 238.070 53.9600   1
   9  11 -27 225.610 49.4100   1
  27 -11   9 293.770 52.7700   1
  27   9 -11 403.830 47.4200   1
  27  11  -9 311.660 54.9400   1
  27  -9  11 238.670 52.9900   1
   9  29   3 111.420 70.2500   1
   9  29  -3 197.300 56.6500   1
  27  11   9 186.900 53.2800   1
  27   9  11 211.330 51.3200   1
  11  27  -9 301.820 49.5200   1
   9  27 -11 238.410 48.0400   1
  11  27   9 276.270 70.4400   1
   9  27  11 256.770 57.5700   1
  11   9  27 297.230 55.6600   1
  29   3   9 251.090 57.4600   1
   9  11  27 294.260 56.3200   1
   7  21  21 97.0400 84.4700   1
  21   7  21 149.640 54.2300   1
  21  -7  21 68.7900 47.9300   1
  21  21   7 60.9400 54.1700   1
  21  21  -7 75.3500 56.0300   1
  21   7 -21 132.700 58.9100   1
  21 -21   7 106.470 45.3100   1
   7  21  21 93.8700 42.2200   1
   9  29   3 66.7800 45.6100   1
   3  29  -9 121.850 49.5900   1
   3  29   9 110.230 43.5100   1
  -3  29  -9 96.8600 52.7200   1
  29  -9  -3 87.1200 53.0500   1
  29  -3  -9 105.190 44.7600   1
  29   3  -9 133.180 44.5600   1
  29  -9   3 198.810 42.2800   1
  29   9  -3 128.510 42.8800   1
  29  -3   9 175.070 48.6300   1
  29   9   3 103.230 51.8900   1
   9  15  25 215.890 80.8900   1
  15   9  25 193.740 73.3000   1
   9  25  15 194.680 81.0800   1
  15  25   9 196.070 67.7400   1
   9  25 -15 338.580 48.6500   1
  15  25  -9 268.120 48.4900   1
  25   9  15 266.070 43.4300   1
  25  15   9 207.990 61.5800   1
  24 -16  10 223.930 51.7100   1
  24 -10  16 245.310 48.0600   1
  24  16 -10 237.020 43.1700   1
  10  16 -24 233.760 46.2300   1
  24  10 -16 225.090 60.8300   1
   0  26 -16 362.180 49.1300   1
  16  10 -24 145.140 41.3400   1
  10  16  24 289.250 52.3900   1
  16  10  24 215.670 54.0800   1
  10  24  16 284.470 63.4000   1
  -4  30  -4 901.020 57.6800   1
  16   0  26 360.390 60.5700   1
  16  26   0 498.840 61.8200   1
  26   0  16 378.650 41.5100   1
   2  28  12 219.240 56.9800   1
  26   0 -16 353.470 48.0800   1
  30   4  -4 853.520 66.6100   1
  26 -16   0 407.930 64.7300   1
  30  -4  -4 760.500 51.4600   1
   0  26  16 377.950 77.5300   1
  30   4   4 915.330 64.8300   1
   4  30  -4 765.760 59.2400   1
   4  30   4 985.010 82.9500   1
  -2  28  12 46.1800 70.8900   1
  -2  28 -12 113.880 45.0800   1
   2  28 -12 99.5200 52.1000   1
  12   2  28 191.680 58.6000   1
   2  28  12 140.050 71.1200   1
   2  28 -12 106.930 54.6700   1
  12  28   2 95.3200 63.0600   1
  12  28  -2 215.810 56.0900   1
  28   2  12 40.3600 53.0100   1
  28  -2  12 164.680 38.2700   1
  28  12  -2 152.050 60.4000   1
  28   2 -12 68.9100 45.0100   1
  28 -12   2 93.1900 56.9100   1
  26  16   0 540.300 61.6200   1
  28 -12  -2 206.400 52.8500   1
  28  -2 -12 126.390 44.2400   1
  30  -4   4 864.820 48.8800   1
   4  30  -4 894.410 51.0400   1
   4  30   4 866.290 53.6300   1
  10  16  24 347.350 79.9200   1
  10  24  16 286.280 81.8000   1
  16  10  24 213.560 62.7900   1
  16  24  10 259.470 69.0200   1
  24  10  16 289.700 59.0400   1
  10  24 -16 134.680 46.1900   1
  24  16  10 237.640 44.2000   1
  16  24 -10 184.210 47.6700   1
  16  14  22 153.180 64.4900   1
  14  16  22 19.8000 74.9000   1
  26  16   2 167.160 43.7500   1
  26  -2  16 205.470 52.6600   1
  26   2  16 93.2400 37.6100   1
  16  26  -2 79.5700 57.9400   1
  16  26   2 160.970 62.4300   1
  16   2  26 29.0300 61.2900   1
  16  -2  26 132.560 62.2700   1
   2  26  16 208.840 72.6900   1
  -2  26  16 91.9300 54.8100   1
   0  30   6 258.810 78.4500   1
   0  30  -6 388.560 59.3600   1
   6  30   0 424.620 63.9000   1
  30   0   6 344.280 57.9800   1
  30   6   0 299.490 61.0000   1
  30  -6   0 360.870 46.2200   1
  30   0  -6 351.980 64.1700   1
   0  30   6 339.940 62.5800   1
   8  14  26 245.210 80.0100   1
  14   8  26 65.5500 63.3100   1
  14  26   8 182.900 48.6600   1
   8  26 -14 174.630 44.9000   1
  14  26  -8 192.650 38.7900   1
  26   8  14 92.1600 56.5300   1
  14  22  16 32.7900 74.5400   1
  26  14   8 154.070 58.5400   1
  26  -8  14 188.270 45.9600   1
  26  14  -8 231.670 60.8200   1
   8  14 -26 184.020 43.9500   1
  26 -14   8 151.890 52.0400   1
  26   8 -14 129.480 43.8600   1
  14  16  22 10.7600 48.5500   1
  14   8 -26 199.740 50.4400   1
  14   8  26 131.900 44.6300   1
   8  26  14 209.040 57.6200   1
   0  30  -6 336.430 50.8300   1
   6  30   0 328.610 61.3000   1
   8  26  14 106.740 57.4400   1
  14  22  16 242.900 58.7600   1
  16  14  22 27.7600 47.9000   1
  16  14 -22 21.0400 52.3600   1
  22  14 -16 70.5500 39.7700   1
  14  16 -22 12.5600 34.7600   1
  22  16 -14 -50.390 51.0100   1
  16  22 -14 59.3300 45.6900   1
  14  22 -16 66.6500 34.9300   1
  22  14  16 42.5200 53.2500   1
  22  16  14 63.6300 61.8700   1
  16  22  14 -135.89 70.4000   1
   6  18  24 190.630 58.8300   1
   6  24  18 274.840 61.2000   1
  18   6  24 183.980 66.1800   1
  18  24   6 85.3300 61.7800   1
  24   6  18 210.570 50.3100   1
  18  24  -6 165.920 50.0000   1
  24  -6  18 170.650 44.3900   1
  24  18   6 153.050 43.0700   1
  24  18  -6 191.600 59.8100   1
  24   6 -18 210.520 61.3100   1
  18   6 -24 62.4400 58.4200   1
  24 -18   6 168.310 39.3600   1
   6  18  24 100.470 41.2000   1
   6  24  18 264.570 57.3600   1
  18   6  24 173.890 49.2700   1
   2  26 -16 92.3600 48.8800   1
  -2  26 -16 154.800 45.4700   1
   2  26  16 104.350 44.2000   1
  26  -2 -16 113.660 45.6000   1
  26 -16   2 152.630 42.4100   1
  26   2 -16 128.400 55.3300   1
  26  16  -2 184.070 44.0600   1
  19  17  17 1268.25 75.5600   1
  11  23  17 39.6800 44.1800   1
  11  17  23 157.190 58.3300   1
   7  29   7 1101.96 70.3600   1
  29  -7   7 1073.92 58.4400   1
  29   7  -7 1111.12 77.8400   1
  29   7   7 1107.16 60.8600   1
   7  29  -7 1137.45 67.8700   1
   7  23 -19 109.100 42.3100   1
  23  -7  19 120.620 43.0400   1
  17  17  19 1429.94 96.3500   1
  17  19  17 1236.54 86.6900   1
  25   5 -17 201.480 46.2200   1
  17  19 -17 1339.17 70.2000   1
  17  17 -19 1434.17 82.3100   1
  19  17 -17 1249.56 73.8000   1
   5  17  25 163.800 56.5100   1
   5  25  17 30.1100 58.4500   1
  17   5  25 41.0400 65.1700   1
  17  25   5 104.220 44.0800   1
  25   5  17 60.5200 54.2600   1
  17  25  -5 77.9000 39.4200   1
  25  17   5 103.610 59.3200   1
  25  17  -5 63.3100 51.2100   1
   7  29   7 1074.04 79.7100   1
  25 -17   5 171.620 54.6300   1
  17   5 -25 -6.4200 51.3200   1
   5  25  17 114.980 45.8900   1
  17   5  25 42.7000 46.9000   1
  23  19   7 136.580 44.2300   1
  19  23  -7 160.780 55.5000   1
  23  19  -7 227.140 51.9800   1
  23   7 -19 150.570 42.8100   1
  19   7 -23 117.820 41.1400   1
  11  17  23 143.240 77.8000   1
  11  23  17 148.780 76.4900   1
  25  -5  17 41.3800 49.4500   1
  17  11  23 107.890 48.8300   1
  17  23  11 157.920 69.0200   1
  23  11  17 78.4800 40.5500   1
  23  17  11 73.4600 54.9100   1
  11  23 -17 114.260 41.5400   1
  17  23 -11 129.040 38.9800   1
  23 -11  17 128.700 45.9900   1
  23  17 -11 55.8000 51.4200   1
  11  17 -23 129.330 40.2800   1
  17  11 -23 147.520 56.3200   1
  23 -17  11 180.870 49.1000   1
  17  11  23 158.390 53.0400   1
  23  11 -17 82.3700 51.8800   1
   7  23  19 163.160 58.8500   1
  19   7  23 186.350 57.3200   1
  23   7  19 197.650 41.9100   1
  19  23   7 288.350 65.2500   1
  19   7  23 168.060 45.7700   1
   7  23  19 80.3800 62.8800   1
   7  19  23 183.180 81.7000   1
   7  19  23 93.5500 52.1600   1
  23 -19   7 200.450 47.3900   1
  29  -7  -7 1087.35 64.4300   1
  -2  30   6 672.210 69.5100   1
  -2  30  -6 650.500 62.8900   1
   2  30   6 515.360 52.5400   1
   2  30  -6 539.090 57.5200   1
   2  30  -6 578.280 57.7200   1
   6  30   2 548.650 51.4300   1
   6  30  -2 772.250 71.9000   1
  30  -6  -2 643.480 54.1000   1
  -2  30   6 597.840 61.7000   1
  -2  30  -6 484.500 67.8000   1
  30  -2  -6 739.400 70.9400   1
   2  30   6 463.060 80.9300   1
   6  30   2 727.300 76.6900   1
   6  30  -2 641.720 71.0800   1
  30   6   2 581.510 65.4800   1
  30   2   6 546.820 49.5500   1
  30   6  -2 461.960 48.3500   1
  30  -2   6 566.980 49.5400   1
  30   2  -6 685.210 68.5400   1
  12  28   4 40.3700 59.1500   1
   4  28 -12 -47.380 48.3700   1
   4  28  12 45.8400 57.5900   1
  28 -12   4 46.3500 39.5900   1
  28  -4  12 17.5200 46.3000   1
  20  20  12 138.020 64.3900   1
   4  28  12 -2.4100 63.8600   1
  28  -4 -12 36.4400 45.3200   1
  28   4 -12 93.3300 55.3000   1
  28  12  -4 9.86000 59.6700   1
  20  20 -12 -3.2300 54.0700   1
  28 -12  -4 29.7800 53.2600   1
  -4  28 -12 -14.440 47.5200   1
  28  12   4 13.1100 57.8500   1
  12  28  -4 43.4300 57.7200   1
  28   4  12 30.9700 54.5400   1
  20  12  20 87.0100 55.3900   1
  12  20  20 158.270 60.3000   1
  20  12 -20 -25.800 56.1000   1
  12   4  28 48.3200 48.9300   1
  12  20 -20 110.140 45.3700   1
  27  13   7 14.7800 57.3900   1
  27   7  13 15.6500 48.5600   1
  13  27  -7 37.0900 48.3400   1
   7  27 -13 20.6200 50.1100   1
  13  27   7 50.6300 68.1200   1
   7  27  13 102.990 69.7100   1
  13   7  27 -10.150 65.1600   1
   7  13  27 7.92000 52.5600   1
   9   5  29 498.820 56.2800   1
   5  29   9 516.860 63.3200   1
   5  29  -9 530.980 62.7100   1
   9  29   5 606.520 62.3200   1
   9  29  -5 511.620 52.1100   1
  29   5   9 441.800 47.1400   1
  29   9   5 573.600 59.4300   1
  29  -5   9 505.130 46.8200   1
  29   9  -5 569.720 61.5700   1
  29  -9   5 526.580 61.5100   1
  29   5  -9 406.600 59.7000   1
  29  -5  -9 520.440 69.1100   1
  29  -9  -5 714.050 70.3400   1
   5   9 -29 591.420 57.2900   1
   5  29   9 476.120 68.5200   1
   9  29   5 650.310 66.6400   1
  15  19  19 512.700 59.3400   1
  19  15 -19 709.510 52.8400   1
  19  19 -15 705.630 65.8200   1
  15  19 -19 661.230 49.7700   1
  19  19  15 603.240 68.3100   1
  19  15  19 731.980 77.2200   1
  15  19  19 603.210 61.6900   1
   7  27  13 93.1000 57.4200   1
  13   7  27 27.1000 42.0000   1
  13   7 -27 -22.210 47.6100   1
  27   7 -13 81.8400 53.3000   1
  27 -13   7 -16.860 44.6400   1
   7  13 -27 40.0400 43.3700   1
  27  13  -7 16.7300 53.3300   1
  27  -7  13 19.8300 44.7700   1
  28  -8 -10 -75.800 64.4500   1
  16  26   4 13.4700 63.8300   1
  16   4  26 89.3700 57.6500   1
   8  22  20 31.2100 43.3800   1
   8  20  22 -19.590 58.9200   1
  20 -22   8 110.280 53.8900   1
  22 -20   8 61.9000 50.8000   1
  20   8 -22 96.1000 58.6200   1
  22   8 -20 39.0300 53.0400   1
  22  20  -8 55.0700 41.1700   1
  20  22  -8 21.1000 39.4100   1
   8  22 -20 30.8900 40.2600   1
  22  20   8 11.1300 59.4000   1
  20  22   8 140.600 63.7200   1
  22   8  20 104.680 61.3400   1
   4  26  16 237.650 83.7800   1
   4  16  26 -35.430 52.0700   1
  16   4  26 -39.340 44.4100   1
   4  26  16 128.290 62.5600   1
  10  28   8 64.3600 58.8600   1
   8  28  10 11.8900 54.5100   1
  28 -10  -8 24.4900 57.2700   1
  10   8  28 35.6400 51.2700   1
  26  16   4 69.8100 59.6000   1
  -4  26 -16 56.1700 43.1300   1
  26  -4 -16 -8.8300 47.5600   1
  26 -16   4 -9.0200 48.3400   1
  20   8  22 101.390 44.4500   1
   8  22  20 -60.660 57.5400   1
   8  20  22 -14.210 72.9400   1
  26   4 -16 63.2800 60.4000   1
  10   8 -28 -55.110 52.2400   1
   8  10 -28 11.0300 48.4400   1
  28 -10   8 -13.620 36.5800   1
  28   8 -10 115.780 60.8600   1
  28  10  -8 69.7100 42.1600   1
  28  -8  10 -33.610 51.0900   1
  28   8  10 107.310 57.5400   1
  10  28  -8 97.1200 55.0900   1
   8  28 -10 54.9800 38.6000   1
  10  28   8 -2.0600 63.7000   1
  26  16  -4 1.03000 40.9000   1
  26  -4  16 16.3000 50.4800   1
   8  28  10 5.42000 66.1100   1
  26   4  16 27.0600 47.4100   1
   8  10  28 -13.020 71.3600   1
  16  26  -4 -69.690 49.7300   1
   6  30  -4 1058.74 73.3700   1
  18  12  22 120.880 48.9600   1
  12  22  18 -110.39 60.9500   1
  12  18  22 8.31000 51.6000   1
  18  12 -22 -117.10 48.5500   1
  22  12 -18 40.1700 57.6700   1
  12  18 -22 -59.520 39.8000   1
  22  18 -12 -96.850 54.8900   1
  18  22 -12 -14.380 36.5300   1
  12  22 -18 -20.220 44.7200   1
  22  18  12 -7.1000 62.4700   1
  22  12  18 26.7400 59.4300   1
  18  22  12 -90.290 65.1200   1
  18  12  22 11.7200 65.9400   1
  12  22  18 131.420 69.6200   1
  12  18  22 -101.98 53.7800   1
   4  30   6 1106.80 93.9100   1
   6  30   4 1030.93 90.0300   1
   4  30  -6 1073.74 85.8600   1
   6  30  -4 1139.91 80.6800   1
  30   6   4 1086.33 71.9800   1
  30   4   6 1280.38 75.9400   1
  30   6  -4 1194.97 80.0400   1
  30  -4   6 1026.48 72.9300   1
  30   4  -6 1058.40 79.2000   1
  30  -6   4 1219.52 78.9400   1
  30  -6  -4 1089.18 78.4900   1
  30  -4  -6 1061.22 66.1500   1
  -4  30  -6 1195.22 72.9900   1
   4  30   6 1206.66 82.4200   1
   6  30   4 1211.48 82.3100   1
   4  30  -6 1076.31 64.9100   1
  15  21  17 238.180 58.4000   1
  17  15  21 285.230 54.7300   1
  15  17  21 78.3700 50.1400   1
  17  15 -21 203.220 40.0900   1
  21  15 -17 249.470 58.4300   1
  15  17 -21 243.440 40.2600   1
  15  17  21 321.430 57.7700   1
  15  21  17 251.480 68.8600   1
  17  15  21 251.030 74.1900   1
  21  15  17 144.980 57.3400   1
  27 -15   1 243.110 44.6500   1
  27  -1 -15 191.380 57.9800   1
  27   1 -15 137.730 63.0400   1
  27  15  -1 84.5300 60.2500   1
  27  -1  15 237.320 53.8000   1
   1  27  15 148.540 74.1400   1
  27   1  15 140.660 47.8900   1
  15  27  -1 82.5700 52.3600   1
  15   1  27 218.390 61.0200   1
  15  -1  27 228.930 65.0000   1
  -1  27  15 195.480 56.1000   1
  27 -15  -1 244.850 56.4200   1
   1  27  15 231.860 46.1500   1
  17  21  15 164.700 62.6500   1
  21  17  15 344.620 48.8500   1
  17  21 -15 156.700 52.2300   1
  21  17 -15 163.990 51.2600   1
   1  27 -15 160.100 43.7800   1
  -1  27 -15 226.380 48.5500   1
  29 -11   1 104.360 53.3300   1
  29  -1 -11 36.5700 63.7300   1
  29   1 -11 94.1300 53.9100   1
  29  11  -1 173.720 59.3400   1
   1  31   1 82.1200 73.4500   1
   1  31  -1 25.1200 61.8300   1
  -1  31   1 76.0200 62.5500   1
  25  13 -13 1953.27 90.8600   1
  13  13 -25 2095.96 124.670   1
  13  13  25 1915.58 95.1500   1
  13  25  13 1928.88 99.9200   1
   7  17  25 189.920 74.2800   1
   7  25  17 108.560 59.2500   1
  17   7  25 57.6700 65.3800   1
  -1  31  -1 57.9700 61.4300   1
   1  31   1 146.370 60.0300   1
   1  31  -1 50.8500 59.3300   1
  -1  31   1 30.6000 59.5600   1
  -1  31  -1 15.5000 57.5500   1
  31  -1  -1 11.3800 41.4800   1
  31  -1   1 120.320 51.6600   1
  31   1  -1 -56.990 60.2700   1
  31   1   1 -50.180 57.6700   1
  17  25   7 107.230 47.3500   1
  25   7  17 117.420 51.3900   1
  17  25  -7 145.240 51.4700   1
  25 -13  13 1971.48 103.270   1
  25  17   7 99.8500 61.5400   1
  25  17  -7 148.730 53.1100   1
  25   7 -17 256.580 63.1200   1
  25 -17   7 134.500 47.7400   1
  17   7 -25 172.090 42.0900   1
   7  25  17 129.550 57.1300   1
  -1  29  11 100.070 73.4900   1
  29  11   1 76.4300 42.5100   1
  29  -1  11 92.4700 38.4300   1
  29   1  11 25.1800 48.9400   1
  11  29  -1 67.1500 45.0000   1
  11  29   1 130.390 64.6300   1
   1  29 -11 170.300 58.5000   1
   1  29  11 -26.110 77.5000   1
  25  13  13 2102.34 127.320   1
  13  25 -13 1932.16 89.6200   1
  13  25  13 2211.27 138.560   1
  13  13  25 2211.83 135.090   1
   9  21  21 -27.010 53.2600   1
  21 -21   9 23.2600 49.9800   1
  21   9 -21 12.6900 50.3200   1
  21  21  -9 123.150 53.6500   1
  21  21   9 -22.170 52.7800   1
  21   9  21 114.240 62.5900   1
   9  21  21 -60.390 80.4800   1
  -1  29 -11 44.2700 36.2200   1
   1  29  11 107.330 45.4100   1
   3  27 -15 15.1400 44.9700   1
  -3  27 -15 23.2000 41.2000   1
   3  27  15 -66.840 62.0800   1
  27  -3 -15 -37.520 64.5200   1
   1  29 -11 49.8700 52.5400   1
  27   3 -15 -22.540 60.4400   1
  27  -3  15 -22.520 52.8100   1
  27   3  15 19.0900 47.5100   1
  15   3  27 24.2200 67.0200   1
   3  27  15 13.9700 72.0900   1
  -1  29  11 240.940 63.5200   1
  29 -11  -1 -30.780 52.7700   1
  27  15   3 -61.100 57.9400   1
  27  15  -3 46.6700 59.5900   1
  15  27  -3 0.23000 56.2000   1
  15  27   3 -11.260 43.8000   1
  27 -15   3 26.2300 56.9200   1
  24   8 -18 27.0800 54.4900   1
  24 -18   8 122.770 51.9500   1
  18   8 -24 135.430 52.2600   1
   8  18  24 117.640 51.8400   1
   8  24  18 94.5000 44.1600   1
  18   8  24 80.7200 50.5600   1
  12  12  26 1916.99 101.720   1
   6  12  28 -22.680 67.2100   1
  12   6  28 -60.620 70.2200   1
   6  28  12 96.9200 70.8300   1
   6  28 -12 -1.3200 46.4700   1
  12  28  -6 -61.990 51.1200   1
  28   6  12 9.19000 40.4100   1
  28  12   6 3.78000 58.6000   1
  28  -6  12 -52.130 52.2900   1
  28  12  -6 73.4300 53.1500   1
  28 -12   6 82.9100 46.8400   1
  28   6 -12 78.6800 61.0800   1
   0  30   8 97.0300 76.8800   1
  28  -6 -12 -23.080 63.9000   1
  28 -12  -6 45.6900 64.7200   1
   6  28  12 96.7800 64.0400   1
  12  28   6 -18.090 47.9600   1
   0  30  -8 53.5400 62.9900   1
   8  30   0 -118.32 67.1700   1
  30   0   8 183.120 49.9300   1
  30   8   0 -64.240 60.3700   1
  30  -8   0 10.7200 57.4300   1
  30   0  -8 34.7000 61.2800   1
   0  30   8 62.7100 44.4600   1
   0  30  -8 126.480 53.7900   1
   8  30   0 130.080 64.1200   1
  12  26  12 1627.44 91.4400   1
  12  12  26 1740.94 98.3200   1
  12  26  12 1708.98 95.7800   1
  12  26 -12 1694.86 88.7800   1
  26  12  12 1862.61 98.8900   1
  26 -12  12 1820.56 101.200   1
  26  12 -12 1804.78 86.9000   1
  12  12 -26 1746.18 88.2100   1
   8  18  24 131.210 59.0000   1
   8  24  18 82.8400 70.1500   1
  18   8  24 195.430 49.1200   1
  18  24   8 250.190 50.0000   1
  24   8  18 203.590 53.3900   1
   8  24 -18 85.7200 43.8100   1
  24  18   8 115.400 62.9700   1
  18  24  -8 46.6500 56.5700   1
  24  -8  18 86.9100 41.7300   1
  24  18  -8 88.7300 52.7000   1
  30  -8   2 147.480 59.1300   1
  16  26   6 124.620 66.0000   1
  16  26  -6 117.470 40.7700   1
  26   6  16 133.540 57.5400   1
  26  16   6 109.660 54.3200   1
  26  -6  16 166.820 46.7200   1
  14  24 -14 1448.83 81.6000   1
  24 -14  14 1431.95 85.6600   1
  30   2  -8 320.260 65.8400   1
  22   0  22 583.980 52.0800   1
  26  16  -6 169.400 43.5300   1
  26   6 -16 1.57000 52.9600   1
  26 -16   6 54.0000 48.3100   1
   6  26  16 157.810 65.4500   1
  16   6  26 62.6600 43.5200   1
   8  30   2 128.010 45.0900   1
  -2  30   8 46.5400 70.4600   1
   2  30   8 243.240 78.7600   1
   2  30  -8 137.410 56.8000   1
   8  30   2 147.630 70.2000   1
   8  30  -2 46.5300 61.6600   1
  30   2   8 172.780 50.8600   1
  30   8   2 220.290 55.2700   1
  30  -2   8 141.170 50.4900   1
  30   8  -2 190.870 43.6400   1
  -2  30  -8 163.690 58.0100   1
  -2  30   8 93.0800 55.1100   1
   2  30  -8 201.940 57.7900   1
  22  22   0 697.300 63.3700   1
  14  24  14 1228.29 86.7000   1
  14  14  24 1293.24 79.0600   1
  -2  30  -8 155.900 54.3100   1
  30  -8  -2 217.820 61.0200   1
  30  -2  -8 239.450 63.1300   1
  14  14 -24 1456.69 79.5500   1
  24  14 -14 1426.80 75.5900   1
  14  14  24 1308.29 83.9500   1
  14  24  14 1333.33 92.6500   1
  24  14  14 1383.80 74.9700   1
   6  26 -16 146.790 47.5000   1
   6  26  16 249.160 60.9700   1
   6  16  26 184.110 69.8200   1
  16   6  26 179.000 63.4300   1
   7  29  -9 492.730 64.7900   1
  29  -9  -7 511.180 68.6900   1
   7  29   9 470.430 68.4900   1
   9  29   7 535.230 68.4000   1
   3  31   1 -9.3200 60.9500   1
   3  31  -1 60.5500 62.1600   1
   1  31  -3 -42.760 58.2400   1
  -1  31  -3 67.6700 51.4500   1
   1  31   3 1.07000 60.5900   1
  -1  31   3 73.2800 59.6800   1
  -3  31  -1 50.5000 49.9700   1
   9  29  -7 459.470 49.1800   1
  29   7   9 386.720 59.5300   1
  29   9   7 434.370 58.3800   1
  29  -7   9 388.260 56.2500   1
  29   9  -7 416.440 65.7500   1
  29  -9   7 450.320 55.1300   1
  29   7  -9 505.510 66.6600   1
   7   9 -29 429.790 50.3300   1
  29  -7  -9 414.670 50.9300   1
  31  -1  -3 80.6000 58.5900   1
  31  -3  -1 38.1600 52.7700   1
  31   1  -3 75.3700 43.3500   1
  31  -1   3 127.050 51.4300   1
  11  15  25 747.710 55.0900   1
  19  23   9 31.1000 45.1600   1
  23   9  19 -32.080 59.2000   1
  19   9  23 31.2100 58.2000   1
   9  23  19 -90.270 55.6700   1
  31   3  -1 124.330 59.9600   1
  31   1   3 -48.640 57.6400   1
  31   3   1 49.6900 41.6800   1
   3  31  -1 154.440 72.6900   1
   1  31  -3 -25.040 48.9500   1
   1  31   3 120.590 67.5900   1
  -1  31   3 -109.85 72.9800   1
  13  21  19 27.9200 43.5900   1
  19  13 -21 19.1300 39.0700   1
  21  13 -19 14.9300 57.6300   1
  13  19 -21 -14.180 47.5100   1
  21  19 -13 49.9900 48.8200   1
  19  21 -13 -23.070 53.6800   1
  13  21 -19 83.4500 40.2600   1
  21  19  13 112.600 46.7800   1
  21  13  19 15.4900 54.9000   1
  -3  31   1 -100.46 59.6500   1
  -3  31  -1 133.790 65.0900   1
   3  29 -11 62.6700 54.2200   1
   3  29  11 58.0800 57.5100   1
  -3  29 -11 7.13000 43.4700   1
  29 -11  -3 14.9300 59.8300   1
  29  -3 -11 -44.840 62.3100   1
  29 -11   3 12.0100 55.5600   1
  29   3 -11 58.2300 61.0500   1
  29  -3  11 44.3600 51.6400   1
  29  11   3 -70.760 58.9200   1
  29   3  11 -0.7000 54.4200   1
  11  29  -3 18.1900 60.7600   1
  11  29   3 50.4600 58.2000   1
   3  29 -11 -9.8400 56.8100   1
  19  21  13 39.0600 47.2500   1
  19  13  21 115.190 47.1600   1
  13  21  19 16.3300 54.4700   1
  13  19  21 132.860 77.5200   1
  31  -3   1 13.6200 39.8200   1
   3  29  11 -4.8800 55.9200   1
  11   3  29 47.2700 56.3300   1
   9  19  23 34.2900 72.5800   1
  -1  31  -3 60.9600 60.9900   1
  15  11  25 877.370 69.3400   1
  25  15 -11 896.210 73.3800   1
   9  23 -19 48.1800 41.8300   1
  23  19  -9 16.7200 40.7900   1
  23   9 -19 -27.190 42.5900   1
  19   9 -23 -69.070 57.4000   1
  23 -19   9 32.7800 49.9500   1
   9  19  23 103.220 58.2400   1
   9  23  19 31.2600 61.6400   1
  19   9  23 27.9000 37.8200   1
  15  11 -25 944.860 59.9600   1
  11  15 -25 885.500 60.0700   1
  15  25 -11 975.000 71.1000   1
  25  15  11 893.060 68.3700   1
  15  25  11 990.610 71.3200   1
  15  11  25 927.560 89.8400   1
  11  15  25 972.970 85.7800   1
   3  31   1 45.3500 51.9900   1
  23  19   9 46.2400 43.3200   1
   7   9  29 380.220 74.9000   1
   9   7  29 417.680 72.5100   1
   7  29   9 560.340 83.0600   1
  21   1  23 449.130 64.3600   1
   1  23  21 407.220 62.1000   1
  21  -1  23 554.310 63.9100   1
  23   1  21 502.840 62.4300   1
  11  27  11 793.460 80.0800   1
  11  25  15 875.640 85.4900   1
  11  25 -15 933.540 66.3700   1
  11  27 -11 658.380 50.6300   1
  11  25  15 741.140 73.3400   1
  27  11  11 680.440 53.6600   1
  25  11  15 881.800 59.8800   1
  27 -11  11 685.410 57.8200   1
  23   1 -21 408.800 50.9400   1
  23  21  -1 507.110 65.2400   1
  23  21   1 503.560 66.8200   1
  21  23  -1 504.560 51.2900   1
   1  21  23 350.050 81.4400   1
  25 -11  15 787.580 59.0300   1
  25  11 -15 883.250 73.5600   1
  23  -1  21 579.860 60.6600   1
  27  11 -11 742.500 71.4000   1
  21  23   1 526.560 52.4300   1
  11  11  27 708.680 87.0500   1
  11  11 -27 721.370 58.3600   1
  11  11  27 758.610 54.7500   1
  11  27  11 655.090 65.9900   1
  18  18 -18 1918.45 95.8200   1
  14  10 -26 768.140 68.2100   1
  10  14  26 616.620 50.6000   1
  14  10  26 687.690 58.8000   1
  10  26  14 577.740 71.6800   1
  14  26  10 735.410 63.9200   1
  10  14  26 645.670 79.3700   1
  14  10  26 698.720 65.8600   1
  10  26  14 806.920 70.9100   1
  10  26 -14 834.500 64.3300   1
  14  26 -10 713.880 65.0400   1
  26  10  14 699.420 68.2600   1
  26  14  10 783.500 72.9200   1
  26 -10  14 703.360 58.0600   1
  26  14 -10 625.280 69.1000   1
  10  14 -26 802.000 57.9100   1
  26 -14  10 717.590 57.6900   1
  26  10 -14 810.370 66.5600   1
  18  18  18 1917.83 107.810   1
   6  30   6 1354.83 84.8500   1
   6  30   6 1509.09 84.7000   1
  30  -6  -6 1436.57 88.8000   1
   6  30  -6 1236.52 71.6600   1
   2  22  22 387.670 61.6300   1
  22   2  22 486.060 63.9400   1
  22  -2  22 531.210 67.4800   1
  22  22   2 501.100 50.3900   1
  22  22  -2 440.060 63.8500   1
  22   2 -22 521.190 68.0700   1
   6  30  -6 1429.62 94.4200   1
  30   6   6 1328.81 82.4500   1
  30  -6   6 1428.35 73.5000   1
  30   6  -6 1520.77 89.0300   1
  24   0  20 305.840 51.2800   1
  12  16  24 657.750 66.6600   1
  16  12 -24 594.020 64.5600   1
  12  16  24 636.850 88.2900   1
  16  24 -12 570.970 60.2400   1
  16  24  12 605.520 59.8800   1
  16  12  24 679.580 81.8800   1
  12  24  16 595.430 75.4400   1
  24  16 -12 738.010 69.1900   1
  12  16 -24 600.050 52.8100   1
  24 -16  12 548.780 52.8400   1
  24  16  12 667.600 56.1200   1
  20  24   0 324.100 62.3600   1
  24  12 -16 673.020 67.8400   1
  24  12  16 778.130 71.1400   1
  12  24  16 480.800 62.2500   1
  24  20   0 354.390 62.6200   1
  12  24 -16 564.710 57.1700   1
   0  24  20 264.710 56.6300   1
  16  12  24 629.690 63.6300   1
  24   0 -20 373.980 50.5200   1
  20   0  24 308.950 56.0700   1
   3  31  -3 279.520 53.8300   1
  -3  31   3 356.960 65.6800   1
   9  13  27 422.520 84.7400   1
  -3  31  -3 401.490 60.2800   1
  15  23  15 234.840 54.7800   1
  15  15  23 293.240 69.5500   1
  13  27   9 200.980 72.3300   1
  15  15  23 301.250 43.8100   1
  15  15 -23 253.900 49.1200   1
  23  15 -15 248.890 45.0100   1
  27  13  -9 216.230 55.6500   1
  27  -9  13 244.000 48.6000   1
   5  27  15 131.740 83.8100   1
  27  13   9 302.880 62.1000   1
  27   9  13 249.250 61.1100   1
  13  27  -9 306.300 51.4600   1
   9  27 -13 151.610 53.1500   1
  27  -5  15 114.700 52.0300   1
   9  27  13 163.670 57.9100   1
  13   9  27 265.240 76.0500   1
   3  21  23 347.970 72.5400   1
   3  23  21 406.370 87.5700   1
  15  23 -15 377.190 49.8800   1
  23  15  15 258.920 64.3300   1
  21   3  23 235.300 60.9700   1
  21  -3  23 302.990 57.1300   1
  27   9 -13 336.840 64.1600   1
  27 -13   9 303.480 56.1200   1
   9  13 -27 263.630 48.5300   1
  13   9 -27 316.110 51.9000   1
  13   9  27 290.040 48.9200   1
   9  27  13 232.730 57.1500   1
  23   3  21 227.100 52.3200   1
  23  -3  21 238.400 48.4200   1
   5  15  27 101.010 52.6000   1
  21  23   3 242.930 55.9500   1
  15   5  27 106.440 69.4700   1
  15  27   5 191.160 49.4000   1
  15  27  -5 124.900 40.4100   1
  27   5  15 87.5700 50.4300   1
  27  15   5 136.580 52.9500   1
  27  15  -5 103.490 53.1700   1
  27   5 -15 184.300 46.0200   1
  27 -15   5 171.490 55.8200   1
  15   5 -27 139.770 43.4600   1
  27  -5 -15 87.4500 70.3400   1
  15   5  27 187.040 47.6200   1
   5  27  15 146.860 65.6800   1
  23  21   3 235.390 46.3900   1
  21  23  -3 241.840 44.4100   1
  23  21  -3 283.690 61.4400   1
  23   3 -21 225.110 63.8300   1
   3  31   3 265.020 56.4900   1
   3  31  -3 96.0800 58.7100   1
   3  31   3 326.890 47.2800   1
  -3  31  -3 349.910 59.9300   1
  -3  31   3 292.620 60.8200   1
  31  -3  -3 394.250 57.3800   1
  31   3  -3 295.940 46.9700   1
  31  -3   3 290.780 52.4700   1
  31   3   3 237.860 45.0000   1
  21   3 -23 313.700 48.7800   1
  -4  30  -8 650.610 58.1900   1
  20  16 -18 861.500 57.9700   1
  18  16 -20 946.200 59.7200   1
   0  28 -14 179.860 51.3600   1
   4  30   8 633.030 55.6700   1
   4  30  -8 715.830 62.5800   1
   8  30   4 671.410 70.0700   1
   4  30  -8 700.790 74.3300   1
  20  16  18 969.600 75.6800   1
  18  16  20 902.540 67.6100   1
  16  20  18 967.390 82.6300   1
  24   2 -20 174.710 56.2200   1
  16  18  20 978.210 80.6800   1
  24  -2  20 118.450 52.8100   1
  16  20  18 770.810 58.4900   1
  20  18 -16 866.810 57.8400   1
  16  18 -20 832.430 54.9300   1
  16  20 -18 803.500 65.0900   1
  18  20 -16 965.120 70.7700   1
  16  18  20 851.290 61.0800   1
   4  30   8 631.020 80.1000   1
   8  30   4 647.520 62.1400   1
   8  30  -4 720.100 70.1100   1
  30   4   8 564.640 57.3700   1
  30   8   4 734.610 55.8400   1
  20  18  16 777.400 78.3800   1
  30  -4   8 584.560 63.0200   1
  30   8  -4 774.750 73.2000   1
  30  -8   4 646.760 52.2000   1
  30   4  -8 739.360 69.2600   1
  30  -8  -4 692.440 56.0200   1
  30  -4  -8 623.840 56.3500   1
   0  28  14 112.170 70.1300   1
  14   0  28 99.0400 56.8600   1
  14  28   0 225.320 47.1400   1
  28   0  14 122.770 48.3700   1
  18  20  16 994.880 69.4400   1
  28  14   0 109.140 53.2200   1
  28   0 -14 -68.880 63.3300   1
  28 -14   0 58.6200 41.8400   1
   0  28  14 73.7200 45.7500   1
  24   2  20 251.180 50.7700   1
  20  -2  24 212.950 57.5700   1
  20   2  24 223.340 61.2900   1
   2  24  20 304.160 85.1200   1
   2  20  24 -21.130 52.6100   1
  24  20  -2 41.8700 58.7900   1
  24  20   2 179.150 53.5800   1
  20  24  -2 299.050 62.3200   1
  20  24   2 53.7100 59.5400   1
  10  10 -28 95.5900 45.5300   1
  20  10  22 13.8000 44.7500   1
  10  28  10 -1.5000 64.3300   1
  28  10 -10 -15.040 42.5000   1
  22  10  20 7.00000 42.4500   1
  20  22  10 94.0600 46.3100   1
  22  20  10 -77.010 44.1800   1
  10  22 -20 -10.250 41.7700   1
  20  22 -10 -63.120 54.7700   1
  10  20 -22 26.1600 35.0300   1
  22  20 -10 6.69000 56.6000   1
  22  10 -20 -11.280 42.0900   1
  20  10 -22 -16.690 40.3700   1
  22 -20  10 -12.080 47.9300   1
  10  20  22 -125.02 61.1700   1
  10  22  20 -37.310 54.3600   1
  22   4  22 265.830 54.6900   1
  22  -4  22 251.580 48.4500   1
  22  22   4 356.300 58.9200   1
  22  22  -4 336.670 60.9600   1
  10  28  10 148.300 74.8500   1
  10  28 -10 -92.650 52.9500   1
  28  10  10 61.8300 40.6800   1
  22   4 -22 174.540 44.7200   1
  10  20  22 77.0500 71.6900   1
   4  22  22 406.910 78.7300   1
  10  10  28 0.13000 65.9800   1
  10  22  20 0.37000 56.2900   1
   2  28  14 -5.1200 70.4100   1
  14   2  28 64.6000 57.4100   1
  14  28   2 -3.5400 55.9300   1
  14  28  -2 -63.260 59.3500   1
  28   2  14 28.6300 46.9600   1
  28  -2  14 -80.770 45.6000   1
  28  14   2 11.5200 52.5000   1
  28  14  -2 37.1900 42.5300   1
  28   2 -14 16.0800 62.9900   1
  28 -14   2 74.3300 51.0300   1
  28  -2 -14 -5.3100 63.6100   1
  28 -14  -2 41.8400 43.1500   1
   2  28  14 44.6400 55.0300   1
  -2  28 -14 -15.080 41.0000   1
   2  28 -14 9.08000 49.9000   1
  28 -10  10 78.0500 37.4800   1
  -1  31   5 322.030 58.3300   1
   1  31   5 253.070 58.2000   1
   1  31  -5 304.580 53.6900   1
   5  31   1 301.830 55.8300   1
   5  31  -1 332.690 55.3100   1
  31   1   5 234.960 59.1000   1
  31   5   1 380.480 47.4500   1
  31   5  -1 211.170 56.1600   1
  31  -5   1 246.160 61.6900   1
  31   1  -5 217.040 45.5400   1
  31  -5  -1 361.800 56.1700   1
  31  -1  -5 371.830 48.5700   1
  -1  31   5 240.610 63.9100   1
  -1  31  -5 305.200 60.4100   1
   1  31   5 252.520 57.8700   1
   1  31  -5 417.190 55.7800   1
   5  31  -1 338.480 46.7000   1
   5  31   1 341.760 47.1900   1
  25   1 -19 48.6600 46.1500   1
  25  19  -1 96.1200 59.6300   1
  25  19   1 116.880 53.7400   1
  25  -1  19 56.3300 37.3600   1
  19  25  -1 227.440 54.2000   1
  25   1  19 167.960 49.1000   1
  19  25   1 109.300 53.7800   1
  19   1  25 126.180 55.1200   1
  19  -1  25 150.290 54.1200   1
   1  25  19 121.310 70.2800   1
  13  17  23 3.68000 67.6900   1
  13  23  17 89.5300 55.5600   1
  17  13  23 91.8400 50.9300   1
  17  23  13 69.7700 50.4800   1
  23  13  17 180.030 44.0400   1
  23  17  13 126.250 56.0900   1
  13  23 -17 130.720 48.7300   1
  17  23 -13 165.810 53.1600   1
  23  17 -13 154.940 58.7200   1
  13  17 -23 107.810 49.0600   1
  23  13 -17 214.500 60.4200   1
  17  13 -23 139.800 49.9500   1
  13  17  23 111.740 58.0600   1
  17  13  23 49.3800 47.8600   1
  13  23  17 117.490 55.3800   1
   5  29  11 154.730 64.3100   1
  25  -1 -19 233.570 48.8000   1
  11   5  29 296.320 66.5900   1
   5  29  11 179.350 80.6800   1
   5  29 -11 208.470 54.0000   1
  11  29   5 257.640 65.7600   1
  11  29  -5 112.300 59.9400   1
  29   5  11 195.370 49.7300   1
  29  11   5 159.050 59.8400   1
  29  -5  11 281.640 55.5900   1
  29  11  -5 192.750 44.3500   1
  29 -11   5 115.510 56.6800   1
  29   5 -11 68.1900 61.9100   1
  29  -5 -11 157.940 46.9600   1
  29 -11  -5 154.840 57.3100   1
  -1  31  -5 286.700 67.2000   1
  28  12  -8 44.3100 52.9300   1
  28 -12   8 -1.1200 46.3100   1
  12  28   8 105.200 51.1000   1
  12  28  -8 -6.2300 38.7100   1
  28  12   8 -81.860 59.4000   1
  28  -8  12 -60.520 51.7000   1
   4  24  20 4.56000 43.2500   1
  24 -20   4 78.8500 61.3600   1
  20   4 -24 -50.700 58.9900   1
  24   4 -20 32.2100 53.9500   1
  24  20  -4 74.9400 51.4100   1
  20  24  -4 47.8400 58.0700   1
  24  20   4 170.500 56.0400   1
  24  -4  20 65.7600 50.7100   1
  20  24   4 71.6500 61.1400   1
  24   4  20 -4.3500 54.0900   1
  20   4  24 48.3100 62.7200   1
   4  24  20 36.2700 74.6000   1
   4  20  24 18.4800 81.8100   1
  28   8 -12 15.6900 44.6400   1
  12   8 -28 27.9900 47.4300   1
   8  12  28 -28.600 54.2600   1
  28  -8 -12 66.5700 48.9100   1
   8  28  12 -90.910 65.7000   1
  12   8  28 -71.550 73.8200   1
   8  12 -28 -5.5300 45.8400   1
   8  28  12 56.1900 78.1800   1
   8  28 -12 -5.0100 52.5500   1
  28   8  12 -11.630 50.0700   1
  19   3  25 13.3600 63.8600   1
   5  21  23 115.170 44.5300   1
  25 -19   3 -80.570 52.0300   1
  21   5 -23 125.470 54.1400   1
  23   5 -21 23.5900 54.3300   1
   3  19  25 -48.400 73.9400   1
   3  25  19 -57.240 83.4300   1
  31   3  -5 754.530 66.2900   1
  23   5  21 93.9200 52.8500   1
  21   5  23 79.8300 43.0100   1
   5  23  21 135.730 83.8200   1
   5  21  23 158.300 59.9400   1
  -3  31  -5 644.970 53.6900   1
  -3  31   5 558.110 68.4500   1
  31  -3  -5 637.350 70.1500   1
  31  -5  -3 822.950 66.8600   1
  31  -5   3 727.370 62.6700   1
  31  -3   5 642.940 65.8700   1
  31   5  -3 727.840 56.3000   1
   9  17  25 -28.380 40.4400   1
  17   9 -25 4.40000 50.8600   1
  25 -17   9 27.4900 44.6600   1
  17   9  25 6.56000 66.9300   1
   3  25  19 -40.090 63.4000   1
  19   3 -25 -27.500 62.5700   1
  19  25   3 -20.480 44.2400   1
  25   3  19 -35.710 54.8100   1
  25  -3  19 -42.060 45.5300   1
  19  25  -3 -38.050 41.8600   1
   9  17  25 -38.590 80.3700   1
   9  25  17 -81.620 56.3600   1
  25  17   9 -20.360 53.4800   1
  17  25   9 -38.570 67.5200   1
  17  25  -9 -66.820 55.9900   1
   9  25 -17 -28.860 40.4000   1
  31   3   5 597.390 76.5100   1
  31   5   3 696.960 62.2600   1
  25  -9  17 45.5700 43.2800   1
  25   9  17 47.2700 39.9600   1
  25  19   3 50.5700 42.7400   1
  25  19  -3 -7.9200 53.2500   1
  25   3 -19 -9.6200 61.4000   1
  17   9  25 -29.890 52.0200   1
   9  25  17 -67.570 44.6100   1
  25  17  -9 -33.860 41.2900   1
   5  31  -3 651.140 78.0800   1
   5  31   3 624.780 64.0100   1
   3  31  -5 529.760 68.6900   1
   3  31   5 706.240 70.6600   1
  -3  31   5 594.970 79.1700   1
   5  31  -3 580.810 60.3900   1
   5  31   3 692.270 70.8900   1
  23  -5  21 91.0900 43.5700   1
  25   9 -17 -97.490 60.5500   1
   3  31  -5 646.760 67.1900   1
   3  31   5 584.670 63.2300   1
   5  23  21 74.8300 61.3700   1
  21  23  -5 102.880 41.8400   1
  23  21  -5 121.010 58.3900   1
  23  21   5 22.2900 60.2900   1
  21  23   5 -69.400 62.3600   1
  14  28   4 80.2100 67.5900   1
  16  16  22 15.7600 40.3200   1
  16  16 -22 81.3800 53.2900   1
  22  16 -16 -73.800 56.6100   1
  16  22 -16 18.3600 34.7000   1
  22  16  16 -38.900 55.9400   1
  16  22  16 10.8600 51.8300   1
  14  20  20 291.720 56.9100   1
  20  14 -20 280.560 53.3500   1
  14  28  -4 46.0400 51.5500   1
  20  20 -14 195.780 41.4900   1
  14  20 -20 257.540 46.0100   1
  20  20  14 186.800 69.4400   1
  20  14  20 268.740 68.3600   1
  14  20  20 425.250 79.5000   1
   8  16  26 91.8500 78.6600   1
   4  28  14 100.300 73.7100   1
  -4  28 -14 118.080 41.5200   1
  28   4  14 136.720 48.3300   1
  28  14   4 41.9100 60.4600   1
  28  -4  14 72.7000 45.8600   1
  28  14  -4 122.780 59.3400   1
  28   4 -14 -41.090 55.3600   1
  28 -14   4 72.1200 40.9500   1
  28  -4 -14 57.0700 46.4400   1
  28 -14  -4 -0.9400 64.3600   1
   4  28  14 80.3200 63.4100   1
  16  16  22 127.760 67.2900   1
  26   8 -16 34.6800 57.2500   1
   8  26  16 -16.100 57.9800   1
  16   8  26 49.2600 48.9500   1
  16  26   8 -159.16 67.0900   1
   8  26 -16 -24.130 41.8000   1
  16  26  -8 -74.830 55.5100   1
  26   8  16 11.7900 57.6300   1
  26  16   8 -59.620 42.7400   1
  26  -8  16 8.25000 48.2200   1
  26  16  -8 -42.930 41.1400   1
  26 -16   8 7.96000 52.4100   1
  16   8 -26 -37.000 56.9500   1
  16   8  26 9.23000 49.4200   1
   8  26  16 -80.760 62.5700   1
  30  -6   8 987.190 66.2100   1
  30 -10   0 -22.910 41.3200   1
  24  18  10 -32.300 61.5500   1
  10  24 -18 -0.6300 44.6300   1
  18  24 -10 35.6300 38.5100   1
  10  18 -24 -15.350 42.4500   1
   0  30  10 -20.820 61.5000   1
  24  18 -10 35.9700 42.3700   1
   0  30 -10 70.6500 47.2200   1
   8  30   6 947.360 72.2200   1
   6  30   8 848.710 62.7800   1
   6   8 -30 1035.20 72.5700   1
  30  -6  -8 972.980 76.6600   1
  30  -8  -6 859.790 61.3200   1
  30   6  -8 995.220 77.2300   1
  30  -8   6 1003.29 67.8500   1
  30   8  -6 965.530 76.7400   1
  30   6   8 965.640 72.9700   1
  24  10 -18 14.4700 52.6300   1
  10  18  24 -27.620 56.3000   1
   0  26  18 37.7900 55.5100   1
  18   0  26 56.9300 55.2800   1
  18  26   0 49.6900 53.2800   1
  30   8   6 888.970 59.5300   1
  26  18   0 -3.9200 52.3700   1
   8  30  -6 975.350 75.5000   1
   6  30  -8 987.930 75.2700   1
   8  30   6 931.720 87.5300   1
   6  30   8 1005.60 94.0600   1
  24  10  18 -14.650 58.3600   1
  18  24  10 183.800 68.5200   1
  18  10  24 73.1000 69.8100   1
  10  24  18 20.7300 57.5200   1
  24 -18  10 43.0900 43.5300   1
  26   0  18 -45.970 54.0900   1
  18  10 -24 -37.490 39.3200   1
  10  18  24 29.1900 56.4700   1
  10  24  18 59.0500 54.7200   1
  18  10  24 27.7300 45.7100   1
  30  10   0 50.6200 59.7400   1
  30   0  10 -3.6600 48.4600   1
  10  30   0 111.650 46.8400   1
   0  30 -10 24.5400 58.5800   1
   0  30  10 -4.2700 77.7600   1
  26   0 -18 90.3800 46.2600   1
  30   0 -10 82.5800 62.8100   1
  11  21 -21 18.0600 38.4900   1
  21  21  11 -6.3400 64.0500   1
  21  11  21 35.7400 62.5700   1
  11  21  21 -0.4200 78.2100   1
   9  29  -9 13.0300 49.1600   1
   9  29   9 54.2600 68.5200   1
   9   9  29 15.0300 51.1200   1
  21  11 -21 73.0700 51.9000   1
  11  21  21 -4.4800 41.8100   1
  21  21 -11 32.7700 39.0900   1
   7  15  27 186.540 77.9200   1
  15   7  27 -24.780 62.2000   1
   7  27  15 72.4700 58.0100   1
   7  27 -15 121.690 50.1500   1
  15  27   7 131.900 49.0000   1
  15  27  -7 60.8800 56.6800   1
  27   7  15 -6.6000 39.2400   1
  27  15   7 14.5200 42.6800   1
  29   9  -9 18.9700 54.2300   1
   9   9 -29 118.760 51.8600   1
  29  -9  -9 7.10000 63.1200   1
   9  29   9 90.8700 64.8800   1
  27  -7  15 73.0400 45.2200   1
  27  15  -7 17.2200 54.1100   1
  27   7 -15 16.6500 63.2100   1
  27 -15   7 78.8000 38.4600   1
  15   7 -27 75.8800 41.2600   1
  15   7  27 -19.090 43.1300   1
   7  27  15 79.9600 64.1000   1
  29  -9   9 54.0200 53.9600   1
  29   9   9 57.1800 40.5100   1
  18   2  26 101.910 57.3100   1
   2  26  18 -31.890 44.8700   1
   2  26 -18 -23.220 41.1200   1
  26   2 -18 52.3600 63.3700   1
  26  -2 -18 -54.610 45.6100   1
  26   2  18 54.4700 48.0000   1
  26  -2  18 -12.690 36.8300   1
   2  26  18 -29.380 82.3200   1
  18  -2  26 -86.680 57.0500   1
  22  22  -6 136.350 52.8800   1
  22  18  14 -7.5400 65.4400   1
  22  14  18 -14.510 62.3500   1
  18  22  14 99.4700 61.7000   1
  18  14  22 14.7800 70.5900   1
  14  22  18 51.4600 69.5700   1
  14  18  22 -55.680 76.1600   1
  22  22   6 84.4800 63.2300   1
  30  10   2 30.7800 42.9800   1
  26 -18   2 49.9300 43.5400   1
  14  18 -22 -11.390 42.7900   1
  22   6 -22 89.0400 43.2800   1
   6  22  22 101.830 43.5000   1
   6  22  22 59.2200 85.0900   1
  18  26   2 30.6200 53.3500   1
  26  18   2 -11.610 42.5400   1
  26  18  -2 56.4300 58.3700   1
  18  26  -2 -12.120 57.1300   1
  30  -2  10 -21.750 38.8600   1
  22   6  22 55.2100 42.5200   1
  30  10  -2 58.7600 42.9700   1
  30   2 -10 79.6900 62.6500   1
  30 -10   2 28.8300 51.0300   1
  30  -2 -10 -97.600 43.7900   1
  30 -10  -2 -12.640 53.7400   1
  -2  30  10 28.0000 44.4200   1
  -2  30 -10 -67.300 51.5200   1
  -2  30  10 -20.720 71.6800   1
   2  30  10 5.57000 71.1100   1
   2  30 -10 80.9300 52.2300   1
  10  30   2 34.1700 59.3000   1
  10  30  -2 -63.880 64.7100   1
  30   2  10 -33.860 55.0000   1
   2  30  10 18.6200 43.3600   1
   2  30 -10 13.0900 53.5900   1
  18  14  22 142.080 58.6000   1
  14  22  18 0.86000 53.7900   1
  14  18  22 -20.610 59.5900   1
  18  14 -22 33.1600 38.9000   1
  22  14 -18 -51.100 50.3200   1
  22  18 -14 109.290 40.0500   1
  18  22 -14 21.0400 53.1900   1
  14  22 -18 -3.7600 42.4700   1
  -1  29  13 -39.160 73.3000   1
  13   1  29 49.4600 65.1300   1
   1  29  13 -41.740 55.9300   1
  13  29   1 148.380 65.9500   1
  13  29  -1 -36.800 44.8300   1
  29   1  13 30.1900 52.9700   1
  29  -1  13 32.0500 54.2100   1
  29  13   1 -53.970 41.1000   1
  29  13  -1 87.4600 60.0700   1
  29   1 -13 9.52000 56.0000   1
  29  -1 -13 -24.720 44.4000   1
  29 -13   1 1.18000 41.9900   1
  29 -13  -1 -6.7900 42.9000   1
  -1  31  -7 169.700 41.0200   1
   1  31  -7 258.640 53.1700   1
   7  31   1 228.650 55.9400   1
   1  29 -13 37.4400 50.7100   1
  23  19 -11 153.900 50.9800   1
   5  31   5 953.670 71.5300   1
  11  29   7 92.8300 47.7000   1
   7  29  11 125.850 66.9900   1
  29 -11  -7 113.240 45.9000   1
  11   7 -29 105.760 55.7900   1
  29  -7 -11 2.66000 63.9500   1
  29 -11   7 64.1900 54.4900   1
  29   7 -11 229.970 57.1000   1
  29  11  -7 80.5400 44.0200   1
  29  -7  11 104.360 53.5300   1
  29   7  11 79.1600 40.6900   1
  29  11   7 212.540 61.4500   1
  11  29  -7 60.0900 51.2600   1
   7  29 -11 34.4000 56.8000   1
  11  29   7 71.1100 75.0600   1
  11   7  29 82.2100 64.4800   1
  19   5  25 69.6500 48.9200   1
   5  25  19 21.4700 55.3000   1
  19   5 -25 121.300 60.3400   1
  25 -19   5 60.9700 57.3300   1
  25   5 -19 35.6700 44.4100   1
  25  19  -5 104.540 51.9300   1
  25  19   5 97.6000 62.6400   1
  25  -5  19 20.2200 44.3900   1
  25   5  19 34.9100 39.2600   1
  19  25   5 82.6600 44.5100   1
  19   5  25 40.3000 65.5200   1
   5  25  19 -4.2800 58.3400   1
   7  11  29 150.660 70.5700   1
   5  19  25 48.8900 57.8900   1
  19  11  23 103.770 53.5600   1
  11  23  19 42.9100 55.3300   1
  11  19  23 42.0100 60.1000   1
  19  11 -23 80.4000 59.3800   1
  23  11 -19 -25.060 52.0500   1
  11  19 -23 17.2000 39.5900   1
  19  23 -11 25.1100 54.4400   1
  11  23 -19 13.1700 39.4700   1
  23  19  11 61.8700 63.9500   1
  23  11  19 108.490 42.9000   1
  19  23  11 99.4500 68.7300   1
  19  11  23 93.6900 67.0700   1
  19  25  -5 87.0500 40.7200   1
  11  23  19 31.1700 56.9700   1
   7  29  11 96.1300 55.9300   1
  -1  29 -13 -19.360 49.4800   1
   1  29  13 -15.690 45.1500   1
  17  19  19 1325.36 101.190   1
  19  17  19 1584.42 95.2000   1
  19  19  17 1527.03 76.1600   1
  17  19 -19 1357.81 89.0500   1
  19  19 -17 1281.99 82.2700   1
  19  17 -19 1259.07 68.9800   1
  17  19  19 1497.88 85.4000   1
  11  19  23 42.2900 80.6600   1
   5  31   5 1022.01 83.3900   1
   5  31  -5 1201.76 85.1800   1
  31   5   5 997.780 78.1100   1
  31   5  -5 1129.61 79.9900   1
  31  -5   5 1154.03 81.8900   1
  31  -5  -5 1072.97 65.9900   1
   5  31  -5 978.220 70.2200   1
  -1  31   7 200.140 71.3200   1
  -1  31  -7 274.240 66.4100   1
   1  31   7 104.270 68.5600   1
   1  31  -7 230.540 66.6300   1
   7  31   1 328.310 56.3700   1
   7  31  -1 125.950 50.2900   1
  31   7   1 149.850 53.3300   1
  31   1   7 111.880 40.9800   1
  31   7  -1 100.890 53.7700   1
  31  -1   7 147.850 56.3500   1
  31  -7   1 309.500 54.5400   1
  31   1  -7 129.750 55.5500   1
  31  -7  -1 274.830 61.8300   1
  31  -1  -7 174.840 46.0300   1
  -1  31   7 263.740 57.8500   1
   1  31   7 266.110 47.9300   1
   6  20  24 3.47000 41.6900   1
  24 -20   6 -52.590 47.0900   1
  20   6 -24 72.7500 59.3900   1
   6  20  24 -11.540 81.9600   1
   6  24  20 -13.150 58.1400   1
  20   6  24 92.1400 46.9100   1
  20  24   6 17.8700 44.7800   1
  24   6  20 17.5800 57.2600   1
  24  -6  20 -30.170 42.5500   1
  24  20   6 -75.690 61.2200   1
  20  24  -6 -47.930 57.5400   1
  24  20  -6 50.1800 57.1200   1
  24   6 -20 77.6000 64.8100   1
  20   6  24 -44.070 48.2200   1
   6  24  20 -25.570 55.5700   1
   4  30 -10 161.350 52.3700   1
  10  30   4 219.080 66.1400   1
  10  30  -4 233.140 64.3200   1
  18  26   4 117.080 56.7400   1
  10  30   4 97.0800 64.9500   1
   4  30 -10 227.080 63.2100   1
  26   4 -18 -3.7600 62.9100   1
   6  28  14 274.340 86.3200   1
   6  28 -14 222.880 55.5200   1
  14  28   6 316.380 73.1700   1
  14  28  -6 244.060 60.9200   1
  28   6  14 162.110 50.9200   1
  28  14   6 136.690 44.1300   1
  28  -6  14 171.530 39.9900   1
  28  14  -6 269.460 64.1900   1
  28   6 -14 180.420 47.1500   1
  28 -14   6 177.930 41.7000   1
  28  -6 -14 213.830 61.3700   1
  14   6 -28 160.470 59.1600   1
   6  28  14 104.060 65.2900   1
   4  26  18 82.5300 46.5400   1
  18   4  26 123.230 68.7700   1
  30   4  10 180.610 51.2600   1
  18   4 -26 135.860 53.9000   1
  30 -10  -4 240.190 56.5100   1
  30  10   4 240.280 54.9700   1
  30  -4  10 282.320 58.8600   1
  -4  30 -10 165.720 47.8400   1
   4  30  10 226.660 48.3500   1
  30  10  -4 168.330 55.8900   1
  30 -10   4 211.830 58.5000   1
  26 -18   4 159.130 53.0100   1
  26   4  18 72.2100 50.9600   1
  18  26  -4 72.1000 58.1700   1
  26  -4  18 147.860 54.1600   1
  26  18   4 265.130 64.4300   1
  26  18  -4 112.090 60.7400   1
   4  26  18 157.180 74.4100   1
   4  18  26 55.3300 54.2600   1
  12  14  26 993.560 92.8500   1
  12  26  14 853.640 82.3200   1
  14  12  26 954.780 74.5900   1
  12  14  26 1057.72 78.8500   1
  14  12 -26 1004.29 76.7100   1
  12  14 -26 1142.32 83.3500   1
  26  12 -14 1169.54 89.8000   1
  26 -14  12 1141.18 83.9500   1
  26 -12  14 1058.92 80.5500   1
  26  12  14 1020.28 79.9800   1
  26  14  12 1218.15 93.2300   1
  26  14 -12 1077.22 75.0700   1
  14  26 -12 1106.54 82.5000   1
  12  26 -14 1147.23 83.0800   1
  14  26  12 973.350 97.3300   1
  12  26  14 1177.95 90.3600   1
  14  12  26 1077.59 85.9900   1
   4  30  10 185.010 74.8000   1
   6  14  28 29.7400 66.3000   1
  14   6  28 139.480 53.0600   1
  30   4 -10 268.480 66.6000   1
  30  -4 -10 231.880 58.6600   1
   7  23  21 10.3000 62.8700   1
  25  15  13 1025.43 73.3000   1
   1  27  17 75.1400 45.8000   1
   1  27 -17 19.4600 46.1200   1
   3  29 -13 23.2000 46.3300   1
   3  29  13 107.390 64.6000   1
  -3  29 -13 28.2300 49.3600   1
  29 -13  -3 -43.880 60.8000   1
  29  -3 -13 31.8200 45.1200   1
  29 -13   3 53.5700 56.7200   1
  29   3 -13 73.9700 44.8200   1
  29  13  -3 37.3000 60.4000   1
  29  -3  13 -12.780 52.7900   1
  29  13   3 25.7900 59.8400   1
  13  29  -3 248.640 63.5800   1
  13  29   3 175.890 68.7900   1
   3  29  13 103.050 81.2300   1
  13   3  29 104.350 61.4300   1
   7  21  23 31.0100 53.0000   1
  23 -21   7 99.2900 47.3700   1
  21   7 -23 0.03000 51.5100   1
  23   7 -21 52.9000 43.7600   1
  23  21  -7 -59.330 59.2600   1
  21  23  -7 84.5900 51.5400   1
  23  21   7 38.3700 44.7500   1
  21  23   7 7.54000 44.9200   1
  11  13  27 759.870 92.4800   1
  13  11  27 778.190 93.5200   1
  11  27  13 754.210 86.1900   1
  13  27  11 692.060 87.8400   1
  11  27 -13 788.820 65.8600   1
  15  25  13 958.390 95.0600   1
  13  25  15 922.660 80.8000   1
  15  13  25 1112.44 86.9700   1
  13  15  25 1232.71 103.120   1
  13  27 -11 864.860 74.3700   1
  27  11  13 670.050 72.0000   1
  27  13  11 684.700 73.6200   1
  27  13 -11 737.280 62.5200   1
  27 -13  11 795.350 66.8300   1
  27  11 -13 841.810 65.7700   1
  11  13 -27 733.190 62.7400   1
  13  11 -27 751.110 66.6300   1
  11  13  27 710.950 65.1300   1
  17  17  21 636.680 85.4600   1
  17  21  17 737.250 87.0400   1
  21  17  17 543.940 58.9200   1
  17  21 -17 645.720 55.3700   1
  21  17 -17 586.490 55.2500   1
  17  17 -21 527.430 63.8900   1
  17  17  21 493.320 61.6700   1
  13  11  27 824.440 73.2900   1
   7  23  21 201.070 74.8700   1
   7  21  23 -30.610 59.5500   1
  21   7  23 106.550 52.8300   1
  23   7  21 -0.4000 53.7800   1
  11  27  13 717.550 78.3400   1
  13  27  11 688.170 72.7300   1
  13  25  15 814.390 66.7300   1
  15  13  25 914.060 72.5900   1
  13  15  25 1010.75 72.0900   1
  15  13 -25 991.820 79.5800   1
  29   3  13 118.510 55.8400   1
  13  15 -25 890.340 69.3200   1
  25  13 -15 949.140 102.560   1
  25  15 -13 1106.20 82.5200   1
  13  25 -15 1023.75 74.7600   1
  15  25 -13 1016.00 75.5700   1
  27 -11  13 777.400 65.9000   1
  25  13  15 1016.48 73.5800   1
  -1  27  17 -22.010 76.8500   1
   1  27  17 -7.3400 72.0500   1
  17  -1  27 -18.760 54.5800   1
  17  27   1 -6.1400 54.0600   1
  17  27  -1 -32.030 40.8000   1
  27   1  17 71.8300 38.6500   1
  27  -1  17 54.7200 51.8400   1
  27  17   1 -78.440 42.9400   1
  27  17  -1 -53.400 40.8800   1
  27   1 -17 -80.590 56.6700   1
  27  -1 -17 49.1800 57.2500   1
  27 -17   1 -44.570 42.4000   1
  27 -17  -1 -84.260 45.2300   1
  -3  31   7 612.700 67.4800   1
   3  31   7 431.980 64.8900   1
   3  31  -7 481.220 72.4600   1
   7  31   3 532.180 76.1900   1
   7  31  -3 568.250 70.4600   1
  31   3   7 677.610 69.9700   1
  31   7   3 627.910 72.6600   1
  31  -3   7 496.970 58.9700   1
  31   7  -3 531.190 64.0100   1
  31  -7   3 476.950 64.9800   1
  31   3  -7 502.450 70.1400   1
  31  -7  -3 519.060 63.4600   1
  31  -3  -7 612.360 73.1400   1
  -3  31  -7 604.790 55.6500   1
   3  31   7 647.320 67.4000   1
   7  31   3 572.170 64.9100   1
   3  31  -7 493.970 52.4500   1
   7  31  -3 511.480 65.0200   1
  32   0   0 218.340 61.2200   1
   0  32   0 263.320 57.0300   1
   0  32   0 256.920 67.1500   1
  27   3  17 148.810 50.0300   1
  27  -3  17 119.490 38.3100   1
  27  17   3 46.8200 61.1800   1
  27  17  -3 166.140 60.4700   1
  15  21  19 383.520 82.3600   1
  27  -3 -17 254.240 68.0700   1
  19  21 -15 352.150 45.4000   1
  27   3 -17 69.3800 65.0500   1
   3  27  17 76.4600 83.5200   1
  27 -17   3 151.990 60.0300   1
   3  27  17 69.7400 55.7800   1
   3  27 -17 98.5500 51.2500   1
  15  19  21 231.720 58.6000   1
  17   3  27 64.2200 59.3800   1
  17  27   3 75.9500 58.6300   1
  17  27  -3 140.930 53.8500   1
  19  15  21 375.920 55.6000   1
  21  15  19 297.200 64.1300   1
  19  21  15 388.220 67.1200   1
  21  19  15 271.810 51.7100   1
  15  21 -19 373.750 55.8900   1
  21  19 -15 391.350 56.4600   1
  15  19 -21 277.270 41.3600   1
  21  15 -19 219.960 54.3600   1
  19  15 -21 346.550 46.5700   1
  15  19  21 248.460 62.1600   1
  15  21  19 299.120 66.5100   1
  10  28  12 166.330 64.3100   1
  16  14  24 321.140 71.3700   1
   8  30  -8 639.140 73.1500   1
  28 -12  10 197.810 40.4500   1
  30  -8   8 554.650 52.5700   1
  30   8  -8 669.610 75.2000   1
  30  -8  -8 486.290 54.8800   1
   8  30   8 623.960 60.2200   1
  14  16  24 292.370 80.6000   1
  10  28  12 181.510 78.5300   1
  12  28  10 350.190 60.7300   1
  10  28 -12 165.820 48.9900   1
  12  28 -10 167.950 42.1000   1
  28  12  10 78.9900 60.9200   1
  28  10  12 334.620 62.5500   1
  28 -10  12 269.840 56.3600   1
  28  12 -10 116.330 62.2500   1
  28  10 -12 122.780 62.1100   1
  16  14  24 441.210 64.3500   1
  16  14 -24 377.830 46.4900   1
  12  28  10 182.840 59.7500   1
  30   8   8 611.940 63.0100   1
  14  16 -24 338.760 50.7700   1
   8  30   8 549.090 67.1500   1
  14  16  24 380.760 62.6600   1
  10  12 -28 202.870 53.5600   1
  12  10 -28 225.700 50.9800   1
  14  24  16 477.330 77.8100   1
  12  20  22 96.9600 56.5800   1
  16  24  14 525.920 81.4800   1
  16  24 -14 416.250 53.1100   1
  14  24 -16 438.310 57.6000   1
  24  14 -16 423.090 66.1900   1
  12  22  20 0.58000 61.9100   1
  12  20  22 39.1400 53.1700   1
  20  12 -22 5.47000 57.8000   1
  22  12 -20 80.2800 59.9500   1
  22  20 -12 77.7300 50.0500   1
  12  20 -22 -2.3100 45.5500   1
  24  16 -14 370.510 48.7900   1
  20  22 -12 78.5100 47.9200   1
   8   8 -30 648.150 66.8400   1
  22  20  12 15.0100 44.4700   1
  20  22  12 32.5700 58.9500   1
  10  12  28 249.020 71.6300   1
  22  12  20 5.98000 63.0900   1
  20  12  22 76.8800 47.7600   1
  12  22  20 19.4700 81.3200   1
  24  14  16 368.510 66.1300   1
  24  16  14 389.310 51.9000   1
  12  10  28 280.040 58.9500   1
  14  24  16 298.730 59.6200   1
  12  22 -20 16.3700 38.6200   1
  -2  32   0 168.300 67.6300   1
   0  32  -2 85.1900 71.1000   1
   0  32   2 180.450 56.4500   1
   2  32   0 200.430 55.9800   1
  32   2   0 116.800 44.1300   1
  32   0   2 61.3000 53.3900   1
  32   0  -2 44.9000 43.9300   1
  32  -2   0 60.1300 42.9100   1
  -2  32   0 93.7700 53.8500   1
   0  32  -2 65.4200 43.0400   1
   2  32   0 106.900 44.2400   1
  16  10 -26 82.6400 55.6400   1
   8  22  22 163.950 84.1100   1
  22   8  22 45.1600 45.1200   1
  22  22   8 17.0800 45.3900   1
  22  22  -8 98.8700 41.3400   1
  22   8 -22 76.1400 42.6900   1
  22 -22   8 74.6500 53.1100   1
   8  22  22 66.1900 43.3900   1
  10  16  26 56.4600 56.0700   1
  16  10  26 121.460 52.9800   1
  10  26  16 45.4800 58.1000   1
  10  16  26 129.100 80.8000   1
  16  10  26 70.5900 52.3300   1
  16  26  10 1.92000 61.3500   1
  10  26 -16 49.0700 41.5300   1
  26  10  16 84.0000 59.0800   1
  16  26 -10 88.1500 39.9800   1
  26  16  10 181.340 46.1600   1
  26 -10  16 121.280 45.1100   1
  26  16 -10 26.0300 52.7700   1
  26  10 -16 87.8800 62.0900   1
  26 -16  10 104.470 46.2500   1
  -2  32   2 -75.490 69.1200   1
  -2  32  -2 -1.9000 56.5400   1
   2  32   2 -160.09 76.4100   1
   2  32  -2 -9.5300 63.5200   1
  32   2   2 72.3300 52.3100   1
  32   2  -2 -159.85 60.2800   1
  32  -2   2 33.9100 50.6300   1
  32  -2  -2 -0.4000 54.8000   1
  -2  32   2 -117.59 57.7800   1
  -2  32  -2 -4.1900 41.6200   1
   2  32   2 -24.580 42.7100   1
   2  32  -2 -12.100 41.9700   1
  29  13  -5 104.010 55.4200   1
  31  -5   7 975.800 69.3900   1
  31   7   5 907.860 80.3100   1
   7  25  19 10.0400 60.2600   1
   5  31   7 1035.74 94.3000   1
  19  25   7 -11.610 60.5600   1
  25   7  19 -16.100 58.1400   1
  19  25  -7 58.6100 57.3200   1
  25  -7  19 91.5600 44.8800   1
  25  19   7 83.2500 45.4600   1
  25  19  -7 199.850 60.2000   1
  25   7 -19 149.100 62.9300   1
  25 -19   7 62.1200 48.5800   1
  31  -5  -7 1046.05 83.3400   1
  29 -13  -5 127.380 47.0700   1
   7  25  19 141.120 65.4200   1
   7  31  -5 1157.52 95.9600   1
  13  29   5 241.580 51.4700   1
  31  -7   5 1072.87 73.4900   1
  31   5  -7 1165.95 90.9800   1
  13  29  -5 262.940 56.7300   1
   7  31   5 1020.40 98.8700   1
   7  31  -5 891.080 76.3400   1
   5  31  -7 946.140 70.4700   1
   7  31   5 930.770 70.3400   1
   5  31   7 889.900 84.0500   1
  29  13   5 292.280 57.4100   1
   5  31  -7 1038.52 93.2600   1
  31  -7  -5 1008.80 86.5900   1
  29 -13   5 299.810 54.0200   1
  31   5   7 1095.29 75.0500   1
  31   7  -5 1048.99 86.2200   1
  25  11  17 164.650 55.0100   1
   7  19  25 48.9800 59.3900   1
  19   7  25 15.3100 67.9300   1
   7  19  25 110.600 43.7600   1
  19   7  25 88.2000 43.6500   1
  11  25 -17 218.140 50.8100   1
  25  17  11 211.340 47.4600   1
  11  17  25 94.4800 82.2900   1
  19   7 -25 96.7800 53.5700   1
  17  25 -11 166.000 49.0500   1
  25  17 -11 255.230 55.6300   1
  11  17 -25 189.640 47.8400   1
  25  11 -17 158.320 53.8800   1
  13   5  29 331.110 77.3000   1
   5  29  13 194.150 62.1200   1
   5  29 -13 258.410 58.2000   1
  29   5  13 313.680 59.7600   1
  29  -5  13 192.390 56.2500   1
  29   5 -13 319.510 50.6900   1
  29  -5 -13 189.990 67.6200   1
  17  11  25 179.770 50.0200   1
   5  29  13 294.100 69.3200   1
  11  25  17 163.650 46.9300   1
  11  17  25 160.210 43.4300   1
  17  11 -25 162.070 52.0500   1
   9  27  15 27.4700 65.5200   1
  15   9  27 11.9100 52.0000   1
  15   9 -27 17.0600 49.9800   1
  27   9 -15 24.9300 43.7400   1
  27 -15   9 -28.440 51.9400   1
  27  15  -9 -50.680 59.2300   1
  27  -9  15 96.3200 52.8100   1
  27  15   9 -42.230 42.2100   1
  27   9  15 -86.090 41.0200   1
  15  27  -9 55.7500 38.7200   1
   9  27 -15 3.39000 43.5500   1
  15   9  27 -153.46 72.3900   1
   9  15  27 -95.220 79.8600   1
  15  27   9 44.7500 50.3300   1
   9  27  15 90.9300 72.5300   1
  11  25  17 166.370 59.2400   1
  17  11  25 196.190 53.3900   1
  17  25  11 171.080 63.5300   1
  18   6  26 273.060 48.2600   1
  30   6 -10 434.530 62.2200   1
  18  26   6 334.080 70.5600   1
   6  26  18 167.610 47.0100   1
  18   6 -26 290.130 63.5400   1
  26 -18   6 288.400 53.5800   1
  26   6 -18 286.410 48.8000   1
  26  18   6 166.090 45.3000   1
  30 -10  -6 504.810 70.1500   1
  26  -6  18 259.620 54.0400   1
  26  18  -6 286.600 64.2500   1
  30 -10   6 456.640 63.4100   1
   6  18  26 184.410 73.1300   1
  18   6  26 212.250 63.7800   1
   6  26  18 215.160 64.7000   1
  26   6  18 228.610 52.6100   1
  18  26  -6 332.860 46.9300   1
   6  30  10 393.080 62.9300   1
  10  30   6 310.780 69.4400   1
  30  -6 -10 411.790 70.6100   1
  10   6  30 428.730 68.4200   1
   6  30  10 245.620 73.5900   1
  10  30   6 348.460 79.2300   1
   6  30 -10 369.850 57.7500   1
  10  30  -6 342.750 67.1100   1
  30   6  10 403.980 49.0300   1
  30  10   6 403.120 65.7000   1
  30  -6  10 380.670 60.5800   1
  30  10  -6 421.060 61.8200   1
  20   8  24 -128.96 64.6800   1
  24   8  20 27.2500 42.0800   1
  20  24   8 -181.88 56.9900   1
  24  20   8 -39.680 54.9600   1
  20  24  -8 -38.510 39.6900   1
  24  20  -8 -32.820 57.4600   1
  24   8 -20 -117.62 53.5700   1
  20   8 -24 -35.760 42.5700   1
  24 -20   8 10.5700 52.0300   1
   8  20  24 72.4000 53.4300   1
   8  24  20 3.01000 44.9400   1
   0  28 -16 -6.4700 42.9300   1
  20   8  24 -81.700 45.1300   1
  28   0 -16 -53.280 63.8100   1
  28 -16   0 -8.6800 43.1200   1
  28  16   0 133.560 61.1400   1
  28   0  16 -5.5800 54.9000   1
  16  28   0 -28.680 65.3200   1
  16   0  28 0.45000 57.6500   1
   0  28  16 -206.69 67.3800   1
   0  32   4 36.9900 55.1800   1
  -4  32   0 153.210 43.8700   1
  32   0  -4 -28.330 61.6800   1
  32   4   0 2.07000 53.5300   1
  32   0   4 103.730 53.8200   1
   4  32   0 12.6900 64.2000   1
   0  32  -4 120.590 61.3400   1
   0  32   4 118.590 77.0600   1
  32  -4   0 20.7200 59.7800   1
   8  20  24 145.410 82.3700   1
   8  24  20 -42.590 58.5200   1
   0  32  -4 39.6300 52.0600   1
   4  32   0 126.590 56.2200   1
  15  17  23 24.1400 59.5600   1
  17  15 -23 10.2900 47.3400   1
   1  31  -9 13.0900 40.0300   1
  15  17 -23 17.0100 44.2700   1
  23  17 -15 -85.910 50.2900   1
  17  23 -15 -85.730 46.4000   1
   9  31   1 48.3100 55.7600   1
  23  17  15 -10.930 61.8700   1
  17  23  15 -65.820 71.7900   1
  17  15  23 5.31000 64.6300   1
  11  29   9 -87.050 47.1800   1
  29 -11  -9 119.730 69.9000   1
  15  17  23 66.3800 55.6800   1
  29 -11   9 -34.970 46.6800   1
  29  11  -9 -16.180 44.0100   1
  29  11   9 24.8600 59.0300   1
  11  29  -9 -68.840 48.8700   1
  11  29   9 -120.22 73.8400   1
  -1  31   9 98.2600 74.1800   1
   1  31   9 101.700 68.7800   1
   1  31  -9 -61.590 54.5500   1
   9  31  -1 96.9500 69.4800   1
   9  31   1 -144.24 69.3000   1
  31   1   9 -11.850 56.6400   1
  31  -1   9 33.1900 55.8000   1
  31   9   1 105.910 62.0100   1
  31   9  -1 -21.830 42.5600   1
  31   1  -9 11.5600 44.4300   1
  31  -9   1 -22.090 41.5800   1
  31  -9  -1 -83.890 42.4300   1
  31  -1  -9 -19.360 44.1000   1
  -1  31   9 88.8500 44.5500   1
  -1  31  -9 20.2900 58.1800   1
   1  31   9 -117.09 63.7900   1
  -1  31  -9 -15.150 47.0500   1
  17  15  23 -34.070 49.8400   1
   9  29 -11 -8.5400 55.5400   1
   9  11  29 51.3100 65.6900   1
  15  23  17 -84.080 55.7300   1
  23  15 -17 72.7400 51.8900   1
  23  15  17 -36.300 63.1400   1
  15  23  17 -8.0700 80.3500   1
   5  27  17 344.950 79.2200   1
   5  17  27 363.570 80.4500   1
  17   5  27 559.460 72.6900   1
  17  27   5 558.430 69.0600   1
  17  27  -5 492.000 66.1200   1
  27   5  17 440.360 64.4900   1
  27  -5  17 446.320 61.5900   1
  27  17   5 441.230 52.1400   1
  27  17  -5 424.810 67.7900   1
  27   5 -17 337.180 61.1900   1
  27 -17   5 457.510 64.8200   1
  17   5 -27 414.390 60.3900   1
   5  27  17 442.680 63.9300   1
   9  29  11 -77.870 56.3100   1
  29  -9 -11 -66.220 48.6800   1
  11   9 -29 -60.870 53.4500   1
   9  11 -29 -7.2400 48.3800   1
  29   9 -11 -21.380 44.0100   1
  29  -9  11 -36.610 52.1800   1
  29   9  11 34.3900 57.5400   1
   9  29  11 48.6600 57.0000   1
  11   9  29 15.8300 65.9000   1
  14  28   8 28.8600 72.0200   1
  14  28  -8 16.2400 38.5300   1
  28  14   8 -17.180 42.5700   1
  28  14  -8 -36.450 53.0900   1
  28 -14   8 -12.920 46.9300   1
  18  12 -24 157.490 51.9900   1
  12  18 -24 186.450 43.3700   1
  12  30   0 -1.8300 58.0100   1
   0  30  12 -168.34 79.4200   1
  24  18 -12 271.490 60.5300   1
  30  12   0 -112.61 60.7400   1
  12  24  18 120.770 73.2400   1
  18  12  24 147.080 52.0300   1
  18  24  12 182.590 51.0700   1
  18  24 -12 175.430 56.0800   1
  24  18  12 101.090 64.1500   1
  32  -2  -4 161.020 44.6100   1
  32  -4  -2 112.610 54.9900   1
  32  -4   2 170.000 53.6600   1
  12  18  24 91.6100 52.5100   1
  32  -2   4 198.200 53.2400   1
  30   0 -12 29.7000 45.6400   1
  30   0  12 -66.370 53.9200   1
  32   4  -2 147.560 55.9500   1
  32   2   4 -29.900 52.6900   1
  32   4   2 199.230 61.4500   1
   4  32  -2 87.4900 62.5400   1
   4  32   2 164.070 75.9900   1
   2  32  -4 157.750 71.0000   1
   2  32   4 141.370 77.4300   1
  30 -12   0 55.5700 43.1400   1
   0  30  12 -27.730 44.1900   1
   0  30 -12 35.9100 52.8900   1
  24  12  18 133.490 44.3000   1
  -2  32   4 178.690 64.6000   1
   8  14  28 -13.220 75.8500   1
  14   8  28 52.3800 64.6200   1
   8  28  14 98.2000 82.9800   1
  -2  32  -4 97.4400 62.6900   1
   8  28 -14 38.8700 45.0600   1
  28   8  14 -7.2200 40.6600   1
  32   2  -4 79.7400 55.1700   1
  28  -8  14 29.4400 46.7200   1
  18  12  24 191.430 54.0400   1
  12  24  18 146.870 64.2600   1
  28   8 -14 -61.730 60.5700   1
  14   8 -28 -51.640 48.6300   1
  14   8  28 -3.1400 49.3500   1
   8  28  14 29.5300 65.2600   1
  12  24 -18 153.380 48.7200   1
   2  28  16 56.8500 73.4300   1
  16   2  28 166.840 58.2000   1
  16  28   2 147.030 65.6500   1
  16  28  -2 117.330 43.6800   1
  28   2  16 130.380 50.7700   1
  28  -2  16 112.740 48.2800   1
  28  16   2 162.430 55.1700   1
  28  16  -2 128.610 44.2500   1
  28   2 -16 -38.240 64.2200   1
  28 -16   2 153.290 54.5800   1
  28  -2 -16 199.800 67.2300   1
  28 -16  -2 88.7000 55.7600   1
  12  18  24 195.790 59.1200   1
   2  28  16 100.070 55.9700   1
   2  28 -16 122.140 50.5600   1
  -4  32  -2 100.260 59.0700   1
  -2  32   4 89.5600 61.1000   1
  -2  32  -4 165.810 59.7900   1
   2  32   4 31.9200 56.5200   1
   4  32   2 111.690 64.5500   1
   2  32  -4 91.4500 44.0400   1
   4  32  -2 67.9400 52.6900   1
  20  18  18 1110.33 95.9700   1
  18  20 -18 1233.65 88.8300   1
  18  18 -20 1090.69 79.6500   1
  20  18 -18 1005.06 71.3700   1
  18  18  20 1115.55 83.3100   1
  -2  30  12 -18.690 74.1700   1
  30 -12   2 -20.440 40.5200   1
  12   2  30 -98.450 60.9300   1
   2  30  12 -1.9600 56.2600   1
  12  30   2 -2.3900 59.8700   1
  12  30  -2 -22.730 62.5600   1
  30   2  12 1.33000 54.0500   1
  30  -2  12 -13.210 48.9000   1
  30  12   2 46.4600 43.1800   1
  30  12  -2 -49.150 43.7700   1
  30   2 -12 115.180 45.8800   1
  30  -2 -12 -133.58 63.0600   1
  30 -12  -2 -14.750 42.4100   1
   2  30  12 99.5600 47.0700   1
  -2  30 -12 -13.120 43.6000   1
   2  30 -12 5.65000 46.7400   1
  18  18  20 970.470 93.2800   1
  18  20  18 1081.63 82.5100   1
  31  -9   3 139.550 42.6100   1
  23  21   9 169.820 64.1300   1
   9  31  -3 300.400 70.2000   1
  31  -3  -9 101.740 65.1600   1
  23  21  -9 90.2800 41.1900   1
  23   9 -21 65.2600 54.1500   1
  21   9 -23 114.090 43.6000   1
  -3  31  -9 223.040 42.4600   1
  23 -21   9 119.170 39.3000   1
  31   9   3 128.490 54.3700   1
  31   3   9 146.080 42.5900   1
   9  21  23 74.4900 43.7400   1
  31  -3   9 148.420 50.6100   1
  31   9  -3 105.720 54.5300   1
   9  23  21 65.8900 62.8700   1
   9  21  23 123.770 60.0100   1
   9  23  21 61.6100 73.8700   1
  31   3  -9 266.550 57.9700   1
  21   9  23 -26.110 64.6100   1
  31  -9  -3 145.650 61.7100   1
  23   9  21 140.320 62.2000   1
  21  23   9 189.930 67.3500   1
  13  21  21 27.6300 53.7800   1
  21  13 -21 95.3200 50.8200   1
  13  21 -21 38.5400 40.3500   1
  21  21 -13 122.880 56.7100   1
  21  21  13 9.17000 59.4000   1
  21  13  21 38.0000 57.5700   1
  13  21  21 13.1500 71.4900   1
  21  23  -9 30.3200 56.6400   1
   3  31  -9 218.900 59.3300   1
   9  31   3 84.8500 65.7600   1
   9  31   3 211.460 53.1900   1
   3  31  -9 127.840 57.1300   1
   3  31   9 189.100 59.1100   1
  16  28   4 539.570 70.4600   1
  16   4  28 466.300 78.4700   1
  28  16  -4 396.580 50.6000   1
  28   4 -16 470.600 70.6400   1
  28  -4 -16 398.590 56.1200   1
   4  28  16 422.140 71.6400   1
  20  16 -20 683.930 58.3000   1
  28 -16   4 456.310 60.6300   1
  16  20 -20 603.370 64.7600   1
  20  20  16 784.660 78.3400   1
  20  16  20 513.090 59.3000   1
   4  28  16 560.100 93.3300   1
  28   4  16 409.300 48.6300   1
  20  20 -16 623.960 62.1400   1
  16  20  20 520.220 70.3300   1
  16  28  -4 548.900 62.2500   1
  28  16   4 500.590 62.4100   1
  28  -4  16 510.970 58.2800   1
   4  32   4 504.450 85.3700   1
   4  32  -4 429.750 70.5100   1
  32   4   4 536.500 68.8400   1
  32   4  -4 451.260 52.7500   1
  32  -4   4 426.400 64.1100   1
  32  -4  -4 295.770 67.1200   1
  -4  32  -4 419.600 57.9000   1
   4  32   4 355.310 60.4100   1
   4  32  -4 503.410 63.3900   1
  19  13 -23 137.510 57.4700   1
  19  13  23 16.2000 40.1500   1
  13  19 -23 28.2500 41.8400   1
   7  29  13 136.510 64.6200   1
  29 -13  -7 132.900 49.9600   1
  29  -7 -13 213.850 50.9300   1
  29   7 -13 167.700 57.3600   1
  29 -13   7 167.960 57.1700   1
  29  13  -7 210.010 56.5000   1
  29  13   7 112.250 43.4400   1
  29   7  13 205.830 53.4000   1
  13  29  -7 125.160 43.8300   1
   7  31   7 1153.76 88.7000   1
   7  31  -7 1058.66 86.9800   1
  31   7   7 978.410 82.2300   1
  31  -7   7 1018.30 77.8100   1
  31   7  -7 887.810 82.1800   1
  31  -7  -7 1082.59 89.8100   1
   7  31   7 907.230 84.3600   1
  13  29   7 74.9700 49.7000   1
   7  29 -13 107.090 49.4500   1
   7  29  13 186.280 58.9300   1
  13  19  23 168.140 81.6700   1
  19  13  23 -32.770 70.1800   1
  13  23 -19 90.1500 43.3400   1
  13   7 -29 92.7600 56.8800   1
  23  13 -19 122.950 60.1200   1
   1  23  23 1240.02 94.3100   1
  23  23  -1 1142.98 84.4000   1
  23  -1  23 1285.56 94.1100   1
  19  23 -13 94.6900 40.2500   1
  23  19 -13 131.590 52.2000   1
  23   1  23 1131.17 84.8600   1
  23  23   1 1167.90 86.3600   1
  13  23  19 129.070 45.4800   1
  13   7  29 86.2900 65.8100   1
   7  13  29 40.9200 51.9000   1
  23   1 -23 1094.89 85.5900   1
  13  23  19 -11.650 78.7800   1
  19  23  13 195.270 51.3900   1
  23  13  19 108.760 64.0000   1
  23  19  13 163.120 65.4700   1
  12  30   4 152.800 50.5500   1
  22   0  24 1003.89 80.3100   1
  22  24   0 995.790 72.5700   1
  24   0  22 959.540 75.9200   1
   6  32   0 139.460 44.7000   1
  12   4  30 153.050 66.9400   1
   4  30  12 184.230 83.7000   1
  30  12   4 263.220 63.4300   1
  12  30  -4 215.520 46.6900   1
  24  22   0 893.110 75.3400   1
  24   0 -22 1057.28 90.0700   1
   6  32   0 34.8000 64.3200   1
  32   6   0 152.850 63.0000   1
  32   0   6 -3.3800 58.4900   1
  32  -6   0 17.6000 42.6200   1
  32   0  -6 98.4800 62.4900   1
   0  32   6 -15.420 44.3300   1
  30   4  12 260.990 59.6500   1
   0  32  -6 42.4800 50.6500   1
  30  -4  12 193.950 50.0100   1
  30  12  -4 156.070 45.3000   1
  30 -12   4 260.510 61.4400   1
  30  -4 -12 148.600 58.5800   1
  30 -12  -4 136.730 64.0200   1
  -4  30 -12 141.940 46.6800   1
   4  30  12 106.930 58.4400   1
  30   4 -12 188.230 47.1500   1
   0  32   6 107.390 67.6100   1
   4  30 -12 181.310 58.2500   1
  16  18 -22 237.910 49.6900   1
   2  22  24 729.340 73.3900   1
   2  24  22 651.140 91.6800   1
  22  -2  24 746.880 77.3200   1
  22   2  24 770.500 72.5900   1
  24   2  22 771.930 76.5300   1
  24  -2  22 682.160 71.2600   1
  26  18  -8 161.790 61.4300   1
  18  26   8 104.140 68.1800   1
  18   8  26 87.0400 63.4100   1
   8  26  18 150.030 62.0400   1
   8  18  26 100.820 83.3600   1
  26  -8  18 123.030 51.8600   1
  30  10  -8 160.630 45.6600   1
  18  16  22 175.960 73.6200   1
  16  18  22 281.730 59.3600   1
   8  30  10 235.600 81.1500   1
  10  30   8 135.380 55.4700   1
   8  30 -10 106.500 52.3100   1
  10  30  -8 134.980 59.4800   1
  30  10   8 149.480 60.0700   1
  30   8  10 162.700 60.3100   1
  30  -8  10 93.6700 54.7300   1
  26   8 -18 99.7400 56.4900   1
  30 -10   8 180.110 50.0100   1
  30   8 -10 153.630 46.4900   1
  30 -10  -8 124.910 59.2900   1
  22   2 -24 716.990 63.2600   1
  30  -8 -10 218.220 69.0700   1
   8  30  10 222.320 49.5200   1
  10  30   8 174.630 58.8700   1
  26 -18   8 146.860 54.8500   1
  18   8 -26 152.970 43.7800   1
   8  26  18 213.120 49.2100   1
  18   8  26 101.480 45.2300   1
  26  18   8 60.9300 54.3500   1
  18  26  -8 111.130 58.7700   1
  26   8  18 -9.9600 57.0800   1
  24   2 -22 700.780 70.8000   1
  18  16 -22 256.780 52.2300   1
  16  18  22 235.320 54.3700   1
  18  16  22 137.390 59.0900   1
   2  32   6 271.660 71.5100   1
   2  32  -6 91.8000 68.5300   1
   6  32   2 161.360 67.2600   1
   6  32  -2 250.320 54.5000   1
  32   6   2 215.650 45.3100   1
  32   2   6 254.250 45.5200   1
  32  -2   6 171.290 52.0700   1
  32   6  -2 259.590 47.8300   1
  32  -6   2 89.7100 42.9000   1
  32   2  -6 156.300 46.0700   1
  32  -6  -2 221.110 64.0800   1
  22  24   2 803.090 65.7700   1
  24  22   2 820.340 66.0000   1
  22  24  -2 826.160 65.9200   1
  24  22  -2 865.830 78.6800   1
  32  -2  -6 286.940 58.2900   1
  -2  32   6 169.980 63.0700   1
  -2  32  -6 165.430 59.9800   1
   2  32   6 107.190 64.0900   1
   2  32  -6 159.210 61.8100   1
   6  32   2 218.110 57.8500   1
   6  32  -2 198.210 55.4200   1
   8  10  30 98.4400 51.5500   1
  10   8  30 218.260 64.7700   1
  16  22  18 299.530 70.9900   1
  10   8 -30 161.590 50.5200   1
  18  22  16 368.170 58.3600   1
  22  16  18 284.880 51.8900   1
  22  18  16 353.790 71.5300   1
  16  22 -18 246.480 39.9600   1
  18  22 -16 308.980 56.7900   1
  22  18 -16 246.500 52.6500   1
  22  16 -18 187.370 53.4000   1
  16  22  18 43.6900 65.3000   1
  -2  32  -6 80.7200 54.3900   1
  -2  32   6 255.750 64.8100   1
  13  13  27 751.540 92.0300   1
  15   1  29 93.5900 68.4000   1
   1  29  15 37.0000 71.5300   1
  27   7  17 356.360 48.3900   1
  27  17   7 296.600 59.6800   1
  27  -7  17 333.000 52.2200   1
  27  17  -7 237.700 56.3200   1
  27   7 -17 372.930 61.1400   1
  27 -17   7 341.840 53.7200   1
  17   7 -27 337.080 57.7800   1
  17   7  27 213.540 52.9500   1
   5  31  -9 525.540 69.2500   1
  23   3 -23 643.630 61.1100   1
  23  23  -3 721.450 68.8100   1
  23  -3  23 745.130 73.5100   1
  23   3  23 605.100 67.1300   1
   3  23  23 826.630 95.6700   1
   9  31   5 437.870 54.1000   1
  23  23   3 689.530 62.6100   1
   9  25  19 24.3200 64.9600   1
  13  27  13 637.730 81.4800   1
  13  27 -13 687.680 68.0800   1
  27  13  13 618.390 66.6300   1
  27 -13  13 539.330 62.9100   1
  27  13 -13 659.920 73.4500   1
  13  13 -27 586.100 60.1300   1
  13  13  27 584.700 68.2400   1
  25   1 -21 536.100 73.9400   1
  -1  29  15 78.8400 66.1400   1
   5  31  -9 544.980 74.9500   1
  25  21  -1 464.200 62.0500   1
  25  21   1 363.790 59.0000   1
  21  25  -1 587.310 65.4000   1
  21  25   1 388.050 61.1300   1
  25  -1  21 554.440 65.7400   1
  25   1  21 472.240 65.1300   1
  21  -1  25 457.360 69.5800   1
  21   1  25 407.330 63.8000   1
   1  25  21 586.000 88.3500   1
  31   5  -9 519.280 65.9600   1
  31  -9   5 563.330 68.5100   1
  31  -5  -9 467.330 56.1400   1
  31  -9  -5 476.260 54.7700   1
   5  31   9 482.330 64.9800   1
  13  27  13 654.920 62.6000   1
  19   9  25 -70.500 51.4000   1
   9  19  25 43.4900 41.8100   1
  19   9 -25 21.5200 51.0300   1
  25 -19   9 13.8500 45.0700   1
  25   9 -19 26.6900 60.7900   1
  25  19  -9 -146.05 58.9600   1
  19  25  -9 -28.280 39.9300   1
  25  19   9 -54.970 55.7900   1
  25   9  19 22.8900 41.9100   1
  19  25   9 101.560 69.0900   1
  19   9  25 -80.800 48.0500   1
   9  25  19 -111.27 57.6900   1
   9  19  25 106.510 59.5600   1
  31   9   5 485.660 53.0700   1
   1  29 -15 55.8100 43.6500   1
  -1  29 -15 19.6900 43.4900   1
   1  29  15 -30.340 56.5400   1
  29 -15  -1 57.1100 44.3800   1
   9  31   5 642.370 79.6000   1
   9  31  -5 581.600 75.8900   1
  31   5   9 510.290 67.6000   1
  29  -1 -15 14.1400 65.4800   1
  29 -15   1 13.5900 42.5300   1
  29   1 -15 46.8100 65.7800   1
  29  15  -1 122.240 61.7500   1
  29  15   1 38.1800 42.9200   1
  29  -1  15 53.4400 39.6100   1
  29   1  15 37.4900 47.8000   1
  15  29   1 30.3300 45.3400   1
  15  29  -1 28.3600 63.3400   1
  25  -1 -21 467.060 73.1300   1
   7  27  17 254.360 61.9800   1
  31  -5   9 478.880 50.4500   1
   5  31   9 351.050 82.2800   1
  31   9  -5 597.320 72.0900   1
   7  17  27 206.300 86.4000   1
   7  27  17 235.010 63.2300   1
  17   7  27 324.880 67.3500   1
  17  27   7 350.610 66.1700   1
  17  27  -7 355.570 56.1300   1
  14  26  14 572.690 70.0800   1
  14  14  26 641.040 63.8400   1
  14  14 -26 734.010 69.8100   1
  26  14 -14 633.490 72.1900   1
  14  26 -14 568.400 63.7100   1
  26  14  14 702.980 61.3900   1
  14  26  14 889.550 98.1400   1
  14  14  26 706.320 91.4700   1
  10  22  22 99.7200 57.1300   1
  22  10 -22 248.880 56.5300   1
  22  22 -10 368.370 62.8000   1
  22  22  10 305.260 68.8400   1
  22  10  22 238.520 49.0600   1
  10  22  22 280.770 86.7600   1
  12  28  12 300.630 59.9000   1
  12  12  28 368.220 81.7500   1
  12  28  12 287.680 50.2100   1
  28  12  12 392.330 59.3200   1
  12  28 -12 354.430 44.9000   1
  12  12  28 404.730 55.6400   1
  12  12 -28 328.750 58.4200   1
  28  12 -12 331.340 50.1700   1
  28 -12  12 541.470 64.0200   1
  29  15  -3 343.510 66.2400   1
  29   3 -15 399.270 70.7500   1
  29 -15   3 366.210 64.9000   1
  29  -3 -15 309.870 53.0300   1
  29 -15  -3 282.820 67.7200   1
   3  29  15 328.890 69.9400   1
   3  29 -15 376.400 57.8000   1
  15  15  25 227.650 79.5900   1
  25  15  15 180.670 46.4400   1
  15  25 -15 130.190 38.5900   1
  25  15 -15 313.790 63.7600   1
   3  25  21 72.8200 75.1700   1
  15  15 -25 307.740 56.8000   1
   3  29  15 433.540 67.1700   1
  15  15  25 342.990 55.5400   1
  11  27  15 102.110 47.6300   1
  15  11  27 181.750 49.2500   1
  11  15  27 180.020 42.8100   1
  15  11 -27 240.630 59.0000   1
  27  11 -15 111.160 62.7800   1
  27 -15  11 295.240 50.6000   1
  27  15 -11 311.000 57.8400   1
  27  15  11 213.100 46.1800   1
  27  11  15 131.980 44.0200   1
  15  27 -11 179.510 49.3700   1
  11  27 -15 183.470 52.6000   1
  15  27  11 100.810 64.9500   1
  15  25  15 243.850 68.9200   1
   3  21  25 44.0400 76.8600   1
  11  27  15 216.850 83.3500   1
  15  11  27 244.240 77.6200   1
  25   3  21 145.310 59.0300   1
  21  25   3 148.190 57.7200   1
  25  -3  21 199.490 50.3400   1
  21  25  -3 268.420 64.2900   1
  25  21   3 188.420 47.0800   1
  25  21  -3 231.170 62.4500   1
  25   3 -21 196.030 58.7400   1
  11  15  27 307.530 83.5900   1
  15   3  29 239.780 74.2800   1
  21   3 -25 218.600 65.7700   1
  15  29   3 330.570 62.6900   1
  15  29  -3 386.790 51.7600   1
  29   3  15 480.060 64.9300   1
  15  25  15 394.090 70.1400   1
  29  15   3 459.260 68.5700   1
  29  -3  15 382.320 54.8600   1
  21   3  25 146.880 56.7400   1
  16  26  12 314.140 57.1400   1
  12  26  16 410.000 83.0500   1
  16  12  26 282.320 77.0100   1
  12  16  26 222.010 81.1400   1
   6  28  16 536.830 74.8800   1
  32  -4  -6 647.480 67.8700   1
  32  -6   4 598.720 63.3800   1
  32   4  -6 597.850 58.0900   1
  32   6  -4 525.520 64.5400   1
  32  -4   6 578.080 55.0300   1
  32   6   4 622.280 57.5700   1
  32   4   6 502.090 67.5200   1
   6  32  -4 726.940 78.6800   1
   6  32   4 587.900 78.9000   1
   4  32  -6 617.740 80.2800   1
   4  32   6 715.780 93.3500   1
  12  26 -16 300.040 51.8000   1
  26  16  12 242.540 48.4700   1
  16  26 -12 293.900 51.2900   1
  26  16 -12 378.660 64.5900   1
  12  16 -26 348.700 54.3500   1
  26  12 -16 313.480 62.7100   1
  16  12 -26 292.280 45.2000   1
  12  16  26 263.710 62.0800   1
  16  12  26 343.200 46.4900   1
  12  26  16 236.450 59.4600   1
  22   4 -24 254.290 57.8400   1
  24   4 -22 290.430 59.3300   1
  24  22  -4 322.180 57.2500   1
  22  24  -4 346.150 48.9000   1
  24  22   4 417.900 52.8600   1
  22  24   4 316.050 50.6600   1
  24  -4  22 298.330 52.9400   1
  24   4  22 364.270 59.3600   1
  22   4  24 354.840 63.2100   1
   4  22  24 321.290 65.1400   1
   4  24  22 346.790 89.9100   1
  26   0 -20 8.64000 66.8900   1
  20  10  24 115.510 53.7100   1
  10  24  20 124.960 46.2500   1
  20  10 -24 155.520 60.5500   1
  24  10 -20 254.210 55.6300   1
  24  20 -10 101.940 43.1100   1
  20  24 -10 62.7300 55.4000   1
  24  20  10 155.510 46.7800   1
  20  24  10 25.1300 68.0100   1
  24  10  20 135.250 64.0400   1
  20  10  24 6.27000 47.5900   1
  10  24  20 224.790 75.9300   1
  10  20  24 113.630 86.7700   1
   6  16  28 581.350 85.9300   1
   6  28  16 567.600 93.7000   1
  16   6  28 619.190 77.5300   1
  16  28   6 662.990 64.2400   1
  16  28  -6 685.690 66.6100   1
  28   6  16 728.260 67.1800   1
  28  16   6 763.100 71.3800   1
  28  -6  16 586.040 65.8500   1
  28  16  -6 524.050 54.1300   1
  28   6 -16 472.000 54.7600   1
  28 -16   6 563.130 54.6800   1
  16   6 -28 612.800 70.3400   1
  28  -6 -16 566.220 74.6100   1
  26  12  16 340.430 59.5600   1
   6  32  -4 634.380 65.9100   1
   0  26  20 254.740 81.6700   1
  20   0  26 128.130 64.8300   1
  26   0  20 131.710 57.3600   1
  20  26   0 156.640 62.6300   1
  26  20   0 49.3600 45.1100   1
   4  32  -6 611.060 71.1100   1
   6  32   4 435.280 69.2700   1
   4  32   6 570.830 68.1500   1
  10  20  24 107.790 43.6800   1
  -4  32  -6 595.340 63.4800   1
  32  -6  -4 650.890 59.8800   1
  20  14  22 -16.600 60.3300   1
  20  14  22 -58.570 50.2100   1
  14  20  22 -46.430 80.8200   1
  26   2 -20 79.8300 64.8500   1
  26  -2  20 -45.190 53.3500   1
  26   2  20 37.3800 48.8200   1
  20   2  26 24.5600 53.2200   1
   2  26  20 180.250 70.9400   1
  10  28  14 106.340 80.3600   1
  14  10  28 206.540 68.5500   1
  10  14  28 -26.960 80.6300   1
  14  20 -22 40.0700 49.3700   1
  10  28  14 23.1900 45.9000   1
  14  10  28 32.1100 45.9700   1
  14  10 -28 48.1100 49.0100   1
  28 -14  10 56.8600 38.0100   1
  28  10 -14 0.69000 43.5800   1
  28  14 -10 38.0200 43.1800   1
  28 -10  14 47.1200 53.7300   1
  28  14  10 -35.490 42.8100   1
  28  10  14 89.7700 41.8800   1
  20  14 -22 -43.090 56.9700   1
  14  28 -10 -1.0400 47.8000   1
  26  -2 -20 -6.1200 67.9500   1
  14  20  22 -55.330 42.9200   1
  10  28 -14 10.2800 53.0000   1
  14  28  10 -104.42 73.4500   1
  14  22  20 -121.97 55.1700   1
  30  -6 -12 266.000 59.8500   1
  30 -12  -6 243.190 65.5100   1
  12   6 -30 256.800 45.7100   1
   6  30  12 263.790 61.5100   1
  12   6  30 210.060 73.9200   1
  20  26   2 44.8700 62.6500   1
  20  26  -2 139.800 54.8800   1
  26  20   2 94.0300 44.1800   1
  26  20  -2 70.7900 52.8600   1
  26 -20   2 119.720 58.4400   1
  14  22  20 -0.0500 44.6800   1
  20  22  14 -180.34 69.9400   1
  22  14 -20 -132.59 50.9100   1
  22  20 -14 -95.540 58.1100   1
  20  22 -14 -34.290 53.8000   1
  14  22 -20 38.8700 43.0000   1
  22  20  14 148.310 59.9500   1
  22  14  20 -8.1500 57.8200   1
   6  30  12 312.900 86.5200   1
   6  30 -12 231.890 61.1300   1
  12  30   6 298.720 75.4900   1
  12  30  -6 257.880 47.2700   1
  30   6  12 242.700 52.6500   1
  30  12   6 224.810 53.7500   1
  30  -6  12 289.350 51.7500   1
  30  12  -6 234.410 46.1900   1
  30 -12   6 326.580 60.7200   1
  30   6 -12 227.050 46.8900   1
  11  11 -29 78.0700 45.8600   1
  11  29  11 53.9100 46.1000   1
  -1  31  11 -110.71 76.2200   1
   1  31  11 3.50000 56.4600   1
  11  31   1 -59.540 68.7700   1
  11  31  -1 55.0200 46.7700   1
  31   1  11 1.34000 54.7500   1
  31  11   1 178.410 61.2500   1
  31  -1  11 -15.920 55.4200   1
  11  29 -11 98.6700 56.1700   1
  29  11  11 24.7000 53.1200   1
  29  11 -11 33.7200 62.0900   1
  31  11  -1 -5.6900 42.9600   1
   1  31  11 37.7000 55.2600   1
  19  19 -19 1004.19 51.1800   1
  19  19  19 1168.84 93.6600   1
  13  17  25 307.660 71.0300   1
  13  25  17 209.310 82.4300   1
  17  13  25 355.430 77.6400   1
  17  25  13 328.400 54.7400   1
  25  13  17 268.160 64.3600   1
  25  17  13 227.540 45.5800   1
  13  25 -17 256.790 45.5500   1
  17  25 -13 204.750 39.2500   1
  25  17 -13 267.300 55.0600   1
  13  17 -25 197.720 50.7500   1
  25  13 -17 202.240 52.8900   1
  17  13 -25 326.770 50.8400   1
  13  17  25 269.910 45.1200   1
  31 -11  -1 -105.10 43.4300   1
   1  31 -11 -49.100 47.6900   1
  31 -11   1 26.3000 52.1700   1
   5  23  23 407.700 48.8900   1
  23   5 -23 341.810 58.6400   1
  -1  31 -11 31.4500 38.2900   1
  23  23   5 284.610 57.9400   1
  23   5  23 223.570 46.6000   1
   5  23  23 212.520 84.8700   1
  31  -1 -11 2.50000 63.2400   1
  31   1 -11 -16.360 65.3600   1
  -1  31  11 97.3400 64.9600   1
  17  13  25 150.100 50.4100   1
  13  25  17 237.650 64.8300   1
  29 -11  11 -16.270 54.4600   1
  23  23  -5 263.810 44.5800   1
  11  11  29 90.8600 56.3600   1
  11  29  11 16.6400 68.3100   1
  32   8   0 32.1200 54.8900   1
   8  32   0 -20.020 55.0100   1
  32  -8   0 -15.080 53.4200   1
  32   0  -8 68.6300 64.4600   1
   0  32   8 5.22000 54.0900   1
   0  32  -8 70.7000 55.4300   1
   0  32   8 -72.220 54.8500   1
   8  32   0 15.8800 48.8100   1
  32   0   8 53.5800 40.3900   1
   0  32  -8 49.6100 54.1400   1
  24  16  16 25.8600 56.8500   1
  16  24  16 76.6700 53.5600   1
  16  16  24 61.4300 55.4900   1
  24  16 -16 80.8600 60.1600   1
  16  24  16 124.550 46.5900   1
  16  16  24 -31.360 41.0700   1
  16  16 -24 62.9100 46.6500   1
  16  24 -16 2.11000 37.4100   1
  29  15  -5 709.190 68.0400   1
  29   5 -15 638.480 62.7000   1
  29 -15   5 568.090 57.1100   1
  29  -5 -15 631.910 71.3600   1
  15   5 -29 503.310 67.3400   1
  29 -15  -5 584.120 65.5700   1
   5  29  15 553.090 70.4100   1
   3  31 -11 57.9600 48.6900   1
   3  31  11 -89.770 45.3200   1
  -3  31 -11 65.8200 51.2500   1
  31  -3 -11 14.4600 45.5100   1
  31 -11  -3 16.7800 54.5500   1
  31 -11   3 58.2000 42.5000   1
  31   3 -11 93.1500 56.3900   1
  31  11  -3 32.3600 54.3800   1
  31  -3  11 98.2000 56.5600   1
  31  11   3 30.1300 43.5500   1
  31   3  11 2.97000 57.5900   1
  11  31  -3 33.4800 46.2000   1
  11  31   3 -11.480 62.4900   1
   3  31  11 89.3900 80.5000   1
   9  31   7 402.630 67.3800   1
   7  31   9 447.640 62.6400   1
   9   7 -31 425.220 55.9000   1
  31  -9  -7 527.290 51.3000   1
  31  -7  -9 625.760 70.0600   1
   5  25  21 22.4400 60.3400   1
   5  21  25 38.2200 83.8900   1
  31   7  -9 515.440 59.2500   1
  31  -9   7 463.530 59.3500   1
  -1  33  -1 312.390 58.6900   1
   1  33  -1 423.360 69.5100   1
   1  33   1 474.320 79.6000   1
  33   1   1 384.690 56.8100   1
  33   1  -1 340.080 56.9600   1
  33  -1   1 339.350 57.2200   1
  33  -1  -1 455.440 65.6000   1
  -1  33   1 261.670 46.9500   1
  -1  33  -1 272.910 45.1400   1
   1  33  -1 307.390 56.5100   1
   9  13  29 135.920 77.4500   1
  13   9  29 -25.800 75.1200   1
   9  29  13 34.2400 56.2400   1
  13  29   9 85.2100 64.5700   1
   1  27  19 -166.33 78.2400   1
  19   1  27 34.8400 63.1900   1
  19  27   1 23.1000 43.9500   1
  19  27  -1 -39.670 43.0800   1
  27   1  19 0.83000 40.7200   1
  27  -1  19 17.2200 48.5800   1
  27  19   1 -151.71 53.8300   1
  27  19  -1 36.5400 43.3600   1
  27   1 -19 -26.320 65.3500   1
  27  -1 -19 50.2300 65.2400   1
  27 -19   1 -23.450 55.6300   1
   9  29 -13 45.9000 46.6700   1
  13  29  -9 18.8600 38.7500   1
  29   9  13 -48.280 41.0700   1
  29  13   9 -67.450 41.9200   1
  29  -9  13 -6.3800 54.2900   1
  31   9  -7 495.540 59.2800   1
  31  -7   9 583.830 53.9400   1
  31   9   7 470.010 48.4400   1
  31   7   9 542.340 60.7100   1
   9  31  -7 498.750 66.7200   1
   7  31  -9 386.200 67.6600   1
   9  31   7 446.920 70.7400   1
   7  31   9 353.930 83.0200   1
   5  25  21 13.5500 56.2600   1
  25 -21   5 30.0200 58.5500   1
  21   5 -25 29.4100 62.5300   1
  25   5 -21 10.7500 56.3000   1
  25  21  -5 -13.880 52.8900   1
  21  25  -5 -27.110 58.5600   1
  25  21   5 -43.660 62.3800   1
  21  25   5 -29.490 63.8700   1
  25   5  21 22.8200 60.4200   1
  29  13  -9 -79.270 61.6200   1
  29   9 -13 -84.630 61.0500   1
  29 -13   9 15.9800 47.1200   1
  13   9 -29 -48.440 48.7500   1
  17  19  21 601.590 73.8600   1
  17  21  19 696.330 80.7400   1
  -1  33   1 366.090 56.6600   1
  19  17  21 680.490 78.5500   1
  19  21  17 743.940 81.7200   1
  21  17  19 548.120 66.5600   1
  21  19  17 626.940 57.2600   1
  19  21 -17 589.440 45.8400   1
  17  21 -19 592.910 44.6200   1
  17  19 -21 699.350 54.4000   1
  21  19 -17 629.390 62.3600   1
  19  17 -21 536.400 46.4400   1
  21  17 -19 534.460 47.2400   1
  17  19  21 558.790 57.3000   1
  17  21  19 567.310 65.6600   1
  19  17  21 560.290 58.5100   1
  21  11  23 245.110 44.0100   1
  11  23  21 314.690 57.0300   1
  11  21  23 269.030 45.8600   1
  21  11 -23 369.150 63.4100   1
  23  11 -21 364.660 57.4800   1
   9  29  13 -111.37 57.7200   1
  13  29   9 11.6000 66.9000   1
  21   5  25 -88.070 45.1200   1
   1  33   1 329.000 47.7400   1
   5  29  15 627.060 90.9300   1
  15   5  29 606.520 61.6000   1
  15  29   5 565.110 72.6200   1
  23  21 -11 363.980 59.9500   1
  21  23 -11 407.670 52.8300   1
  23  21  11 361.960 48.9100   1
  21  23  11 297.600 51.9900   1
  23  11  21 521.860 60.8700   1
  21  11  23 405.510 70.9300   1
  11  21  23 298.720 62.7700   1
  11  23  21 393.640 85.7900   1
  15  29  -5 556.530 64.7500   1
  29   5  15 618.320 62.6000   1
  29  15   5 608.180 50.0900   1
  29  -5  15 576.320 59.5000   1
  20  26   4 24.5100 62.7900   1
  32  -8   2 102.790 58.8000   1
   2  32   8 54.8500 45.8900   1
   2  32   8 -31.090 68.3900   1
  -2  32  -8 59.3100 49.6100   1
  -2  32   8 45.0500 52.0200   1
  32  -2  -8 82.0400 56.8500   1
  32  -8  -2 49.7000 43.8800   1
  32  -2   8 45.0800 50.6300   1
  32   2  -8 -91.880 55.5700   1
  20   4  26 35.5800 66.7500   1
   8  32  -2 71.6100 61.0300   1
  -2  32   8 146.380 58.0800   1
   8  32   2 -67.810 62.9700   1
   2  32  -8 29.8100 58.4900   1
  32   8   2 122.050 54.9600   1
   4  26  20 87.9200 65.0100   1
  26 -20   4 -29.470 42.4400   1
  20   4 -26 -74.260 60.9000   1
   4  20  26 32.3700 56.4500   1
   4  26  20 44.8100 60.0800   1
  32   2   8 2.51000 57.7300   1
  26   4  20 67.2200 41.0000   1
  26  -4  20 5.32000 47.8000   1
  20  26  -4 59.6700 42.5900   1
  26  20   4 -21.080 63.5900   1
  26  20  -4 -2.5700 52.9100   1
  26   4 -20 -14.710 45.2100   1
   8  32   2 124.610 45.6200   1
  32   8  -2 130.850 44.8400   1
   8  32  -2 72.3800 64.1900   1
   2  32  -8 45.8300 41.7200   1
  18  14  24 24.0600 49.6400   1
  18  14  24 114.320 53.8600   1
  14  18  24 220.720 80.0900   1
  14  18  24 87.5400 42.0400   1
  18  14 -24 139.030 57.7500   1
  14  18 -24 63.2000 50.8000   1
  18  24  14 57.3800 72.5500   1
  22  24  -6 42.6400 58.3300   1
  24  18  14 109.250 57.1200   1
  32   6  -6 901.990 63.1300   1
  30   0  14 13.9800 55.9200   1
  24  22   6 33.5600 64.9400   1
  22  24   6 36.8000 63.8700   1
  30  14   0 5.49000 61.7200   1
  30   0 -14 111.660 57.8400   1
  24  22  -6 58.9700 41.9600   1
  30 -14   0 33.2900 43.5400   1
   0  30  14 -7.8200 46.2500   1
   0  30 -14 65.6300 45.4600   1
  32  -6   6 824.950 64.8900   1
  32   6   6 855.680 51.2800   1
   6  32  -6 895.220 70.7900   1
  14  24  18 56.5500 45.3700   1
   6  32   6 657.520 64.6900   1
  24  14 -18 76.9700 60.6000   1
   0  30  14 -23.620 53.3800   1
  14  24  18 -52.000 68.3800   1
  22   6  24 -30.390 65.1400   1
   6  24  22 -25.070 76.0800   1
   6  22  24 78.2500 61.4700   1
  24  14  18 238.220 56.8100   1
   6  32  -6 742.620 62.2600   1
   6  32   6 823.860 56.1200   1
  32  -6  -6 902.820 63.6200   1
  22   6  24 50.7200 51.9000   1
  24   6  22 173.400 55.8100   1
   6  24  22 43.4500 63.0300   1
   6  22  24 -25.730 44.1000   1
  24 -22   6 -3.4100 58.0800   1
  22   6 -24 99.7200 61.9900   1
  24   6 -22 67.1000 54.7900   1
  14  30   0 84.3200 46.2300   1
  24  18 -14 157.500 42.9700   1
  18  24 -14 142.430 55.0300   1
  14  24 -18 83.4300 50.1900   1
  19   3 -27 75.3300 65.3100   1
   3  27  19 112.420 47.8700   1
   3  33   1 -47.740 62.8300   1
   3  33  -1 55.8600 61.1500   1
   1  33  -3 -1.2200 60.8700   1
  -1  33  -3 49.8600 59.5100   1
   1  33   3 166.220 55.8500   1
  -1  33   3 59.7800 54.7600   1
  -3  33   1 26.0200 52.9500   1
  -3  33  -1 160.680 53.1100   1
  33  -3  -1 48.4000 53.8900   1
  33  -1  -3 58.6300 55.6200   1
   3  33  -1 65.2300 66.5000   1
   3  33   1 111.160 77.6300   1
   1  33   3 -41.230 53.8400   1
   1  33  -3 -36.830 63.5800   1
  -1  33  -3 29.6000 58.6800   1
  33   1  -3 16.8000 55.3600   1
  -1  33   3 -27.770 61.8400   1
  19  27  -3 54.0400 60.8900   1
  33   3  -1 90.2600 55.3300   1
  33  -1   3 103.710 53.4400   1
  33   1   3 18.2300 61.0000   1
  33   3   1 -4.1700 60.8300   1
   9  17  27 17.3500 83.5500   1
   9  27  17 -9.0000 74.0800   1
  17   9  27 68.2900 73.5900   1
  17  27   9 61.0700 48.9100   1
  17  27  -9 10.3300 49.0600   1
  27   9  17 22.2100 40.9900   1
  27  17   9 103.840 63.3800   1
  27  17  -9 64.3500 44.0900   1
  27   9 -17 -53.820 53.9200   1
  27 -17   9 25.8500 53.6800   1
  17   9 -27 -11.260 59.0600   1
  17   9  27 21.0300 37.4900   1
   9  27  17 -35.190 44.8800   1
   3  27  19 120.530 75.3600   1
  19   3  27 77.3600 59.4800   1
  19  27   3 43.4400 58.3400   1
  33  -3   1 62.6200 42.9400   1
  27   3  19 101.770 58.4100   1
  27  -3  19 120.270 54.2800   1
  27  19   3 87.5300 62.1100   1
  27  19  -3 107.210 43.7300   1
  27   3 -19 36.6800 66.3500   1
  27 -19   3 77.5100 62.4300   1
  27  -3 -19 183.160 71.5300   1
  10  30 -10 41.8800 51.0500   1
  18  10  26 -64.690 72.5800   1
  18  10  26 79.6000 53.3500   1
  10  18  26 72.4700 51.8900   1
  18  10 -26 39.9700 51.4600   1
  26  10 -18 50.7400 62.7500   1
  26  18 -10 -10.010 42.4000   1
  18  26 -10 7.02000 39.3000   1
  14   2  30 206.180 67.0100   1
  26  18  10 -4.7900 63.1800   1
  26  10  18 63.9000 52.9300   1
  10  10 -30 52.2900 53.5800   1
  18  26  10 -51.230 61.0100   1
  30  10 -10 123.110 45.2000   1
  30 -10  10 22.2400 55.3400   1
  30  10  10 -78.060 52.6700   1
  30 -10 -10 25.8700 45.1400   1
  10  30  10 -42.810 67.1600   1
  10  10  30 82.7300 67.3000   1
  10  30  10 38.5400 57.1600   1
  10  26  18 144.850 66.1000   1
  10  18  26 70.9600 73.4500   1
  10  26  18 -63.530 73.8900   1
  30  14   2 46.2200 54.7800   1
  30  -2  14 96.0800 48.7800   1
  -2  30 -14 153.000 44.7900   1
   2  30 -14 125.980 53.5700   1
  30   2  14 141.780 57.0800   1
  14  30   2 60.8100 65.4600   1
   2  30  14 259.970 85.9500   1
   2  30  14 136.490 65.2000   1
  14  30  -2 35.3100 64.5700   1
  30  -2 -14 53.9200 46.5500   1
  30  14  -2 145.890 55.4000   1
  30 -14  -2 158.850 46.7300   1
  30 -14   2 21.1800 42.9200   1
  30   2 -14 22.2500 66.1900   1
  16   8  28 193.360 67.8900   1
  16  28   8 297.640 52.2400   1
  16  28  -8 135.130 58.1300   1
  28   8  16 224.830 61.8500   1
  28  16   8 246.400 65.6000   1
  28  -8  16 257.020 47.6600   1
  28  16  -8 148.350 55.5000   1
  28 -16   8 191.800 49.8900   1
  16   8 -28 259.770 61.0900   1
  32   8  -4 522.280 59.8400   1
   8  32   4 414.090 67.7900   1
   8  16  28 129.180 80.1300   1
   4  32  -8 346.120 45.3000   1
  -4  32  -8 320.720 51.3200   1
   8  32  -4 304.380 65.3300   1
  32  -8  -4 494.030 67.6800   1
  32  -4  -8 405.190 58.6100   1
   4  32   8 329.450 59.3200   1
   4  32   8 422.340 82.8100   1
   4  32  -8 404.900 70.3400   1
   8  32   4 401.050 79.2900   1
   8  28  16 144.170 84.8800   1
   8  32  -4 424.440 64.8800   1
  32   8   4 399.600 63.2500   1
  32   4  -8 292.730 48.4100   1
  32  -8   4 305.400 44.7900   1
  28   8 -16 255.520 56.9200   1
  32   4   8 414.050 55.2900   1
   8  28  16 249.290 59.9400   1
  32  -4   8 411.490 59.5700   1
   7  23  23 13.5300 43.8900   1
  23   7 -23 48.3800 63.0500   1
  23  23  -7 159.900 52.4300   1
  23  23   7 183.040 66.5400   1
  31  11   5 317.570 61.6400   1
   7  23  23 38.2600 86.6400   1
  31   5  11 159.410 51.5000   1
  11  31  -5 257.560 58.6200   1
  11  31   5 216.030 74.8400   1
   5  31 -11 343.070 65.7800   1
   5  31  11 288.900 61.5700   1
  11   5  31 264.580 62.0400   1
  25  11  19 80.3100 61.9400   1
  25  19  11 75.6800 63.0000   1
  19  25 -11 11.5700 54.4600   1
  17  23  17 27.9600 64.1000   1
  17  17  23 130.530 41.6300   1
  17  17 -23 48.5100 54.4800   1
  23  17 -17 102.450 41.6000   1
  17  23 -17 163.000 47.9100   1
  23  17  17 -20.460 65.4500   1
  17  23  17 153.330 67.9100   1
  17  17  23 77.4900 67.5600   1
  25  19 -11 178.350 43.7000   1
  25  11 -19 17.8400 54.3600   1
  19  11 -25 125.500 43.2100   1
  11  19  25 173.620 42.7500   1
  11  25  19 49.9600 46.3200   1
  19  11  25 119.120 54.6200   1
  11  19  25 128.540 60.4300   1
  11  25  19 -70.550 80.8300   1
  19  11  25 34.9900 72.9900   1
  19  25  11 134.430 50.9000   1
  23   7  23 96.0700 62.4400   1
   3  33   3 -100.20 54.2300   1
   3  33  -3 -98.350 72.9100   1
  33   3   3 34.3700 42.5300   1
  33   3  -3 62.4700 61.7300   1
  33  -3   3 76.9600 51.5800   1
  33  -3  -3 -33.790 54.8400   1
  -3  33   3 -124.52 61.3400   1
  -3  33  -3 29.4300 51.9700   1
   3  33   3 127.770 57.2000   1
   3  33  -3 -20.480 60.7900   1
   5  31 -11 301.900 54.5100   1
  11  31   5 218.430 61.0900   1
   5  31  11 207.480 47.6600   1
  31 -11  -5 389.020 48.5000   1
  31  -5 -11 244.910 66.1100   1
  31   5 -11 252.700 47.1800   1
  31  11  -5 201.650 56.7000   1
  31  -5  11 270.810 52.1100   1
  21  15  21 96.8900 62.3300   1
  21  21 -15 -27.810 49.6800   1
  15  21  21 -157.65 77.5900   1
  21  21  15 0.85000 47.1600   1
  15  21  21 15.0500 53.4200   1
  21  15 -21 -49.160 57.1400   1
  15  21 -21 -14.040 43.8100   1
  12  30   8 144.370 68.0100   1
  28   0  18 153.530 56.8800   1
  28  18   0 42.1700 63.4000   1
  28   0 -18 -48.930 66.8400   1
   8  30  12 37.9500 47.9700   1
  12  30   8 156.320 58.8300   1
  28 -18   0 61.7600 56.3800   1
   0  28  18 -23.010 69.0400   1
   8  30  12 -19.010 82.2800   1
   8  30 -12 41.3700 55.4000   1
  12  30  -8 7.62000 41.0500   1
  30   8  12 53.7300 41.6500   1
  30  12   8 -43.820 52.2000   1
  30  -8  12 40.1500 54.8300   1
  30  12  -8 87.1400 45.3500   1
  30 -12   8 22.0000 48.3800   1
  30   8 -12 225.550 64.1300   1
  30 -12  -8 192.510 59.5500   1
  30  -8 -12 98.0900 47.5000   1
  18  28   0 -8.7100 62.5200   1
   8  12  30 96.0600 53.6900   1
  12   8 -30 57.8900 56.2600   1
   6  20  26 112.740 59.9900   1
  20   6  26 130.420 70.2300   1
  20   6 -26 76.6500 61.6600   1
  30 -14   4 260.540 61.9200   1
  30  14  -4 427.100 47.4600   1
  30  -4  14 351.140 43.0300   1
  30  14   4 304.110 56.2400   1
  30   4  14 359.130 60.1700   1
  14  30  -4 422.650 57.7300   1
   6  26  20 56.3600 62.2800   1
  20  26   6 62.6200 66.6500   1
  26   6  20 174.790 53.8300   1
  20  26  -6 68.7100 60.2000   1
  26  20   6 165.890 56.3700   1
  26  20  -6 169.590 43.9900   1
  26   6 -20 230.170 57.8200   1
  26 -20   6 42.3500 57.8300   1
   6  26  20 172.370 67.9600   1
  14  30   4 219.640 62.1200   1
  12  22  22 392.610 64.8000   1
  22  22 -12 464.580 45.1200   1
  22  22  12 531.700 65.5300   1
  28  -2  18 176.830 41.2600   1
   4  30  14 415.260 68.4400   1
  22  12  22 350.530 50.9100   1
  12  22  22 587.000 65.5000   1
   4  30 -14 231.500 51.0600   1
  14   4  30 458.420 75.6900   1
   4  30  14 441.520 63.8000   1
  22  12 -22 362.570 62.1300   1
   2  28  18 152.590 87.6800   1
  18   2  28 254.880 71.4700   1
  18  28   2 208.230 60.1900   1
  18  28  -2 158.040 54.3200   1
  28   2  18 120.730 50.7200   1
  28  18   2 255.720 63.5500   1
  28  18  -2 148.880 54.4900   1
  28   2 -18 174.040 67.3400   1
  28 -18   2 150.870 63.9200   1
  28  -2 -18 272.760 70.7100   1
   2  28  18 267.130 59.0200   1
  30 -14  -4 312.920 60.7700   1
  30  -4 -14 467.160 69.6200   1
  15  23  19 58.2700 55.6000   1
  15  19  23 -65.930 53.1900   1
  19  15 -23 78.8700 55.5700   1
  23  15 -19 49.3600 52.4600   1
  15  19 -23 -0.0200 49.8500   1
  23  19 -15 -6.6600 58.4500   1
  19  23 -15 -35.810 47.1400   1
  15  23 -19 -82.930 43.1800   1
  23  19  15 -36.530 68.7800   1
  23  15  19 33.9600 47.1500   1
  19  23  15 -102.20 70.3400   1
  19  15  23 20.5800 70.9000   1
  15  23  19 -49.080 54.6800   1
  15  19  23 140.800 57.1600   1
  -1  33   5 20.6700 53.9700   1
  33  -1  -5 47.9900 45.2800   1
  33  -5  -1 33.0700 52.5900   1
  33  -5   1 -29.080 59.4300   1
  33   1  -5 -27.180 63.1700   1
  33   5  -1 134.880 62.5900   1
  33   1   5 31.3500 60.6400   1
  33   5   1 -16.380 42.1300   1
   5  33   1 -31.790 74.5900   1
   5  33  -1 -34.810 71.5000   1
   1  33  -5 -30.630 68.4200   1
  27  19  -5 414.790 47.6000   1
  27   5 -19 322.420 48.8700   1
  27 -19   5 465.360 63.4200   1
  19   5 -27 521.210 66.8200   1
   5  27  19 363.880 50.8800   1
  21   7 -25 -14.330 62.1100   1
  25   7 -21 24.6200 44.6700   1
   7  25  21 37.9800 45.0300   1
  21   7  25 -32.930 45.4700   1
  19  15  23 -13.460 49.1900   1
  33  -1   5 133.720 58.9400   1
   7  21  25 7.31000 84.5300   1
   7  25  21 42.2200 61.8500   1
  21   7  25 -13.490 59.3200   1
  -1  33  -5 -32.180 55.2400   1
  -1  33   5 -30.500 72.0500   1
   1  33   5 95.4800 77.3900   1
  21  25   7 67.1900 66.8600   1
   7  21  25 7.90000 42.7800   1
  25 -21   7 -25.260 56.4500   1
   5  19  27 214.930 81.2300   1
   5  27  19 488.480 67.2700   1
  19   5  27 353.170 64.8600   1
  25   7  21 72.9900 59.9400   1
  25  21   7 -28.600 56.2200   1
  21  25  -7 4.04000 41.6500   1
  15   7  29 471.400 60.9900   1
   7  29  15 340.940 87.6700   1
  15  29   7 425.270 75.5900   1
  15  29  -7 460.370 57.5300   1
  29   7  15 454.710 62.3900   1
  29  15   7 312.090 62.6700   1
  29  -7  15 404.180 51.6400   1
  29  15  -7 455.180 66.3700   1
  29 -15   7 350.980 58.4700   1
  29   7 -15 424.650 49.8000   1
  27   5  19 492.500 56.1200   1
   1  33   5 -99.390 55.1500   1
  19  27   5 304.030 62.5200   1
   7  15  29 456.710 80.4200   1
  27  -5  19 479.390 59.5300   1
   7  29  15 274.070 60.7500   1
  29  -7 -15 481.610 55.8000   1
  15   7 -29 385.420 55.4900   1
  25  21  -7 9.07000 42.0600   1
  -1  33  -5 9.46000 41.1000   1
  27  19   5 295.080 47.4900   1
   5  33  -1 34.5300 44.2100   1
   5  33   1 -30.040 57.5700   1
   1  33  -5 -18.180 41.6700   1
  20  24  12 309.810 51.9100   1
  24  12  20 270.770 59.2300   1
  12  20  24 310.080 75.9400   1
  24  20  12 215.680 66.6600   1
  12  24  20 504.060 86.6500   1
  24  20 -12 275.220 61.2200   1
  24  12 -20 341.700 63.8100   1
  20  12 -24 312.600 45.2600   1
  12  20  24 330.500 55.0900   1
  12  24  20 311.140 65.4600   1
  20  12  24 284.820 51.0600   1
  20  12  24 314.130 55.3100   1
  20  24 -12 314.710 42.4900   1
   5  33  -3 72.8200 43.2800   1
  31  -9  -9 113.580 65.0000   1
  31   9  -9 75.4600 44.7100   1
  31  -9   9 91.5500 48.9500   1
  31   9   9 117.950 43.1000   1
   9  31  -9 206.140 52.1100   1
   9  31   9 -10.900 78.4600   1
   9   9  31 166.850 72.4300   1
   9  31   9 141.470 65.8700   1
   3  33  -5 216.900 73.2300   1
   5  33   3 220.710 69.4000   1
   5  33  -3 49.1100 50.2500   1
  33   5   3 49.3700 60.7700   1
  33   3   5 121.970 43.8900   1
  33  -3   5 105.110 42.7500   1
  33   5  -3 42.3300 45.4500   1
  33   3  -5 71.6800 56.5700   1
  33  -5   3 118.660 59.9600   1
  33  -5  -3 102.150 62.8500   1
   3  33   5 161.980 71.4800   1
  33  -3  -5 -39.630 64.7300   1
   3  33   5 26.5200 44.3600   1
   3  33  -5 150.420 43.3600   1
  13  15  27 267.370 80.5700   1
  15  13  27 233.990 80.3500   1
  13  27  15 84.1300 57.0400   1
  15  27  13 209.670 77.7400   1
  13  27 -15 213.290 47.1900   1
  15  27 -13 242.990 49.5000   1
  27  13  15 207.980 46.1100   1
  27  15  13 278.150 46.3600   1
  27  15 -13 161.520 62.3100   1
  27  13 -15 274.500 55.1400   1
  13  15 -27 152.690 49.6300   1
  15  13 -27 158.870 55.2500   1
  13  15  27 228.450 42.7400   1
  15  13  27 175.220 56.3200   1
  13  27  15 166.160 67.1900   1
  15  27  13 144.080 59.1900   1
   4  28  18 697.170 82.8300   1
  18   4  28 617.980 76.2400   1
  18  28   4 600.980 54.9200   1
  18  28  -4 557.740 58.7800   1
  28   4  18 656.200 64.9500   1
  28  -4  18 656.150 60.5900   1
  28  18   4 599.250 50.6500   1
  28  18  -4 691.340 60.1600   1
  28   4 -18 684.020 70.7400   1
  28 -18   4 616.620 50.5200   1
  28  -4 -18 591.470 55.5400   1
  18   4 -28 623.100 59.6800   1
   4  28  18 583.770 63.0200   1
  32   6  -8 696.020 52.4600   1
   8  32  -6 617.710 73.1800   1
  32   8  -6 569.960 60.3000   1
  32  -6   8 509.260 60.5800   1
  22  24  -8 -5.9200 50.1600   1
  32   6   8 629.650 48.0500   1
  32   8   6 381.460 63.1600   1
  32 -10   0 27.2800 61.1300   1
  32   0 -10 1.50000 56.5000   1
  20  20 -18 691.480 61.1100   1
   0  32  10 -61.130 63.2500   1
   0  32 -10 -25.200 53.2900   1
  10  32   0 13.6500 45.4300   1
  24  22  -8 47.0500 52.7700   1
  32  10   0 64.5600 44.8300   1
  32   0  10 -7.1800 50.3800   1
  18  20  20 620.400 50.6300   1
  10  32   0 103.750 62.6300   1
  20  18 -20 659.320 47.6400   1
  32  -8   6 666.680 62.3800   1
   0  32  10 105.160 57.0600   1
  22  24   8 112.340 58.3400   1
   6  32  -8 524.920 49.2400   1
   8  32   6 679.730 62.6100   1
   6  32   8 598.640 62.3400   1
  32  -6  -8 514.670 50.8100   1
  32  -8  -6 592.390 96.6600   1
  18  20 -20 722.020 70.9100   1
  20  18  20 758.720 77.9800   1
  20  20  18 770.200 72.4200   1
  18  20  20 657.600 61.9000   1
  14  28  12 276.140 80.3600   1
  24  22   8 -1.3900 45.1700   1
  12  28  14 59.7400 57.8600   1
  12  28 -14 183.480 51.9200   1
  14  28 -12 112.190 47.4200   1
  28  12  14 206.840 44.7500   1
  28  14  12 108.440 43.4600   1
  28  14 -12 130.620 62.4200   1
  28 -14  12 101.000 46.9000   1
  28  12 -14 86.1700 63.6700   1
  12  28  14 -102.74 66.3800   1
  14  28  12 6.49000 67.8000   1
   6  32   8 562.600 76.6500   1
   8  32   6 617.820 73.8200   1
   6  32  -8 640.770 72.6600   1
   8  24  22 -27.240 85.2500   1
  24   8 -22 -16.600 61.8100   1
   8  22  24 42.4200 44.0900   1
  22   8 -24 -15.440 59.9400   1
  12  14  28 27.1100 79.4200   1
  14  12  28 62.6300 67.2800   1
   8  24  22 -32.280 64.2500   1
  22   8  24 31.6500 54.8500   1
  14  12 -28 89.6300 49.4500   1
   8  22  24 121.630 60.7100   1
  22   8  24 28.1100 57.9500   1
  12  14  28 113.720 40.4200   1
  14  12  28 114.200 52.8000   1
  24   8  22 -55.900 54.2800   1
  14  16  26 140.780 70.0400   1
  16  14  26 106.360 67.6800   1
  16  14  26 148.800 50.3400   1
  14  16  26 198.890 58.6600   1
  16  14 -26 118.380 56.0600   1
  14  16 -26 151.440 46.2500   1
  32 -10  -2 -78.230 44.5700   1
  -2  32 -10 -39.510 53.9800   1
  14  26  16 170.890 47.1700   1
  10  32   2 -43.340 51.0900   1
  32   2 -10 56.6700 64.9700   1
  -2  32  10 -52.920 73.9100   1
   2  32  10 229.430 66.3800   1
  32  -2 -10 28.7700 45.8000   1
  32 -10   2 -53.130 59.2700   1
   2  32  10 -97.460 69.1300   1
  32  10  -2 19.9500 54.2900   1
  26  16 -14 126.720 53.5400   1
  16  26 -14 167.130 47.5900   1
  14  26 -16 116.210 52.8200   1
  26  16  14 11.4000 44.2000   1
  10  32  -2 76.1200 66.2600   1
  16  26  14 227.130 78.8700   1
  32   2  10 47.2800 41.3500   1
  32  -2  10 -0.5200 55.0900   1
  10  32   2 11.5500 64.3900   1
  26  14 -16 173.080 54.9000   1
   2  32 -10 38.7000 49.8300   1
  16  26  14 155.830 48.4300   1
  32  10   2 154.650 60.9000   1
  14  26  16 308.430 59.3700   1
  26  14  16 133.260 54.9100   1
  11  31   7 258.110 56.8600   1
  31  -1 -13 -20.470 47.3300   1
   7  31  11 188.630 59.7900   1
  11   7  31 205.120 72.0800   1
  31 -13   1 -29.920 55.2800   1
  31 -13  -1 -25.310 55.6700   1
   1  31  13 -66.930 46.1100   1
  29  13 -11 37.2800 43.8300   1
  29 -11  13 56.9200 44.5400   1
  -1  29  17 214.340 59.1500   1
   7  31 -11 161.260 55.0200   1
   1  29  17 121.970 70.1000   1
  17  29  -1 108.680 57.6600   1
  29  11  13 107.800 42.9600   1
  29  11 -13 -44.320 44.2000   1
  13  11 -29 16.5200 47.7400   1
  11  29  13 -78.680 57.3200   1
  17  29   1 205.800 48.0000   1
  29   1  17 177.390 58.6000   1
  13  29  11 5.29000 65.6400   1
  -1  31 -13 -3.2600 51.5900   1
   1  31 -13 -45.690 45.8700   1
  29  13  11 66.5500 43.3500   1
  13  29 -11 41.0200 39.7000   1
  11  29 -13 33.8800 47.8600   1
  13  11  29 73.7200 55.2300   1
  29 -13  11 43.0700 54.4900   1
  29  -1  17 264.300 51.0700   1
  29  17   1 245.930 46.5400   1
  29  17  -1 278.070 56.3400   1
  29   1 -17 156.590 67.1300   1
  31 -11   7 201.040 58.4800   1
  31  -7 -11 176.360 49.1500   1
  29  -1 -17 223.480 67.4700   1
  31 -11  -7 181.330 48.3800   1
  29 -17   1 226.490 57.5500   1
  11  13  29 -4.8200 78.9000   1
  29 -17  -1 265.300 59.7300   1
  13  29  11 222.830 70.2400   1
  11  29  13 65.5200 73.5600   1
  11   7 -31 200.900 52.3000   1
   7  31  11 183.180 48.3300   1
  11  31   7 192.910 49.9600   1
  -1  31  13 -25.770 74.9500   1
   1  31  13 51.6400 57.9800   1
  13  31  -1 34.5100 60.1800   1
  13  31   1 15.0700 67.8900   1
  31   1  13 -11.840 55.0700   1
  31  -1  13 49.2900 57.4700   1
  31  13  -1 95.3800 44.1400   1
  31   1 -13 -100.12 45.5900   1
  31   7 -11 78.3900 57.4800   1
  31  11  -7 188.210 56.5800   1
  31  -7  11 251.780 57.2500   1
  31   7  11 300.410 43.7900   1
  31  11   7 214.450 62.2800   1
  11  31  -7 122.300 44.6400   1
  14   6 -30 402.570 47.5400   1
  14   6  30 344.370 69.1600   1
  18  18  22 312.110 81.4400   1
  18  18 -22 423.730 58.9300   1
  18  18  22 339.510 61.7100   1
  30   6 -14 402.290 60.7400   1
  30  -6 -14 418.880 52.7400   1
  30 -14  -6 583.340 70.3400   1
   6  30  14 411.980 62.0400   1
  14  30   6 439.770 55.9500   1
  18  22  18 424.710 70.7900   1
  22  18  18 309.890 64.2400   1
  18  22 -18 398.510 57.4300   1
  22  18 -18 387.360 54.3400   1
   6  30  14 330.530 64.4200   1
  18  22  18 433.930 60.0700   1
  14  30  -6 363.880 47.4000   1
  30   6  14 394.420 61.1300   1
  30  14   6 282.360 47.5700   1
  30  -6  14 454.550 53.0200   1
  30  14  -6 424.780 48.3600   1
  30 -14   6 341.760 60.5300   1
  13  31   3 65.3300 49.8200   1
  13  31  -3 -38.050 44.5400   1
  31   3  13 147.960 58.8900   1
  31  13   3 104.870 55.0500   1
  31  -3  13 93.7200 50.0800   1
  31  13  -3 174.860 57.2300   1
  31   3 -13 -56.330 57.8200   1
  31 -13   3 76.0800 42.8700   1
  31  -3 -13 188.710 66.9500   1
  31 -13  -3 184.980 57.1800   1
  -3  31 -13 13.7100 50.9200   1
   3  31  13 94.6100 58.6900   1
   3  31 -13 78.6400 48.3600   1
   5  33   5 392.340 72.8900   1
   5  33  -5 250.210 62.7200   1
  33  -5   5 204.580 52.4000   1
  33   5  -5 316.710 48.0400   1
  33  -5  -5 304.760 47.4300   1
  29  -3 -17 658.350 55.7400   1
  29 -17   3 663.940 67.2300   1
  29   3 -17 520.610 70.1800   1
  29  17  -3 491.350 58.4100   1
  29  17   3 601.530 58.5300   1
  29  -3  17 733.640 62.7700   1
  29   3  17 581.280 48.0600   1
  17  29  -3 591.160 68.0300   1
  17  29   3 585.680 72.3800   1
  17   3  29 570.090 59.0800   1
   3  29  17 765.100 92.1600   1
   5  33   5 372.070 59.0900   1
   5  33  -5 227.180 54.6700   1
  -1  33   7 -23.620 64.2300   1
  -1  33  -7 -44.750 53.3100   1
   1  33  -7 28.5200 58.5000   1
   1  33   7 46.8600 79.0900   1
   7  33  -1 108.620 63.2000   1
   7  33   1 -43.460 74.8200   1
  33   1   7 41.4500 42.5100   1
  33  -1   7 156.310 58.4100   1
  33   7   1 123.290 62.9200   1
  33   7  -1 -17.800 54.4400   1
  33  -7   1 -24.180 61.3100   1
  33   1  -7 41.4300 64.0800   1
  33  -7  -1 -56.400 61.7600   1
  33  -1  -7 -102.73 45.3500   1
  -1  33   7 -15.450 43.4900   1
   1  33   7 -4.4300 65.9700   1
  -1  33  -7 77.5700 40.8200   1
   1  33  -7 -48.860 57.4600   1
   7  33   1 -4.6200 45.4900   1
   7  33  -1 -6.1100 44.4600   1
   7  27  19 337.410 65.6900   1
  15  25  17 3.96000 56.9700   1
  17  15  25 -58.830 58.2700   1
  15  17  25 -26.690 56.8600   1
  25  15 -17 33.5000 53.1200   1
  15  17 -25 49.1700 50.0100   1
  15  25 -17 -39.480 51.0400   1
   3  29 -17 586.100 55.9700   1
   3  29  17 714.040 70.3500   1
  29 -17  -3 453.630 72.1000   1
  25  15  17 51.0000 65.1300   1
  15  25  17 -61.080 56.0200   1
  19  27   7 429.810 52.4400   1
  27   7  19 529.080 57.9700   1
  19  27  -7 360.000 54.5900   1
  27  19   7 329.280 67.0300   1
  27  19  -7 481.660 57.3000   1
  27   7 -19 487.690 59.9300   1
  27 -19   7 358.620 59.4500   1
  17  15  25 90.7900 67.4700   1
   7  27  19 262.620 58.7000   1
  15  17  25 -45.580 69.0800   1
  33   5   5 409.900 61.4000   1
  23  23   9 176.700 48.7000   1
  23  23  -9 60.3000 51.5000   1
  13   3  31 87.2700 60.4600   1
   3  31  13 37.9100 73.8800   1
  13  23  21 294.870 58.0700   1
  21  13  23 397.640 72.5400   1
  13  23  21 214.320 60.1000   1
  13  21  23 287.660 84.5500   1
  23  21  13 416.010 62.0300   1
  19   7 -27 256.010 63.4800   1
  19   7  27 360.260 56.3400   1
   7  19  27 475.400 88.5300   1
  11  27  17 -9.3600 66.4600   1
  21  13  23 300.120 53.1200   1
  17  11  27 -18.930 46.8600   1
  13  21  23 277.060 64.2600   1
  21  13 -23 264.300 46.0800   1
  23  13 -21 342.630 62.6800   1
  11  27  17 -3.8400 84.3200   1
   9  23  23 179.460 65.4900   1
  23   9 -23 151.740 61.9800   1
  23  21 -13 376.420 46.0500   1
  21  23 -13 343.380 53.1200   1
  23   9  23 132.170 65.9100   1
   9  23  23 19.2700 76.3200   1
  11  17  27 -68.960 58.0800   1
  17  11 -27 -25.250 57.3000   1
  27  11 -17 -32.160 61.8200   1
  27  17 -11 -5.8800 62.0700   1
  17  27 -11 6.88000 56.3600   1
  17  25  15 99.8100 74.2500   1
  25  17  15 144.770 46.4200   1
  17  25 -15 6.79000 37.0400   1
  25  17 -15 182.670 60.7500   1
  27  17  11 -53.470 55.0900   1
  27  11  17 43.8500 60.8600   1
  17  27  11 -17.630 50.6100   1
  11  17  27 -31.790 83.3200   1
  17  11  27 -10.380 64.1200   1
  21  23  13 307.580 71.0500   1
  23  13  21 226.960 49.3900   1
  28  10  16 -78.070 59.6500   1
  20  16 -22 -80.350 50.0000   1
  16  20 -22 21.1400 44.4500   1
  22  16  20 3.11000 60.8700   1
  20  22  16 52.7900 49.7800   1
  22  20  16 69.6700 68.3000   1
  22  20 -16 119.090 50.6100   1
  20  22 -16 118.290 56.8200   1
  16  22 -20 68.6900 43.7400   1
  10  28  16 -64.320 56.0600   1
  16  10  28 -78.850 53.5200   1
  16  10 -28 72.4800 57.4200   1
   4  32  10 63.6300 66.5800   1
  -4  32 -10 127.950 47.4900   1
  32 -10  -4 97.7400 65.2100   1
  28  10 -16 -6.8700 54.5800   1
  28 -16  10 -13.120 46.6900   1
  28  16 -10 -17.790 60.4500   1
  32  -4 -10 131.860 65.8400   1
  32   4 -10 68.0600 57.8800   1
  32 -10   4 205.860 53.0200   1
  32  10  -4 144.560 64.5900   1
  32  -4  10 150.780 57.5300   1
  32  10   4 161.140 56.9400   1
  32   4  10 74.1500 42.1700   1
  10  32  -4 128.300 69.1200   1
  28  16  10 72.0700 62.7000   1
  10  32   4 114.450 65.5700   1
  16  22  20 169.480 62.5600   1
  16  20  22 71.9100 52.7700   1
  22  16 -20 36.6500 50.5900   1
  10  16  28 -41.710 82.8100   1
  16  10  28 -21.370 52.4100   1
  10  28  16 -42.760 83.2400   1
  16  28  10 -10.460 50.3100   1
  16  28 -10 4.59000 48.5300   1
  20  16  22 84.5600 70.2900   1
  16  20  22 24.1500 54.6700   1
  16  22  20 31.8700 81.4200   1
   8  20  26 94.0300 59.9100   1
   8  26  20 90.5700 77.6400   1
  20   8  26 42.1900 61.4500   1
  20  26   8 43.5600 60.8000   1
  26   8  20 51.3800 59.5200   1
  26  20   8 53.8500 56.1600   1
  20  26  -8 83.5500 52.4600   1
   4  32  10 124.670 58.8600   1
  26  20  -8 16.8200 53.1900   1
  26   8 -20 64.9800 45.9800   1
  26 -20   8 -19.980 55.3200   1
   8  20  26 -14.050 42.9200   1
   8  26  20 0.39000 65.1500   1
  20   8  26 -9.8500 43.5700   1
   4  32 -10 238.130 59.0700   1
  10  32   4 92.8900 47.8400   1
  20  16  22 74.9400 52.5800   1
  18  26  12 11.5000 50.2500   1
  12  26  18 302.400 83.7600   1
  18  26 -12 110.250 49.1400   1
  10  30 -12 -21.760 49.1100   1
  12  30  10 73.3300 55.3900   1
  10  30  12 -55.850 79.7200   1
  18   6  28 861.890 74.5600   1
   6  28  18 1032.59 87.1900   1
   6  18  28 1021.73 79.8700   1
  26  18  12 -19.550 55.0900   1
  26  12  18 163.700 54.3800   1
  28   6 -18 803.080 54.3100   1
  18  12  26 15.8000 64.4700   1
  18  28   6 742.410 56.4300   1
  30  10 -12 -33.740 62.0300   1
  12  10 -30 34.9400 55.7300   1
  12  10  30 102.380 77.2700   1
  28  -6  18 1040.69 65.6200   1
  28  18   6 865.880 70.9500   1
  28   6  18 852.930 52.6700   1
  26  18 -12 50.1600 61.3700   1
  18  28  -6 815.230 60.3300   1
  10  12  30 -78.470 55.7800   1
  28  18  -6 997.610 69.8200   1
  28 -18   6 813.130 60.1300   1
  18   6 -28 774.730 68.0400   1
   6  28  18 693.210 54.1200   1
  30 -12 -10 81.6000 49.8100   1
  30 -10 -12 76.3400 63.1600   1
  26  12 -18 34.6500 54.3800   1
  18  12 -26 104.290 51.2100   1
  12  18  26 258.320 62.1600   1
  18  12  26 77.5300 48.6100   1
  12  26  18 162.430 48.5300   1
  10  30  12 131.700 59.0900   1
  12  30  10 0.51000 57.2600   1
  30 -12  10 51.3700 56.3500   1
  30  12 -10 144.640 63.4600   1
  30 -10  12 34.3100 54.4600   1
  30  10  12 -9.2100 41.8900   1
  30  12  10 -49.460 52.9200   1
  12  30 -10 21.7300 40.4300   1
  12  18  26 52.8300 57.4800   1
  21   9  25 14.0300 50.1100   1
   9  25  21 -83.110 54.8500   1
   9  21  25 71.6300 43.7900   1
  25  21   9 -34.400 55.3200   1
  21  25   9 -78.930 48.2500   1
  25   9 -21 29.2300 62.6700   1
  21   9 -25 -84.370 61.1800   1
  21  25  -9 -44.400 57.3700   1
  25  21  -9 117.510 59.1400   1
   3  33   7 13.4400 70.8600   1
   3  33  -7 44.0700 68.7800   1
   7  33   3 77.8500 67.4100   1
   7  33  -3 154.910 51.4100   1
  33   7   3 32.2500 54.6000   1
  33   3   7 116.390 52.5800   1
  33  -3   7 153.000 58.1600   1
  33   7  -3 104.390 44.3800   1
  33   3  -7 50.6200 65.4400   1
  25   9  21 -63.440 44.1300   1
  33  -7   3 33.4500 59.7900   1
  33  -7  -3 50.0700 44.4500   1
  33  -3  -7 -2.9600 63.5500   1
  -3  33  -7 75.9200 57.0100   1
   3  33   7 102.010 67.4800   1
   3  33  -7 58.3500 61.2500   1
   7  33   3 186.470 65.0300   1
   7  33  -3 159.250 54.9000   1
   9  15  29 155.370 81.4700   1
   9  25  21 82.9900 87.9200   1
  21   9  25 33.9400 62.8500   1
   9  29  15 138.640 48.4300   1
  15   9 -29 139.770 51.8100   1
  29 -15   9 111.540 55.6700   1
  29   9 -15 -74.230 63.3000   1
  29  15  -9 77.2000 44.6300   1
  29  -9  15 84.8600 55.5900   1
  29   9  15 46.5200 59.8600   1
  15  29  -9 47.6600 40.1800   1
  15  29   9 91.4500 73.8600   1
   9  29  15 108.340 74.4700   1
  15   9  29 192.470 78.5600   1
  32   8  -8 532.180 56.8900   1
   8  32  -8 487.000 67.2000   1
  32  -8   8 425.320 63.8200   1
  24   0  24 929.730 84.8300   1
  32  -8  -8 498.900 73.9300   1
   8  32   8 396.110 54.7000   1
  24   0 -24 748.790 76.1400   1
  32   8   8 512.170 68.2600   1
  24  24   0 817.850 66.0700   1
  19  25 -13 132.400 57.6300   1
  29   5 -17 1029.36 88.8400   1
  31  13  -5 314.830 60.1500   1
  17   5 -29 947.610 84.0600   1
  29  -5 -17 1129.86 101.140   1
   5  29  17 980.040 89.1000   1
  25  19 -13 48.9900 51.5200   1
  25  13 -19 201.460 55.6900   1
  13  19  25 112.740 61.8200   1
  13  25  19 159.980 66.4100   1
  19  13  25 83.6800 57.2100   1
  17  29  -5 1124.50 88.5100   1
  17  29   5 1114.40 99.0600   1
  17   5  29 1073.83 98.6600   1
   5  29  17 1116.94 117.100   1
  19  13 -25 237.990 53.9300   1
  29   5  17 1094.15 86.3300   1
  29  17   5 996.990 80.3600   1
  29  17  -5 1047.17 81.6300   1
  29 -17   5 978.860 83.5400   1
  13  31   5 335.560 77.4100   1
   5  31  13 251.820 87.4600   1
  13   5  31 126.450 65.6900   1
  29  -5  17 1100.11 85.7200   1
  31 -13   5 355.410 63.0500   1
  31   5 -13 201.060 59.5700   1
  31  -5 -13 310.530 52.9900   1
  31 -13  -5 216.880 49.3500   1
   5  31  13 224.830 62.2000   1
   5  31 -13 138.900 59.4900   1
  13  25  19 -75.750 59.7400   1
  19  13  25 213.700 70.3300   1
  19  25  13 286.790 66.4900   1
  25  13  19 113.520 46.2100   1
  25  19  13 93.6900 58.1400   1
  13  31  -5 245.220 58.1200   1
  31   5  13 275.880 60.8900   1
  31  13   5 221.100 57.1500   1
  31  -5  13 323.240 54.1600   1
  23   1  25 680.140 77.6600   1
  25  -1  23 713.350 76.4300   1
  25   1  23 598.290 65.9600   1
  23  25   1 559.220 57.4500   1
  23  25  -1 574.530 57.7800   1
  25  23   1 598.330 58.9800   1
  25  23  -1 540.550 57.0600   1
  25   1 -23 682.190 63.7200   1
  23   1 -25 454.470 73.0400   1
  25  -1 -23 754.310 68.9500   1
   0  30  16 10.7000 68.0500   1
  16  18  24 64.6500 55.5100   1
  18  16  24 3.74000 66.1800   1
  16  24  18 -51.160 78.7600   1
  18  24  16 3.77000 51.3000   1
  24  18  16 -24.550 59.4800   1
  24  16  18 4.95000 66.4700   1
  16  24 -18 0.76000 44.8600   1
  18  24 -16 -79.800 47.0600   1
  24  18 -16 -134.01 51.6900   1
  24  16 -18 31.4300 59.7500   1
  18  16 -24 -69.570 55.3000   1
  16  18  24 -26.800 61.2100   1
  18  16  24 -87.500 56.9600   1
   0  34   0 842.510 93.1800   1
  34   0   0 579.200 56.6300   1
   0  34   0 466.400 69.4400   1
  24   2  24 816.550 80.1000   1
   2  24  24 746.470 93.0400   1
  24  24  -2 741.120 63.8100   1
  16  24  18 31.3100 45.9000   1
  30   0  16 207.250 52.0900   1
  30 -16   0 93.5700 46.2300   1
  30   0 -16 152.610 61.5100   1
  30  16   0 225.060 63.9500   1
  24   2 -24 862.860 83.2700   1
  16  30   0 343.440 68.7400   1
  24  24   2 780.020 65.8700   1
  30  -2 -16 206.840 51.0800   1
  30 -16   2 314.330 59.9200   1
  30   2 -16 344.970 69.4600   1
  26   0 -22 287.080 52.9100   1
  26  22   0 303.360 48.5000   1
  26   0  22 257.560 45.4500   1
  30  16  -2 281.080 58.6400   1
  30  16   2 222.070 65.0400   1
  30  -2  16 433.460 63.0800   1
  30   2  16 381.190 56.2700   1
  16  30  -2 267.240 60.5600   1
  16  30   2 243.150 62.2800   1
  30 -14   8 238.440 52.4600   1
  30   8 -14 113.490 46.8700   1
  14   8 -30 180.980 53.0700   1
  30  -8 -14 120.340 62.2900   1
  34   0  -2 429.150 70.1200   1
  14  30   8 14.5100 67.0600   1
  14  30  -8 124.000 43.0300   1
  30   8  14 142.170 61.9600   1
  30  14  -8 230.220 64.9000   1
  -2  34   0 410.020 67.4100   1
   0  34  -2 559.530 83.2100   1
   0  34   2 572.560 77.3600   1
   2  34   0 604.100 79.8900   1
  34   2   0 455.940 69.7900   1
  34   0   2 427.110 68.4200   1
  34  -2   0 381.080 67.1800   1
  -2  34   0 362.640 59.0000   1
   8  30  14 113.650 48.1500   1
   0  34   2 338.400 60.9100   1
   0  34  -2 421.820 61.5600   1
   2  34   0 411.130 62.2000   1
  30  -8  14 102.260 57.3500   1
  22  24 -10 297.130 62.2600   1
  24  22 -10 226.570 54.0100   1
   2  30  16 287.280 63.6500   1
  24  10 -22 295.020 66.4400   1
  22  10 -24 288.360 58.8200   1
  10  22  24 224.260 57.5700   1
  10  24  22 113.990 46.6100   1
  22  10  24 232.020 43.8800   1
   2  30 -16 284.670 49.9300   1
   2  30  16 408.610 72.3500   1
  32   6 -10 229.890 59.2700   1
  32  10  -6 269.490 58.7100   1
   8  14  30 76.9900 74.8800   1
  30 -16  -2 256.620 68.0600   1
  14   8  30 166.160 68.2400   1
  10  22  24 123.600 76.8500   1
   6  32  10 286.890 84.9600   1
  10  32   6 194.880 69.8100   1
   6  32 -10 235.010 66.8700   1
  10  32  -6 236.170 59.1500   1
  10  24  22 271.110 89.4700   1
  32  -6  10 305.630 59.7500   1
  22  26   0 281.190 49.0700   1
  32  -6 -10 250.850 61.5700   1
  32 -10  -6 366.680 69.6000   1
  32  10   6 239.510 47.5900   1
  32   6  10 398.520 63.4900   1
  22  10  24 246.360 51.2600   1
  24  10  22 276.820 59.8400   1
  22  24  10 179.500 50.9700   1
  24  22  10 229.940 68.5800   1
   8  30  14 68.3200 60.9400   1
   6  32  10 113.150 66.9200   1
  10  32   6 180.270 66.6300   1
   6  32 -10 213.330 62.6800   1
  32 -10   6 208.290 60.3000   1
  23  25   3 480.740 55.8900   1
  25   3  23 433.560 69.3100   1
  23   3  25 447.610 71.7100   1
   3  25  23 528.440 80.5400   1
   3  23  25 337.580 75.1300   1
   7  33  -5 338.490 51.5700   1
   5  33  -7 305.740 63.2700   1
   7  33   5 275.840 60.4900   1
   5  33   7 331.840 61.7300   1
  33  -5  -7 247.910 60.0200   1
  33  -7  -5 357.430 51.6800   1
  33   5  -7 363.110 51.5800   1
  33  -7   5 390.420 63.9500   1
  33   7  -5 343.830 51.8400   1
  33  -5   7 295.700 61.8900   1
  33   5   7 435.250 67.2300   1
  33   7   5 386.270 50.6000   1
   7  33  -5 365.620 74.8200   1
   7  33   5 483.190 75.9400   1
   5  33  -7 388.950 73.8700   1
   5  33   7 339.110 77.5100   1
  19  21  19 374.390 52.3200   1
  19  19  21 377.000 50.9200   1
  21  19 -19 338.040 62.1600   1
  19  19 -21 496.390 58.8200   1
  19  21 -19 448.200 48.9900   1
   9  31  11 38.1000 56.6700   1
  21  19  19 427.200 57.0900   1
  19  21  19 523.690 83.4600   1
  19  19  21 505.740 74.0900   1
  11   9  31 134.690 73.1900   1
  11  31   9 -66.190 78.6700   1
   9  31 -11 135.600 60.0300   1
  11  31  -9 67.5000 52.3000   1
  31   9  11 26.2800 53.7700   1
  31  11   9 -41.390 60.8600   1
  31  -9  11 -5.9300 55.1600   1
  31  11  -9 47.1200 45.0400   1
  31 -11   9 136.460 41.2700   1
  31   9 -11 45.1400 63.3300   1
  11   9 -31 4.09000 49.0700   1
  31 -11  -9 13.0200 68.0700   1
  31  -9 -11 -12.900 49.2600   1
   9  31  11 -59.170 66.7600   1
  11  31   9 94.2700 47.4500   1
  23   3 -25 433.920 54.9100   1
  25   3 -23 429.910 71.8200   1
  25  23  -3 326.860 49.4800   1
  23  25  -3 392.970 61.0000   1
  25  23   3 467.050 54.9200   1
   2  26  22 98.5800 58.4200   1
  22   2  26 140.120 59.2800   1
  22   2 -26 227.080 49.9700   1
  26   2  22 254.500 55.9300   1
  26  -2  22 257.380 60.1800   1
  26   2 -22 129.010 48.3500   1
  26  -2 -22 263.590 55.9700   1
  34  -2   2 304.820 57.9000   1
  14  22  22 258.420 48.7300   1
  34  -2  -2 188.370 47.2600   1
  22  14 -22 334.780 48.4900   1
  22  22 -14 293.810 56.1500   1
  22  22  14 333.040 55.3100   1
  34   2   2 161.420 45.5700   1
   2  34  -2 238.240 56.6900   1
   2  34   2 346.810 72.5300   1
   2  34  -2 242.300 47.3100   1
  -2  34   2 222.630 64.5800   1
  -2  34  -2 326.020 72.7200   1
  34   2  -2 274.750 48.2800   1
  22  14  22 348.900 74.8100   1
  22  26   2 188.290 46.5200   1
  26  22  -2 215.730 46.4800   1
  26  22   2 191.990 47.5400   1
  22  26  -2 213.900 64.6200   1
   2  34   2 202.490 59.2000   1
  14  22  22 136.380 81.8100   1
  -2  34   2 256.540 47.1300   1
  -2  34  -2 276.440 64.2100   1
  24  24  -4 433.980 62.7300   1
  24   4 -24 551.620 66.3900   1
  32   0  12 9.13000 57.8600   1
   0  32  12 92.0700 56.0100   1
  24  24   4 410.730 53.8700   1
   0  32 -12 107.030 54.6000   1
  24   4  24 453.440 55.2700   1
  32 -12   0 36.4000 62.4900   1
  12  32   0 116.260 60.2600   1
   0  32  12 5.56000 46.8200   1
  32   0 -12 16.8900 57.5200   1
  32  12   0 18.2300 43.8400   1
   4  24  24 417.950 85.8600   1
  19  27   9 57.6600 51.6800   1
  27   9  19 97.9000 54.0300   1
  19  27  -9 39.6600 42.3900   1
  27  19   9 174.800 48.0000   1
  27  19  -9 31.8200 61.1400   1
  27   9 -19 64.6500 45.4000   1
  19   9 -27 95.6400 44.2600   1
   9  27  19 85.1200 66.8800   1
  21  21  17 137.860 64.5200   1
  21  21 -17 201.220 53.3400   1
  17  21 -21 96.8600 53.9300   1
  21  17 -21 64.6200 42.0500   1
  -1  33   9 21.2600 53.2000   1
   1  33   9 117.290 71.1300   1
   9  33   1 204.840 66.9800   1
   9  33   1 -91.340 55.1400   1
   9  33  -1 -4.9800 62.1400   1
  33   1   9 71.6200 57.9200   1
   1  27  21 -140.18 55.6400   1
  33   9   1 111.430 55.7500   1
  33  -1   9 36.9700 49.9500   1
  33   9  -1 120.290 45.7100   1
  33  -9   1 46.6600 53.5300   1
  17  21  21 178.820 64.2200   1
  33   1  -9 67.8600 46.0900   1
  33  -1  -9 43.5100 58.0900   1
  33  -9  -1 -107.92 62.8700   1
  -1  33   9 2.90000 55.7500   1
   1  33   9 66.1900 47.1900   1
  -1  33  -9 25.7600 48.9800   1
   1  33  -9 58.2800 49.9400   1
   9  19  27 72.9200 73.8800   1
  27  -1  21 -8.2900 49.7600   1
  27  -1 -21 -81.350 47.7000   1
  27   1 -21 88.3900 59.3400   1
  27  21  -1 73.3600 44.6800   1
  27  21   1 82.9100 55.3900   1
  17  21  21 73.5800 69.3100   1
  21  17  21 -22.430 71.4100   1
  21  27  -1 71.4900 63.0100   1
   9  33  -1 89.3000 46.4800   1
  27   1  21 -30.790 40.2000   1
  21  27   1 -69.680 56.2400   1
   9  27  19 123.480 86.8500   1
  19   9  27 10.3600 64.7100   1
  34   0   4 1.92000 60.4600   1
  34   4   0 117.950 44.8700   1
   4  34   0 147.610 68.3600   1
   0  34   4 241.650 70.1200   1
   0  34  -4 106.120 51.8500   1
  -2  32 -12 44.6500 44.3700   1
   2  32  12 13.3900 47.5100   1
   2  32 -12 1.22000 49.3800   1
  32  -2 -12 19.1900 67.3800   1
  32 -12   2 -31.430 61.2800   1
  32   2 -12 -63.020 47.0800   1
  24  20  14 181.820 69.2900   1
  24  14  20 75.1700 58.9800   1
  20  24  14 68.0500 72.5100   1
  20  14  24 185.030 65.5300   1
  14  24  20 252.630 78.1600   1
  14  20  24 100.010 70.5900   1
   4  30  16 733.300 92.0000   1
  16   4  30 783.400 90.1100   1
  28  18  -8 383.160 60.4600   1
   8  28  18 359.810 64.9700   1
  18   8 -28 383.690 51.7100   1
  28 -18   8 423.860 50.9000   1
  28   8 -18 527.330 65.8600   1
   4  30  16 619.850 78.7200   1
  18   8  28 388.510 80.5200   1
  18  28   8 533.710 61.1300   1
  18  28  -8 473.530 67.4100   1
  28   8  18 417.750 66.5600   1
  28  18   8 280.090 50.1500   1
  20  14  24 92.5500 56.8400   1
  30   4 -16 830.730 81.8100   1
  14  24  20 173.220 46.7100   1
  14  20  24 133.700 61.2700   1
  20  14 -24 188.730 54.0900   1
  24  14 -20 222.090 62.1200   1
  24  20 -14 194.890 45.0800   1
   4  30 -16 581.810 67.3700   1
  30  -4  16 694.550 59.3100   1
   8  28  18 286.030 92.6000   1
  20  24 -14 130.720 42.1200   1
  30  16   4 951.320 71.0900   1
  30   4  16 832.990 76.4400   1
  32  12  -2 19.1400 55.1300   1
  32 -12  -2 -65.400 45.4500   1
  32  12   2 -76.730 54.4200   1
  32  -2  12 59.1400 51.2800   1
  32   2  12 -91.790 55.5500   1
  12  32  -2 40.5500 68.6500   1
  12  32   2 31.9400 51.0300   1
   2  32  12 14.0000 81.5700   1
  16  30  -4 743.390 72.7400   1
  16  30   4 648.410 65.1800   1
  30  16  -4 653.930 68.1500   1
  30 -16   4 814.330 73.2300   1
  30  -4 -16 856.310 86.8500   1
   8  18  28 569.260 92.3200   1
  34   0  -4 219.120 58.3800   1
  34  -4   0 8.82000 54.8900   1
   0  34   4 65.7600 56.6500   1
   0  34  -4 58.6400 52.7800   1
   4  34   0 170.910 64.1200   1
  20  26 -10 19.6700 57.7800   1
  26  20  10 -22.040 45.7600   1
  26  10  20 24.0900 44.6100   1
  20  26  10 -45.890 49.3800   1
  20  10  26 70.9900 51.1600   1
  10  26  20 50.3700 86.4200   1
  10  20  26 -14.750 74.3600   1
  20  10  26 -22.880 53.9100   1
   4  22  26 92.4700 70.7800   1
   4  26  22 100.870 62.3000   1
  22   4  26 82.2100 49.8800   1
  26   4  22 33.5100 60.8400   1
  22  26   4 83.1500 46.3200   1
  26  22   4 51.9900 58.2600   1
  22  26  -4 -25.180 61.9900   1
  26  22  -4 53.9400 44.7100   1
  26   4 -22 -38.900 57.1400   1
  22   4 -26 1.88000 63.3500   1
  26 -22   4 28.0200 63.5600   1
  14  28  14 84.0200 48.1000   1
  14  14  28 77.0600 41.4400   1
  14  14 -28 -2.4300 53.2400   1
  28  14 -14 47.5800 55.4900   1
  28  14  14 20.0400 44.2300   1
  14  28 -14 7.96000 46.6000   1
  14  28  14 40.8900 80.2500   1
  14  14  28 217.380 71.7700   1
   4  34  -2 68.3500 63.0900   1
  10  26  20 -33.950 45.9900   1
  10  20  26 -16.400 52.9100   1
  20  10 -26 -22.980 42.8600   1
  26  10 -20 -101.95 62.8000   1
  26  20 -10 55.8800 61.1000   1
  -2  34   4 242.390 73.5000   1
   2  34   4 -35.920 69.4300   1
   2  34  -4 201.030 53.9800   1
   4  34   2 105.730 70.4700   1
   4  34  -2 -42.050 63.3400   1
  34   2   4 28.8400 43.3900   1
  34   4   2 18.8700 61.4000   1
  34   4  -2 -147.59 63.2600   1
  34  -2   4 172.490 54.2800   1
  34   2  -4 -39.770 54.6100   1
  34  -4   2 -16.630 43.4300   1
  34  -4  -2 116.820 55.1900   1
  34  -2  -4 77.4000 55.2800   1
  -2  34   4 -10.360 54.5700   1
  -2  34  -4 0.00000 50.2300   1
   2  34   4 -0.8700 57.0400   1
   2  34  -4 68.2800 53.6400   1
   4  34   2 45.0100 64.4400   1
   3  33   9 -40.740 73.2500   1
  31   7 -13 101.760 58.8900   1
  31 -13   7 153.980 59.4200   1
  13   7 -31 191.170 54.4500   1
  -3  33  -9 7.36000 47.5800   1
  33  -3  -9 9.18000 57.5300   1
  33  -9   3 8.93000 52.6300   1
  33   9  -3 44.6600 56.9100   1
  33  -9  -3 79.7800 45.5200   1
  33  -3   9 -74.270 39.1600   1
   3  33   9 41.6600 56.1900   1
  33   9   3 25.0200 54.2200   1
   3  33  -9 2.85000 41.4100   1
   9  33   3 7.26000 63.8700   1
   9  33  -3 96.6500 57.1200   1
  31  13  -7 99.6400 45.0900   1
  13  29  13 24.7700 47.1800   1
  31  -7  13 154.380 50.6600   1
  31  13   7 184.410 46.0400   1
  31   7  13 234.220 61.5700   1
  13  31  -7 250.370 58.5700   1
  13  31   7 130.150 69.3400   1
   7  31  13 438.100 90.6300   1
  13   7  31 252.520 68.1400   1
  33   3   9 -19.230 58.3200   1
  15  15  27 74.3300 57.3100   1
  15  15 -27 36.5700 52.5300   1
  31  -7 -13 279.510 62.6400   1
  31 -13  -7 106.520 48.7500   1
   7  31  13 191.180 49.8000   1
  13  31   7 113.680 68.9400   1
  29   7  17 731.180 74.6000   1
  19  17  23 35.0300 51.1600   1
   3  27  21 -36.630 59.1500   1
  21   3  27 114.240 60.7700   1
  21  27   3 139.010 59.0400   1
  27   3  21 -0.5600 42.0200   1
  27  -3  21 8.17000 55.1400   1
  19  23 -17 118.370 48.0900   1
  15  15  27 78.1000 56.5000   1
   5  25  23 82.4400 76.6200   1
   5  23  25 262.500 78.0000   1
  23   5  25 142.860 58.8200   1
  25   5  23 196.340 57.4200   1
  21  27  -3 -12.190 54.7400   1
  27  21   3 -97.020 64.4500   1
  27  21  -3 -10.650 53.4200   1
  27   3 -21 -6.8900 47.7100   1
  21   3 -27 121.650 65.6200   1
  27 -21   3 -52.440 44.7300   1
  27  -3 -21 7.19000 52.8200   1
  11  23  23 494.200 63.9200   1
  23  11 -23 586.030 71.4700   1
  23  23 -11 465.990 60.6400   1
  23  23  11 598.900 76.9100   1
  23  11  23 602.910 77.1800   1
  11  23  23 532.530 71.3900   1
   7  29  17 634.010 63.2600   1
  29  -7 -17 622.280 67.6200   1
  17   7 -29 816.000 66.4300   1
  23  25   5 175.740 49.6000   1
  25  23   5 207.230 59.9700   1
  23  25  -5 117.800 62.5800   1
  25  23  -5 302.750 56.8700   1
  25   5 -23 146.060 57.9200   1
  23   5 -25 146.230 64.6900   1
  25 -23   5 163.280 56.7600   1
  33   3  -9 -51.580 65.3600   1
  13  13  29 26.6800 38.6200   1
  29  13 -13 26.5200 63.0500   1
  29  13  13 -31.810 43.9000   1
  13  29 -13 -32.680 47.2000   1
  13  29  13 236.280 80.8700   1
  13  13  29 36.4700 70.5800   1
  17  19  23 99.7700 55.2200   1
  17  23  19 -17.810 56.0900   1
  19  17  23 5.03000 76.3800   1
  19  23  17 97.7900 77.9800   1
  23  17  19 29.3000 61.6100   1
  23  19  17 64.5900 68.0900   1
  17  23 -19 118.260 53.9200   1
   9  33  -3 4.92000 70.8300   1
  17  19 -23 28.2000 46.4600   1
  23  19 -17 114.230 59.1100   1
  19  17 -23 -42.660 55.9700   1
  23  17 -19 19.1400 41.1100   1
  17  19  23 137.220 51.9400   1
  17  23  19 91.0400 64.0700   1
  29 -17   7 807.900 77.8800   1
  29   7 -17 775.690 66.2900   1
  29  17  -7 785.490 64.3100   1
  29  -7  17 867.350 71.3600   1
  29  17   7 804.540 74.7100   1
   7  17  29 737.670 84.4700   1
   7  29  17 718.120 100.820   1
  17   7  29 648.190 82.0600   1
  17  29   7 792.640 79.3700   1
  17  29  -7 681.070 60.4200   1
   9  33   3 -23.980 74.0500   1
  15  27  15 41.0600 57.4100   1
  27  15 -15 32.2000 43.4100   1
  15  27 -15 -110.38 45.7200   1
  27  15  15 69.5600 44.6200   1
  15  27  15 43.1700 80.8400   1
  28  12  16 31.5100 61.3500   1
  28  16  12 104.230 57.4300   1
  28  16 -12 -0.6100 43.0400   1
  28  12 -16 40.3200 62.6100   1
  16  12 -28 -14.800 50.0700   1
  12  16  28 17.1100 50.1800   1
  16  12  28 -50.500 47.2000   1
  12  28  16 -131.21 57.3700   1
  28 -20   0 86.9400 70.8100   1
  28   0 -20 -11.840 59.9400   1
  28   0  20 45.5700 57.5100   1
  20  28   0 48.1400 55.7300   1
  32   4 -12 58.9400 58.0700   1
  32 -12   4 13.3600 53.6200   1
  28  20   0 116.290 63.0900   1
   4  32  12 121.120 74.4200   1
  12  32   4 176.680 67.0200   1
  32  -4  12 75.2900 50.1600   1
  32  12   4 146.760 56.3500   1
  32   4  12 92.4100 52.3000   1
  12  32  -4 38.3800 66.2400   1
  12  32   4 68.4800 74.7500   1
   4  32 -12 100.610 50.5200   1
   4  32  12 142.420 47.4300   1
  12  16  28 -51.480 80.9500   1
  16  12  28 31.1100 55.4100   1
  32 -12  -4 130.230 65.1000   1
  12  28  16 -51.490 57.5500   1
  16  28  12 128.580 69.7500   1
  16  28 -12 28.0300 47.7300   1
  32  -4 -12 201.290 59.9000   1
  31  -1 -15 85.0000 49.6600   1
  31 -15  -1 43.7400 46.0500   1
   1  31  15 108.750 68.7500   1
   1  31 -15 58.3500 52.0900   1
  11  21  25 248.940 79.4100   1
  11  25  21 290.670 79.1500   1
  21  11  25 162.800 72.9200   1
  25  11  21 274.480 60.7700   1
  21  25  11 312.100 66.3300   1
  25  21  11 250.650 50.2400   1
  21  25 -11 278.570 55.0600   1
  25  21 -11 162.350 44.7300   1
  25  11 -21 245.350 65.0800   1
  21  11 -25 371.840 50.3500   1
  11  25  21 274.550 67.4100   1
  21  11  25 204.630 50.1200   1
  11  15  29 -27.910 81.5200   1
  15  11  29 -35.140 68.8500   1
  11  29  15 -82.580 56.8900   1
  15  29  11 143.610 78.6500   1
  15  29 -11 11.9000 39.5900   1
  29  11  15 60.0000 61.8800   1
   7  33   7 590.840 69.4800   1
   7  33  -7 509.330 69.3700   1
  33   7   7 357.060 49.9900   1
  33  -7   7 324.500 55.9500   1
  33   7  -7 436.830 54.4800   1
  33  -7  -7 436.750 55.5400   1
   7  33   7 442.540 73.7800   1
   7  33  -7 318.580 50.6000   1
  13  17  27 -34.420 56.5200   1
  17  13  27 3.63000 53.5400   1
  13  27  17 68.2700 57.8300   1
  17  27  13 -125.45 65.9800   1
  27  13  17 -105.23 61.3100   1
  13  27 -17 19.6300 50.7600   1
  27  17  13 -12.780 56.2800   1
  17  27 -13 -5.6300 55.8000   1
  27  17 -13 18.3400 43.8100   1
  27  13 -17 15.4400 54.8000   1
  17  13 -27 -10.130 45.9500   1
  13  17  27 60.8800 51.5200   1
  17  13  27 41.8100 48.5700   1
  13  27  17 -16.070 46.2700   1
  15  29  11 151.590 69.6300   1
  11  29  15 125.590 67.9100   1
  15  11  29 21.9100 46.7100   1
  15  11 -29 -34.710 57.7300   1
  29  11 -15 28.0000 54.6500   1
  29  15 -11 25.8700 61.6700   1
  29  15  11 33.4900 63.0800   1
  11  21  25 238.430 57.6200   1
  15  31   1 35.5000 48.1800   1
  15  31  -1 -57.350 64.9400   1
  31   1  15 -21.840 50.3200   1
  31  -1  15 14.1800 40.1100   1
  31  15   1 -37.170 44.2100   1
  31  15  -1 -3.4900 44.6000   1
  31   1 -15 31.5300 59.0700   1
  31 -15   1 2.44000 55.8200   1
  32 -10   8 126.050 58.7400   1
   8  32 -10 112.070 57.3300   1
   8  32  10 87.6600 82.0900   1
   4  34   4 -9.9700 78.2800   1
  34   4   4 36.2500 54.4400   1
  34   4  -4 -99.820 63.4800   1
  32   8 -10 183.210 57.9800   1
  10  32  -8 20.6100 55.5200   1
  34  -4   4 11.5900 42.3900   1
  10  32   8 140.810 70.7300   1
  34  -4  -4 -11.610 63.6600   1
  32  10   8 110.100 54.9700   1
  32   8  10 25.4800 60.2000   1
  32  -8  10 117.190 51.4300   1
  32  10  -8 140.970 47.1200   1
  32 -10  -8 132.490 67.0600   1
  32  -8 -10 52.0600 47.8900   1
   8  32  10 32.6200 67.8100   1
  10  32   8 114.020 59.4000   1
   4  34  -4 -19.670 71.8600   1
   4  34  -4 59.1900 62.6400   1
   4  34   4 -95.640 62.9500   1
  30  12  12 50.3300 54.2300   1
  16  26  16 258.180 73.8000   1
  26  16  16 -44.380 44.2100   1
  12  30  12 75.1800 59.3300   1
   6  24  24 164.270 47.1100   1
  20  28  -2 128.750 45.5700   1
  28  -2 -20 5.50000 50.5800   1
  28 -20   2 129.720 58.2400   1
  16  26 -16 30.1200 46.1500   1
  16  16  26 4.07000 78.8200   1
  28   2 -20 62.1100 59.7100   1
  28  20  -2 59.2000 62.8900   1
  28  20   2 105.020 64.9900   1
  28  -2  20 108.160 58.9700   1
  26  16 -16 51.7600 43.5300   1
  16  16 -26 -4.8600 54.1700   1
  16  16  26 -26.250 40.7400   1
  16  26  16 -13.470 67.2900   1
  30  12 -12 93.3500 46.3100   1
  12  30 -12 34.5000 56.1700   1
  20  28   2 95.8200 66.2600   1
  12  30  12 -12.380 57.2700   1
  12  12  30 -53.470 56.3800   1
   6  24  24 192.460 88.2400   1
  24   6  24 170.190 66.0700   1
  24  24   6 371.470 63.6500   1
  30 -12  12 -47.690 47.2700   1
  24  24  -6 272.240 63.3800   1
  24   6 -24 199.050 66.4400   1
   6  34   0 32.8300 44.4300   1
   0  34  -6 8.17000 51.8500   1
   0  34   6 45.3700 55.5900   1
  34  -6   0 104.580 45.0300   1
  34   6   0 -148.34 61.6700   1
  34   0   6 19.8300 58.4000   1
   6  34   0 25.4400 74.4900   1
   0  34  -6 108.070 68.5800   1
   0  34   6 174.750 71.9700   1
  34   0  -6 6.91000 56.4800   1
   6  30  16 778.620 75.3400   1
  16  30  -6 893.800 81.3300   1
  30 -16  -6 798.120 71.1100   1
  16   6 -30 854.870 75.0700   1
  30  -6 -16 904.960 74.4300   1
   6  30  16 1038.36 100.470   1
  16  30   6 869.640 84.0900   1
  30 -16   6 748.120 76.7200   1
  30   6 -16 878.730 84.0900   1
  30  16  -6 806.620 78.8200   1
  30  -6  16 796.620 75.3500   1
  30  16   6 808.140 79.9400   1
  30   6  16 796.300 71.8200   1
  15  23 -21 86.5700 51.2300   1
  15  21  23 152.610 74.1500   1
  31  -3 -15 241.110 71.0600   1
  33   9   5 275.520 64.6900   1
  33   5   9 200.640 53.9900   1
   9  33  -5 180.480 70.2300   1
   9  33   5 256.750 70.1100   1
   5  33  -9 145.020 59.3400   1
  15  23  21 80.9300 73.5100   1
  31 -15   3 186.140 57.1100   1
  21  15  23 73.2200 70.9300   1
  23  15  21 217.860 70.1200   1
  31  15  -3 345.060 51.2600   1
  31   3 -15 221.740 69.5700   1
   3  31  15 249.040 68.9900   1
  31  -3  15 224.950 59.7100   1
  33  -5   9 170.420 43.3700   1
  31  15   3 202.980 65.6800   1
  33   9  -5 40.1800 56.3000   1
  33   5  -9 91.1400 65.9300   1
   3  31 -15 245.090 56.6100   1
  15  31  -3 267.180 61.3300   1
  21  15  23 -4.0300 59.5500   1
   5  33   9 197.180 85.7900   1
  15  23  21 100.390 56.0800   1
   5  33  -9 207.870 45.7200   1
   9  33   5 173.330 48.4600   1
   5  33   9 52.0100 57.5000   1
  33  -5  -9 170.620 68.1800   1
  33  -9  -5 222.490 59.5100   1
  33  -9   5 200.710 61.7200   1
  21  27   5 156.620 49.3100   1
  27   5  21 -1.8000 52.9300   1
  21  27  -5 67.5900 53.8100   1
  27  21   5 83.4100 65.3700   1
  27  21  -5 66.7700 63.6200   1
  31   3  15 206.810 59.6900   1
  31 -15  -3 308.400 68.2500   1
  27   5 -21 -20.670 56.9400   1
  21   5 -27 -35.110 64.3000   1
  21   5  27 -6.0900 69.8500   1
  15  21  23 93.7600 45.5900   1
  21  15 -23 61.6700 50.8200   1
  23  15 -21 146.580 44.1300   1
  15  31   3 169.490 72.4500   1
   3  31  15 256.780 63.7700   1
   5  27  21 17.9200 61.5900   1
   5  21  27 111.440 72.4300   1
  27 -21   5 76.6700 43.8000   1
   5  27  21 82.6800 67.0300   1
  23  21  15 69.6800 69.6200   1
  21  23  15 125.190 51.3400   1
  21  23 -15 169.540 57.7600   1
  18  14  26 -73.070 75.2200   1
  18  14 -26 -37.560 40.2600   1
  14  18  26 -36.920 52.9300   1
  18  14  26 -29.100 48.6200   1
  14  18  26 -176.08 80.2800   1
  22   6 -26 -119.89 54.8700   1
  22   6  26 15.8500 60.0400   1
  26   6  22 4.30000 63.0500   1
  22  26   6 -14.100 45.6700   1
  30 -10  14 92.1000 49.8000   1
  34   6   2 -97.700 44.1800   1
  26 -22   6 -17.400 52.7800   1
  26  22   6 37.9700 65.6700   1
  22  26  -6 45.7300 42.9800   1
  26  22  -6 50.3200 61.5800   1
  14  26  18 66.5400 65.8300   1
   6  26  22 35.8900 45.7300   1
  34   6  -2 -43.400 54.8600   1
  34  -6   2 -59.260 43.1700   1
  34   2  -6 -2.3200 56.2400   1
  34  -6  -2 81.0100 63.6100   1
   6  34  -2 -61.060 43.8100   1
  34  -2  -6 83.1800 57.2100   1
  -2  34   6 -22.890 56.9700   1
  -2  34  -6 24.9000 42.3200   1
  26  18 -14 81.6900 54.0700   1
   2  34   6 65.4100 46.0000   1
  26  14 -18 25.4400 55.1000   1
  18  26  14 92.6300 76.0900   1
  26  14  18 62.5300 65.4100   1
  26  18  14 -59.110 45.3600   1
   2  34  -6 10.3000 52.2300   1
  14  26 -18 -28.040 43.7000   1
  18  26 -14 72.3600 49.8800   1
   6  34   2 26.6800 58.4600   1
  26   6 -22 -161.88 63.8700   1
   6  26  22 -6.4400 63.4500   1
   6  22  26 28.4400 75.3700   1
  10  14  30 -128.63 79.3100   1
  30  14  10 -36.020 63.3900   1
  30  10  14 -2.0400 60.6700   1
  14  30 -10 -16.270 40.5900   1
  14  30  10 -45.390 78.9800   1
  10  30  14 169.880 83.2200   1
  14  10  30 0.53000 77.6600   1
  14  26  18 156.910 73.5300   1
  34  -2   6 4.18000 59.5100   1
  -2  34   6 75.9200 64.6800   1
  30  14 -10 -74.250 55.3000   1
  30  10 -14 0.25000 55.5500   1
  30 -14  10 -7.2700 47.7100   1
  14  10 -30 70.3700 56.7900   1
  10  30  14 11.8000 68.4900   1
   2  34  -6 47.0600 70.8600   1
   6  34   2 -74.960 67.3800   1
   6  34  -2 7.68000 61.6400   1
  34   2   6 60.3900 42.9300   1
  20   4 -28 324.160 67.8900   1
  20  20  20 218.350 48.2500   1
  20  20 -20 362.060 55.4800   1
  20  20  20 243.510 55.3300   1
  28   4 -20 302.580 63.6000   1
  20  28   4 353.340 73.7400   1
  20  28  -4 263.230 64.6800   1
  28  -4 -20 260.030 75.5400   1
  20   4  28 243.490 75.1800   1
   4  28  20 388.230 53.9200   1
  28   4  20 323.150 57.4000   1
  28  20  -4 225.950 65.6700   1
  28  20   4 293.280 61.6800   1
   4  28  20 331.340 66.8300   1
  28 -20   4 285.740 66.9900   1
  25   7 -23 121.610 56.1400   1
  17  25  17 32.5600 54.8100   1
  11  31  11 -61.150 47.0900   1
  31 -11 -11 53.0600 49.4000   1
  31  11 -11 50.2600 65.4900   1
  31 -11  11 19.4800 55.8000   1
  31  11  11 -17.240 61.3900   1
  11  31 -11 49.3200 58.6100   1
  11  31  11 -77.330 71.0700   1
  11  11  31 38.2800 78.7200   1
  17  17  25 -39.850 55.5300   1
  25  17  17 3.75000 59.2600   1
  17  25 -17 83.6700 46.8300   1
  25  17 -17 -54.000 61.2100   1
  17  17 -25 -24.480 47.6400   1
  17  17  25 -57.850 41.1600   1
  17  25  17 -34.320 58.2500   1
  23   7  25 205.680 61.3000   1
   7  25  23 42.8600 64.8200   1
   7  23  25 47.0100 45.7100   1
  23   7 -25 131.300 57.4200   1
  23  25  -7 23.5300 42.3600   1
  19  29   1 148.660 47.7500   1
  25  23   7 50.7200 66.2700   1
  23  25   7 162.380 58.5800   1
  25   7  23 65.0800 44.5500   1
   7  25  23 156.770 91.1300   1
   7  23  25 62.1700 62.5000   1
  29 -19  -1 79.3200 69.5300   1
   1  29  19 38.9200 70.4500   1
  19  29  -1 280.220 59.2900   1
  29 -19   1 239.170 68.6600   1
  29  -1 -19 214.150 51.4800   1
  29   1 -19 274.490 63.3100   1
  29  19  -1 228.220 57.5300   1
  29  19   1 217.490 47.8800   1
  29  -1  19 174.440 43.4800   1
  29   1  19 366.100 57.7300   1
  12   6  32 188.590 70.1400   1
   6  32  12 194.900 61.7800   1
  24  12  22 769.530 81.7600   1
  12  24  22 556.580 73.6900   1
  32 -12   6 37.3200 58.9800   1
  22  12  24 515.530 67.4100   1
  22  12  24 586.530 64.5700   1
  12  22  24 933.120 104.300   1
  24  22 -12 684.700 72.6500   1
  24  12 -22 689.490 75.0700   1
  22  12 -24 672.310 60.3000   1
  12  22  24 536.980 72.6400   1
  12  24  22 502.720 70.8400   1
  12   6 -32 121.850 63.5000   1
  32  -6 -12 188.430 60.5800   1
  32  12  -6 97.8800 56.7800   1
  32 -12  -6 140.100 66.7100   1
  32   6 -12 137.810 58.6500   1
  32  12   6 116.640 62.4600   1
  32  -6  12 110.270 41.4900   1
  32   6  12 162.400 53.6300   1
  12  32  -6 79.2100 65.6900   1
   6  32 -12 111.600 52.8800   1
  22  24 -12 770.660 62.0000   1
  12  32   6 -9.0400 47.6800   1
  22  24  12 578.220 80.0500   1
  12  32   6 25.3300 52.6300   1
   6  32  12 140.160 62.6800   1
  24  22  12 774.780 68.0500   1
  28  18 -10 68.0700 44.5700   1
  28  18  10 44.2900 57.1100   1
  18  28 -10 58.4800 51.0500   1
  28  10  18 57.7400 54.4300   1
  18  28  10 98.2500 51.8000   1
  10  28  18 158.860 88.0400   1
   6  34  -4 115.990 55.8300   1
  10  28  18 -57.250 67.4900   1
  28  10 -18 184.680 58.2800   1
   4  34   6 3.39000 80.9100   1
   4  34  -6 62.3500 71.7200   1
   6  34   4 48.3200 55.2200   1
   6  34  -4 -39.630 62.0400   1
  34   6   4 77.8800 54.1800   1
  34   4   6 50.0900 53.5800   1
  34   6  -4 72.5300 45.6000   1
  34   4  -6 1.84000 63.4800   1
  34  -6   4 6.42000 41.7100   1
  34  -6  -4 122.450 58.2200   1
  34  -4  -6 142.410 67.7200   1
   4  34   6 10.1000 44.9400   1
   6  34   4 -64.400 65.1200   1
   4  34  -6 103.930 43.6900   1
  18  22  20 120.980 80.7200   1
  22  20  18 192.130 72.5900   1
  18  20  22 189.340 57.8800   1
  18  10 -28 104.670 53.6000   1
  22  20 -18 105.840 51.4900   1
  20  18  22 173.700 55.8900   1
  18  22  20 196.010 63.7400   1
  18  20  22 74.7800 60.7500   1
  22  18 -20 119.450 52.3100   1
  20  18 -22 157.290 51.5200   1
  18  20 -22 71.2400 48.3100   1
  20  22 -18 56.8100 55.8500   1
  22  18  20 66.5300 60.9800   1
  20  22  18 76.3800 53.8200   1
  20  18  22 96.2900 65.7100   1
  10  18  28 -18.250 85.3200   1
  18  10  28 164.240 77.3300   1
  13   9  31 -24.160 68.3000   1
  13  31   9 68.9000 68.4200   1
   9  31  13 43.5400 66.8200   1
  31  -9 -13 -19.880 69.2300   1
  29  17  -9 349.480 60.5800   1
  29  17   9 369.580 52.7300   1
  31 -13  -9 5.63000 69.3300   1
  17  29  -9 317.090 56.7600   1
  29 -17   9 398.260 60.5900   1
  19  25  15 -71.930 75.3900   1
  31 -13   9 -4.7300 39.0800   1
  31  13  -9 23.9900 55.0700   1
   9  13  31 47.7100 65.3700   1
  31  -9  13 44.7400 56.5100   1
  25  19  15 86.0600 59.7100   1
  31  13   9 -56.570 53.8400   1
  31   9  13 105.470 60.8000   1
  13  31  -9 3.03000 51.7100   1
  13  31   9 24.2600 55.1000   1
   9  31  13 -90.180 73.9300   1
  13   9 -31 1.19000 57.3400   1
  31   9 -13 86.4200 46.3900   1
  25  19 -15 -28.280 59.0100   1
  15   5  31 555.400 83.9700   1
   5  31  15 461.440 70.8400   1
  31   5  15 507.140 60.9300   1
  31  -5  15 535.160 60.0500   1
  31   5 -15 542.630 74.4400   1
  31  -5 -15 461.110 58.8500   1
  15   5 -31 505.570 66.9500   1
   5  31  15 657.780 71.7500   1
  19  25 -15 64.2500 47.9800   1
  17  29   9 181.730 67.0700   1
   5  31 -15 484.260 66.4500   1
  15  31  -5 604.830 59.7400   1
  19  15  25 37.2700 39.9600   1
  31  15   5 472.800 54.2600   1
  11  33  -1 202.920 51.5500   1
  31  15  -5 377.610 52.5500   1
  15  25  19 14.4400 45.2600   1
  31 -15   5 575.720 65.2600   1
  11  19  27 -41.360 58.3400   1
  31 -15  -5 447.540 67.4200   1
  11  27  19 75.3100 74.9400   1
  19  11  27 -69.130 74.7100   1
  19  27  11 -32.440 50.9100   1
  27  11  19 22.3200 54.1400   1
  27  19  11 94.8200 66.4000   1
  19  27 -11 -62.050 57.0700   1
  27  19 -11 121.950 44.3300   1
  27  11 -19 -69.460 62.7900   1
  19  11 -27 -53.620 52.8700   1
  11  19  27 -89.020 58.7000   1
  19  11  27 -8.6500 54.7700   1
  11  27  19 -12.890 46.0000   1
  19   3 -29 691.140 80.6500   1
  -1  33  11 292.990 69.6500   1
   1  33  11 -68.730 71.4500   1
  11  33   1 147.020 66.3500   1
  33   1  11 93.7000 42.3900   1
  33  11   1 119.120 45.5200   1
  33  -1  11 167.790 43.3800   1
  33  11  -1 72.1900 55.8700   1
  33 -11   1 153.990 56.9200   1
  33   1 -11 145.500 59.9300   1
  33  -1 -11 212.710 60.4300   1
  33 -11  -1 120.090 64.6200   1
   1  33  11 140.690 66.4700   1
  -1  33 -11 136.010 49.3200   1
   1  33 -11 215.870 51.6000   1
  11  33   1 135.410 68.0300   1
  29  -3 -19 505.120 71.0300   1
  29 -19   3 489.980 65.4200   1
  29   3 -19 370.280 72.5500   1
  29  19  -3 490.360 63.7100   1
   3  29  19 614.420 77.7600   1
   9  17  29 358.660 78.0100   1
   9  29  17 203.570 79.8000   1
  17   9  29 289.170 70.8000   1
  29   9 -17 421.360 63.6300   1
  17   9 -29 337.340 64.9900   1
   9  29  17 240.220 60.7700   1
  29  19   3 442.200 53.9300   1
  29  -3  19 414.560 58.4400   1
  19  29  -3 436.220 61.5900   1
  19  29   3 467.430 67.7700   1
   3  29  19 540.210 72.5600   1
  29   9  17 295.880 48.6900   1
  15  19  25 62.5300 57.1500   1
  15  25  19 97.8000 83.8700   1
  19  15  25 96.8300 54.6600   1
  25  15  19 -1.0200 57.2200   1
  15  25 -19 -21.450 51.7500   1
  25  15 -19 -69.510 60.5500   1
  19  15 -25 -42.270 49.4400   1
  15  19  25 50.6900 51.9100   1
  29   3  19 463.780 68.8500   1
  15  31   5 499.080 72.2000   1
  24   8  24 121.400 66.2500   1
  24  24   8 224.730 69.1600   1
  24  24  -8 343.970 48.9300   1
  24   8 -24 179.960 57.9700   1
   8  24  24 146.110 64.4300   1
   8  24  24 218.250 80.4400   1
  33  -9   7 221.510 54.1100   1
  33   7  -9 331.070 60.8900   1
  33  -9  -7 225.380 61.1500   1
  33  -7  -9 114.300 59.5300   1
   7  33   9 212.140 50.2600   1
   9  33   7 311.060 70.4600   1
   7  33  -9 217.910 65.0900   1
  33  11   3 68.9500 63.3000   1
  27  21  -7 35.1100 53.4100   1
  27  21   7 62.4200 45.8400   1
  27   7 -21 -22.040 65.2900   1
  21  27  -7 55.8300 54.5100   1
  27   7  21 16.1300 63.8500   1
  21  27   7 49.3000 61.4600   1
  21   7  27 -116.28 71.4800   1
   7  27  21 -70.600 77.3400   1
   7  21  27 20.9400 74.8500   1
   7  27  21 -44.740 67.8400   1
  21   7 -27 -7.7500 64.2100   1
   7  33   9 104.370 84.1200   1
   9  33   7 209.430 58.7500   1
   7  33  -9 190.440 59.3900   1
   3  33  11 68.3900 60.5800   1
  11  33   3 -49.250 74.8800   1
  11  33  -3 -13.150 48.7000   1
   9  33  -7 199.490 51.4100   1
  33   9   7 130.450 54.7100   1
  33  -3  11 9.38000 40.4900   1
  33  11  -3 37.8400 64.1300   1
  33 -11   3 56.5300 53.1700   1
  33   3 -11 28.6100 47.3500   1
  33  -3 -11 46.4100 59.0300   1
  33 -11  -3 -51.120 45.2000   1
  -3  33 -11 119.720 49.0900   1
   3  33 -11 7.96000 49.3700   1
  11  33   3 48.0200 48.1000   1
  33   7   9 251.340 46.5700   1
  33   3  11 32.6400 41.4500   1
  33  -7   9 362.650 56.6200   1
  33   9  -7 164.730 47.9500   1
   0  34   8 -48.660 75.9000   1
   8  34   0 48.3500 66.2200   1
  34   8   0 103.870 55.6700   1
  34   0   8 72.2200 42.4100   1
  34  -8   0 104.760 45.8400   1
  34   0  -8 90.5900 65.7200   1
   0  34   8 -71.440 64.5000   1
   0  34  -8 82.6600 59.0000   1
   8  34   0 85.1400 45.6400   1
   8  30  16 403.440 54.8600   1
  30  -8 -16 466.480 74.2000   1
  16   8 -30 530.080 71.5800   1
  30   8 -16 537.420 66.5600   1
  30 -16   8 401.430 57.0800   1
  30  16  -8 602.710 73.4000   1
  30  16   8 373.360 51.6000   1
  30   8  16 479.740 53.4900   1
  16  30  -8 611.540 74.2100   1
  16  30   8 517.900 82.6700   1
  12  20  26 337.180 89.8000   1
  12  26  20 260.150 63.8100   1
  20  12  26 125.710 74.6700   1
   6  28  20 324.680 68.9700   1
   6  20  28 514.800 89.5400   1
  20  26  12 152.550 64.8500   1
  20   6  28 387.510 72.1500   1
  20  28   6 479.070 69.0500   1
  28   6  20 318.850 48.6000   1
  20  28  -6 340.910 49.4300   1
  28  20   6 339.970 52.2400   1
  28  20  -6 276.200 55.9900   1
  28   6 -20 407.450 54.2300   1
  28 -20   6 376.660 67.1300   1
  20   6 -28 529.210 73.3100   1
   6  28  20 226.540 61.1200   1
  26  12  20 210.920 68.2300   1
  26  20  12 95.1700 66.4700   1
  20  26 -12 205.660 53.6200   1
  26  20 -12 162.580 54.2500   1
  26  12 -20 264.320 66.2000   1
  20  12 -26 68.2800 53.6100   1
  12  20  26 135.350 64.0900   1
  12  26  20 178.680 66.4000   1
  20  12  26 32.6100 54.8100   1
   8  30  16 342.930 68.1500   1
   8  16  30 519.410 78.2600   1
  16   8  30 570.640 89.7500   1
  14  32   0 12.6100 48.7100   1
  32   0  14 -14.210 50.8000   1
  32  14   0 116.740 57.0600   1
  32   0 -14 -16.010 47.0500   1
  32 -14   0 90.7300 55.4000   1
   0  32 -14 54.7600 47.6600   1
  18  30   0 223.550 68.3800   1
  10  32  10 37.2700 47.7500   1
  32 -10 -10 12.3100 48.3200   1
  32  10 -10 -33.720 56.7200   1
  32 -10  10 -0.8100 49.8500   1
  32  10  10 -40.060 53.4000   1
  10  32 -10 -0.4600 62.3900   1
  30   0  18 277.590 55.9300   1
  30  18   0 456.590 64.4800   1
  30   0 -18 407.240 67.8200   1
  10  32  10 31.7200 70.6600   1
  10  10  32 -66.530 64.0800   1
  16  22  22 62.1900 54.6600   1
  30 -18   0 243.950 69.9900   1
   8  26  22 -17.770 88.2700   1
   8  22  26 311.780 90.5000   1
  18  24  18 55.5600 58.8400   1
  32 -14  -2 9.05000 46.6600   1
  32  -2 -14 90.4600 68.0000   1
   2  32 -14 3.19000 48.2800   1
  18  18  24 45.5900 67.6000   1
  18  24  18 26.7000 77.3600   1
  24  18  18 120.180 61.3600   1
  18  24 -18 23.2500 54.5400   1
  24  18 -18 -34.850 52.0300   1
  18  18 -24 88.2800 49.0300   1
  18  18  24 40.9200 52.0200   1
  22  16 -22 -5.5400 59.8600   1
  22  22 -16 -14.360 57.0200   1
  16  22 -22 -26.520 51.9600   1
  22  22  16 41.0500 71.5400   1
  22  16  22 -95.600 70.4700   1
  16  22  22 95.2600 80.3800   1
  32   2  14 18.0600 57.0300   1
  32  -2  14 -59.430 39.2200   1
  32  14  -2 -6.9900 64.2000   1
  32   2 -14 49.5700 58.7400   1
  32 -14   2 24.0800 55.3900   1
  22   8 -26 12.4500 54.7300   1
  26   8 -22 51.8800 57.0600   1
  26  22  -8 56.7000 54.3400   1
  22  26  -8 42.7500 60.9000   1
  26  22   8 -12.130 45.9400   1
  26   8  22 59.7200 64.9800   1
  22  26   8 36.9400 61.9200   1
  22   8  26 17.5500 70.2300   1
   8  26  22 112.170 58.3500   1
   8  22  26 0.01000 43.5600   1
   2  32  14 7.12000 57.7700   1
   0  30  18 337.600 84.6900   1
  14  32  -2 0.04000 57.3500   1
  14  32   2 -11.430 70.4800   1
   2  32  14 93.3100 75.5200   1
  34  -8  -2 160.910 65.0500   1
  32  14   2 47.1800 44.9500   1
   2  34   8 -28.000 57.7100   1
   8  34   2 127.550 67.7300   1
   8  34  -2 31.6300 50.0500   1
  34   8   2 -0.4000 63.1800   1
  34   2   8 89.1300 43.5700   1
  34  -2   8 42.7600 41.3100   1
  34   8  -2 9.81000 44.8700   1
  34   2  -8 104.170 47.2800   1
  34  -8   2 25.0600 53.2600   1
  34  -2  -8 55.0400 46.8600   1
   2  34   8 -25.270 58.4100   1
  -2  34  -8 -1.8700 41.1900   1
   2  34  -8 165.640 59.5700   1
   8  34   2 46.4700 64.7500   1
   8  34  -2 47.6000 44.5500   1
  23  13 -23 861.440 71.5700   1
   5  19  29 659.940 75.8100   1
   5  29  19 763.910 95.0800   1
  19   5  29 812.980 87.0100   1
  13  23  23 777.150 102.410   1
  23  13  23 714.520 79.0800   1
  23  23  13 819.260 74.6400   1
  23  23 -13 825.550 67.8900   1
  13  23  23 613.130 70.3000   1
  19  29   5 799.280 86.6400   1
   5  29  19 699.390 75.0900   1
  29  -5 -19 674.340 80.0500   1
  19   5 -29 977.420 89.5900   1
  29 -19   5 778.260 80.1500   1
  29   5 -19 670.260 73.9000   1
  29  19  -5 776.890 68.0700   1
  29  19   5 722.750 81.9200   1
  29   5  19 840.820 76.1500   1
  19  29  -5 738.690 72.9900   1
   1  35  -1 696.700 64.8900   1
  -1  35   1 720.380 81.5400   1
  -1  35  -1 732.490 72.9000   1
   1  35   1 982.860 102.940   1
  35   1   1 808.700 77.1400   1
  35  -1   1 694.260 63.8600   1
  35   1  -1 697.860 72.3200   1
  35  -1  -1 615.600 75.1500   1
  -1  35   1 854.030 83.3200   1
  -1  35  -1 599.240 69.5400   1
   1  35   1 667.370 64.1800   1
   6  34   6 279.730 51.4600   1
   6  34  -6 233.070 64.3500   1
   6  34   6 195.400 60.2300   1
   6  34  -6 179.430 59.2500   1
  34   6   6 209.580 63.7100   1
  34  -6   6 194.250 54.8500   1
  34   6  -6 220.110 49.5600   1
  34  -6  -6 290.510 60.8700   1
  30   2  18 370.620 59.6900   1
  30 -18  -2 373.590 66.6200   1
  30 -18   2 448.800 71.9300   1
  30   2 -18 561.290 78.7600   1
  30  18  -2 420.280 62.1000   1
  30  18   2 574.520 75.0100   1
  30  -2  18 338.630 64.7100   1
  30  -2 -18 550.270 62.5900   1
  18  30  -2 389.760 53.2900   1
  18  30   2 581.020 71.8100   1
   2  30  18 370.220 87.0400   1
  20  16 -24 -59.360 50.2900   1
  12   8  32 31.9600 62.8800   1
  20  16  24 44.6500 68.2800   1
  16  20  24 2.55000 58.7100   1
  32 -12   8 9.49000 56.4000   1
  32  -8  12 -0.0900 49.8000   1
  32  12   8 -58.090 54.8300   1
  12  32   8 18.8100 58.4000   1
   8  32  12 -59.190 69.1200   1
  32 -12  -8 119.290 69.6300   1
  32  -8 -12 113.120 69.8300   1
  32   8 -12 149.640 58.2000   1
  32   8  12 72.8500 53.0500   1
  12  32  -8 43.5900 53.5200   1
  12  32   8 14.0400 78.5600   1
   8  32  12 127.230 60.4200   1
  20  16  24 37.6400 50.7000   1
  16  20  24 10.8300 51.6100   1
  32  12  -8 13.2700 45.1900   1
  20  24 -16 -1.3000 39.1900   1
  24  16 -20 3.93000 53.6800   1
  16  24  20 -24.320 54.1500   1
  24  20 -16 80.0300 43.3200   1
  16  24  20 -27.240 56.2500   1
  20  24  16 94.9600 54.4700   1
  24  16  20 -32.680 60.4400   1
  24  20  16 69.3200 61.5100   1
  16  24 -20 -61.430 49.8500   1
  13  15  29 11.3800 71.8100   1
  13  21  25 357.930 80.2600   1
  13  25  21 369.970 81.2800   1
  21  13  25 450.370 74.1600   1
  21  25  13 500.480 80.0300   1
  25  13  21 421.040 72.7700   1
  25  21  13 444.190 75.4300   1
  21  25 -13 438.070 52.0500   1
  25  21 -13 254.020 64.7500   1
  25  13 -21 358.580 67.0000   1
  21  13 -25 395.520 68.2700   1
   1  35  -3 403.730 80.7900   1
  -1  35  -3 442.530 74.4000   1
  -1  35   3 360.760 60.6700   1
   1  35   3 436.410 66.0000   1
   3  35  -1 463.920 75.7800   1
   3  35   1 405.680 84.3200   1
  35   1   3 362.600 51.2900   1
  35   3   1 430.510 70.3900   1
  33  11   5 58.4800 44.9700   1
  15  13  29 99.8800 71.3300   1
  13  29  15 -68.970 72.0400   1
  15  29  13 -69.740 80.0100   1
  13  29 -15 3.81000 49.8700   1
  15  29 -13 -45.730 47.8200   1
  29  15  13 -25.390 56.0600   1
  29  13  15 53.7500 62.8500   1
  29  15 -13 74.3600 45.4300   1
  29  13 -15 -23.030 55.4200   1
  13  15  29 84.8900 51.4300   1
  15  13  29 61.0800 47.5100   1
  35   3  -1 339.200 61.4900   1
  35  -1   3 298.830 66.6200   1
  35   1  -3 323.940 67.4400   1
  35  -3   1 374.180 68.1000   1
  35  -1  -3 272.170 50.2700   1
  35  -3  -1 332.200 51.3100   1
  -3  35  -1 378.680 68.4600   1
  -3  35   1 180.140 47.8800   1
  -1  35   3 453.260 64.8600   1
  -1  35  -3 237.130 58.1400   1
   1  35   3 429.370 63.4700   1
   1  35  -3 272.650 66.0300   1
   3  35  -1 339.190 69.2500   1
  13  29  15 -42.850 58.3400   1
  15  29  13 96.2500 60.3100   1
  13  21  25 335.300 60.9600   1
  13  25  21 307.580 61.2200   1
  21  13  25 307.290 56.1200   1
   9  23  25 107.300 79.8900   1
   9  25  23 67.7300 87.4400   1
  23   9  25 183.840 62.9200   1
  25   9  23 198.370 50.6200   1
  23  25   9 204.700 72.1400   1
  25  23   9 209.130 61.6400   1
  23  25  -9 190.420 62.6300   1
  25  23  -9 260.760 47.9500   1
  25   9 -23 190.440 48.2900   1
  23   9 -25 274.550 57.9000   1
   9  23  25 229.060 57.8700   1
   9  25  23 117.760 48.4500   1
   7  31  15 367.410 55.1600   1
  31 -15  -7 406.120 75.8000   1
  31  -7 -15 323.090 66.2300   1
  15   7 -31 421.080 69.9700   1
  31   7 -15 450.870 73.5300   1
  31 -15   7 425.140 61.0300   1
  31  15  -7 513.110 58.0800   1
  31  -7  15 401.220 57.9500   1
  31  15   7 376.600 69.4600   1
  31   7  15 358.860 59.1700   1
  15  31  -7 322.310 50.6700   1
  15  31   7 307.640 58.1700   1
   7  31  15 307.480 80.5500   1
   5  33  11 13.1100 74.2700   1
  11  33   5 82.5800 67.2000   1
  11  33  -5 77.5000 60.6700   1
  33   5  11 34.1500 41.5200   1
   3  35   1 305.000 67.9200   1
  33  -5  11 -5.4100 50.1200   1
  33  11  -5 93.4600 65.7700   1
  33   5 -11 0.71000 57.3000   1
  33 -11   5 -48.460 52.0400   1
  33 -11  -5 73.8100 58.9200   1
  33  -5 -11 -133.70 47.7400   1
  11  33   5 -57.160 65.8400   1
   5  33 -11 26.7100 51.3100   1
  15   7  31 355.290 73.8100   1
   8  34  -4 90.3500 62.9000   1
   8  34   4 -16.720 68.7000   1
   4  34   8 156.650 84.2900   1
   4  34   8 -57.150 58.4200   1
   8  34   4 64.7000 57.6300   1
  34   4   8 9.31000 52.4600   1
   8  34  -4 56.4000 45.9500   1
   4  34  -8 38.7900 59.5300   1
  34  -4  -8 -164.27 63.7700   1
  34  -8  -4 45.2500 46.2100   1
  34   4  -8 139.720 66.3300   1
  34  -8   4 -67.960 42.0900   1
  34   8  -4 19.5100 45.5300   1
  34  -4   8 8.18000 51.5800   1
  34   8   4 52.9700 54.6300   1
  28  16  14 170.080 57.8000   1
  14  28 -16 8.39000 52.7800   1
  14  16  28 -144.06 55.7600   1
  16  14  28 -120.86 68.5300   1
  28  16 -14 14.1200 54.3700   1
  28  14 -16 7.62000 44.4600   1
  14  28  16 75.5400 72.6300   1
  16  28 -14 -12.010 54.8500   1
   4  32  14 314.180 90.7300   1
  14  32   4 49.7200 50.4100   1
  14  32  -4 50.4800 65.2300   1
  32   4  14 174.050 61.0000   1
  32  14   4 11.7100 65.0400   1
  32  -4  14 118.720 51.3700   1
  32  14  -4 -49.960 65.4400   1
  32  -4 -14 6.60000 48.5300   1
  32 -14  -4 63.6300 67.1000   1
   4  32  14 125.390 61.4800   1
   4  32 -14 -0.4600 55.4100   1
  32 -14   4 58.1100 44.4100   1
  16  14 -28 -60.130 55.6300   1
  14  16  28 18.2200 59.5400   1
  16  14  28 11.2000 48.6800   1
  14  28  16 56.5000 66.1600   1
  16  28  14 46.8400 49.3000   1
  16  28  14 138.540 82.9900   1
  28  14  16 78.6300 56.8500   1
  32   4 -14 -26.760 66.5500   1
  12  30 -14 58.6900 49.6900   1
  14  30  12 10.8500 80.4100   1
  12  30  14 -51.370 73.6500   1
  14  12  30 87.0200 70.2500   1
  12  14  30 -23.890 71.7500   1
   4  30  18 851.220 87.4900   1
  30 -18  -4 843.750 92.5100   1
  18   4 -30 790.410 84.4700   1
  14  30 -12 -67.700 48.7000   1
  30  12  14 -0.5000 63.1900   1
  14  30  12 31.0500 66.9300   1
  12  30  14 42.3800 48.1600   1
  30  12 -14 30.0600 63.9400   1
   4  30  18 779.420 103.110   1
  18  30   4 778.490 72.6300   1
  18  30  -4 761.060 81.2600   1
  30  -4 -18 804.020 90.9400   1
  30   4  18 868.450 78.3500   1
  30  -4  18 733.200 69.8100   1
  30  18   4 658.880 71.5300   1
  30  18  -4 677.480 79.0100   1
  30   4 -18 902.080 88.9600   1
  30  14 -12 47.7700 56.1100   1
  30 -18   4 837.350 71.7300   1
  30  14  12 21.5700 62.3400   1
  15  17  27 20.8400 51.2300   1
  17  15  27 -9.8700 49.7400   1
  15  27  17 -39.790 46.5300   1
  17  27  15 -104.59 60.0000   1
  17  15 -27 -26.530 55.8300   1
  21  19  21 60.7500 55.2200   1
  19  21  21 88.0900 63.0500   1
  21  19 -21 62.4100 50.9400   1
  21  21 -19 28.2700 50.3200   1
  19  21 -21 109.100 49.3000   1
  21  21  19 216.760 75.8200   1
  21  19  21 148.870 53.9700   1
  19  21  21 -30.870 70.4000   1
  15  17  27 145.040 81.1800   1
  17  15  27 -222.29 78.7200   1
  15  27  17 -12.730 57.0000   1
  17  27  15 90.6500 79.8700   1
  27  15  17 5.16000 55.2100   1
  27  17  15 -36.740 45.5300   1
  15  27 -17 49.4000 46.0000   1
  17  27 -15 9.40000 54.8200   1
  27  17 -15 -7.3600 54.1900   1
  27  15 -17 27.6600 44.3200   1
   3  35  -3 141.420 54.5800   1
   3  35   3 51.4600 57.5500   1
  35   3   3 263.120 58.3900   1
  35   3  -3 162.560 46.1500   1
  35  -3   3 56.7700 62.3900   1
  35  -3  -3 168.760 58.3800   1
  -3  35  -3 182.270 54.0700   1
   3  35   3 160.450 66.7600   1
   3  35  -3 102.040 55.2000   1
  28  20  -8 -43.980 43.6700   1
  20   8 -28 83.7300 63.6100   1
   8  20  28 111.710 85.7000   1
  20   8  28 156.260 54.2400   1
  20  28   8 128.040 64.0500   1
  20  28  -8 139.280 62.3400   1
  28  20   8 183.120 68.3200   1
  28   8 -20 228.970 68.3100   1
   8  28  20 80.1500 67.3700   1
   8  28  20 76.3700 89.8900   1
  28   8  20 91.1600 62.2700   1
  33   9   9 78.2700 54.0400   1
   9  33   9 159.490 81.0800   1
  33  -9   9 -20.500 57.2500   1
  33   9  -9 -17.320 46.4400   1
  33  -9  -9 35.1200 48.0600   1
   9  33   9 147.270 70.1600   1
   7  19  29 595.930 82.6200   1
  19  23  19 16.6000 55.1100   1
  23  19  19 135.000 72.1700   1
  19  23 -19 126.980 39.8600   1
  23  19 -19 40.9800 59.0700   1
  19  19 -23 50.0400 56.3300   1
  19  19  23 105.420 53.8200   1
  19  23  19 105.950 65.2300   1
  13  31 -11 -10.840 41.4000   1
  31  13  11 92.5700 55.8900   1
  31  11  13 26.1600 62.4000   1
  31  13 -11 26.0200 56.6000   1
  31 -13  11 41.3100 40.5700   1
  31  11 -13 18.8300 45.7400   1
  31 -13 -11 -23.050 52.4600   1
  31 -11 -13 62.6600 73.0700   1
  11  29  17 90.1300 59.7200   1
   5  35   1 46.4500 68.2900   1
  35   1   5 41.7100 53.8700   1
  25  -1 -25 935.930 81.1700   1
  17  11 -29 64.4000 58.7400   1
  29  11 -17 106.590 65.9600   1
  25   1 -25 1075.33 197.760   1
  29  17 -11 115.310 56.9800   1
  29  17  11 161.980 65.7400   1
  17  29 -11 67.6400 57.2400   1
  29  11  17 14.3100 54.4600   1
  17  29  11 171.040 68.5400   1
  11  29  17 18.7300 59.3500   1
  17  11  29 51.1300 77.2300   1
  11  17  29 30.7900 83.4300   1
  11  31  13 71.5300 47.9000   1
  13  31  11 25.1200 65.0000   1
  35  -1   5 128.390 61.0500   1
  35   5   1 133.540 46.7900   1
  25  25  -1 1080.76 197.420   1
  11  13  31 -34.400 56.0200   1
  13  11  31 -66.340 78.5500   1
  11  31  13 54.3800 58.8700   1
  25  25   1 985.730 92.5200   1
  35   5  -1 101.230 56.7400   1
  35   1  -5 208.200 66.8000   1
   1  35   5 -78.680 79.3900   1
  -1  35   5 -19.770 63.6200   1
  -1  35  -5 -52.390 46.2400   1
  35  -5   1 190.150 62.9800   1
  35  -1  -5 95.8600 46.9400   1
  35  -5  -1 141.140 46.7700   1
  -1  35   5 62.6300 45.4200   1
   7  29  19 476.610 58.9600   1
  19   7 -29 565.000 67.6000   1
  29 -19   7 490.100 63.1800   1
  29   7 -19 547.630 60.3800   1
  29  19  -7 471.150 64.8300   1
  29  19   7 462.860 66.3100   1
  19  29  -7 440.220 52.8900   1
  29   7  19 461.200 69.5300   1
  19  29   7 383.810 78.1600   1
  19   7  29 650.790 89.7600   1
   7  29  19 405.440 95.3000   1
   1  35   5 19.2700 58.0000   1
  -1  35  -5 24.7500 43.7500   1
   1  35  -5 0.24000 42.3700   1
  31   1  17 142.970 43.6600   1
  31  -1  17 95.5500 60.1300   1
   5  35   1 11.4700 57.5000   1
   5  35  -1 84.9600 57.3000   1
  17  31   1 101.760 49.7800   1
  31 -17  -1 334.880 72.0400   1
  31 -17   1 235.040 61.8000   1
  31  -1 -17 197.750 52.7100   1
   9  21  27 -26.730 61.6600   1
  27  21   9 26.6900 66.8300   1
   9  27  21 -13.570 87.4100   1
  21   9  27 5.91000 64.1600   1
  21  27   9 113.080 63.2900   1
  27   9  21 25.5500 62.5800   1
  21  27  -9 -0.7900 60.1300   1
  27  21  -9 4.18000 53.1200   1
  27   9 -21 -89.570 44.6600   1
  21   9 -27 -74.840 62.8400   1
   9  27  21 -15.910 47.0500   1
  17  31  -1 121.270 68.5500   1
  13  31  11 2.99000 69.7700   1
   1  31  17 238.880 73.9900   1
  31   1 -17 253.600 64.7200   1
  19  19  23 68.2000 68.4200   1
  31  17  -1 191.120 47.5000   1
  31  17   1 171.850 46.9300   1
   1  35  -5 104.130 63.1800   1
   5  35  -1 84.8300 67.5900   1
  12  28  18 110.370 58.9700   1
  18  12  28 -47.610 49.1800   1
  12  18  28 46.2000 42.0300   1
  18  12 -28 18.6500 50.6100   1
  28  12 -18 -65.120 63.5400   1
  28  18 -12 -29.990 53.6900   1
  18  28 -12 28.9000 41.4000   1
  28  18  12 92.8400 66.1900   1
  24  10  24 416.690 69.1100   1
  10  24  24 545.860 76.6800   1
  12  18  28 67.1200 60.1600   1
  18  12  28 72.3900 76.3200   1
  12  28  18 -0.3700 74.3800   1
  18  28  12 -158.00 66.9400   1
  28  12  18 -69.940 44.5400   1
  24  26   0 843.870 72.3400   1
  26  24   0 1004.04 78.8300   1
  26   0 -24 964.570 93.0800   1
  10  24  24 492.790 67.6600   1
  24  10 -24 452.550 55.9500   1
  24  24 -10 290.300 64.9900   1
  24  24  10 489.900 80.6200   1
  24   0 -26 916.310 78.7300   1
  24  22  14 499.430 79.1600   1
  22  24  14 669.760 69.9100   1
  24  14  22 464.280 68.8100   1
  22  14  24 552.750 65.1300   1
  14  24  22 709.440 90.8800   1
  14  22  24 472.610 84.5800   1
   6  32  14 180.680 50.7800   1
  14   6 -32 111.020 62.7000   1
  18  16 -26 58.1600 49.9200   1
  26  16 -18 5.92000 43.3100   1
  26  18 -16 51.2700 43.6200   1
  18  26 -16 32.9400 37.9300   1
  16  26 -18 -4.7100 46.3600   1
  26  18  16 -72.150 48.0000   1
   6  34   8 142.180 73.1400   1
  32 -14  -6 84.0300 68.8800   1
   8  34   6 270.670 59.8200   1
   8  34  -6 91.9500 61.6600   1
  34   6   8 206.970 63.0200   1
  34   8   6 165.680 46.1300   1
  34  -6   8 91.3900 42.4000   1
  34   8  -6 222.870 49.2300   1
  34  -8   6 118.140 52.4800   1
  34   6  -8 209.380 65.8100   1
  16  10  30 146.490 71.8200   1
  10  30  16 230.020 78.4500   1
  16  30  10 82.2000 79.4800   1
  16  30 -10 174.000 53.1400   1
  30  10  16 0.61000 43.5400   1
  30  16  10 174.980 47.9500   1
  30  16 -10 52.3100 45.9200   1
  30  10 -16 75.2500 46.2300   1
  16  10 -30 47.7400 58.9100   1
  10  30  16 162.160 69.2200   1
  34  -6  -8 201.300 69.0500   1
  34  -8  -6 135.640 48.7900   1
   6  34   8 104.860 66.5300   1
   8  34   6 80.4200 59.9900   1
  26  16  18 115.450 61.0500   1
  18  26  16 65.1300 68.8100   1
  16  26  18 -113.26 56.2100   1
  18  16  26 -18.970 54.1000   1
  16  18  26 13.5100 58.1700   1
   6  34  -8 142.540 55.4800   1
   8  34  -6 132.430 57.6200   1
  32  -6 -14 292.190 73.0400   1
  32   6 -14 171.350 67.9100   1
  32 -14   6 174.880 54.9100   1
  32  14  -6 268.080 61.0500   1
  10  16  30 193.560 85.1700   1
  32  -6  14 232.550 53.6200   1
  32  14   6 163.100 47.6300   1
  32   6  14 159.200 54.1000   1
  14  32  -6 49.9000 64.6700   1
   0  34  10 255.600 70.7500   1
  10  34   0 260.420 75.7200   1
  34   0  10 205.000 62.0000   1
  34  10   0 331.600 60.8900   1
  14  32   6 103.790 77.2500   1
   6  32  14 108.600 87.9800   1
  14   6  32 213.410 78.2800   1
  34 -10   0 352.910 52.9700   1
  34   0 -10 278.060 62.8000   1
   0  34  10 461.800 66.5900   1
   0  34 -10 205.000 52.6500   1
  10  34   0 294.490 70.3200   1
   6  34  -8 210.020 60.8000   1
  26  -2 -24 613.290 78.2600   1
  24   2 -26 670.130 75.1100   1
  26   2 -24 686.620 82.6400   1
  26  24  -2 696.180 73.1100   1
  24  26  -2 740.210 74.5700   1
  26  24   2 702.600 66.3900   1
  24  26   2 704.140 65.6900   1
  26   2  24 742.140 75.3500   1
  24   2  26 612.590 73.0900   1
   2  26  24 771.140 80.9200   1
   6  32 -14 143.190 43.3900   1
  18  26  16 56.1400 58.8800   1
  16  26  18 110.590 66.3000   1
  18  16  26 64.4400 58.5000   1
  16  18  26 -16.250 51.8600   1
  22  14  24 370.720 66.3900   1
  14  24  22 363.620 53.3500   1
  14  22  24 543.370 66.2800   1
  22  14 -24 597.700 73.4100   1
  24  14 -22 436.240 62.1300   1
  24  22 -14 645.700 68.2100   1
  22  24 -14 527.100 55.9900   1
  25  25  -3 414.380 63.6800   1
   1  33  13 144.910 80.7500   1
  13  33   1 47.3800 72.8400   1
  11  33  -7 18.1700 63.8800   1
  13  33  -1 35.0900 60.9600   1
  33   1  13 165.930 51.9600   1
  33  -1  13 150.940 43.2300   1
  33  13   1 242.450 58.7100   1
  33  13  -1 164.790 66.2700   1
  33 -13   1 116.210 64.9000   1
   3  31  17 508.370 76.0500   1
  31 -17  -3 403.110 66.6600   1
  31  -3 -17 476.680 77.9800   1
  -1  33  13 123.940 71.7900   1
   7  33 -11 55.1300 43.2600   1
  11  33   7 -36.030 47.1400   1
  31 -17   3 426.340 71.3600   1
  31   3 -17 258.410 69.9700   1
  31  17  -3 478.080 56.6900   1
  31  17   3 422.430 64.0600   1
  31  -3  17 420.190 59.5800   1
  31   3  17 395.050 67.3600   1
  17  31  -3 316.090 55.7600   1
  17  31   3 298.390 75.0700   1
   3  31  17 423.030 91.7300   1
  13  19  27 10.7300 53.4200   1
  33   1 -13 120.220 49.6500   1
  19  13  27 -32.030 57.1100   1
  23  17 -21 -15.400 52.2600   1
   7  33  11 22.0400 59.0500   1
  17  23  21 66.7200 62.8800   1
  33   7  11 37.1300 53.4100   1
  13  19  27 -78.560 85.4000   1
  13  27  19 17.0300 85.4600   1
  33  -1 -13 78.3400 67.8900   1
  33  11   7 110.830 56.3900   1
  35   3   5 55.2600 44.1600   1
  33  -7 -11 38.9600 58.5400   1
  33  -7  11 -26.230 57.4200   1
  33  11  -7 47.0400 57.4500   1
  33 -11   7 94.8600 58.2700   1
  33   7 -11 131.250 59.0400   1
  33 -13  -1 90.3300 66.5100   1
   1  33  13 91.0900 49.2000   1
   3  35  -5 41.4800 63.2800   1
   5  35   3 14.6400 80.6300   1
   5  35  -3 -4.0000 64.0100   1
  35   5   3 57.0900 64.1100   1
   3  35   5 93.9200 66.8000   1
  19  13  27 69.9300 67.3400   1
   1  33 -13 108.710 56.4400   1
  19  27  13 -54.380 76.1900   1
  35  -3   5 76.4700 60.4300   1
  35   5  -3 39.4600 64.9400   1
  35   3  -5 22.4400 45.4200   1
  35  -5   3 23.5900 53.1000   1
   3  25  25 511.130 83.5500   1
  35  -5  -3 86.2900 66.1300   1
  35  -3  -5 16.4100 64.6100   1
  -3  35  -5 56.5600 43.1700   1
   3  35  -5 -21.870 53.6600   1
  25   3  25 566.770 77.4600   1
  25  25   3 561.680 60.1400   1
  25   3 -25 461.870 57.9800   1
  13  27  19 -187.19 66.3500   1
  27  13  19 39.1200 45.7500   1
   5  35   3 -74.140 65.1400   1
   5  35  -3 33.5400 63.1200   1
  27  19  13 49.8600 66.5600   1
  19  27 -13 -35.000 57.2400   1
  27  19 -13 -31.140 53.3300   1
  27  13 -19 46.4700 55.4000   1
  19  13 -27 137.740 61.4900   1
   7  33  11 85.7500 74.3400   1
  11  33   7 67.2600 69.4900   1
  17  23  21 130.810 81.5400   1
  23  17  21 -50.840 48.7900   1
  17  23 -21 -27.850 51.4200   1
  33 -11  -7 -12.630 57.5300   1
  23  21 -17 -18.580 51.7700   1
  17  21 -23 175.300 49.2400   1
  21  17 -23 16.2400 58.5500   1
  17  21  23 -39.770 53.7800   1
  21  17  23 25.7500 60.5400   1
  23   1 -27 487.960 77.0800   1
  27   1 -23 325.720 73.4700   1
  27  23  -1 396.190 65.1200   1
  27  23   1 547.440 68.6100   1
  23  27  -1 490.170 66.7600   1
  27   1  23 415.680 64.9700   1
  23  27   1 490.500 57.4600   1
  21  17  23 0.57000 64.6400   1
  21  23  17 -33.160 76.3600   1
  27  -1 -23 505.090 80.4800   1
  23  21  17 -14.150 63.1200   1
  17  21  23 -1.9000 57.1200   1
  21  23 -17 -39.100 49.0600   1
  34   2 -10 306.360 68.7000   1
  26  10  22 123.910 59.5000   1
  22  26  10 115.950 72.9700   1
  22  10  26 242.520 55.2600   1
  10  26  22 148.050 79.4400   1
  10  22  26 273.380 81.4000   1
  22  26 -10 225.940 56.0400   1
  10  22  26 136.860 63.2000   1
  22  10 -26 138.390 64.3500   1
  26  10 -22 235.830 49.8700   1
   2  34  10 87.9900 72.1700   1
  10  34   2 213.400 79.5600   1
  10  34  -2 292.050 75.5400   1
  34   2  10 202.340 62.9400   1
  34  10   2 265.700 59.1800   1
  34  -2  10 98.6700 58.9000   1
  34 -10  -2 289.040 68.5700   1
  34  -2 -10 75.4800 57.6400   1
  -2  34 -10 216.100 59.3000   1
   2  34  10 80.7000 58.2100   1
   2  34 -10 86.6700 50.8500   1
  10  34   2 120.480 57.8800   1
  10  34  -2 87.8700 59.1500   1
  34  10  -2 154.670 67.2800   1
  26  22 -10 178.120 61.7800   1
  26  22  10 100.160 60.3200   1
  34 -10   2 144.300 56.0900   1
  10  26  22 225.630 59.0900   1
  30 -18   6 869.590 71.9700   1
  18   6 -30 955.540 83.2400   1
  30  -6 -18 814.960 85.1100   1
   6  30  18 752.890 70.5000   1
  30   6 -18 717.860 82.9400   1
   6  18  30 1040.75 194.990   1
   6  30  18 712.020 104.500   1
  18   6  30 825.390 89.7100   1
  18  30   6 892.920 86.1000   1
  18  30  -6 703.550 77.6000   1
  30   6  18 838.130 77.2700   1
  30  18   6 712.150 65.5900   1
  30  18  -6 872.790 85.3400   1
   9  15  31 183.180 78.1000   1
   3  27  23 -16.590 60.2000   1
  15  31   9 37.8800 71.8400   1
  31  -9 -15 111.010 74.7300   1
  27 -23   3 165.250 69.2300   1
  27  -3 -23 152.010 66.6600   1
   3  33 -13 31.3100 49.3000   1
  23   3  27 182.870 72.0000   1
  27   3  23 147.380 58.2300   1
  23  27   3 110.750 57.9500   1
  23  27  -3 143.940 64.1400   1
  27  23   3 65.6400 60.7600   1
  33  -3  13 -24.780 50.6100   1
  27   3 -23 61.0200 67.7500   1
  23   3 -27 80.6400 58.1100   1
   3  33  13 95.9200 49.0700   1
  33 -13  -3 31.2200 47.1900   1
  33  -3 -13 -34.370 48.5400   1
  33 -13   3 57.2700 64.0900   1
  33   3 -13 61.6300 68.5700   1
  31   9 -15 89.0600 58.3900   1
  33  13  -3 37.9500 66.6800   1
  33  13   3 46.7800 45.8400   1
  33   3  13 73.9700 52.0100   1
  13  33  -3 -12.270 47.0800   1
  13  33   3 -3.0300 63.3300   1
   3  33  13 150.190 75.4800   1
   9  31  15 66.6200 68.5400   1
  15   9 -31 224.120 62.8600   1
  31 -15   9 79.4200 59.0300   1
  31  15  -9 122.260 66.3500   1
  27  23  -3 129.110 64.7300   1
  15   9  31 129.440 80.6800   1
  31   9  15 112.570 44.9500   1
  15  31  -9 145.670 46.2900   1
  15  31   9 252.180 70.8400   1
   9  31  15 38.9700 87.0600   1
  31  15   9 6.41000 56.0800   1
  24  26  -4 205.620 65.6800   1
  26  24   4 142.150 48.8900   1
  24  26   4 173.680 61.2200   1
  26   4  24 300.540 62.5200   1
  24   4  26 191.180 62.3300   1
   4  26  24 133.760 60.3100   1
   4  24  26 54.0700 81.4900   1
  22  28   0 164.380 58.5100   1
  28   0  22 158.070 61.2500   1
  32  12 -10 29.1000 64.5300   1
  32 -10  12 11.9900 56.8200   1
  32  12  10 -4.6200 43.1600   1
  32  10  12 32.5400 42.7800   1
  10  12  32 -52.060 64.3700   1
  10  32  12 204.280 84.4400   1
  28   0 -22 20.8700 63.1700   1
  32 -10 -12 -7.0300 70.7100   1
  12  32  10 -68.990 60.0400   1
  10  32  12 -10.620 48.4500   1
  12  10  32 -36.710 64.3700   1
  32 -12 -10 110.070 49.9900   1
  32  10 -12 -14.750 56.7400   1
  28  22   0 162.820 66.1000   1
  32 -12  10 -61.870 49.3200   1
  26 -24   4 138.700 58.1500   1
  24   4 -26 111.550 68.0800   1
  26   4 -24 186.720 50.3300   1
  26  24  -4 139.510 64.0400   1
  12  32 -10 -7.6200 42.9300   1
  12  32  10 -31.380 69.6200   1
  14  26  20 121.900 59.3800   1
  14  20  26 78.7600 44.4900   1
  20  14 -26 -30.430 59.0900   1
  26  14 -20 5.79000 55.0300   1
  26  20 -14 31.1400 43.9700   1
  20  26 -14 84.4500 50.6100   1
  26  20  14 115.490 60.4600   1
  26  14  20 58.1600 47.4800   1
  20  26  14 -34.140 77.2000   1
  20  14  26 148.380 67.5500   1
  14  20  26 141.030 60.7900   1
  34  -4 -10 -143.91 46.7000   1
  34 -10  -4 8.65000 47.1400   1
   4  34  10 93.5400 58.3500   1
  10  34   4 32.5600 46.1100   1
  10  34  -4 19.4900 57.4000   1
  10  34   4 49.4500 67.4400   1
  10  34  -4 75.0700 61.1300   1
  34   4  10 12.6000 60.4500   1
   4  34 -10 30.7400 51.2900   1
  34  10   4 148.220 63.9400   1
  34  -4  10 37.2800 59.0100   1
  34  10  -4 20.1400 65.0600   1
  34   4 -10 -76.180 47.3400   1
  34 -10   4 69.7300 44.5300   1
  28 -22   2 47.0900 66.6700   1
  22   2 -28 -60.590 47.3300   1
  28  -2 -22 -140.62 71.2900   1
  28   2 -22 94.7500 60.5800   1
  28  22  -2 -10.490 63.7200   1
  28  22   2 74.5500 65.3600   1
  22  28  -2 68.9200 63.7800   1
  28   2  22 -14.620 61.3800   1
  22  28   2 93.9600 47.2700   1
   2  28  22 -22.690 71.0700   1
  14  26  20 61.6500 83.5200   1
  20  14  26 57.6700 50.1100   1
   7  35   1 -57.390 55.9400   1
   1  35   7 61.3900 58.5000   1
  -1  35   7 103.240 65.3100   1
   5  35  -5 -29.530 54.0600   1
   5  35   5 -28.500 64.8700   1
  35  -5  -5 -69.310 66.6700   1
  11  23  25 369.340 63.3700   1
  35   5  -5 -148.27 64.9400   1
   5  25  25 109.910 74.5500   1
  25   5  25 0.17000 58.6200   1
  25  25   5 80.0500 47.0200   1
  35  -5   5 23.2500 60.1100   1
  35   5   5 -113.31 61.6200   1
   5  35  -5 5.92000 71.6500   1
   5  35   5 -53.130 71.4500   1
  23  11  25 402.950 65.6600   1
  17   5 -31 610.470 70.8200   1
  19  25  17 -8.6100 59.4100   1
  17  25  19 33.7600 44.9700   1
  19  17  25 10.2400 59.4000   1
  31 -17  -5 788.770 87.1300   1
  17  19  25 -35.220 59.9000   1
  19  17 -25 12.6100 40.3600   1
  25  19 -17 20.3300 61.7900   1
  19  25 -17 67.6300 55.3500   1
  25  19  17 -55.160 49.0300   1
  -1  35   7 209.270 59.6500   1
   7  35  -1 63.8900 56.4900   1
   1  35  -7 104.530 61.2000   1
   1  35   7 89.3200 47.9200   1
  25  25  -5 32.4100 63.8900   1
  25   5 -25 144.620 67.6300   1
  25  17  19 -51.280 69.0200   1
  19  25  17 31.2900 53.6000   1
  19  17  25 -139.04 54.0600   1
  17  25  19 111.200 82.4600   1
  17  19  25 -72.980 56.7100   1
  25  17 -19 -71.450 61.2300   1
  11  23  25 725.370 104.180   1
  23  11  25 538.430 80.7500   1
   5  31  17 847.830 99.4200   1
  31  17  -5 565.110 59.9800   1
  17  31   5 611.310 65.8800   1
  17  31  -5 722.870 75.5400   1
  23  11 -25 533.070 66.5600   1
  31   5  17 768.700 73.5600   1
  31  17   5 657.520 78.1800   1
  31  -5  17 677.110 69.0100   1
  31   5 -17 770.620 84.8400   1
  31 -17   5 653.500 70.9400   1
  31  -5 -17 673.650 68.0200   1
  -1  35  -7 73.2600 52.5800   1
   5  31  17 663.310 76.1600   1
  35  -1  -7 109.810 47.5300   1
  35  -7  -1 101.220 57.2200   1
  35  -7   1 26.5900 62.5000   1
  35   1  -7 -11.120 65.0700   1
  35  -1   7 -25.380 51.4800   1
  35   7  -1 156.760 57.7300   1
  35   1   7 87.4400 44.1700   1
  35   7   1 157.470 65.2600   1
   7  35  -1 216.980 78.2300   1
   7  35   1 92.7500 69.1900   1
  11  25  23 555.410 75.8600   1
  23  25 -11 522.480 63.4800   1
  25  11 -23 614.040 61.8900   1
  25  23 -11 477.380 63.9300   1
  25  23  11 495.880 70.5700   1
  23  25  11 545.460 74.3900   1
  25  11  23 505.580 60.5000   1
  11  25  23 568.540 76.2700   1
   0  32  16 -8.9000 69.7700   1
  16  32   0 -42.790 58.0100   1
  32   0  16 -0.3900 41.4900   1
  32  16   0 85.4400 63.3900   1
  32   0 -16 77.2000 49.5800   1
  32 -16   0 -42.690 47.2800   1
   7  35  -3 26.7000 53.5700   1
   7  35   3 -89.990 65.2900   1
   3  35  -7 -23.420 52.6400   1
   3  35   7 22.7600 46.4500   1
  -3  35  -7 73.4500 51.9500   1
  35  -3  -7 -10.050 57.5600   1
  35  -7  -3 -7.2500 65.4400   1
  35  -7   3 -36.190 53.6500   1
  35   3  -7 -11.350 46.7300   1
  35   7  -3 -41.520 45.3000   1
  35  -3   7 76.1600 54.0200   1
  19  29  -9 137.690 53.3800   1
  35   7   3 37.7000 44.2500   1
   7  35  -3 72.3500 52.1800   1
   7  35   3 32.6500 55.4100   1
   5  33  13 38.4800 60.5700   1
  13  33   5 35.4700 67.9000   1
  13  33  -5 -41.390 57.0000   1
  33   5  13 -57.860 59.2700   1
  33  13   5 -97.970 63.5100   1
  33  -5  13 -6.6700 57.8200   1
  33  13  -5 -32.000 65.0900   1
  33 -13   5 -2.8400 43.5000   1
  33   5 -13 -59.320 67.4500   1
  33 -13  -5 -46.390 48.0400   1
   5  33  13 31.5100 47.2500   1
   5  33 -13 89.4200 58.5300   1
  13  33   5 -5.2300 59.3100   1
  23   5 -27 2.91000 65.2300   1
  15  23  23 285.440 88.9500   1
  23  15 -23 187.820 55.9600   1
  15  23  23 163.210 47.8800   1
   9  19  29 -17.600 84.3900   1
   9  29  19 -17.290 78.4700   1
  19   9  29 181.900 69.5400   1
  19  29   9 288.340 76.5100   1
  33  -5 -13 -28.250 69.9100   1
  29  19   9 83.4300 67.4300   1
  29  19  -9 73.8600 55.2200   1
  29   9 -19 178.940 58.4900   1
  19   9 -29 167.910 47.1400   1
   9  29  19 -77.210 68.3000   1
  35   3   7 -86.480 42.0000   1
  23  23  15 557.330 83.3700   1
  27  23  -5 -64.530 55.1900   1
  27   5 -23 10.1100 67.3400   1
  23  23 -15 342.580 49.3800   1
  23  15  23 476.700 62.2300   1
  29  -1  21 46.9500 52.0700   1
  29   9  19 187.480 57.4100   1
   1  29  21 122.640 61.3500   1
  21  29   1 -8.2500 67.6900   1
  21  29  -1 -149.42 53.9000   1
   5  23  27 -42.320 58.3300   1
   5  27  23 -123.61 62.4000   1
  23   5  27 17.3300 72.4000   1
  27   5  23 -78.050 54.5000   1
  23  27   5 161.810 58.9900   1
  27  23   5 -25.300 66.8200   1
  23  27  -5 -43.370 44.1300   1
  29   1  21 44.5800 42.4800   1
  29  21   1 157.080 56.7400   1
  29  21  -1 -31.250 56.8400   1
  29   1 -21 4.25000 49.4800   1
  29  -1 -21 -3.4100 61.8100   1
  29 -21   1 40.7400 49.7300   1
  29 -21  -1 -79.890 64.2100   1
   2  32  16 90.0200 67.2300   1
  32 -16  -2 11.3700 67.2700   1
  20  22  20 254.770 67.1000   1
  20  20  22 19.8500 60.7100   1
  22  20 -20 26.4900 58.9300   1
  20  20 -22 -15.090 48.9200   1
  20  22 -20 104.760 56.5700   1
  32  -2 -16 -31.250 71.0200   1
  22  20  20 69.4500 72.8500   1
  20  22  20 32.9100 79.5400   1
  20  20  22 -50.540 53.5600   1
   8  32  14 62.3100 66.9000   1
  32  14   8 100.460 63.1500   1
  32 -16   2 51.3300 46.4300   1
  32   2 -16 -15.940 67.9000   1
  34  -8  -8 61.7600 59.4600   1
  28   4 -22 -42.540 57.5900   1
  28  22  -4 -47.110 54.6000   1
  14  32   8 10.6600 70.1500   1
  28  22   4 3.23000 66.4200   1
  22  28  -4 -11.270 44.4100   1
  22  28   4 81.6300 49.0400   1
  28   4  22 30.5900 55.4400   1
  22   4  28 3.39000 49.5800   1
   4  28  22 -76.220 62.1500   1
   2  32  16 208.130 63.4200   1
  10  28  20 96.5300 48.7900   1
  20  10 -28 117.980 45.2800   1
  28  10 -20 8.41000 46.4600   1
  14  32   8 117.400 57.4500   1
  20  28 -10 106.690 59.7100   1
  28  20  10 37.6300 46.5600   1
  28  10  20 -76.040 43.3600   1
  20  28  10 66.6800 73.5900   1
  20  10  28 133.510 54.9800   1
  10  28  20 65.5400 77.7900   1
  10  20  28 -3.3700 61.7800   1
  14  32  -8 -9.9100 63.2000   1
  16  32   2 33.5800 48.0800   1
  16  32  -2 27.3800 67.0200   1
  32  -2  16 62.3300 58.8800   1
  32  16   2 -60.490 54.8300   1
  32  16  -2 212.170 65.4100   1
  32   8  14 36.1500 54.7500   1
  32  14  -8 46.3800 46.6300   1
  32   8 -14 -64.750 65.4600   1
  28  20 -10 59.7500 63.0000   1
  32 -14   8 -23.560 41.6600   1
   8  32  14 111.880 76.6400   1
  32   2  16 29.3700 58.7600   1
  14   8  32 161.210 69.0200   1
  28  -4 -22 61.2500 55.5500   1
  28 -22   4 -16.200 56.4900   1
  14   8 -32 82.2200 60.6700   1
  22   4 -28 -6.4600 65.7300   1
  32  -8 -14 73.5700 72.1000   1
  34  -8   8 124.480 43.3800   1
  34   8  -8 -33.990 56.2100   1
  34   8   8 113.400 54.0800   1
   8  34  -8 116.800 70.3900   1
   8  34   8 89.1700 73.5400   1
   8  34  -8 145.780 64.5000   1
   8  34   8 81.9400 60.0300   1
  32  -8  14 51.7600 50.3900   1
  30   8 -18 325.270 63.2700   1
  18   8 -30 411.560 62.7500   1
  30  -8 -18 445.560 65.8300   1
   8  30  18 421.550 66.6400   1
   6  26  24 -0.1900 76.3500   1
   6  24  26 237.620 78.8900   1
  24   6  26 41.1500 58.8700   1
  26   6  24 11.1700 46.5300   1
  24  26   6 83.6600 48.6500   1
  26  24   6 26.7800 58.0100   1
  24  26  -6 3.50000 42.8700   1
  26  24  -6 -80.020 53.3000   1
  26   6 -24 -56.890 57.0500   1
  24   6 -26 -7.8000 57.7500   1
  18   8  30 570.930 87.7900   1
   8  18  30 473.990 66.4500   1
   8  30  18 641.800 92.7900   1
  18  30   8 485.610 83.2900   1
  18  30  -8 441.660 62.0900   1
  30   8  18 394.610 60.5100   1
  30  18   8 486.110 72.8000   1
  30  18  -8 444.660 55.6500   1
  21  15  25 117.740 51.6800   1
  15  25  21 79.6900 46.9900   1
  15  21  25 40.7200 62.5500   1
  21  15 -25 125.600 53.5200   1
  25  15 -21 267.060 65.7900   1
  25  21 -15 76.8100 61.5700   1
  21  25 -15 143.040 42.9700   1
  25  21  15 24.9300 62.8600   1
  25  15  21 137.280 50.5100   1
  21  25  15 152.670 54.4800   1
  21  15  25 103.080 55.8600   1
  15  25  21 118.550 61.6200   1
  15  21  25 261.470 62.9600   1
  11   9  33 30.2300 52.7500   1
  21  11  27 142.570 67.1200   1
  33  11  -9 -31.230 46.0200   1
  11  33   9 24.8100 46.8800   1
   9  33  11 -13.420 47.9300   1
  33 -11  -9 -63.960 47.7300   1
  33   9 -11 -147.69 67.6000   1
  33  -9  11 17.6200 49.6600   1
  33  11   9 0.54000 62.7300   1
  33   9  11 34.7900 52.3400   1
  11  33  -9 20.9600 55.3400   1
  11  33   9 -47.040 71.0600   1
  21  11 -27 74.7200 55.5200   1
  27  11 -21 95.3900 57.2400   1
  27  21 -11 72.6700 53.8500   1
  21  27 -11 109.480 53.7000   1
  29  21  -3 113.250 47.0600   1
  11  27  21 -4.5200 67.6100   1
  33  -9 -11 -40.030 69.7600   1
  27  21  11 -10.590 47.9600   1
  21  27  11 78.9100 73.4400   1
  33 -11   9 -43.530 57.3500   1
   9  33  11 55.3400 58.8100   1
  11  21  27 113.820 87.7500   1
  11  27  21 195.100 63.9800   1
  11  21  27 74.9100 62.1300   1
   3  29  21 108.800 59.8600   1
  21  29  -3 88.9400 45.6100   1
  29   3  21 156.130 45.6100   1
  29   3 -21 158.570 50.8600   1
  29 -21   3 91.6400 67.0500   1
  29  -3 -21 90.2200 64.7300   1
  21   3 -29 -28.610 58.8300   1
  15  29  15 -13.130 47.9400   1
  15  15  29 53.6400 58.2000   1
  21  29   3 94.2000 48.1500   1
  29  15 -15 63.8900 55.5400   1
  29  15  15 205.030 65.8600   1
  15  29 -15 42.9800 55.3500   1
  15  29  15 -42.480 80.4700   1
  15  15  29 -9.2700 72.9300   1
  22  18  22 -15.950 62.2400   1
  22  22 -18 83.5500 59.3500   1
  18  22  22 -4.5600 68.8700   1
  22  18  22 -83.560 50.3900   1
  22  22  18 124.730 65.7200   1
  14  14  30 -33.590 70.2400   1
  14  30  14 258.430 84.8600   1
  14  30 -14 29.9800 57.6000   1
  30  14 -14 47.2500 46.0900   1
  14  30  14 35.5600 59.2600   1
  22  18 -22 13.0800 51.5700   1
  18  22  22 109.840 64.2900   1
   6  34 -10 -69.820 59.9900   1
  10  34   6 -75.930 66.5400   1
  30  14  14 15.5400 62.6700   1
   6  34  10 110.900 48.0600   1
  34 -10  -6 20.8900 47.9000   1
  34  -6 -10 -98.420 58.5000   1
  34   6 -10 -16.100 58.2400   1
  34 -10   6 7.27000 58.6400   1
  34  10  -6 64.9100 57.9100   1
  34  -6  10 -9.5600 50.7600   1
  34   6  10 18.6300 52.2000   1
  34  10   6 -68.210 53.6000   1
  10  34  -6 -35.260 59.6800   1
  10  34   6 -113.56 55.6300   1
   6  34  10 -85.680 85.5400   1
  18  22 -22 20.3200 47.0700   1
  16  16  28 158.890 43.5900   1
  16  28  16 228.000 68.6000   1
  24  12  24 897.810 184.380   1
  16  28  16 113.940 83.5400   1
  28  16  16 102.670 58.3600   1
  24  24  12 849.070 175.480   1
  24  24 -12 768.240 70.3500   1
  24  12 -24 635.580 60.6400   1
  12  24  24 819.070 170.460   1
  32  -4 -16 112.770 51.5900   1
  16  28 -16 72.3000 56.6700   1
  32 -16   4 200.580 66.6100   1
  32 -16  -4 313.510 54.1400   1
  16   4 -32 82.1900 48.5500   1
  16  16  28 198.530 82.3300   1
   4  32  16 94.2200 67.6200   1
  32   4 -16 2.57000 69.0800   1
  32  16  -4 283.650 68.4500   1
  32  -4  16 201.620 44.6200   1
  32  16   4 37.0500 45.9800   1
  32   4  16 67.9100 62.4400   1
  16  32  -4 317.380 62.4000   1
  16  32   4 225.400 74.6400   1
   4  32  16 226.000 65.3200   1
   0  36   0 771.120 88.6600   1
  12  24  24 912.660 197.990   1
  36   0   0 655.890 76.2800   1
   0  36   0 794.140 66.9500   1
  28  16 -16 133.110 64.1600   1
  35   5  -7 -118.46 64.0000   1
  35  -7   5 -65.650 60.7100   1
  35   7  -5 33.7600 46.1100   1
  35  -5   7 44.9100 53.1900   1
  35   7   5 81.2400 56.9800   1
  35   5   7 21.4500 52.6400   1
   7  35  -5 18.2400 72.5400   1
  17  31  -7 575.070 72.3300   1
  17  31   7 502.700 74.5000   1
   7  31  17 620.400 76.5100   1
  17   7  31 471.690 86.9100   1
   7  17  31 600.030 70.3600   1
   7  35   5 62.5800 58.2600   1
  25   7  25 -89.840 68.5400   1
  25  25   7 -48.560 47.2700   1
  25  25  -7 89.1000 43.5100   1
  25   7 -25 -1.2400 46.6200   1
  13  31  13 -20.500 67.3100   1
   5  35  -7 29.5000 71.5300   1
   5  35   7 69.6700 73.5100   1
  13  29  17 -28.700 75.7400   1
  13  17  29 23.1700 60.0100   1
  31   7  17 472.270 54.5800   1
   7  31  17 496.740 59.5400   1
  31  -7 -17 516.870 73.9600   1
  17   7 -31 529.390 65.5100   1
  31 -17   7 393.770 60.4600   1
  31   7 -17 508.790 75.1300   1
  31  17  -7 505.040 64.2800   1
  31  17   7 548.280 57.6500   1
  35  -7  -5 64.6600 58.3000   1
   7  35  -5 109.230 63.3100   1
   5  35  -7 18.7900 53.8300   1
   7  35   5 -35.110 58.1900   1
   5  35   7 72.5100 49.3100   1
  35  -5  -7 -109.08 66.0900   1
  31  13 -13 136.550 64.8300   1
  31  13  13 -80.940 55.1200   1
  13  31 -13 89.6800 58.7400   1
  13  31  13 -191.82 83.3100   1
  13  13  31 151.470 71.8800   1
  17  29  13 76.0200 62.7500   1
  17  13  29 -13.360 58.4000   1
  13  17  29 58.6600 52.6800   1
  17  13 -29 31.9300 51.4900   1
  29  13 -17 19.7400 57.1900   1
  29  17 -13 187.680 64.8000   1
  17  29 -13 67.7800 50.9600   1
  29  17  13 84.2800 64.3800   1
  29  13  17 143.870 63.9800   1
  17  29  13 39.8000 78.0700   1
  17  13  29 11.0600 68.7400   1
   7  25  25 233.010 92.8100   1
   2  36   0 646.220 77.3500   1
  12  34   0 231.810 78.4100   1
  34   0  12 330.520 56.9600   1
  20  24  18 -54.360 47.0800   1
  18  24  20 110.500 56.7400   1
  18  20  24 -52.170 42.4500   1
  24  18 -20 -25.920 42.8000   1
  20  18 -24 -36.990 49.1800   1
  24  20 -18 -72.100 42.6000   1
  18  20 -24 -111.49 53.8500   1
  20  24 -18 39.3500 41.2100   1
  24  20  18 -78.320 49.5400   1
  -2  36   0 597.070 66.3700   1
   0  36  -2 559.220 72.9400   1
   0  36   2 581.710 69.0800   1
  36  -2   0 614.970 66.7500   1
  34  12   0 376.790 70.6200   1
  34   0 -12 376.650 74.0700   1
  34 -12   0 428.700 54.5900   1
   0  34 -12 315.670 46.6800   1
   0  36  -2 633.880 75.4000   1
  12  34   0 317.100 53.5100   1
  24  18  20 -23.140 70.3200   1
  20  24  18 -10.090 75.3800   1
  20  30   0 -12.760 56.3800   1
  30  20   0 30.9300 57.1300   1
  30   0 -20 -8.8500 49.9000   1
  30 -20   0 -68.710 48.6000   1
   2  36   0 904.080 191.550   1
  36   2   0 544.250 57.0600   1
  16  30  12 126.020 69.4100   1
  12  30  16 31.4300 74.9900   1
  16  30  12 54.8800 82.2400   1
  16  30 -12 117.410 59.5500   1
  30  12  16 -6.6500 54.6100   1
  36   0   2 649.100 60.7800   1
  36   0  -2 594.340 67.0200   1
  30  16  12 -55.040 64.4600   1
  30  16 -12 101.660 56.0200   1
  30  12 -16 137.670 66.2700   1
  20  18  24 -124.10 68.7500   1
  18  24  20 68.9300 58.6800   1
  18  20  24 -35.350 55.8600   1
  12  16  30 19.3500 74.3000   1
  16  12  30 -36.680 71.3300   1
   0  36   2 570.260 76.2300   1
   0  34  12 475.120 75.5700   1
  12  30  16 49.8200 60.6000   1
  34   2 -12 230.690 50.4800   1
  34 -12   2 327.700 51.0800   1
  34 -12  -2 222.200 67.1200   1
  34  -2 -12 305.140 53.6300   1
  -2  36  -2 299.650 59.1500   1
  -2  36   2 322.140 61.1600   1
   2  36   2 458.800 71.7300   1
   2  36  -2 438.330 54.2600   1
  22  26 -12 282.850 47.1100   1
  18  28  14 50.8900 49.6100   1
  14  28  18 160.700 48.8000   1
  18  14  28 55.3300 52.2400   1
  14  18  28 -24.250 61.5700   1
  18  14 -28 75.5900 53.8300   1
  28  14 -18 86.9100 46.2000   1
  28  18 -14 -17.800 62.4800   1
  18  28 -14 15.1600 50.1900   1
  28  18  14 169.080 57.9800   1
  28  14  18 110.560 64.7100   1
  14  28  18 27.9100 62.6600   1
  18  14  28 27.0400 56.1400   1
  14  18  28 -100.21 85.4200   1
  22  28  -6 114.640 64.0300   1
  28  22   6 52.9300 59.0100   1
   2  34  12 200.270 62.2900   1
   2  34 -12 289.800 60.5200   1
  28  22  -6 32.2300 45.0600   1
  34  12   2 216.970 59.0100   1
  34  -2  12 156.680 59.5700   1
  34   2  12 307.920 46.7700   1
  34  12  -2 209.340 65.8900   1
  12  34  -2 464.150 78.0300   1
  12  34   2 229.580 69.0400   1
   2  34  12 334.820 66.3300   1
  22  12  26 188.140 58.6500   1
  12  26  22 331.070 62.9100   1
  12  22  26 412.550 62.8200   1
  22  12 -26 327.120 59.8700   1
  26  12 -22 306.200 59.9300   1
  26  22 -12 279.650 47.9300   1
  26  22  12 420.080 64.9400   1
  22  26  12 554.310 75.8000   1
  22  12  26 279.490 79.9700   1
  12  26  22 316.380 80.7900   1
  12  22  26 383.810 82.2000   1
  28   6 -22 181.750 68.1900   1
  22   6 -28 91.2500 58.4000   1
   6  28  22 -1.5900 66.6500   1
  12  34   2 406.580 64.7600   1
  22  28   6 67.7300 62.5500   1
  22   6  28 32.9500 64.7200   1
   6  28  22 173.120 64.8100   1
   6  22  28 -78.170 79.8100   1
  28   6  22 106.300 64.9400   1
   2  30  20 280.220 63.1900   1
  20  30   2 239.980 71.5100   1
  20  30  -2 271.930 61.2100   1
  30   2  20 193.870 55.2600   1
  30  -2  20 101.810 61.3100   1
  30  20   2 116.890 58.3300   1
  30  20  -2 101.690 56.9500   1
  30   2 -20 182.660 50.8400   1
  30  -2 -20 223.970 72.7500   1
  30 -20   2 165.890 50.7500   1
  30 -20  -2 53.0800 63.2800   1
  20   2 -30 91.6700 49.9800   1
  18  28  14 125.460 79.9800   1
   2  36  -2 445.910 81.5800   1
   2  36   2 456.170 77.5700   1
  36   2   2 525.220 71.2900   1
  36  -2   2 456.390 53.8500   1
  36   2  -2 577.660 73.9700   1
  36  -2  -2 502.570 56.1000   1
  13   7  33 3.55000 60.4400   1
   7  33  13 99.1700 77.4500   1
  13  33   7 58.0700 70.7100   1
  13  33  -7 -44.870 58.1400   1
  33   7  13 -2.0900 61.0500   1
  33  13   7 34.4500 45.0700   1
  33  -7  13 18.9600 41.8500   1
  33  13  -7 6.28000 57.5400   1
  33 -13   7 64.5100 54.0000   1
   1  35   9 362.320 66.2100   1
  29 -21   5 139.080 56.8100   1
  -1  35   9 415.740 82.9200   1
  21  29   5 217.900 53.6400   1
   1  35   9 324.560 61.9500   1
  21  29  -5 199.740 56.4400   1
  29  21   5 297.770 51.9200   1
  33 -13  -7 9.38000 49.3400   1
  29  21  -5 318.260 60.2300   1
  15  11  31 4.18000 55.9400   1
  11  15  31 -45.720 81.2100   1
   9  35  -1 394.880 69.4800   1
   9  35   1 350.460 69.9500   1
   1  35  -9 304.340 62.9200   1
  -1  35  -9 273.630 55.2200   1
  35  -9  -1 281.540 60.2800   1
  35  -1  -9 354.210 71.5100   1
  35   1  -9 248.760 60.8500   1
  35  -9   1 296.580 66.7600   1
  35   9  -1 282.830 50.7200   1
  35  -1   9 299.880 57.0800   1
  33   7 -13 -6.4500 66.5000   1
  33  -7 -13 -22.210 69.3900   1
  35   9   1 223.800 49.4300   1
   7  33  13 -1.1100 68.7400   1
  13  33   7 60.4100 50.6400   1
   7  33 -13 156.900 52.9300   1
  35   1   9 229.670 55.1900   1
   9  35  -1 351.590 59.0900   1
   9  35   1 242.730 58.7000   1
  15  31  11 10.3000 69.7400   1
  11  31  15 36.2800 48.7200   1
  31  11 -15 -37.110 44.9300   1
  31  15 -11 -9.9900 46.2900   1
  31  15  11 50.2500 46.4600   1
  31  11  15 -25.710 44.4000   1
  15  31 -11 46.0900 53.8100   1
  11  31  15 1.69000 59.9500   1
   7  23  27 -8.7200 77.2500   1
   7  27  23 68.9100 78.5700   1
  23   7  27 36.9700 74.7900   1
  27   7  23 -68.280 65.5000   1
  27  23   7 27.0800 67.6800   1
  23  27  -7 -46.650 59.6400   1
  27  23  -7 18.3300 45.1800   1
  27   7 -23 -17.340 45.6800   1
  23   7 -27 -48.870 46.0800   1
   7  27  23 5.09000 47.0200   1
  15  31  11 -6.9900 82.0300   1
  29   5 -21 261.790 52.0700   1
  21   5 -29 207.070 67.6200   1
  29  -5 -21 347.810 70.8900   1
   5  29  21 205.890 50.2500   1
  23  27   7 53.5200 60.8300   1
  17  17  27 87.5700 52.2900   1
  27  17 -17 187.520 57.1700   1
  17  27 -17 195.260 50.3600   1
  27  17  17 166.090 48.5500   1
  17  27  17 211.850 73.4000   1
  17  17  27 -47.590 71.0800   1
  17  27  17 15.5100 58.5300   1
  21   5  29 102.860 75.8800   1
  29   5  21 279.810 58.2200   1
   5  21  29 325.800 65.4200   1
   5  29  21 204.880 66.9100   1
   0  36  -4 208.700 61.3600   1
  12  12  32 -185.74 80.3400   1
  12  32  12 86.7500 60.3300   1
  36   0  -4 422.200 53.1400   1
   0  36   4 249.530 58.3200   1
   4  36   0 286.490 68.6600   1
   0  36  -4 272.630 48.6200   1
  36  -4   0 74.4600 58.6200   1
   0  36   4 220.060 56.2000   1
  36   0   4 255.030 47.6000   1
  36   4   0 248.390 58.9900   1
  12  32 -12 -70.180 58.5900   1
  32 -12 -12 201.070 64.8300   1
  32  12  12 12.0700 44.7200   1
  32  12 -12 -35.860 46.3700   1
  12  32  12 -100.28 67.2100   1
   4  36   0 300.380 82.6700   1
   9  35   3 183.430 58.5100   1
   3  35  -9 188.560 62.2200   1
   3  35   9 31.8900 60.3200   1
  -3  35  -9 87.0900 58.3500   1
   9  35  -3 -27.530 72.0300   1
   9  35   3 191.540 57.8700   1
   3  35   9 120.830 82.6500   1
  35   3  -9 197.330 69.1500   1
  35  -3  -9 149.430 49.3700   1
  27  19  15 113.710 48.0200   1
  19  27 -15 96.2900 49.9800   1
   1  33  15 131.870 82.6000   1
  15  33  -1 -12.560 61.2600   1
  15  33   1 -69.050 49.2200   1
  33  -1  15 57.0800 52.4600   1
  33 -15  -1 31.1100 58.7300   1
  19  27  15 -25.010 76.9000   1
  33  -1 -15 8.74000 62.4000   1
  33   1 -15 110.690 61.1200   1
  33  15  -1 133.100 57.2600   1
  33  15   1 203.010 65.4900   1
  33 -15   1 22.3800 65.9400   1
  33   1  15 38.4900 50.5000   1
  35  -9  -3 17.0000 65.5700   1
  35   9  -3 113.220 57.4700   1
  35  -3   9 24.1100 52.0700   1
  35  -9   3 57.5300 63.0200   1
  35   9   3 172.390 65.3800   1
   9  35  -3 119.360 64.8600   1
  27  19 -15 -127.04 62.0900   1
  35   3   9 136.640 53.5000   1
  19  15  27 99.8900 59.0900   1
  15  19  27 -79.470 60.8500   1
  19  15 -27 93.8800 59.1800   1
  27  15  19 -79.700 68.0700   1
  15  27  19 44.3400 60.5900   1
  27  15 -19 84.5600 45.6700   1
  19  15  27 61.3700 81.0400   1
  15  27  19 7.78000 67.4300   1
   6  32  16 141.060 50.0200   1
   6  32 -16 304.620 54.9600   1
  16  32  -6 267.600 50.4700   1
   8  24  26 76.5200 63.8900   1
   8  26  24 -11.290 89.6400   1
  24   8  26 45.0400 71.4100   1
   4  36  -2 188.850 65.5500   1
   4  36   2 3.41000 65.2700   1
   2  36  -4 45.4300 64.2800   1
   2  36   4 112.220 66.2100   1
  -2  36  -4 120.550 44.4500   1
  -2  36   4 200.840 47.8700   1
  36  -4  -2 226.580 58.5900   1
  26   8  24 -13.940 58.1700   1
  24  26   8 -26.740 49.1800   1
   4  30  20 393.470 70.5600   1
  20  30   4 511.420 60.7200   1
  20  30  -4 441.380 71.3700   1
  30   4  20 415.610 52.6000   1
  30  20   4 353.540 71.3600   1
  30  20  -4 377.690 69.0700   1
  30   4 -20 490.350 67.2200   1
  30 -20   4 558.150 75.8200   1
  20   4 -30 336.240 62.9800   1
  30  -4 -20 497.390 63.0900   1
  36  -2  -4 152.340 57.9900   1
  36  -4   2 136.490 55.5100   1
  36   2  -4 76.7800 65.9500   1
  36   4  -2 106.480 46.3000   1
  36  -2   4 140.230 56.0100   1
  36   2   4 221.060 47.1600   1
  36   4   2 140.670 56.9800   1
   4  36   2 95.3700 57.9300   1
   4  36  -2 200.940 68.2900   1
   2  36  -4 183.180 77.0000   1
   4  30  20 350.440 64.9300   1
   4  34  12 -15.070 77.0500   1
  12  34   4 166.980 56.4300   1
  12  34  -4 66.6700 63.2200   1
  34   4  12 84.3000 43.3300   1
  34  12   4 116.410 55.6000   1
  34  -4  12 -3.6400 59.0900   1
  34  12  -4 146.140 66.6900   1
  34 -12   4 -33.230 54.2000   1
  34   4 -12 112.960 67.4900   1
  34 -12  -4 94.8200 60.4900   1
  34  -4 -12 118.710 70.0100   1
   4  34  12 21.3100 70.5800   1
   4  34 -12 90.0800 51.5200   1
  12  34   4 36.3000 69.6900   1
   2  36   4 122.130 72.1200   1
   6  32  16 299.560 68.7300   1
  16  32   6 339.510 69.9100   1
  32   6  16 272.160 48.3100   1
  32  16   6 296.060 66.5800   1
  32  -6  16 347.950 64.2700   1
  32  16  -6 265.230 60.2500   1
  32   6 -16 281.960 62.2300   1
  32 -16   6 295.660 58.9100   1
  32  -6 -16 361.160 76.4200   1
  22  16  24 84.5600 52.9600   1
  16  24  22 26.2400 58.8100   1
  16  22  24 67.8200 46.7600   1
  22  16 -24 2.51000 43.1000   1
  24  16 -22 43.0900 44.4500   1
  24  22 -16 130.770 44.9000   1
  22  24 -16 76.3600 44.9500   1
  24  22  16 46.0900 64.5900   1
  24  16  22 218.560 52.5700   1
  22  16  24 66.9800 56.4100   1
  16  22  24 57.2500 60.0600   1
  16  24  22 108.740 85.8900   1
  26  24   8 63.6300 68.2100   1
  24  26  -8 151.340 63.5600   1
  26  24  -8 52.7400 62.2600   1
  26   8 -24 -5.3000 55.1300   1
  24   8 -26 15.9900 56.8000   1
   8  26  24 47.6700 47.4200   1
  16   6 -32 311.750 68.3800   1
  32 -16  -6 326.480 55.3700   1
  34  10   8 50.8500 45.1300   1
  10  32  14 -114.44 47.6000   1
  32 -10 -14 -34.610 73.7700   1
  32 -14 -10 1.77000 72.3100   1
  32  10 -14 165.970 66.2800   1
  32 -14  10 16.7900 41.4000   1
  34  -8  10 -22.230 42.1800   1
  32  14 -10 33.2500 64.6700   1
  34   8  10 -15.200 53.2800   1
  14  32 -10 -52.380 51.2300   1
   8  34 -10 49.7900 45.6100   1
  10  34   8 44.7800 82.6600   1
  10  34  -8 -116.65 68.9600   1
   8  34  10 -27.720 83.8000   1
  10  32  14 -79.690 60.2200   1
  14  10  32 -74.280 78.9800   1
  32  10  14 -104.00 53.5300   1
  14  32  10 -60.770 56.6700   1
  10  14  32 -89.900 65.4900   1
  10  34   8 89.6300 60.0800   1
   8  34  10 62.2600 67.9000   1
  34  -8 -10 -124.86 69.6800   1
  34 -10  -8 37.3400 59.9100   1
  32  14  10 -66.130 63.9200   1
  14  32  10 58.5000 67.6200   1
  34   8 -10 60.3500 67.3800   1
  34 -10   8 11.4200 51.4400   1
  34  10  -8 -11.210 47.8900   1
  11  29  19 203.100 80.6700   1
  11  19  29 63.4100 77.4700   1
   7  35  -7 38.9600 54.5400   1
   7  35   7 107.260 58.5100   1
  35  -7  -7 77.3900 68.7500   1
  35  -7   7 51.0400 53.3000   1
  35   7  -7 -55.430 56.9700   1
  35   7   7 -33.040 61.7700   1
   7  35  -7 89.9900 70.8600   1
   7  35   7 67.2500 59.3300   1
  25  13  23 527.280 70.8100   1
  23  13  25 527.840 61.1500   1
   1  31  19 75.0900 73.5100   1
  19  31   1 177.190 51.0000   1
  19  31  -1 83.8100 68.4600   1
  31   1  19 290.860 64.9000   1
  31  -1  19 93.2600 60.7000   1
  31  19   1 112.450 57.4500   1
  31  19  -1 133.560 58.4800   1
  31   1 -19 94.5500 50.8600   1
  31  -1 -19 68.3800 64.8300   1
  31 -19   1 206.320 60.9600   1
  31 -19  -1 130.420 61.3000   1
  19  11  29 -17.220 66.0600   1
  19  29  11 -137.91 75.3400   1
  29  11  19 -90.170 62.9500   1
  19  29 -11 106.630 52.3500   1
  29  19  11 58.8400 48.4800   1
  29  19 -11 -38.180 55.2100   1
  29  11 -19 11.7400 56.8500   1
  19  11 -29 12.2000 53.0900   1
  11  29  19 -58.460 58.1600   1
  13  23  25 543.370 85.2500   1
  13  25  23 598.140 86.4900   1
  21  21  21 39.6200 79.7500   1
  21  21 -21 -13.410 56.5000   1
  21  21  21 94.1400 63.3400   1
  23  13  25 515.990 84.0100   1
   3  33  15 48.2700 68.6700   1
  33 -15  -3 -35.140 69.0100   1
  33  -3 -15 -57.570 63.4000   1
  33 -15   3 8.84000 55.7500   1
  33   3 -15 -24.960 69.4700   1
  33  -3  15 168.100 59.6300   1
  33  15   3 12.5200 64.4700   1
  33   3  15 74.9800 61.2800   1
  23  25  13 651.870 65.9900   1
  25  23  13 679.300 76.6400   1
  23  25 -13 566.190 55.3700   1
  25  23 -13 633.540 71.9700   1
  33  15  -3 -6.9000 56.9600   1
  25  13 -23 585.020 58.6300   1
  15  33  -3 -36.450 66.5900   1
  15  33   3 -8.4400 72.5000   1
   3  33  15 -5.8900 85.4500   1
  23  13 -25 514.300 70.8400   1
  13  23  25 516.410 71.2000   1
  13  25  23 449.480 54.8000   1
  18  18  26 65.8700 58.3600   1
  30  18 -10 138.850 64.3100   1
  30  10 -18 81.9200 47.3900   1
  18  10 -30 72.2300 56.4100   1
  10  30  18 111.310 48.9300   1
  18  18  26 107.330 43.6300   1
  18  26 -18 79.3700 50.9100   1
  26  18  18 97.1800 49.4800   1
  18  26  18 33.5000 58.5100   1
  26  18 -18 158.540 45.9500   1
  18  26  18 204.430 68.2300   1
  10  18  30 121.700 86.4300   1
  18  10  30 129.240 81.2800   1
  10  30  18 76.5900 66.6000   1
  18  30  10 107.590 78.7700   1
  18  30 -10 142.230 44.9000   1
  30  10  18 122.530 62.6400   1
  30  18  10 97.2200 57.8900   1
  36   4  -4 3.87000 46.6000   1
  36   4   4 127.510 55.6700   1
   4  36   4 117.620 71.6100   1
  36  -4  -4 31.5700 65.2400   1
   4  36  -4 55.6400 66.2400   1
  20  12  28 46.1000 78.5400   1
   4  36   4 -113.26 65.6000   1
  28  12  20 81.2800 67.6500   1
   4  36  -4 -34.520 54.8200   1
  12  28  20 -67.030 88.0200   1
  20  28 -12 148.510 60.3000   1
  36  -4   4 2.96000 53.7900   1
  28  20  12 25.9900 60.1800   1
  20  28  12 11.4100 77.8900   1
  12  28  20 -55.890 58.0200   1
  12  20  28 -10.730 43.2500   1
  20  12 -28 39.4200 62.6200   1
  28  12 -20 69.1400 65.3900   1
  28  20 -12 -182.81 54.5600   1
  12  20  28 -84.460 85.1200   1
  19   3 -31 350.850 55.3400   1
  35  -9  -5 29.0700 58.3700   1
  35  -5  -9 33.3000 58.0800   1
   5  35   9 -100.12 67.4800   1
   5  35  -9 36.8500 52.7900   1
   9  35   5 51.2400 47.9200   1
   9  35  -5 64.4100 66.1700   1
   9  31  17 227.730 72.3400   1
   9  17  31 194.270 72.8300   1
  17   9  31 153.860 72.0100   1
   9  31  17 213.500 81.6600   1
   7  29  21 197.980 67.8400   1
  21   7 -29 215.920 66.9700   1
  29   7 -21 239.240 61.7300   1
  29  21  -7 150.270 64.7900   1
  29  21   7 131.930 66.7700   1
  21  29  -7 273.090 65.3400   1
  29   7  21 322.760 67.4500   1
  21  29   7 143.910 63.4000   1
   7  29  21 294.430 82.2800   1
   7  21  29 163.790 70.7200   1
  21  19 -23 -15.510 50.1500   1
   9  25  25 167.290 57.2600   1
  11  11  33 205.460 56.0200   1
  25   9 -25 55.7800 66.9700   1
  25  25  -9 112.190 54.9300   1
  25   9  25 113.690 50.9400   1
   9  25  25 15.7900 63.1000   1
  21  19  23 58.0300 54.4200   1
  17  31   9 267.330 79.9000   1
  17  31  -9 309.770 64.8600   1
  31   9  17 258.050 65.1700   1
  31  17   9 185.580 67.6800   1
  31  17  -9 138.130 57.4300   1
  31   9 -17 282.610 70.0900   1
  17   9 -31 203.890 56.8700   1
  31  -9 -17 256.570 71.5300   1
  21   7  29 123.740 55.5600   1
  19  21  23 144.550 57.9300   1
  21  19  23 22.1400 53.5800   1
  25  25   9 158.200 62.8600   1
  19  21 -23 39.5900 56.1000   1
  19  21  23 46.4200 54.0700   1
  31 -19  -3 250.490 74.0000   1
  31  -3 -19 257.440 67.1200   1
  31 -19   3 337.950 54.2900   1
  31   3 -19 149.530 62.6100   1
  31  19  -3 273.780 48.8800   1
  31  19   3 312.640 51.1100   1
  31   3  19 409.560 51.9200   1
  19  31  -3 373.040 52.4200   1
  19  31   3 435.890 77.1600   1
   3  31  19 256.370 75.9200   1
   5  35   9 107.290 84.9300   1
   9  35   5 82.5700 57.5700   1
   9  35  -5 -10.050 61.6600   1
  35   5   9 25.2200 52.2100   1
  35   9   5 85.9300 44.9000   1
  35  -5   9 35.0000 59.3400   1
  35   9  -5 89.2800 57.3500   1
  35  -9   5 73.8100 62.9400   1
  35   5  -9 -35.780 48.0600   1
  11  33  11 99.2200 72.1900   1
  33  11  11 77.1400 64.0300   1
  33 -11  11 6.30000 51.6300   1
  33  11 -11 134.370 66.9300   1
  21  23  19 -36.320 64.5400   1
  21  23 -19 67.4600 51.5000   1
  33 -11 -11 -52.590 61.7600   1
  11  33  11 102.650 59.6300   1
  23  19  21 54.0300 72.2900   1
  23  19 -21 -10.730 52.2400   1
  23  21  19 24.4900 51.4800   1
  19  23  21 118.130 80.8600   1
  19  23  21 -12.150 54.7100   1
  23  21 -19 7.71000 52.3100   1
   8  28  22 -107.13 92.0900   1
   8  22  28 -21.250 61.0500   1
  26  16 -20 -15.290 54.6300   1
  26  20 -16 -10.100 43.8500   1
  20  26 -16 33.1600 58.0000   1
   0  36   6 292.890 80.4300   1
  26  20  16 -2.1700 49.8700   1
  26  16  20 21.4700 67.7600   1
  20  26  16 5.28000 55.4000   1
  20  16  26 -106.15 54.5900   1
  16  26  20 50.8000 85.5400   1
   6  36   0 202.460 70.2200   1
  16  20  26 49.3300 58.7600   1
   8  28  22 29.7000 49.5500   1
  28   8 -22 -67.980 58.6600   1
  28  22  -8 103.140 62.7400   1
  36   6   0 195.480 57.7400   1
  36   0   6 205.940 55.8400   1
  36   0  -6 210.330 49.7600   1
  36  -6   0 136.760 47.4000   1
   0  36   6 130.190 56.6400   1
   0  36  -6 204.800 54.2000   1
   6  36   0 119.600 59.0600   1
  22   8 -28 -65.940 56.7700   1
  16  26  20 -88.490 46.2300   1
  20  16  26 30.0700 52.2600   1
  16  20  26 -64.270 53.2100   1
  20  16 -26 17.1100 59.6800   1
  22  28  -8 137.430 54.6600   1
  28  22   8 -52.930 47.7800   1
  28   8  22 51.9300 66.1500   1
  22  28   8 -161.11 61.2500   1
  22   8  28 72.4500 65.1800   1
  34   6  12 -9.3100 42.0800   1
  20  30  -6 376.280 67.5200   1
   6  36  -2 118.210 66.3800   1
   6  36   2 107.390 65.7800   1
  12  34   6 108.140 58.6100   1
   6  30  20 540.220 87.2500   1
   6  20  30 587.940 70.5100   1
   6  30  20 390.000 56.3100   1
  34  -6  12 9.18000 41.9900   1
  36  -6  -2 52.6100 65.9900   1
  30   6  20 517.370 66.2900   1
  12  34  -6 -87.270 57.4100   1
  12  34   6 79.7600 81.9800   1
   6  34  12 27.4600 75.1200   1
  34  12   6 60.9400 56.5800   1
  34  12  -6 -124.15 65.3000   1
  30  20  -6 612.480 66.0800   1
  30  20   6 379.630 64.7500   1
   6  36   2 78.7700 81.9100   1
  36   2   6 27.2800 44.8700   1
  36   6   2 98.2700 45.7800   1
   6  34 -12 -58.760 51.6500   1
  36  -2   6 104.740 53.2700   1
  36   2  -6 130.940 67.0000   1
  36  -6   2 104.220 56.3600   1
  36  -2  -6 70.6600 59.7700   1
  -2  36  -6 91.3300 53.3700   1
   2  36   6 33.0200 66.4400   1
   2  36  -6 86.2200 43.3400   1
  30  -6 -20 502.100 83.0100   1
  20   6 -30 411.480 71.2300   1
  30   6 -20 557.860 59.8500   1
  36   6  -2 -13.070 64.7200   1
   6  36  -2 -15.980 76.1800   1
  34 -12  -6 144.930 60.1500   1
  20  30   6 523.160 63.1800   1
  20   6  30 495.930 85.3300   1
  34 -12   6 -18.870 52.9200   1
  34  -6 -12 -41.260 70.0100   1
   6  34  12 45.3300 70.7600   1
   2  36   6 127.580 71.1100   1
  34   6 -12 -29.690 65.9000   1
  15  33   5 -43.560 67.2500   1
  13  33  -9 -125.75 61.9100   1
  33   9  13 -41.810 60.9700   1
  33 -15  -5 32.5900 59.8400   1
  13  33   9 24.3600 69.5400   1
   9  33  13 -27.750 47.6500   1
  33 -13  -9 -58.770 70.7200   1
  33  -9 -13 -133.76 70.3400   1
  33   9 -13 -144.44 56.0300   1
  33 -13   9 -0.7300 50.6800   1
  33  13  -9 -2.7800 56.5000   1
  33 -15   5 34.0200 54.3500   1
  33  -9  13 10.4900 57.9900   1
  33  15  -5 -43.100 66.2500   1
  15  33  -5 55.9500 68.7400   1
  33  13   9 26.7900 55.5700   1
  33  15   5 -29.400 45.8300   1
  13  33   9 -233.25 69.8900   1
   9  33  13 245.220 88.9700   1
  33   5 -15 82.3600 59.1200   1
  27  23  -9 77.0200 56.6000   1
  13  21  27 14.4900 62.8500   1
  21  13  27 52.0800 51.6500   1
  13  27  21 -11.900 59.3000   1
  13  21  27 92.3600 45.7700   1
  21  13 -27 -12.770 62.1000   1
  27  13 -21 168.630 65.1900   1
  33  -5 -15 27.6100 71.6100   1
  15   5 -33 16.5900 65.0200   1
   5  33  15 -7.4900 48.7100   1
   5  33 -15 -20.700 49.5500   1
  27  21 -13 -23.030 62.7400   1
  21  27 -13 -64.960 41.7700   1
  27  13  21 25.2000 67.0000   1
  21  27  13 36.7300 66.2600   1
  21  13  27 94.2100 66.8600   1
  13  27  21 91.8400 88.1000   1
  13   9  33 -42.090 52.1200   1
  27  23   9 5.69000 56.3900   1
  23  27   9 50.2200 51.9200   1
  27   9  23 -122.77 66.6700   1
  23   9  27 3.98000 66.3600   1
   9  27  23 32.8700 91.2500   1
   9  23  27 -124.79 87.3800   1
  27  21  13 85.8000 67.9900   1
  23  27  -9 -3.4300 53.7200   1
  27   9 -23 -43.400 66.4800   1
  23   9 -27 68.1400 47.6600   1
   9  27  23 -77.680 66.4800   1
   5  33  15 3.76000 89.5200   1
  33   5  15 -20.550 51.7600   1
  33  -5  15 19.3400 50.7100   1
  32   8  16 185.360 55.5800   1
   8  32  16 142.780 91.2600   1
  16  32   8 82.3000 55.9400   1
   8  32  16 158.410 71.4100   1
   8  16  32 139.060 58.9100   1
  32  16   8 152.850 47.7400   1
  16  32  -8 152.300 47.2900   1
  16   8  32 149.630 81.8500   1
  32  16  -8 97.6100 58.7700   1
  16   8 -32 175.720 57.0700   1
  32   8 -16 59.5800 67.6000   1
  32  -8 -16 328.610 77.0700   1
  32 -16  -8 185.500 64.9400   1
  11  35   1 521.550 64.3200   1
  35   1  11 514.090 68.8100   1
  35  -1  11 329.240 57.5100   1
  35  11   1 571.460 75.6200   1
  35  11  -1 512.280 73.7800   1
  35 -11   1 621.000 75.6600   1
  35   1 -11 576.240 69.7200   1
  -1  35 -11 366.350 56.3400   1
  35  -1 -11 549.890 59.7000   1
  35 -11  -1 451.910 55.2500   1
   1  35  11 510.960 75.0600   1
  11  35  -1 595.000 66.5600   1
   1  35  11 427.920 76.1000   1
   1  35 -11 580.790 69.8500   1
  11  35  -1 449.750 66.4300   1
  11  35   1 513.590 58.5800   1
  17  23  23 119.480 75.9800   1
  23  17  23 -12.340 52.6400   1
  23  23  17 -27.030 52.2900   1
  19  19  25 -41.340 61.9400   1
   5  31  19 592.650 100.290   1
  19  31   5 636.950 76.2900   1
  19  31  -5 610.840 69.3200   1
  31   5  19 638.260 67.5500   1
  31  19   5 533.490 58.4500   1
  31  19  -5 573.850 58.3800   1
  19  25  19 49.8000 48.1400   1
   5  31  19 600.860 71.1400   1
  31   5 -19 639.310 79.2800   1
  31 -19   5 590.960 75.9700   1
  31  -5 -19 463.380 83.1000   1
  19   5 -31 642.340 71.6000   1
  31 -19  -5 564.090 76.2600   1
  25  19 -19 41.2600 61.8000   1
  25  19  19 -6.7700 50.9500   1
  19  25  19 27.9300 82.4700   1
  19  19  25 160.340 58.8500   1
  23  17  23 65.4600 55.3400   1
  17  23  23 194.010 57.7400   1
  23  17 -23 108.430 53.9600   1
  23  23 -17 19.9900 42.1500   1
   4  36   6 -92.720 82.9200   1
  32 -18   0 147.480 69.9500   1
  32   0  18 55.5600 61.5800   1
   6  36  -4 -1.6600 62.4900   1
   6  36   4 51.3400 67.6700   1
  24  14  24 574.200 75.1900   1
  24  24 -14 325.410 57.9500   1
   4  36   6 86.4600 67.5600   1
  36  -6  -4 6.92000 65.8700   1
  36   4  -6 1.06000 45.7100   1
  36  -6   4 -4.4700 54.5300   1
  36  -4   6 67.8400 54.6000   1
  36   6  -4 -66.770 65.6300   1
  18  32   0 61.9600 71.3300   1
  24  24  14 642.260 83.6400   1
  32  18   0 -127.78 64.6000   1
  32   0 -18 53.4400 51.4600   1
  36   4   6 -63.650 43.7000   1
  36   6   4 50.8000 63.6100   1
  14  24  24 562.200 86.8700   1
  36  -4  -6 -65.380 65.4400   1
  24  14 -24 398.640 59.9500   1
  14  24  24 351.350 51.7500   1
  24  14  24 269.620 64.9200   1
   6  36   4 -154.24 69.9300   1
   6  36  -4 -102.99 51.4500   1
   4  36  -6 32.8300 54.2700   1
  24  26  10 345.940 68.7300   1
  34 -14   0 349.570 70.7300   1
  34   0 -14 422.950 56.8600   1
  34  14   0 448.690 63.8600   1
  34   0  14 337.090 49.1100   1
  14  34   0 296.310 54.9300   1
   0  34  14 363.220 74.9800   1
  26   0 -26 253.680 71.7700   1
  14  16  30 124.820 73.5800   1
  14  16  30 -6.2200 59.6900   1
  16  14  30 4.11000 73.5400   1
  10  24  26 319.480 59.9300   1
  24  10 -26 306.660 61.3100   1
  26  10 -24 163.120 66.3600   1
  26  24 -10 224.610 46.7200   1
  24  26 -10 215.850 55.2500   1
  26  24  10 240.470 72.3400   1
  26  26   0 305.640 50.3700   1
  26  10  24 302.550 64.0100   1
  10  26  24 167.960 68.5400   1
  10  26  24 305.080 70.0900   1
  10  24  26 333.960 93.6300   1
  32   2  18 145.190 45.2700   1
  30  16 -14 149.810 64.3600   1
  30  14 -16 119.690 47.3400   1
  18  32   2 67.3700 51.8400   1
  16  30  14 47.3500 59.5600   1
  32 -18  -2 74.8100 62.7400   1
  32  -2 -18 110.910 72.2600   1
  32 -18   2 1.82000 67.5300   1
  32   2 -18 -27.110 60.9100   1
  32  18  -2 262.640 66.6500   1
  32  18   2 251.550 67.1800   1
  14  30  16 123.640 49.6800   1
  14  30  16 358.570 89.8200   1
  16  30  14 22.1300 83.7400   1
  16  30 -14 104.060 50.0800   1
  32  -2  18 55.0200 53.5600   1
   2  32  18 -5.6100 82.6700   1
  30  16  14 123.880 65.6200   1
  30  14  16 -72.460 64.7600   1
  18  32  -2 5.27000 59.0600   1
   9  35   7 14.4300 69.7500   1
   7  35   9 -193.21 74.3800   1
   9  35   7 54.4400 73.1900   1
   9  35  -7 -144.35 71.1300   1
  35   9   7 -57.340 52.8000   1
  35  -7   9 -21.900 60.3000   1
  35   9  -7 65.1500 48.8600   1
  35   7  -9 89.4400 68.1000   1
  35  -9   7 -51.420 42.2600   1
  35  -9  -7 -167.69 67.2400   1
   7  35  -9 50.0800 53.9500   1
   9  35  -7 60.2100 57.9900   1
  35  -7  -9 -71.380 60.5000   1
   7  35   9 111.980 59.1800   1
  35   7   9 52.1200 61.3900   1
  21  17  25 126.600 55.3500   1
  21  25  17 12.5700 77.2800   1
  25  17  21 24.2200 71.5100   1
  25  21  17 -43.600 48.7500   1
  21  25 -17 -78.780 49.7400   1
  25  21 -17 -27.560 61.7500   1
  25  17 -21 -64.710 61.0000   1
  15  31  13 -28.070 82.7900   1
  13  31  15 -33.100 84.1700   1
  15  13  31 1.66000 82.6100   1
  21  17  25 11.6100 60.4300   1
  17  25  21 -19.420 46.6700   1
  15  31  13 -169.17 66.3100   1
  13  15  31 41.1500 60.4700   1
   3  35  11 71.5200 87.4800   1
  11  35  -3 349.500 63.6000   1
  11  35   3 303.260 62.0100   1
   3  35 -11 168.960 61.3800   1
   3  35  11 138.780 70.9900   1
  35 -11  -3 210.260 69.4000   1
  35  -3 -11 252.520 71.5600   1
  35   3 -11 262.800 61.4700   1
  35 -11   3 345.230 68.3300   1
  35  11  -3 72.4200 67.8300   1
  35  -3  11 308.120 47.8800   1
  35  11   3 255.230 50.0000   1
  35   3  11 291.300 63.3200   1
  13  31  15 12.4800 58.9500   1
  17  25  21 -18.820 58.8600   1
  17  21  25 106.450 59.0500   1
  31  13 -15 9.81000 56.6600   1
  31  15 -13 -6.0100 56.5800   1
  31  15  13 -5.1600 55.9300   1
  31  13  15 49.1000 57.3900   1
  29  17 -15 204.320 57.7600   1
  11  35   3 415.740 62.7200   1
  17  29  15 29.9400 50.0000   1
  27  -1 -25 215.080 66.1800   1
  27  25  -1 244.770 59.2500   1
  27  25   1 222.610 50.2200   1
  25  27  -1 72.1900 58.0300   1
  25  27   1 142.360 49.5900   1
  15  29  17 188.380 68.6600   1
  17  15  29 252.450 45.8600   1
  15  17  29 232.350 54.0400   1
  29  15 -17 202.620 58.1600   1
  17  29 -15 232.620 53.6600   1
  11  35  -3 211.170 66.7900   1
  29  17  15 229.370 67.8700   1
  29  15  17 118.280 66.6100   1
  17  29  15 205.820 84.4400   1
  15  29  17 219.560 88.2400   1
  17  15  29 174.580 59.7900   1
  15  17  29 120.390 85.9900   1
  25  -1 -27 174.350 54.9200   1
  17  21  25 71.9000 55.1700   1
  21  17 -25 102.960 42.8900   1
  15  31 -13 13.1800 58.4400   1
  25   1 -27 247.810 63.6700   1
   2  34  14 137.210 61.8800   1
  14  34  -2 331.920 55.8900   1
   2  34  14 278.740 66.2600   1
  14  34   2 242.790 67.2500   1
  34   2  14 119.460 53.0900   1
  34  14   2 402.780 69.0500   1
  34  -2  14 340.270 63.6700   1
  34  14  -2 322.520 61.2300   1
  34 -14   2 150.370 60.6300   1
  34   2 -14 117.520 71.1600   1
  34  -2 -14 304.880 73.8500   1
  34 -14  -2 243.590 62.5100   1
  10  34  10 124.130 60.5300   1
  34  10  10 76.9000 46.4100   1
  34 -10  10 -13.390 59.8500   1
  34  10 -10 -145.95 66.5000   1
  34 -10 -10 78.8900 62.3900   1
  14  22  26 153.170 64.2300   1
  14  26  22 239.890 65.1700   1
  22  14  26 155.760 77.7800   1
  22  26  14 178.420 55.1900   1
  26  14  22 120.990 69.3700   1
  26  22  14 27.2100 72.5500   1
  22  26 -14 110.560 43.0000   1
  26  22 -14 197.110 46.3600   1
  26  14 -22 238.350 66.1200   1
  22  14 -26 156.440 55.6700   1
  14  22  26 194.180 64.5600   1
  14  26  22 107.590 47.6100   1
  26  -2 -26 188.510 67.7800   1
  26   2 -26 171.390 70.6700   1
  26  26  -2 103.140 65.8900   1
  26  26   2 279.380 51.7900   1
  22  14  26 145.550 52.8000   1
  10  34  10 86.1200 50.4200   1
   8  36   0 192.400 67.6700   1
   0  36  -8 306.090 64.3400   1
   0  36   8 243.650 60.4900   1
  36   0  -8 274.380 69.1000   1
  36  -8   0 255.750 59.1100   1
  36   8   0 295.790 60.8500   1
   8  36   0 131.840 77.4200   1
   0  36   8 156.460 56.7900   1
  36   0   8 190.420 45.3300   1
  24  28   0 106.860 46.7300   1
  28  24   0 131.640 66.4500   1
  28   0 -24 111.790 51.7800   1
  24   0 -28 212.450 63.2100   1
  33   7 -15 86.6400 59.6800   1
   7  33 -15 -33.720 51.9200   1
   7  33  15 103.480 70.3000   1
  33 -15  -7 56.4600 72.8600   1
  33  -7 -15 167.450 73.5300   1
  15   7 -33 -41.160 55.4800   1
  33 -15   7 42.2400 54.1900   1
  27  -3 -25 307.850 81.4600   1
  27  25   3 119.940 49.8800   1
  25  27  -3 200.140 66.4800   1
  27  25  -3 111.570 65.9600   1
  27   3 -25 147.140 60.8100   1
  25   3 -27 104.420 50.1200   1
  33  15   7 193.920 66.1900   1
  25  27   3 31.7200 59.9900   1
  27   3  25 40.0200 68.2700   1
  15  33   7 22.7600 80.1400   1
  15  33  -7 51.9000 66.0100   1
  33   7  15 55.8100 45.5000   1
   3  27  25 126.240 76.2100   1
  33  15  -7 -67.540 57.6600   1
   9  29  21 48.4700 48.9600   1
  21   9 -29 90.0200 63.8600   1
  29   9 -21 5.37000 66.3900   1
  29  21  -9 108.980 45.7900   1
  29  21   9 32.0800 57.4700   1
  21  29  -9 -28.250 52.7100   1
  29   9  21 -12.880 64.5300   1
  21  29   9 -2.9900 62.4100   1
  21   9  29 7.05000 55.2700   1
   9  29  21 -37.550 79.0300   1
   9  21  29 -62.900 76.0400   1
  15  33   7 -43.800 62.2500   1
   7  33  15 1.17000 76.8500   1
  34  -8 -12 52.9200 63.2100   1
   8  34  12 -11.180 49.2600   1
  12  34   8 26.8400 49.6700   1
   8  34 -12 0.66000 62.0600   1
   8  30  20 220.500 72.7700   1
   4  32  18 372.980 93.3500   1
  18  32   4 348.620 74.8200   1
  18  32  -4 315.520 52.9800   1
  32   4  18 233.940 57.5800   1
  32  18   4 276.290 68.3700   1
  32  18  -4 307.810 68.3500   1
  32   4 -18 267.750 73.5000   1
  32 -18   4 316.920 62.0100   1
  32  -4 -18 388.000 58.5300   1
  32 -18  -4 228.070 74.2600   1
  18   4 -32 371.270 63.3300   1
   4  32  18 261.140 73.0200   1
  20   8 -30 350.480 60.3700   1
  30   8 -20 249.190 50.7600   1
  30  20  -8 213.970 58.0600   1
  30  20   8 265.710 51.2600   1
  30   8  20 249.700 66.6300   1
  20  30  -8 120.690 56.7500   1
  20   8  30 224.980 73.1900   1
   8  30  20 178.440 92.6200   1
   8  20  30 275.870 74.6300   1
   2  36   8 184.640 85.1100   1
   8  36   2 57.8100 70.4000   1
  28  16  18 230.930 61.2000   1
   8  36  -2 123.570 67.6200   1
  36   2   8 146.990 44.5500   1
  24  28  -2 -9.9100 65.5800   1
  28  24   2 39.4400 67.3000   1
  28  24  -2 70.4700 67.3100   1
  28   2 -24 -23.170 60.9400   1
  28  -2 -24 -33.450 63.3300   1
  24   2 -28 6.66000 58.6300   1
  28 -24   2 118.350 62.5900   1
  36   8   2 83.5700 65.7700   1
  36  -2   8 123.020 45.2300   1
  18  28  16 317.210 73.3000   1
  16  28  18 112.760 48.4600   1
  18  16  28 180.540 54.6400   1
  16  18  28 138.270 45.7600   1
  28  16 -18 193.660 57.7200   1
  28  18 -16 228.330 64.8400   1
  18  28 -16 156.530 58.5600   1
  28  18  16 138.770 49.0100   1
  36   8  -2 188.740 48.0900   1
  12  14  32 77.5400 60.7500   1
  14  12  32 58.6700 71.2700   1
  12  32  14 -50.370 73.9800   1
  14  32  12 -159.02 84.3900   1
  14  32 -12 23.5700 59.8900   1
  32  12  14 -10.740 56.0400   1
  32  14  12 -34.610 56.3600   1
  32  14 -12 -32.470 46.0100   1
  32  12 -14 39.7800 58.6700   1
  32 -14 -12 -80.960 55.3900   1
  32 -12 -14 37.1900 79.3800   1
  12  32  14 -204.50 69.5000   1
  14  32  12 -84.030 67.8300   1
  18  28  16 101.000 85.8700   1
  16  28  18 288.880 77.2000   1
  16  18  28 307.130 77.4200   1
  36  -8   2 143.850 57.0900   1
  36   2  -8 148.590 60.7500   1
  36  -8  -2 218.050 67.5300   1
  36  -2  -8 149.110 48.9900   1
  -2  36  -8 84.2500 42.7600   1
   2  36   8 153.910 60.1400   1
   8  36   2 247.740 68.6400   1
   8  36  -2 176.520 67.0900   1
  24  28   2 56.1000 59.2100   1
   8  34  12 77.2100 63.8800   1
  12  34   8 43.0200 70.5300   1
  34 -12   8 60.1400 62.2300   1
  12  34  -8 21.5700 56.7200   1
  34   8  12 86.0100 44.7500   1
  34  12   8 73.6100 65.4900   1
  34  -8  12 37.9600 52.0300   1
  34  12  -8 -50.610 46.1900   1
  34   8 -12 113.790 59.8800   1
  34 -12  -8 -24.100 70.0000   1
  20  30   8 158.920 66.4800   1
  26  26   4 -50.500 57.6700   1
   4  34  14 1.25000 50.5100   1
  34  14   4 18.0700 57.9400   1
  12  30  18 97.7700 68.7000   1
  18  12 -30 97.4300 53.8300   1
  30  12 -18 -12.790 66.3200   1
  30  18 -12 9.49000 44.8900   1
  30  18  12 99.8100 49.0300   1
  30  12  18 91.5500 46.7200   1
  18  30 -12 182.050 53.2800   1
  18  30  12 83.7700 81.9400   1
  12  30  18 150.780 79.0700   1
  18  12  30 83.9900 71.1500   1
  12  18  30 98.4500 61.7200   1
  22  20  22 50.8400 56.6800   1
   6  36   6 -4.8800 71.7300   1
  34   4  14 87.2100 61.3200   1
  14  34  -4 71.2300 61.8100   1
  14  34   4 40.5000 80.0600   1
   4  34  14 104.620 61.5800   1
  34 -14  -4 -37.040 70.2200   1
  34  -4 -14 80.2700 71.4600   1
  34 -14   4 37.1900 64.9900   1
  20  22  22 158.750 55.4500   1
  22  20 -22 9.62000 51.6700   1
  10  22  28 170.310 88.7400   1
  10  28  22 -10.940 64.0000   1
  22  10  28 129.380 54.7200   1
  22  28  10 0.26000 51.9800   1
  34   4 -14 8.37000 68.3100   1
   4  26  26 86.1500 60.1200   1
  34  14  -4 148.560 59.1900   1
  34  -4  14 54.5900 52.4800   1
  26  26  -4 91.2900 56.5400   1
  26   4 -26 150.130 68.7300   1
  14  34   4 172.480 71.7500   1
  20  22  22 195.150 82.8800   1
  22  20  22 -91.080 75.7100   1
  22  22  20 177.400 55.9900   1
  26   4  26 96.0800 61.0000   1
   6  36  -6 -65.490 51.2200   1
  36   6   6 159.730 55.7600   1
  36   6  -6 56.6500 67.8000   1
  36  -6   6 -13.910 43.6300   1
  36  -6  -6 -9.6000 68.1600   1
   6  36   6 -46.260 58.0000   1
   6  36  -6 -72.600 43.5400   1
  22  10 -28 37.8600 57.8300   1
  28  10 -22 95.5900 58.1200   1
  28  22 -10 105.670 54.2300   1
  22  28 -10 23.6000 43.4500   1
  28  22  10 34.6700 68.1400   1
  28  10  22 140.460 59.7100   1
  20  22 -22 -29.940 49.2300   1
  22  22 -20 -22.550 41.0600   1
  10  28  22 -19.900 67.3000   1
  19  31   7 500.530 62.1100   1
   5  35  11 49.4300 87.0000   1
  23   1 -29 20.9300 59.8600   1
  23  29  -1 -35.770 56.3900   1
  29  23  -1 -56.490 55.3200   1
  29   1 -23 -70.490 69.5500   1
  29  -1 -23 -125.18 50.2300   1
  29 -23   1 32.6300 62.1900   1
  23  29   1 11.0900 47.5200   1
  19  31  -7 527.620 71.5500   1
   5  35  11 66.2800 50.1400   1
  31  11  17 118.230 55.9500   1
  17  31 -11 95.7400 51.4700   1
  17  31  11 35.2600 79.6800   1
  11  31  17 75.5600 75.7700   1
  17  11  31 133.740 82.3200   1
  11  17  31 -20.390 85.2200   1
   5  35 -11 108.330 60.7900   1
  35 -11  -5 89.0000 69.2900   1
  11  35   5 23.6800 70.8600   1
  11  35  -5 30.1500 72.6400   1
  31   7  19 461.510 63.1100   1
  31  19   7 374.910 72.1900   1
  35   5  11 164.230 62.8300   1
  35  11   5 35.0600 64.2600   1
  35  -5  11 105.320 52.8400   1
  35  11  -5 202.330 67.1200   1
  35 -11   5 66.8700 56.1100   1
  35   5 -11 151.920 69.7200   1
  31  19  -7 442.200 72.2700   1
  25  11  25 420.200 59.9800   1
  19   7 -31 406.510 54.0800   1
  25  25  11 366.760 79.3400   1
  25  25 -11 494.400 70.2000   1
  35  -5 -11 232.130 61.7500   1
  25  11 -25 591.190 75.6600   1
  11  25  25 359.990 63.7000   1
  13  19  29 112.780 87.3100   1
  29  23   1 79.3900 57.1600   1
  31  -7 -19 567.090 66.9900   1
   7  31  19 489.480 68.7700   1
  31   7 -19 430.800 74.0700   1
  11  25  25 467.880 97.5600   1
  17  31  11 48.7800 72.0800   1
  11  31  17 122.910 60.2000   1
  31  11 -17 78.0400 46.7100   1
  31  17 -11 98.2200 57.4300   1
  31  17  11 83.1900 57.4900   1
  11  35   5 101.960 60.2100   1
   7  31  19 511.440 100.080   1
  19   7  31 372.660 73.7100   1
  13  29  19 -3.5700 47.3200   1
  13  19  29 120.160 61.8700   1
  19  13 -29 85.1700 62.0900   1
  29  13 -19 17.2500 58.2000   1
  29  19 -13 33.9700 45.6300   1
  19  29 -13 34.7100 52.2400   1
  29  19  13 -35.850 67.5600   1
  29  13  19 132.890 47.2200   1
   7  19  31 537.610 80.6300   1
  19  29  13 53.0000 79.1500   1
  13  29  19 133.450 61.8800   1
  19  13  29 90.0600 80.8000   1
  -1  37   1 643.080 76.2100   1
  -1  37  -1 544.910 64.7800   1
   1  37  -1 559.280 127.890   1
   1  37   1 523.290 88.0300   1
  37   1   1 512.700 65.6600   1
  37   1  -1 502.340 63.9600   1
  37  -1   1 734.550 76.8400   1
  37  -1  -1 527.430 57.3300   1
  -1  37  -1 435.090 70.4300   1
  -1  37   1 538.610 57.1800   1
   1  37   1 521.130 74.2700   1
  20  24  20 83.8000 73.9400   1
  20  20  24 -173.73 55.9600   1
  28  -4 -24 -67.370 67.4800   1
  24   4 -28 172.400 68.3900   1
  28   4 -24 26.8700 59.2200   1
  24  28  -4 -31.090 55.8400   1
  28  24   4 -158.62 67.3800   1
   8  36   4 -33.950 69.8400   1
   8  36  -4 66.7600 67.1100   1
  36   4   8 37.8200 43.7400   1
  36   8   4 77.1800 44.7100   1
  36  -4   8 -39.340 43.6300   1
  36   8  -4 94.6600 48.3800   1
  36  -8   4 121.210 54.9400   1
  36   4  -8 -97.330 57.2500   1
  36  -8  -4 115.910 68.0900   1
  36  -4  -8 63.7500 60.3000   1
   4  36   8 8.75000 48.0800   1
   8  36   4 7.88000 58.3800   1
   4  36  -8 -5.7500 43.6100   1
   8  36  -4 26.2700 64.9700   1
  24  28   4 -68.310 66.4700   1
  28   4  24 34.4000 47.2900   1
   4  28  24 116.740 86.9200   1
  28  24  -4 32.9000 45.5600   1
   4  36   8 -88.370 85.6700   1
  20  24  20 19.1000 46.5800   1
  20  20  24 -25.060 42.9000   1
  20  20 -24 -56.610 56.7300   1
  24  20 -20 18.0700 52.3300   1
  20  24 -20 9.80000 55.6100   1
  24  20  20 81.1200 51.5200   1
  17  27  19 235.790 68.7400   1
  11  33  13 167.000 62.9300   1
  13  33  11 63.6600 60.3800   1
  13  33 -11 183.230 54.9200   1
   1  37   3 258.930 60.9700   1
  33  11  13 92.6100 64.7400   1
  33  13 -11 167.960 60.3200   1
  33  11 -13 -27.050 65.8900   1
  33 -11 -13 19.4200 73.0800   1
  33 -13 -11 80.6300 51.9800   1
  19  27  17 65.2900 51.5400   1
  -1  37   3 302.660 70.1500   1
  33 -17  -1 31.9800 61.5000   1
  33 -17   1 -2.9300 48.3900   1
  33  -1 -17 44.9300 62.4100   1
  33   1 -17 -98.890 60.4200   1
  33  17  -1 72.9000 48.8800   1
  33  17   1 90.2800 47.6200   1
   5  25  27 -62.800 81.7100   1
   5  27  25 73.3700 61.7100   1
  25   5  27 20.8900 70.4300   1
  27   5  25 94.0800 60.2700   1
  25  27   5 13.0000 67.5500   1
  27  25   5 9.98000 47.0000   1
  25  27  -5 52.3100 46.5500   1
  33   1  17 52.6600 43.7000   1
  33  -1  17 53.6500 61.9900   1
  17  33   1 -88.290 60.0600   1
  17  33  -1 -195.49 69.2800   1
   1  33  17 -114.75 56.4100   1
   1  37  -3 382.700 71.1900   1
   3  37  -1 211.450 81.5100   1
   3  37   1 306.340 73.5200   1
  11  33  13 128.250 70.3000   1
  13  33  11 70.1100 71.9900   1
  37   1   3 284.570 58.9000   1
   3  37   1 222.790 69.8100   1
   3  37  -1 336.070 69.9300   1
   1  37  -3 299.680 60.3300   1
   1  37   3 276.320 70.2800   1
  -1  37  -3 208.770 47.3700   1
  -1  37   3 216.460 59.1900   1
  37  -1  -3 247.080 48.6100   1
  37  -3  -1 318.190 50.9700   1
  23  15  25 197.410 45.2700   1
  15  25  23 180.050 48.3900   1
  15  23  25 239.570 48.4100   1
  23  15 -25 227.190 56.1900   1
  27  25  -5 103.810 45.5500   1
  37   3   1 200.710 48.2800   1
  25  15 -23 114.190 46.7600   1
  25  23 -15 145.830 61.6100   1
  25  23  15 269.610 66.4200   1
  23  25  15 223.800 77.5300   1
  25  15  23 145.910 74.8400   1
  23  15  25 78.3400 67.3200   1
  15  25  23 206.360 87.0500   1
  23   3 -29 28.6900 47.9500   1
  29  -3 -23 112.110 64.9900   1
  29 -23   3 63.3200 59.7100   1
  29   3 -23 30.4400 69.0600   1
  29  23  -3 -51.330 45.3700   1
  29  23   3 -4.5000 58.1000   1
  23  29  -3 -97.020 54.7100   1
  29   3  23 92.0500 63.8300   1
  23  29   3 -13.500 58.9600   1
   3  29  23 -116.74 96.3400   1
  27   5 -25 -36.700 66.6300   1
  25   5 -27 98.7500 58.6200   1
  15  23  25 254.620 65.3000   1
  37   1  -3 220.460 48.9300   1
  37  -3   1 389.090 69.1000   1
  37  -1   3 318.640 49.2500   1
  37   3  -1 240.260 68.4200   1
  11  23  27 219.350 81.5800   1
  11  27  23 332.770 85.0300   1
  23  11  27 269.060 78.4700   1
  27  11  23 256.100 63.7900   1
  33  13  11 46.3300 65.8700   1
  23  27  11 270.210 55.7300   1
  27  23  11 295.440 64.1900   1
  23  27 -11 266.670 47.5300   1
  27  23 -11 170.190 64.1700   1
  27  11 -23 271.250 60.7100   1
  23  11 -27 290.440 50.7000   1
  11  23  27 285.360 58.9500   1
  11  13  33 180.170 68.1900   1
  17  19  27 150.520 59.9700   1
  19  17  27 160.870 58.5200   1
  17  27  19 -63.600 58.7100   1
  19  27  17 241.760 59.8500   1
  27  17  19 308.050 63.8600   1
  27  19  17 63.3100 51.9600   1
  19  27 -17 164.200 52.4700   1
  27  19 -17 128.370 63.8500   1
  27  17 -19 107.540 45.7700   1
  17  19  27 124.710 54.4500   1
  19  17  27 57.7700 60.9200   1
  11  27  23 203.670 58.9300   1
  13  11  33 69.3100 66.8700   1
  20  28 -14 -90.180 58.7700   1
  28  20 -14 16.4400 45.0900   1
  32  10 -16 128.090 67.6800   1
  14  20  28 98.0600 62.1300   1
  14  28  20 28.3000 61.7400   1
  28  14 -20 88.3300 56.8400   1
  20  14 -28 24.4400 62.0600   1
  32  16  10 -80.210 64.5000   1
  32  10  16 -138.50 63.6300   1
  16  32  10 -116.23 70.2000   1
  14  20  28 -62.910 62.1600   1
  10  32  16 2.00000 64.1100   1
  32  16 -10 75.4900 57.7800   1
  14  28  20 54.5800 68.6000   1
  16  32  10 -2.4900 70.8600   1
  10  32  16 -88.030 49.3300   1
  32 -10 -16 74.4700 77.9300   1
  10  16  32 -183.74 79.1800   1
  16  10  32 18.1400 70.6700   1
  20  14  28 88.2300 69.8300   1
  20  28  14 7.18000 68.5900   1
  28  14  20 1.43000 48.8400   1
  28  20  14 52.4900 70.0200   1
  18   6 -32 475.410 65.5100   1
  22  18  24 34.6900 54.5000   1
   6  32  18 496.270 87.4200   1
  18  24  22 38.2200 55.8700   1
   6  32  18 334.020 55.7000   1
  22  30   0 -18.910 59.8000   1
  30  22   0 -7.3900 46.4300   1
  30   0 -22 -98.010 71.4800   1
  30 -22   0 -34.820 62.6900   1
  18  24  22 160.850 86.0400   1
  18  22  24 52.7600 60.2900   1
  24  18  22 281.630 76.4100   1
  22  24  18 37.3900 55.1400   1
  24  22  18 -55.830 51.8100   1
  22  24 -18 66.7500 43.3900   1
  24  22 -18 52.8900 54.1100   1
  22  18 -24 -58.970 60.6300   1
  24  18 -22 -50.640 55.0500   1
  18  22  24 -52.800 44.8800   1
  32 -18  -6 353.280 78.8800   1
  32  -6 -18 376.320 70.9700   1
  32 -18   6 507.350 72.4600   1
  32   6 -18 457.180 74.8100   1
  32  18  -6 445.600 55.4100   1
  32  18   6 346.130 52.2900   1
  22  18  24 -5.3200 51.9600   1
  32   6  18 339.790 59.2900   1
  18  32  -6 504.900 66.0700   1
  18  32   6 558.870 75.7300   1
  33  -3 -17 10.8400 52.7100   1
  33 -17   3 42.1200 58.0100   1
  33   3 -17 -14.920 71.2600   1
  33  17  -3 15.8900 57.0700   1
  33  17   3 -190.99 57.1200   1
  33  -3  17 15.5500 51.6500   1
  33   3  17 -35.850 61.2100   1
  35   9   9 69.1700 64.1900   1
   9  35   9 10.8000 83.8100   1
   3  37   3 23.0300 57.1200   1
  37  -3  -3 146.600 57.4600   1
  37  -3   3 117.420 45.0600   1
  37   3  -3 243.480 67.1400   1
  37   3   3 108.640 64.3600   1
   3  37  -3 231.900 79.6700   1
   3  37   3 169.310 78.6500   1
   3  33  17 166.880 64.0400   1
  17  33   3 -24.350 62.7300   1
  17  33  -3 1.38000 58.6800   1
   3  37  -3 52.4600 46.5500   1
  33 -17  -3 -73.600 61.1200   1
   3  33  17 57.1200 70.6700   1
   9  35  -9 -32.270 45.8500   1
  35  -9  -9 60.9000 62.9300   1
  35   9  -9 -59.230 66.3900   1
  35  -9   9 28.9500 51.2200   1
   6  26  26 113.540 84.0600   1
  14  34  -6 8.70000 48.8100   1
   6  34  14 -25.350 75.7700   1
  34   6  14 129.750 61.7600   1
  34  -6 -14 112.920 63.5500   1
  34 -14  -6 -39.490 69.8300   1
   6  34  14 4.83000 68.9400   1
   6  34 -14 46.1000 51.8600   1
  14  34   6 25.5800 50.2100   1
  34  14   6 -24.680 45.0600   1
  34  -6  14 29.3900 59.7300   1
  34  14  -6 -42.480 66.0400   1
  26   6 -26 22.8200 48.3300   1
  34   6 -14 6.81000 48.0400   1
  34 -14   6 -15.660 44.3000   1
  26  26  -6 53.6300 56.8600   1
  26  26   6 -39.780 58.8200   1
  14  34   6 72.1400 57.1800   1
   2  30  22 -135.05 83.3800   1
  22  30   2 152.430 49.6000   1
  22  30  -2 55.3700 58.5500   1
  30   2  22 63.5300 65.1600   1
  30  22   2 185.710 49.5000   1
  30  22  -2 -3.7200 56.7900   1
  30   2 -22 13.9100 61.8600   1
  30 -22   2 64.9100 62.0100   1
  30  -2 -22 5.36000 53.6400   1
  22   2 -30 76.4500 60.6200   1
  30 -22  -2 66.5600 55.4600   1
  33 -15  -9 -0.2600 63.2200   1
   9  33  15 58.6300 51.2300   1
  15  33   9 -20.370 69.6400   1
  23   5 -29 59.5600 67.5100   1
  13  35   1 473.430 77.0000   1
   1  35  13 598.560 62.8200   1
  35  -1 -13 660.430 80.4900   1
  35 -13  -1 677.540 73.7100   1
  35   1 -13 657.450 64.8900   1
  35 -13   1 600.250 69.9400   1
  35  13  -1 732.800 65.1800   1
  35  13   1 596.520 68.3900   1
  35  -1  13 646.440 71.9200   1
  35   1  13 514.750 62.6700   1
  13  35   1 706.480 81.8200   1
  13  35  -1 765.040 82.8500   1
   1  35  13 732.000 101.010   1
   7  35 -11 42.5000 44.4500   1
  11  35   7 84.3300 58.4400   1
   7  35  11 64.9600 63.4000   1
  35 -11  -7 -91.830 68.7900   1
  35  -7 -11 116.610 63.1700   1
  35   7 -11 129.710 59.6800   1
  35 -11   7 24.6100 61.4300   1
  35  11  -7 55.8300 59.6600   1
  35  -7  11 61.0400 62.1100   1
  35  11   7 94.0300 46.5100   1
  35   7  11 73.7400 63.7900   1
  11  35  -7 28.0400 62.0900   1
  11  35   7 110.650 80.8500   1
   7  35  11 110.960 86.6500   1
  29   5 -23 79.2200 68.0400   1
  29  23  -5 13.5300 62.4100   1
  29  23   5 8.51000 58.4600   1
  23  29  -5 58.6900 64.0300   1
  29   5  23 63.4200 68.1600   1
  23  29   5 33.3600 71.6600   1
   5  37  -1 96.2400 65.2700   1
   5  37   1 169.950 59.2100   1
   1  37  -5 153.630 45.7100   1
  -1  37  -5 117.300 53.7200   1
   1  37   5 135.650 65.6200   1
  -1  37   5 130.060 66.5700   1
  37  -1  -5 128.890 57.9000   1
  37  -5  -1 84.4300 47.1200   1
  37   1  -5 83.0700 46.5600   1
  37  -5   1 10.3000 62.3500   1
  37  -1   5 68.1100 46.9400   1
  37   5  -1 75.8500 46.0200   1
  37   1   5 55.3600 45.9100   1
  37   5   1 88.8900 55.9200   1
   5  37  -1 101.850 69.7700   1
   5  37   1 85.4000 70.7900   1
   1  37   5 136.000 66.6200   1
  -1  37   5 74.8200 55.1300   1
  29  -5 -23 3.55000 58.3800   1
  15   9  33 -89.020 69.0700   1
   9  33  15 -16.320 62.1300   1
  15  33   9 64.2400 58.9900   1
  33   9  15 35.7800 55.4500   1
  33  15   9 -44.380 44.9000   1
  33  15  -9 -142.42 57.2100   1
  33   9 -15 66.5500 49.1700   1
  33  -9 -15 14.8400 65.9500   1
  27  15  21 -71.740 59.0800   1
  27  21 -15 40.8200 64.0700   1
  15  21  27 66.8200 77.5800   1
  15  27  21 188.460 88.5000   1
  27  21  15 -122.06 62.2700   1
  21  27 -15 51.8700 54.1200   1
  21  15  27 -127.71 80.5500   1
  21  27  15 -14.370 53.5500   1
  21  15 -27 -0.1100 42.6300   1
  21  15  27 -84.720 51.6300   1
  15  27  21 39.7300 57.8800   1
  15  21  27 -41.540 54.3800   1
  27  15 -21 -32.520 55.8200   1
  24  12  26 431.230 61.4100   1
  28   6  24 65.1600 58.8200   1
  24  28   6 113.470 70.0800   1
  28  24   6 9.63000 67.3200   1
  24  28  -6 -92.080 61.9600   1
  28  24  -6 -9.5000 63.6800   1
  28   6 -24 -29.230 48.4700   1
  10  36   0 432.250 66.3700   1
   0  36 -10 376.630 57.2800   1
   0  36  10 391.580 55.6000   1
  36   0 -10 588.090 70.0400   1
   6  24  28 35.5300 59.7200   1
  24   6  28 -28.250 74.7500   1
  36 -10   0 543.020 66.8700   1
  36  10   0 544.580 66.5300   1
  36   0  10 526.250 70.1100   1
  10  36   0 607.890 78.2900   1
   0  36  10 473.410 75.3000   1
   8  36  -6 -103.58 55.7200   1
   6  36  -8 84.2500 62.4300   1
   8  36   6 11.3000 48.1300   1
   6  36   8 3.18000 59.2200   1
  36  -6  -8 32.5900 59.4100   1
  36  -8  -6 -5.1300 67.6200   1
  36   6  -8 36.5400 48.5800   1
  36   8  -6 -12.390 58.0700   1
  36  -6   8 37.0800 53.5200   1
  36   6   8 -99.020 53.0900   1
  24  26 -12 535.070 63.2400   1
   8  36  -6 32.9400 51.2000   1
   8  36   6 52.0500 72.6300   1
   6  36   8 43.9600 74.3100   1
  26  24  12 539.680 61.4000   1
  24  26  12 611.150 83.3600   1
  12  24  26 504.530 74.1300   1
  36   8   6 -92.200 61.7600   1
  12  26  24 586.600 102.300   1
  26  12  24 503.860 69.2300   1
  12  26  24 480.970 56.0900   1
  12  24  26 548.360 67.5600   1
  24  12 -26 520.820 65.4600   1
  26  12 -24 430.270 64.2600   1
  26  24 -12 378.810 60.6500   1
  36  10  -2 335.190 71.3200   1
  36  10   2 311.480 51.6600   1
  36  -2  10 385.740 65.9700   1
  36   2  10 320.340 57.8000   1
  10  36  -2 360.170 80.7100   1
  10  36   2 281.130 73.1100   1
   2  36  10 272.100 88.8600   1
  10  20  30 81.9500 86.7900   1
  30  22  -4 127.010 66.1900   1
  12  34  10 268.070 71.0200   1
  10  34  12 348.690 66.8400   1
  34 -10 -12 332.650 76.6700   1
  34 -12 -10 61.8300 52.9100   1
  34  10 -12 234.840 51.7100   1
  20  10  30 -14.920 56.1200   1
  20  30  10 182.890 67.8900   1
  30  10  20 -50.060 45.2900   1
  20  30 -10 73.6000 55.2900   1
  30  20  10 -108.26 68.2600   1
  30  20 -10 15.4500 55.9600   1
  30  10 -20 49.6600 68.0700   1
  20  10 -30 94.0700 56.0000   1
  10  30  20 92.1800 59.4400   1
  34 -12  10 108.920 52.6900   1
  34  12 -10 61.0600 67.7500   1
  34 -10  12 194.410 44.2300   1
  34  12  10 156.720 46.3000   1
  34  10  12 119.130 45.8800   1
  12  34  10 -62.260 83.6200   1
  10  34  12 395.560 91.4000   1
  12  10  34 179.610 67.8100   1
  18  20  26 2.93000 70.9400   1
  20  18  26 -108.13 57.5400   1
  18  26  20 59.3000 84.0500   1
  20  26  18 -92.040 80.2500   1
  26  18  20 27.9000 50.5700   1
  26  20  18 48.1500 51.0000   1
  20  26 -18 87.9600 54.6500   1
  26  20 -18 25.0700 43.8100   1
  26  18 -20 104.670 53.8500   1
  18  20  26 95.9700 61.2600   1
  20  18  26 108.980 45.0300   1
  18  26  20 56.3800 57.2500   1
  20  26  18 56.7700 60.5300   1
  10  36  -2 329.820 62.0600   1
  10  36   2 227.950 50.0400   1
   2  36 -10 264.200 63.3700   1
   2  36  10 373.030 54.8800   1
  -2  36 -10 264.650 53.5200   1
  36  -2 -10 408.890 74.8600   1
  30  -4 -22 129.340 76.7600   1
  22   4 -30 170.900 61.1500   1
  30   4 -22 149.410 61.2700   1
  36 -10  -2 319.400 64.0300   1
  36 -10   2 296.700 51.7000   1
  36   2 -10 368.190 64.1500   1
   4  30  22 26.7500 75.4200   1
  22  30   4 -12.040 72.0400   1
  30   4  22 236.960 65.9800   1
  22  30  -4 172.410 67.1700   1
  30  22   4 8.97000 47.6000   1
  19  31   9 156.710 68.0100   1
  31   9  19 78.9000 57.0900   1
   9  31  19 87.0700 64.7600   1
  31  19   9 220.630 51.4700   1
  31  19  -9 158.970 48.0900   1
  31   9 -19 190.640 60.6400   1
  19  31  -9 179.600 64.7400   1
  31  -9 -19 92.2900 59.4800   1
   9  31  19 200.110 61.5100   1
  29  21  11 -60.030 60.6200   1
  35 -13  -3 264.380 64.2200   1
   3  35  13 397.980 65.7700   1
  13  35   3 236.090 52.6700   1
   3  37   5 148.460 74.3600   1
   5  37   3 -83.480 69.1800   1
   5  37  -3 89.9300 76.9300   1
  37   5   3 10.3400 56.3700   1
  31 -21  -1 57.5300 74.1300   1
  31 -21   1 112.380 72.4200   1
  31  -1 -21 -15.050 72.9100   1
  31   1 -21 128.370 64.1300   1
  31  21  -1 44.9800 57.7900   1
  31  21   1 160.160 67.1900   1
  31   1  21 157.470 56.4300   1
  21  31  -1 159.380 59.4500   1
  21  31   1 39.6100 61.5500   1
  37   3   5 21.5500 44.6000   1
  37   5  -3 92.0600 47.6000   1
  37  -3   5 114.070 45.4800   1
  37   3  -5 -47.780 65.0100   1
  37  -5   3 -19.450 45.4400   1
   5  33  17 163.910 66.5900   1
  17  33   5 141.700 67.3800   1
  17  33  -5 154.520 61.1000   1
  33   5  17 186.320 46.6800   1
  33  17   5 285.880 68.5700   1
  33  17  -5 147.590 67.0500   1
  33   5 -17 231.350 62.7800   1
  33 -17   5 173.910 59.2300   1
  33  -5 -17 12.2700 72.9600   1
  17   5 -33 194.860 67.1900   1
  33 -17  -5 240.310 65.9000   1
   5  33  17 173.110 61.4000   1
  37  -3  -5 -83.340 67.3900   1
   7  27  25 -117.51 89.3300   1
   7  25  27 -70.520 77.3600   1
  27   7  25 -24.770 60.0000   1
  25  27   7 -11.270 71.8500   1
  27  25   7 141.950 50.8200   1
  25  27  -7 23.0800 64.2900   1
  27  25  -7 95.9500 62.4400   1
  27   7 -25 -17.710 58.3100   1
  25   7 -27 73.2300 60.2600   1
   3  37   5 -30.340 57.9100   1
   5  37   3 71.7000 66.9100   1
   3  37  -5 -32.490 62.3900   1
   5  37  -3 60.2300 66.0600   1
  37  -5  -3 -15.020 65.9300   1
  35  13   3 411.950 69.3200   1
  29  11  21 20.3400 46.9000   1
  21  29  11 81.4900 66.1200   1
  21  11  29 -37.170 55.8000   1
  11  29  21 86.7800 79.7200   1
  11  21  29 57.5000 76.8100   1
   3  35  13 364.770 79.4500   1
  19   9 -31 168.370 66.2500   1
  19   9  31 147.470 71.6600   1
   9  19  31 105.230 58.9400   1
  13  35   3 266.580 81.7900   1
  13  35  -3 326.850 67.7400   1
  35   3  13 306.700 48.1600   1
  35  -3  13 325.400 48.6900   1
  35  13  -3 436.420 65.4800   1
  35   3 -13 323.860 72.1600   1
  35 -13   3 398.230 63.6100   1
  35  -3 -13 470.560 68.7300   1
  11  29  21 23.3700 61.4300   1
  21  11 -29 29.8300 56.9900   1
  29  11 -21 10.8600 46.7700   1
  29  21 -11 8.06000 54.9500   1
  21  29 -11 32.2200 43.3000   1
  16  24  24 248.760 76.4600   1
  24  16  24 243.880 77.7300   1
  24  24  16 265.210 57.2400   1
  24  24 -16 165.630 55.2700   1
  24  16 -24 225.580 65.5900   1
  16  24  24 235.180 49.3300   1
  24  16  24 234.000 64.0100   1
  21  23  21 126.430 48.0400   1
  31   3 -21 196.040 52.0400   1
  31 -21   3 300.140 72.7700   1
  21  23 -21 77.9800 51.0500   1
  23  21  21 70.2500 56.5700   1
  21  23  21 129.440 58.3700   1
  31  -3 -21 336.280 58.1900   1
  31 -21  -3 293.580 58.7400   1
  21   3 -31 182.100 61.1700   1
  23  21  21 51.5700 47.6700   1
  21  21  23 49.8800 44.9300   1
  23  21 -21 109.540 53.2000   1
  21  21 -23 132.690 51.9300   1
  15  15  31 63.5900 85.7700   1
  15  31  15 188.080 87.8000   1
  31  15  15 75.9100 57.0200   1
  31  15 -15 -30.790 64.3900   1
  15  31  15 50.4800 59.6900   1
   3  31  21 257.970 77.8100   1
  31   3  21 269.650 59.1200   1
  21  31   3 267.400 54.4400   1
  31  21   3 257.730 70.9100   1
  21  31  -3 150.240 68.9500   1
  31  21  -3 239.790 49.2500   1
   4  36  10 40.7900 85.2200   1
  10  36   4 176.780 72.1900   1
  34   0  16 193.510 55.3400   1
  34  16   0 160.240 47.5900   1
  34   0 -16 265.010 54.3200   1
   4  36 -10 83.8300 53.3500   1
  10  36  -4 65.5100 53.9300   1
  36   4  10 69.9500 54.6700   1
  36  10  -4 267.220 68.2400   1
  36 -10   4 47.8900 46.5500   1
  36 -10  -4 281.410 70.4100   1
  36  -4 -10 158.520 61.8800   1
   4  36  10 129.160 62.3900   1
  36  10   4 182.580 58.7900   1
  36  -4  10 154.530 53.2700   1
  10  36  -4 154.760 59.4200   1
  12  28  22 -92.340 59.1300   1
  36   4 -10 -32.440 57.6000   1
  10  36   4 126.460 59.9200   1
   8  18  32 218.410 74.2200   1
  18   8  32 287.920 73.5400   1
  34 -16   0 55.1200 63.0400   1
   8  32  18 272.210 68.6300   1
  18  32   8 88.3600 56.0100   1
  18  32  -8 158.920 56.6200   1
  32  18   8 246.310 69.6400   1
  32  18  -8 107.320 59.3900   1
  32   8 -18 282.260 70.3700   1
  18   8 -32 221.490 67.5400   1
  32  -8 -18 251.850 69.3000   1
   8  32  18 402.220 75.0100   1
  32   8  18 162.630 64.5700   1
  22  28  12 157.570 55.3300   1
  28  12  22 -0.2300 48.8100   1
  28  22  12 66.3300 49.8900   1
  22  28 -12 50.6500 44.8000   1
  28  22 -12 72.8500 47.0600   1
  28  12 -22 75.8500 46.7400   1
  12  28  22 168.980 91.2000   1
  16  34   0 23.9500 62.5300   1
  22  12 -28 121.170 63.5000   1
  16  16  30 211.980 54.2200   1
  22  12  28 58.5400 80.3500   1
  16  16  30 159.460 63.2400   1
  16  30  16 393.730 90.7200   1
  30  16  16 428.400 72.5200   1
  16  30  16 310.730 53.6600   1
  12  22  28 149.510 65.5700   1
  12  22  28 -21.290 43.5600   1
  30  16 -16 253.030 67.5400   1
  26  26  -8 50.5200 55.4500   1
  26  26   8 87.2800 49.8300   1
  26   8  26 57.8300 51.9400   1
   8  26  26 -2.1800 80.3000   1
  34 -14  -8 -37.520 62.4500   1
  34  -8 -14 13.3100 50.2100   1
  34  14  -8 60.9900 47.6800   1
  34 -14   8 60.6400 44.6300   1
  14  34  -8 2.96000 58.6800   1
   8  34 -14 86.9600 61.5300   1
   8  34  14 12.3400 49.7000   1
  34   8  14 -11.780 55.2000   1
  26   8 -26 -17.430 65.9300   1
  34  14   8 8.69000 64.9100   1
   8  34  14 -17.200 87.7800   1
  14  34   8 105.210 82.3200   1
  34   8 -14 45.9500 49.5400   1
  14  34   8 -112.39 59.7300   1
  16  22  26 -60.230 74.9800   1
  16  34   2 192.520 54.0800   1
   2  34  16 174.940 85.0600   1
  22  16  26 41.8200 52.8900   1
  16  26  22 135.760 49.0400   1
  16  22  26 -93.180 55.3500   1
  22  16 -26 55.2900 54.5600   1
  26  16 -22 22.4500 63.5100   1
  26  22 -16 -73.260 52.9300   1
  22  26 -16 112.430 53.2100   1
  26  22  16 18.6300 51.1400   1
  26  16  22 42.6900 62.4100   1
  22  26  16 32.9800 77.8300   1
  22  16  26 -92.730 68.4900   1
  16  26  22 -41.000 60.9200   1
  34  16   2 -43.600 46.6700   1
  34  16  -2 -0.6000 47.4200   1
  34   2 -16 22.1200 72.2500   1
  34 -16   2 62.5400 60.7200   1
  34  -2 -16 86.1300 73.5600   1
  34 -16  -2 51.0000 62.7600   1
  14  32  14 152.560 70.2100   1
  32  14 -14 80.3400 48.4900   1
  32  14  14 -32.790 45.2100   1
  14  32  14 5.12000 87.6000   1
  14  14  32 -225.75 81.8900   1
  34  -2  16 16.3300 52.0100   1
  34   2  16 131.280 54.4700   1
  16  34  -2 126.570 72.0900   1
  37  -7   1 215.410 66.1200   1
  23  23  19 -24.480 67.0100   1
   7  37   1 240.100 72.3400   1
  37   1   7 125.460 44.5500   1
  37  -1   7 112.040 45.0900   1
  37   7   1 254.000 67.4500   1
  23  19  23 147.230 77.0700   1
  19  23  23 104.400 85.7500   1
  13  35   5 160.640 69.5700   1
   5  35 -13 189.370 60.8600   1
  37   7  -1 222.130 67.0500   1
  37   1  -7 75.8600 57.2200   1
   5  37   5 -13.790 82.4700   1
   5  35  13 147.150 70.8300   1
  37   5   5 31.7900 54.2300   1
  37  -1  -7 133.700 50.5000   1
  -1  37  -7 77.5900 52.8400   1
  35 -13  -5 168.150 72.2400   1
  35  -5 -13 134.150 52.0200   1
  35 -13   5 127.630 56.2400   1
  35   5 -13 170.350 62.7800   1
  35  13  -5 147.030 67.9700   1
   7  23  29 -132.35 83.7500   1
   7  29  23 74.3200 82.6000   1
  35  -5  13 141.700 54.0900   1
  17  31 -13 86.6300 42.4400   1
  31  13  17 -3.8500 45.5500   1
  31  17  13 20.8400 47.5200   1
   5  35  13 -52.930 76.7800   1
  17  31  13 148.700 64.1500   1
  31  13 -17 132.490 58.6500   1
  13  31  17 25.2400 49.3100   1
  31  17 -13 70.1400 48.4800   1
  23   7  29 76.3800 62.9100   1
  23  29   7 20.0900 72.7700   1
  29   7  23 -2.3700 67.2000   1
  17  31  13 287.220 86.7900   1
  13  31  17 8.86000 88.1300   1
  17  13  31 56.7500 73.8300   1
  23  29  -7 -5.5500 44.8800   1
  13  17  31 -41.280 60.9400   1
  29  23   7 -9.1500 48.0000   1
  29  23  -7 48.6800 47.5000   1
  29   7 -23 -22.400 60.4200   1
  23   7 -29 -46.610 46.9600   1
   7  29  23 105.260 60.2400   1
  35  13   5 136.950 47.7100   1
  13  35   5 154.920 69.2300   1
  13  35  -5 27.8300 72.1800   1
  35   5  13 59.7000 54.6300   1
  37   5  -5 -8.5900 46.5000   1
  37  -5   5 18.2400 43.4200   1
   1  37   7 115.420 67.9400   1
   1  37  -7 169.260 54.9900   1
   7  37  -1 196.470 67.9900   1
   7  37   1 211.490 69.1800   1
  17  29  17 337.670 73.1600   1
  13  25  25 553.680 59.3200   1
  25  13 -25 526.500 72.9800   1
  25  25 -13 450.240 68.7100   1
  25  25  13 550.430 64.2400   1
  25  13  25 555.660 74.8600   1
  13  25  25 520.430 87.4000   1
  17  17  29 237.370 55.8800   1
  29  17 -17 476.090 64.1600   1
  37  -7  -1 87.1100 46.9800   1
  37  -5  -5 -82.050 65.4500   1
   5  37   5 -3.1700 67.7500   1
   5  37  -5 -50.510 45.3800   1
   1  37   7 120.860 68.5400   1
   7  37  -1 183.850 70.5700   1
  29  17  17 255.590 62.9700   1
  17  29  17 285.550 86.9500   1
  17  17  29 391.680 89.9200   1
  23  19  23 75.8800 45.9100   1
  19  23  23 121.320 56.3100   1
  23  19 -23 33.3900 53.5000   1
  23  23 -19 9.75000 51.7600   1
  30  18 -14 171.750 47.6400   1
  14  18  30 66.3500 86.4300   1
  14  30  18 245.770 90.2600   1
  18  30  14 196.310 85.9500   1
  30  14  18 17.5400 56.3300   1
  18  30 -14 184.480 60.1400   1
  30  18  14 154.410 67.9000   1
   6  30  22 285.030 63.6900   1
  30  -6 -22 133.840 71.0500   1
  22   6 -30 27.8000 66.4600   1
  30   6 -22 130.510 62.1600   1
  30  14 -18 150.390 48.5100   1
  30  22  -6 48.8600 47.3300   1
   6  22  30 155.690 61.7700   1
  30  22   6 36.1900 59.7800   1
  22  30  -6 54.0200 46.4300   1
  30   6  22 172.890 67.6600   1
  22  30   6 214.140 73.3100   1
  14  18  30 25.0700 53.1400   1
  18  30  14 200.120 51.6000   1
  14  30  18 29.8100 70.3200   1
   6  30  22 169.240 65.9200   1
  32  16 -12 -132.57 66.0600   1
  32  16  12 82.7600 57.8700   1
  32  12  16 -68.750 55.8200   1
  16  32 -12 44.6300 63.0100   1
  16  32  12 -40.230 81.0100   1
  12  32  16 -5.3500 87.4800   1
  16  12  32 -41.620 71.2500   1
  12  16  32 -5.6600 72.8900   1
   8  28  24 56.5200 69.0600   1
  24   8 -28 61.0400 59.2200   1
  28   8 -24 -62.100 67.4500   1
  28  24  -8 -18.080 44.6200   1
  24  28  -8 -30.150 43.8700   1
  28  24   8 -50.900 68.4300   1
  24  28   8 154.260 73.7900   1
  28   8  24 62.8600 71.1800   1
  24   8  28 7.91000 65.7100   1
   8  28  24 -138.45 94.6100   1
   8  24  28 170.850 90.3700   1
   8  36   8 113.570 73.2800   1
  36   8   8 44.9900 53.5800   1
  36  -8   8 9.27000 61.3900   1
  36   8  -8 -73.110 66.7000   1
  36  -8  -8 115.140 61.5500   1
   8  36   8 51.6700 68.9100   1
   8  36  -8 59.3800 56.6200   1
  32 -20   0 112.900 51.8300   1
  32   0 -20 77.6400 64.2900   1
  32  20   0 142.990 58.3500   1
  32   0  20 208.910 57.2500   1
  20  32   0 129.700 60.1100   1
  16  32  12 -60.010 68.3700   1
  12  32  16 -6.8400 59.6200   1
  32  12 -16 -50.970 67.7100   1
  15  29  19 349.980 80.9900   1
  31  21  -5 251.030 59.1300   1
  31  21   5 154.960 60.9400   1
  21  19  25 -22.390 56.3600   1
  19  25  21 -109.45 72.9800   1
  21  25  19 -49.210 57.4500   1
  25  21  19 32.0900 65.3800   1
  25  19  21 27.9100 51.0000   1
  21  25 -19 -23.630 58.0300   1
   7  33  17 169.630 93.9700   1
  17  33   7 -2.6500 80.2000   1
  17  33  -7 268.080 59.7000   1
  33   7  17 83.0700 64.8700   1
  33  17   7 81.9900 47.3600   1
  33  17  -7 100.220 58.9700   1
  33   7 -17 125.900 60.5400   1
  25  21 -19 103.230 61.8500   1
  21  19 -25 -12.710 51.3000   1
  31   5  21 296.420 67.5800   1
  21  31  -5 255.760 49.9900   1
   7  37  -3 -7.1900 65.0700   1
  13  33  13 55.3700 70.4500   1
  33 -13 -13 88.3400 67.4300   1
  33  13 -13 209.920 68.9200   1
  33  13  13 263.330 68.1300   1
  13  33  13 61.2100 84.7700   1
  13  13  33 279.350 85.4300   1
  25  19 -21 12.9000 53.3600   1
  19  21  25 -68.910 55.1100   1
  21  19  25 21.7700 60.7800   1
  19  25  21 -60.880 45.4500   1
  21  31   5 333.240 78.8800   1
   9  35  11 331.580 67.2000   1
  15  29  19 232.960 51.7900   1
  29  15 -19 195.900 59.3700   1
  11  35   9 293.680 63.4900   1
  35   9  11 295.350 66.8200   1
  35  11   9 161.770 56.3800   1
  29  15  19 190.750 69.5400   1
  35  -9  11 95.3700 43.7100   1
   5  31  21 352.430 69.8200   1
  35  11  -9 218.240 61.9800   1
  35 -11   9 189.430 55.3400   1
  33  -7 -17 159.410 75.7500   1
  35   9 -11 179.020 50.3700   1
  35  -9 -11 153.830 64.3600   1
  35 -11  -9 44.3800 51.5200   1
  37  -7  -3 -9.4300 67.8400   1
  37  -3  -7 101.710 59.0700   1
   3  37   7 -2.1500 69.0700   1
  37   7  -3 32.0000 57.4500   1
  37   3  -7 -0.8800 56.8900   1
   9  35 -11 40.9000 56.3100   1
  11  35   9 230.960 62.4500   1
   9  35  11 -13.780 60.8700   1
  37  -7   3 36.0000 55.5200   1
  17   7 -33 25.0800 57.1600   1
   7  37   3 34.3000 66.8700   1
  33 -17  -7 169.160 54.6100   1
   7  33  17 183.350 64.7400   1
   3  37   7 36.0300 83.3000   1
   7  37   3 -51.830 80.8400   1
   7  37  -3 24.8900 66.2800   1
  37   3   7 -57.070 43.5200   1
  37   7   3 91.6800 46.8400   1
  37  -3   7 -7.2100 43.0200   1
  31   5 -21 205.980 51.5000   1
  21   5 -31 322.020 62.2200   1
  31  -5 -21 410.780 73.6200   1
   5  31  21 281.520 55.0900   1
  21  25  19 82.0700 67.6500   1
  19  21  25 -18.830 58.2700   1
  29  19  15 179.120 68.5800   1
  19  29  15 124.000 82.3100   1
  19  15  29 249.250 73.5400   1
  15  19  29 123.120 63.4400   1
  19  29  15 42.1200 61.8100   1
  27  23  13 214.370 64.8500   1
  29  19 -15 166.630 46.6400   1
  19  29 -15 209.490 44.9800   1
  15  19  29 111.000 45.2700   1
  13  23  27 144.390 78.7500   1
  23  27 -13 163.980 44.9500   1
  27  13  23 350.000 55.7300   1
  23  27  13 75.5800 68.1800   1
  23  13  27 269.240 59.1500   1
  13  27  23 134.480 66.8100   1
  13  27  23 161.530 50.0900   1
  13  23  27 110.150 65.5400   1
  23  13 -27 297.880 60.9000   1
  27  13 -23 310.290 52.0100   1
  27  23 -13 413.840 59.7000   1
  32  -2 -20 149.590 66.4300   1
  16  34  -4 19.3000 67.6000   1
  20   2 -32 203.140 75.1300   1
  34   4 -16 73.4900 63.3100   1
  34  16  -4 -13.840 47.5400   1
  34  16   4 33.7500 58.7000   1
  32 -20  -2 29.3000 74.5600   1
  34  -4  16 5.56000 60.7300   1
  32   2 -20 116.860 51.9300   1
  34   4  16 -23.780 55.4000   1
  16  34   4 -149.01 77.9100   1
   4  34  16 32.4400 61.5300   1
   4  34  16 -165.04 89.0000   1
  34 -16  -4 62.1700 51.4800   1
  34  -4 -16 -173.58 72.3600   1
  34 -16   4 9.45000 46.9500   1
   2  32  20 67.8200 61.2900   1
  16   4 -34 33.8700 60.2900   1
  20  32  -2 271.280 72.0000   1
  32   2  20 250.540 58.1500   1
  32  20   2 322.850 62.5400   1
  32 -20   2 221.610 52.8000   1
  32  20  -2 226.850 67.8600   1
   6  36  10 -146.71 71.0400   1
  18  28  18 376.360 65.3600   1
  36 -10  -6 -8.6500 68.3800   1
  36   6 -10 89.3300 59.0500   1
  36 -10   6 5.92000 61.6000   1
  36  10  -6 -38.130 47.6700   1
  36  -6  10 39.7700 43.5500   1
  36  -6 -10 146.130 51.3900   1
  36   6  10 -22.000 53.2700   1
  28  18  18 350.030 57.1500   1
  28  18 -18 469.240 70.7500   1
  18  18  28 230.710 57.0300   1
  18  28  18 247.020 51.2200   1
   6  36  10 199.360 86.9700   1
  10  36   6 41.4500 81.7000   1
  18  18  28 335.480 63.5600   1
  10  36  -6 47.7800 48.6600   1
  36  10   6 37.5300 56.0200   1
  10  36   6 38.4900 57.8400   1
  10  36  -6 103.300 73.2300   1
   6  36 -10 101.730 53.5400   1
  33  11 -15 -148.27 58.4000   1
  33  15 -11 -104.41 57.5100   1
  33  11  15 -5.8800 56.5500   1
  27   9 -25 39.5700 59.2200   1
  15  33  11 69.4100 72.2000   1
  11  33  15 -164.63 87.4900   1
  15  11  33 60.7000 82.6800   1
  11  15  33 -28.350 69.5300   1
   9  27  25 -22.260 56.8000   1
  33  15  11 9.37000 56.0500   1
  27  25   9 79.2200 60.7000   1
  25  27  -9 -7.2900 54.7700   1
  27  25  -9 49.3000 55.9000   1
  25   9 -27 217.870 69.4700   1
  27   9  25 -30.350 69.6000   1
  25   9  27 99.8500 63.7700   1
  15  33  11 44.2700 69.2800   1
   9  27  25 21.3500 82.1800   1
   9  25  27 160.520 97.7800   1
  25  27   9 219.050 64.9700   1
  11  33  15 49.9400 70.1500   1
  33 -11 -15 -70.630 77.8500   1
  33 -15 -11 72.0100 76.7800   1
  15  33 -11 -49.970 55.3000   1
  12  36   0 783.400 112.620   1
  20  16  28 189.580 84.5200   1
  16  28  20 28.6800 62.8200   1
  16  20  28 179.710 76.6100   1
  16  28  20 -45.710 68.9700   1
  20  16  28 76.8500 60.5100   1
  16  20  28 1.37000 53.6400   1
  28  16 -20 206.010 48.4000   1
  20  28  16 159.410 60.1800   1
  28  20 -16 131.920 46.6600   1
  20  28 -16 82.9400 51.1800   1
  28  20  16 45.3700 50.7000   1
  28  16  20 141.010 70.1800   1
  20  28  16 58.0100 63.1300   1
  32 -20  -4 372.770 70.1700   1
  20   4 -32 283.110 62.9200   1
  32  -4 -20 323.670 79.1900   1
  32 -20   4 302.160 71.0000   1
  32   4 -20 339.580 66.6000   1
  32  20  -4 337.940 70.1700   1
  32  20   4 208.540 62.9100   1
  32   4  20 310.040 67.9600   1
  20  32  -4 413.670 66.9100   1
   4  32  20 497.520 74.2500   1
  12  36   0 633.770 79.6600   1
  36 -12   0 849.020 110.520   1
  36   0 -12 730.660 83.5000   1
  36  12   0 807.210 100.150   1
  36   0  12 787.870 95.3500   1
   0  36  12 816.950 124.600   1
  20  32   4 394.620 58.8600   1
  31  19  11 62.3800 67.2500   1
  31  11  19 78.5600 56.6600   1
  19  31 -11 62.5600 61.0100   1
  19  31  11 252.790 73.7700   1
  11  31  19 321.250 97.6800   1
  19  11  31 40.8600 57.5400   1
  11  19  31 77.6200 87.0200   1
   7  35  13 70.8700 63.1000   1
  35   7 -13 151.820 52.2300   1
  35  -7 -13 41.3900 51.6500   1
  37  -5   7 4.52000 53.5000   1
   7  37  -5 -51.040 44.9900   1
   5  37  -7 -42.060 63.4200   1
   7  37   5 -54.160 57.7900   1
   5  37   7 90.4500 59.7500   1
  37  -5  -7 -25.110 60.6500   1
  37  -7  -5 -28.500 67.1900   1
  37   5  -7 75.8100 58.9100   1
  37  -7   5 -7.4200 55.7700   1
  37   7  -5 -31.640 67.0100   1
   7  35  13 -33.090 48.9000   1
  37   7   5 45.1100 61.7700   1
   7  37  -5 -65.160 74.0400   1
   7  35 -13 46.1100 52.2600   1
  13  35   7 167.770 51.9800   1
  25  17  23 115.740 64.8700   1
  25  23  17 9.69000 65.2100   1
  13  35   7 107.500 59.2000   1
  17  25  23 190.190 89.9400   1
  23  25 -17 8.60000 52.0100   1
  25  23 -17 99.7000 62.3700   1
  23  17 -25 18.3100 54.6800   1
   7  37   5 31.3000 75.0800   1
   5  37   7 -141.05 72.5600   1
  17  23  25 17.1100 60.9400   1
  31  19 -11 100.720 65.3600   1
  31  11 -19 46.4000 47.9500   1
  11  31  19 17.7700 69.7200   1
  25  17 -23 104.940 46.1000   1
  17  23  25 19.2400 44.7300   1
  17  25  23 80.4300 48.6700   1
  23  17  25 -6.0900 51.5600   1
  35 -13  -7 115.350 64.1100   1
  23  17  25 -24.460 78.6100   1
  23  25  17 120.120 56.6100   1
  13  35  -7 71.6700 59.6100   1
  35   7  13 72.6400 55.4700   1
  35  13   7 213.370 67.0500   1
  35  -7  13 183.590 56.4500   1
  35  13  -7 150.680 69.7600   1
  35 -13   7 146.110 56.0100   1
   0  38   0 426.920 71.5200   1
  38   0   0 394.580 70.1800   1
   0  38   0 320.600 72.9200   1
  12  34  12 225.890 66.6200   1
  34  12  12 260.900 54.6000   1
  34  12 -12 345.850 60.7900   1
  12  34  12 308.480 78.7300   1
  12  12  34 141.490 69.4200   1
  34 -12 -12 322.720 81.9100   1
  12  30  20 -13.660 48.5500   1
  30  20 -12 151.980 67.1800   1
  30  12 -20 -101.61 56.6000   1
  12  36  -2 436.580 76.2800   1
  12  36   2 627.220 93.7600   1
   2  36  12 411.190 81.2600   1
  36  -2 -12 565.510 76.9900   1
  12  36   2 564.790 100.020   1
   2  36  12 524.180 107.790   1
  12  20  30 112.420 78.2000   1
  12  30  20 80.3700 80.5500   1
  20  12  30 -1.6000 70.4800   1
  36 -12  -2 613.900 80.2700   1
  36   2 -12 537.000 82.9000   1
  36 -12   2 633.980 87.3000   1
  36  12  -2 642.140 87.5800   1
  36  -2  12 451.020 71.0200   1
  36  12   2 516.330 84.3500   1
  36   2  12 569.100 84.7100   1
  12  36  -2 546.210 95.5000   1
  20  12 -30 95.4400 64.7900   1
  20  30  12 -7.0600 69.3200   1
  30  12  20 -7.2800 66.2600   1
  30  20  12 -53.840 47.3800   1
  20  30 -12 122.410 61.0700   1
  26  24 -14 299.010 63.9200   1
  14  24  26 181.480 49.6400   1
  24  14 -26 333.870 58.1900   1
  26  14 -24 257.540 63.1400   1
  16  34   6 163.180 69.5700   1
  24  26 -14 287.930 62.2000   1
  30   8  22 74.1700 66.8000   1
  26  24  14 371.330 98.6200   1
  24  26  14 301.290 73.6300   1
  26  14  24 228.100 57.8500   1
  24  14  26 416.420 80.2500   1
   0  38   2 183.320 67.9000   1
   8  30  22 97.4400 59.3100   1
  30   8 -22 11.8400 68.7500   1
  30  22   8 114.880 68.8900   1
  22  30  -8 28.5200 54.9200   1
  32  18 -10 46.1600 47.2900   1
  14  24  26 342.990 73.7200   1
  14  26  24 306.990 97.1100   1
  34  16   6 -16.870 67.1000   1
  34  16  -6 106.910 68.8500   1
  34 -16   6 2.82000 65.5100   1
  34   6 -16 -10.160 49.1300   1
  34  -6 -16 86.2300 65.9000   1
  34 -16  -6 72.3300 51.3500   1
   6  34  16 -59.160 61.7400   1
  16  34   6 172.750 54.0200   1
   6  34  16 -111.07 90.3400   1
  16  34  -6 -75.620 67.3900   1
  34   6  16 -59.490 44.6700   1
  10  18  32 -20.260 70.0100   1
  18  10  32 69.4900 72.8600   1
  10  32  18 11.1100 92.2400   1
  18  32  10 60.4800 71.8200   1
  18  32 -10 43.7200 44.1200   1
  32  10  18 22.8400 45.4300   1
  32  18  10 20.8100 46.7200   1
  14  26  24 210.790 53.1900   1
  32  10 -18 131.670 68.9300   1
  32 -10 -18 144.390 74.0000   1
  10  32  18 28.1500 50.0800   1
  22  30   8 71.9100 65.8500   1
   8  30  22 65.6900 92.4600   1
   2  38   0 343.040 78.9400   1
  38   2   0 336.240 74.5600   1
  38   0   2 246.380 70.2000   1
  38   0  -2 139.220 49.9200   1
  38  -2   0 296.170 55.6100   1
   0  38  -2 118.070 57.6600   1
   0  38   2 254.740 70.6300   1
   2  38   0 206.180 69.5500   1
   8  22  30 89.1600 85.2700   1
  22   8  30 112.100 57.0300   1
  22   8 -30 143.820 60.7000   1
  19  33  -1 -85.920 68.8600   1
   9  29  23 24.1200 67.4500   1
  13  21  29 -64.260 75.1300   1
  13  29  21 -9.4900 63.4800   1
  21  13  29 -30.000 79.9900   1
  21  29  13 -67.870 54.5400   1
  29  13  21 -60.420 69.4700   1
  29  21  13 -87.730 59.7400   1
  21  29 -13 -41.390 51.9900   1
  29  21 -13 53.8800 64.7200   1
  29  13 -21 -117.79 65.3600   1
  21  13 -29 28.9300 63.1000   1
  13  21  29 6.03000 61.8400   1
  13  29  21 105.030 69.7100   1
   9  23  29 -27.490 62.3000   1
   9  29  23 33.7500 80.5900   1
  23   9  29 10.7700 54.4100   1
  23  29   9 36.0200 73.9900   1
  29   9  23 -36.790 67.0500   1
  29  23   9 4.02000 60.3900   1
  23  29  -9 -19.700 54.8700   1
  29  23  -9 -30.420 63.1000   1
  29   9 -23 -93.890 46.8700   1
  23   9 -29 -46.810 46.4700   1
   1  37   9 237.300 73.2700   1
   7  31  21 210.790 73.3300   1
  31  -7 -21 185.900 84.5000   1
  21   7 -31 184.850 61.6400   1
  31   7 -21 231.400 54.9600   1
  31  21  -7 192.240 67.3500   1
  31  21   7 275.040 56.6600   1
  21  31  -7 76.3400 46.5200   1
  31   7  21 249.200 70.3400   1
   7  31  21 116.720 93.7000   1
   7  21  31 294.630 79.1300   1
  19  27  19 165.650 61.0700   1
  19  19  27 58.9200 44.7000   1
  35 -15  -1 166.150 72.5800   1
  35 -15   1 415.480 74.5000   1
  35  -1 -15 281.570 77.9800   1
  35   1 -15 385.400 65.9000   1
  35  15  -1 324.950 68.8100   1
  35  15   1 468.070 73.8100   1
  35   1  15 235.070 50.4500   1
  35  -1  15 378.340 73.5800   1
  15  35  -1 431.060 78.6400   1
  15  35   1 344.310 77.2700   1
   1  35  15 316.070 69.6700   1
  27  19 -19 125.000 58.4700   1
  27  19  19 57.3100 50.7000   1
  19  27  19 118.850 76.1200   1
  19  19  27 97.6400 59.3700   1
   1  37   9 63.9900 81.5300   1
   9  37  -1 383.540 79.5300   1
   9  37   1 398.360 89.5000   1
  37  -1   9 375.910 66.6000   1
  37   1   9 281.940 53.3300   1
  37   9   1 155.630 50.0400   1
  37   9  -1 211.820 52.9400   1
  37   1  -9 179.050 62.9700   1
  37  -9   1 398.100 77.5900   1
  37  -1  -9 328.050 77.4900   1
  37  -9  -1 255.300 55.9300   1
  -1  37  -9 286.140 60.5100   1
   1  37  -9 239.720 58.5200   1
   9  37   1 201.820 62.5500   1
   9  37  -1 364.380 68.8800   1
  33 -19  -1 8.73000 51.4900   1
  33 -19   1 101.580 62.3200   1
  33  -1 -19 138.520 76.0600   1
  33   1 -19 66.8800 51.9400   1
  33  19  -1 -23.880 46.4300   1
  33  19   1 45.8100 46.4400   1
  33   1  19 24.5300 55.3800   1
  19  33   1 49.0200 49.6900   1
  26  10  26 217.720 68.7500   1
  26  10 -26 282.470 66.5900   1
  14  34  10 194.720 63.4900   1
  26  26 -10 427.070 76.9800   1
  10  26  26 117.200 81.3800   1
  14  34 -10 95.3600 55.8500   1
  34  14  10 110.240 58.8500   1
  34  10  14 126.840 48.0300   1
  34  14 -10 109.850 68.7800   1
  34  10 -14 109.790 50.2700   1
  34 -10 -14 156.610 67.6400   1
  14  10  34 85.7100 56.7500   1
  34 -14 -10 94.4700 63.6100   1
  10  34  14 132.440 71.8800   1
  26  26  10 137.740 53.5100   1
  14  34  10 171.900 72.7800   1
  10  26  26 252.350 63.8700   1
  10  34  14 27.9800 62.3200   1
   2  38  -2 82.3300 46.4700   1
  22  22  22 295.390 77.2100   1
  22  22 -22 267.700 67.0800   1
  22  22  22 199.800 51.6500   1
  38   2   2 126.210 59.0300   1
   2  38  -2 190.550 69.5200   1
   2  38   2 91.1500 57.8100   1
   2  38   2 87.2700 59.6500   1
  38   2  -2 147.840 50.3400   1
  38  -2   2 210.490 69.7100   1
  38  -2  -2 247.980 62.4700   1
  -2  38  -2 97.5200 56.2200   1
  12  36   4 273.400 85.9600   1
  12  36  -4 365.160 75.5100   1
  36   4  12 313.240 70.7700   1
  36  -4  12 260.830 67.5700   1
  12  36  -4 103.720 62.4900   1
  12  36   4 71.1800 49.7800   1
   4  36 -12 163.550 56.2500   1
   4  36  12 287.090 68.4000   1
  36 -12  -4 276.950 67.0200   1
  36 -12   4 263.480 71.5900   1
  36   4 -12 225.780 74.6900   1
  36  12  -4 264.170 65.2900   1
   4  36  12 265.810 92.3500   1
  36  -4 -12 167.440 53.5200   1
  36  12   4 363.620 67.5200   1
  33  -9 -17 11.4100 78.7500   1
  33 -17  -9 -19.380 64.2200   1
   9  33  17 2.98000 49.3000   1
  17  33   9 -93.150 62.1400   1
   3  33  19 39.5100 86.6300   1
  19  33  -3 197.500 62.9500   1
  33   3  19 174.360 66.3000   1
  33  19   3 169.680 51.4500   1
  33  19  -3 179.260 50.8300   1
  33   3 -19 153.030 64.7700   1
  33 -19   3 -19.220 59.9000   1
  17  33   9 48.3100 57.8600   1
  33 -19  -3 316.140 80.8300   1
  19   3 -33 148.930 71.4700   1
  15  35  -3 169.940 65.6200   1
  15  35   3 199.460 58.5700   1
  15  35   3 179.590 54.5500   1
  35 -15  -3 184.910 64.5100   1
   3  37   9 -79.210 73.4800   1
   9  37   3 113.270 82.8600   1
   9  37  -3 170.990 70.4600   1
  37   9   3 54.9300 57.3800   1
  37   3   9 31.7200 43.7700   1
  37  -3   9 210.320 64.7900   1
  37   9  -3 126.460 60.9100   1
  37  -9   3 175.540 66.8900   1
  37  -3  -9 12.6900 59.3000   1
  37  -9  -3 185.870 63.7400   1
   3  37   9 41.6500 60.3000   1
   3  37  -9 117.840 45.8000   1
   9  37   3 113.000 49.5900   1
   9  37  -3 81.9500 58.7000   1
   9  17  33 132.420 59.4500   1
  17   9  33 71.4600 82.4700   1
  33  -3 -19 116.110 54.9400   1
  35 -15   3 65.8500 59.5700   1
   9  33  17 85.3700 81.6700   1
  17  33  -9 -5.0600 56.0800   1
  35  15  -3 125.790 49.2800   1
  33   9  17 42.1900 56.2300   1
  33  17   9 -55.880 66.2500   1
  35  15   3 77.5100 48.4200   1
  33  17  -9 -31.750 56.9200   1
  33   9 -17 -22.430 48.1300   1
  37   3  -9 153.620 51.7600   1
  27  27  -1 122.120 69.7600   1
  27  27   1 287.860 56.9300   1
  27   1 -27 127.670 52.8700   1
  27  -1 -27 180.990 75.3900   1
  21  27 -17 40.3000 58.7900   1
   3  35  15 125.380 65.0300   1
  27  17 -21 110.590 57.1400   1
  35   3 -15 91.4100 72.2200   1
  17  21  27 -28.080 54.7600   1
  27  21  17 92.0000 52.7400   1
  21  27  17 -150.90 81.8900   1
  21  17  27 66.8600 70.0200   1
  17  27  21 223.940 90.1300   1
  17  21  27 -73.720 74.0300   1
  27  17  21 -7.4800 62.3800   1
  35  -3 -15 79.2000 53.2500   1
   3  35  15 108.100 64.0300   1
  35  -3  15 138.130 46.7100   1
  21  17  27 6.33000 60.6300   1
  17  27  21 -42.750 59.5300   1
  27  21 -17 29.1500 63.8100   1
  35   3  15 200.300 58.3300   1
  21  27  17 20.2100 69.4300   1
  28  24 -10 27.2400 64.5900   1
  28  10 -24 56.9500 58.4200   1
  24  20  22 163.950 58.7500   1
  26   0 -28 261.290 78.7300   1
  28   0 -26 210.430 67.1800   1
  28  26   0 258.410 72.4500   1
  26  28   0 307.980 58.0400   1
  20  22  24 139.110 75.8300   1
  20  24  22 85.8100 60.8400   1
  22  20  24 -141.01 80.7300   1
  22  24  20 156.200 84.0300   1
  24  20  22 41.7300 54.3600   1
  24  22  20 22.4400 77.1000   1
  22  24 -20 64.9300 58.3300   1
  24  22 -20 247.230 67.9200   1
  22  20 -24 69.8400 60.6000   1
  24  20 -22 94.2500 62.2900   1
  20  22  24 110.330 46.5500   1
  22  20  24 108.310 54.7700   1
  20  24  22 46.7500 45.9200   1
  22  24  20 154.550 69.2800   1
  10  28  24 -18.370 48.3300   1
   8  36  10 104.970 86.4600   1
  10  36   8 -66.940 83.7300   1
  36   8  10 68.2900 55.2600   1
  36  10   8 105.530 66.9100   1
  36  -8  10 106.850 62.0300   1
  36  10  -8 140.020 61.6700   1
  36 -10   8 55.7400 44.2600   1
  36   8 -10 70.4800 49.8100   1
  36 -10  -8 124.660 56.9800   1
  36  -8 -10 103.020 62.6700   1
   8  36  10 -1.9600 48.3900   1
  10  36   8 115.780 52.5700   1
   8  36 -10 33.9600 53.8700   1
   6  32  20 532.930 73.9900   1
  32 -20  -6 254.990 74.9100   1
  32  -6 -20 379.990 79.6700   1
  20   6 -32 333.540 60.3300   1
  32   6 -20 475.350 85.1300   1
  32  20  -6 402.460 62.8900   1
  32  20   6 259.520 74.2300   1
  32   6  20 311.000 64.4900   1
  20  32  -6 244.520 54.3200   1
  20  32   6 345.120 82.5700   1
   6  32  20 318.270 98.6100   1
  10  24  28 -117.87 63.6900   1
  10  28  24 76.6800 66.2900   1
  24  10  28 187.260 71.5900   1
  28  10  24 34.3600 71.1400   1
  24  28  10 177.580 75.3500   1
  28  24  10 194.260 54.1700   1
  24  28 -10 -42.190 44.6000   1
   0  38   4 105.780 64.7700   1
   4  38   0 58.6800 57.4300   1
  38   0   4 -1.7200 54.2000   1
  38   4   0 78.6700 67.0600   1
  38   0  -4 132.800 59.8200   1
  38  -4   0 46.1700 46.7200   1
   0  38   4 17.3900 56.8200   1
   0  38  -4 110.920 46.4600   1
   4  38   0 128.150 68.4200   1
   4  38  -2 3.51000 67.6200   1
   2  38   4 105.070 71.9200   1
  14  22  28 -27.180 56.3600   1
   4  38   2 54.5900 58.5600   1
   2  38  -4 -28.720 64.5700   1
   2  38   4 6.70000 59.0800   1
  -2  38  -4 -173.36 61.9100   1
  26   2 -28 -40.740 69.6200   1
  38  -4  -2 42.8800 56.6600   1
  14  22  28 69.9500 77.9600   1
  14  28  22 4.53000 89.9300   1
  22  14  28 -17.400 55.7000   1
  26  -2 -28 71.6800 68.1300   1
  28  -2 -26 120.780 55.5900   1
  38  -2  -4 -7.5100 58.4100   1
  28   2 -26 83.5200 71.5200   1
  28  26  -2 93.9800 58.4100   1
  26  28  -2 82.5400 66.3200   1
  28  26   2 167.530 61.6900   1
  26  28   2 28.3600 60.1500   1
  22  28  14 41.6400 68.9500   1
  28  14  22 -25.700 62.7600   1
  38   2   4 131.980 56.9800   1
  14  28  22 -171.51 58.3000   1
  38   2  -4 119.050 49.5000   1
  38   4  -2 43.3800 66.1900   1
  38  -2   4 -30.310 54.9600   1
  38   4   2 -55.840 44.8000   1
  28  14 -22 -27.470 66.1400   1
   4  38   2 40.5900 70.3600   1
  38  -4   2 56.8000 63.9600   1
   4  38  -2 -63.320 55.4000   1
  22  14 -28 -39.610 44.4700   1
  28  22  14 -56.730 70.7300   1
  22  28 -14 12.8300 43.2900   1
  28  22 -14 -65.190 54.8200   1
  27  -3 -27 -103.98 77.9700   1
  11  35  11 244.480 76.2500   1
  35 -11 -11 359.160 82.4800   1
  35  11 -11 318.210 66.9900   1
  35  11  11 413.250 77.5500   1
  27   3 -27 102.470 51.1100   1
  11  35  11 600.750 108.770   1
  37  -7   7 18.4200 62.5500   1
  37   7   7 -90.270 54.5400   1
  29   1 -25 228.940 75.7900   1
  27  27   3 10.6600 47.9000   1
  25  29   1 117.460 59.5700   1
  25  -1 -29 82.4800 55.8000   1
  29  -1 -25 -16.510 74.1500   1
  25   1 -29 177.850 54.3800   1
   7  37   7 -53.590 74.1100   1
  37   7  -7 -20.610 57.8500   1
  29  25  -1 90.0400 58.8500   1
   7  37  -7 -18.900 62.9900   1
  37  -7  -7 27.5700 60.9600   1
  29  25   1 63.1700 68.6900   1
  25  29  -1 176.640 60.5100   1
  27  27  -3 125.010 60.0500   1
   7  37   7 31.4300 48.6400   1
  33  19   5 289.840 56.7700   1
  37  -9   5 -49.530 64.3300   1
  37   9  -5 -8.2700 47.1900   1
  37  -5   9 -36.950 61.5100   1
   9  37   5 -38.430 59.4600   1
   5  37  -9 81.0200 55.3100   1
   9  37  -5 93.6000 52.1700   1
  35   5 -15 6.99000 49.3400   1
  35  -5 -15 148.610 55.3100   1
  35 -15  -5 -2.0700 51.0900   1
   5  35  15 59.5000 61.6800   1
  15  35   5 0.86000 72.0200   1
   5  33  19 70.4100 93.1900   1
  19  33   5 327.730 64.8600   1
  33   5  19 267.130 54.1700   1
  37   5   9 -45.230 43.8400   1
  37   9   5 19.0400 56.1700   1
  33  19  -5 339.100 74.6600   1
  33   5 -19 268.640 76.5800   1
  19   5 -33 268.240 74.0200   1
  33  -5 -19 350.510 66.0600   1
   9  37  -5 16.1500 64.9400   1
   9  37   5 -16.130 81.9300   1
   5  37   9 55.7100 76.1600   1
  35  15  -5 126.810 49.8600   1
  35  15   5 63.5500 58.0500   1
  35   5  15 58.4400 62.1200   1
  15  35  -5 103.080 60.8200   1
  15  35   5 -152.63 78.3200   1
   5  35  15 20.2800 63.4400   1
  33 -19  -5 323.050 82.8800   1
  19  33  -5 267.990 65.7400   1
  25  27 -11 129.830 46.9600   1
  27  25 -11 341.650 57.4100   1
  35   9  13 163.250 66.1200   1
   5  33  19 300.800 69.5100   1
  35  13   9 152.030 49.3200   1
  35  13  -9 202.010 52.8300   1
  35   9 -13 224.630 64.6200   1
  11  27  25 138.840 51.0900   1
  35 -13  -9 81.9200 64.5100   1
  35  -9 -13 127.220 54.3300   1
   9  35 -13 277.800 71.5900   1
  13  35   9 287.570 76.2900   1
  35 -15   5 43.8600 66.3800   1
  11  25  27 214.400 61.6200   1
  27  11 -25 195.700 61.5700   1
  25  11 -27 287.440 64.0400   1
  25  15  25 265.380 62.1700   1
  25   3 -29 -77.270 49.0600   1
  29   3 -25 -84.820 61.2700   1
  29  25  -3 -29.050 47.3500   1
  29  25   3 21.4600 69.7300   1
  25  29  -3 35.6100 58.4700   1
  25  29   3 84.4500 67.8500   1
  15  25  25 148.500 49.8000   1
  25  25 -15 277.830 69.2800   1
  25  25  15 334.470 74.7800   1
  25  15  25 331.780 74.8100   1
  15  25  25 231.120 67.9700   1
   9  35  13 187.340 81.7300   1
  13  35   9 154.650 86.5100   1
  15  17  31 241.950 110.400   1
  17  15  31 138.840 77.1200   1
  15  31  17 80.0500 89.8600   1
  17  31  15 -16.220 84.8700   1
  31  17  15 185.650 63.2800   1
  31  15  17 127.680 59.9800   1
  31  15 -17 137.570 68.7900   1
  15  31  17 175.500 53.5800   1
  17  31  15 151.580 52.9600   1
  11  25  27 289.000 73.5100   1
  11  27  25 341.790 100.770   1
  25  11  27 41.1000 66.9800   1
   9  35  13 139.100 72.7000   1
  27  11  25 186.940 77.0000   1
  25  27  11 284.260 60.6800   1
  27  25  11 434.740 85.1200   1
  25  15 -25 138.320 66.0800   1
  37   5  -9 -14.090 66.9900   1
  37  -9  -5 61.8000 59.2200   1
  37  -5  -9 91.2200 50.2500   1
   5  37   9 -32.890 48.6000   1
  28  -4 -26 60.9500 81.3100   1
  26   4 -28 -39.420 69.2700   1
  28   4 -26 53.6000 69.7500   1
  28  26  -4 35.9100 46.5700   1
  26  28  -4 -82.790 45.7100   1
  28  26   4 -17.560 48.3500   1
  26  28   4 -190.92 68.3900   1
   4  28  26 24.4400 74.8500   1
  24  18 -24 109.460 56.0300   1
  24  24 -18 -6.1800 58.8400   1
  24  24  18 -26.260 68.2500   1
   6  36 -12 148.520 46.7600   1
  32  16 -14 -40.960 57.4800   1
  32  16  14 -35.340 46.2400   1
  32  14  16 -77.540 57.0900   1
  30 -24   0 4.77000 76.1500   1
  24   0 -30 136.230 74.6300   1
  30   0 -24 187.380 67.4800   1
  30  24   0 14.3400 48.1600   1
  20  26  20 -19.110 65.8900   1
  14  16  32 -238.93 84.4600   1
  16  32  14 -43.460 69.9700   1
  14  32  16 53.3700 63.2500   1
  32  14 -16 48.0500 47.6400   1
   6  36  12 302.470 94.1300   1
  12  36   6 90.0800 71.9600   1
  12  36  -6 235.540 68.5600   1
  36   6  12 227.650 60.0300   1
  36  12   6 173.770 49.8800   1
  36  -6  12 201.320 49.5800   1
  36  12  -6 119.140 68.8700   1
  36 -12   6 169.290 58.4400   1
  36   6 -12 204.330 54.4500   1
  16  32  14 38.1000 87.4800   1
   8  34  16 33.2000 65.4500   1
  16  34   8 -5.6500 80.0300   1
  36 -12  -6 139.050 52.4600   1
  36  -6 -12 219.820 67.0700   1
   6  36  12 119.480 50.7300   1
  18  24  24 -99.100 73.5400   1
  12  36   6 167.850 70.7300   1
  16  34  -8 86.8000 57.3400   1
  24  18  24 121.640 65.6500   1
  18  24  24 66.8800 46.6900   1
  24  18  24 69.1100 78.6400   1
  20  20  26 60.1800 64.7600   1
  26  20 -20 154.410 57.4100   1
  26  20  20 94.5800 65.3000   1
  20  26  20 24.1500 59.7700   1
  20  20  26 -2.9000 57.4300   1
  34   8  16 81.3400 64.6600   1
  34  16   8 89.8600 47.3600   1
  34   8 -16 62.3300 48.8100   1
  34  -8 -16 159.730 68.5800   1
  34 -16  -8 18.5000 63.5100   1
   8  34  16 17.0200 60.7700   1
  16  34   8 -78.770 62.8900   1
  16  14  32 -0.4100 60.0700   1
  14  32  16 -134.13 75.9600   1
  24  30   0 146.200 49.8900   1
   4  38   4 -126.74 71.2400   1
  38   4   4 23.8000 64.4600   1
  38  -4   4 -87.860 54.9500   1
  38   4  -4 36.6200 65.5100   1
  38  -4  -4 -37.270 66.7600   1
   4  38   4 -21.770 57.9600   1
  24  30   2 45.6300 68.5900   1
  24  30  -2 117.900 67.3000   1
  30  24   2 161.770 51.4000   1
  30   2 -24 -18.140 50.0600   1
  30  -2 -24 -149.12 75.4700   1
  24   2 -30 180.950 72.0200   1
  30  24  -2 35.9200 58.6000   1
  18  30  16 319.250 69.1500   1
  16  30  18 328.690 77.6400   1
  16  18  30 209.980 49.0600   1
  30  16 -18 383.170 77.0100   1
  30  18 -16 277.620 55.1900   1
  30  18  16 344.570 77.4800   1
  30  16  18 305.270 76.8200   1
  18  30  16 449.470 97.8400   1
  16  18  30 288.320 83.6900   1
  18  16  30 413.010 86.6200   1
  16  30  18 502.830 103.670   1
  34 -18   0 -66.180 70.9200   1
  34   0 -18 2.57000 62.1000   1
  34  18   0 89.4700 67.9300   1
  34   0  18 56.8500 63.4500   1
  18  34   0 49.2300 70.8200   1
   0  38   6 86.9300 67.9500   1
   6  38   0 105.090 80.9800   1
  38   0   6 -17.520 44.6100   1
  38   6   0 192.280 59.6200   1
  38   0  -6 115.060 49.8000   1
  38  -6   0 126.450 48.0000   1
   0  38   6 106.100 60.3100   1
   6  38   0 52.6000 65.6600   1
  15  33  13 -13.960 85.7000   1
  13  15  33 82.3400 75.7800   1
  33  15 -13 -65.250 67.4200   1
   9  21  31 112.260 74.0200   1
  33  13 -15 208.660 62.9500   1
  31   9 -21 -15.320 48.5000   1
  33 -15 -13 -16.840 70.2100   1
  21   9 -31 155.750 60.0200   1
   9  31  21 -72.630 49.5000   1
  31  21   9 135.150 61.5600   1
  21  31  -9 70.6500 54.8800   1
  31   9  21 17.8000 45.7200   1
  21  31   9 81.2000 69.5100   1
  33 -13 -15 58.9000 72.5900   1
  21   9  31 48.4500 57.9600   1
  13  33  15 -63.880 72.1900   1
   9  31  21 -23.680 65.2500   1
  15  13  33 139.750 61.7400   1
  13  33  15 75.6200 87.4300   1
  15  33  13 -147.51 69.2700   1
  33  13  15 36.2700 66.5200   1
  33  15  13 -68.570 65.6400   1
  15  23  27 -52.610 76.2500   1
  15  23  27 -23.490 55.9600   1
  23  15 -27 126.380 56.3700   1
  27   5 -27 42.4600 60.0700   1
  23  27  15 28.0000 79.7500   1
  27  15  23 26.8500 61.4600   1
  27  23  15 109.420 64.7900   1
  23  27 -15 -79.000 51.6700   1
  15  27  23 69.3500 47.8400   1
  27  23 -15 112.140 55.2100   1
  27  15 -23 52.5100 58.0900   1
   5  27  27 103.040 62.3300   1
  27  27   5 71.7600 59.7400   1
  27  27  -5 -99.590 56.3100   1
  23  15  27 179.540 72.3800   1
  15  27  23 -2.7400 78.7700   1
  34  18  -2 -88.610 55.9900   1
  34  18   2 -24.680 66.7900   1
  34   2  18 -70.500 55.4100   1
  18  34  -2 -40.000 71.3700   1
  22  26  18 -3.8700 48.7400   1
  18  26  22 -125.71 46.4200   1
  22  18  26 2.66000 43.2400   1
  18  22  26 9.73000 54.5000   1
  26  18 -22 33.5100 63.1800   1
  10  22  30 2.22000 63.0800   1
  10  30  22 -29.380 65.4500   1
  22  30 -10 -5.9200 54.3500   1
  22  30  10 34.4000 66.5100   1
  30  10  22 44.4000 59.8100   1
  30  22  10 -126.66 48.1900   1
  26  22 -18 -59.890 44.1400   1
  22  26 -18 -1.7500 59.1300   1
  26  22  18 4.05000 66.4300   1
  26  18  22 -62.030 66.0900   1
  22  26  18 -27.890 54.8500   1
  22  10  30 -79.830 54.5400   1
   2  34  18 -6.3600 71.5800   1
  22  18  26 -103.13 68.8500   1
  18  26  22 136.110 64.3600   1
  18  22  26 -150.24 73.0600   1
  18  34   2 -81.110 51.2200   1
  34   2 -18 -19.680 61.8400   1
  10  30  22 -113.94 69.9300   1
  22  10 -30 -24.180 64.1800   1
  34 -18  -2 60.3900 63.0300   1
  38   6   2 -13.140 56.5600   1
  30  10 -22 102.400 59.8000   1
  30  22 -10 -48.630 54.8400   1
  34  -2 -18 -29.060 64.4200   1
  34 -18   2 -36.380 59.0200   1
   2  38   6 -59.850 71.0000   1
   6  38  -2 -31.290 56.5400   1
   6  38   2 -31.460 57.4200   1
   6  38  -2 -50.360 65.3500   1
  38   2   6 -1.1800 44.7000   1
  38  -2   6 -34.070 54.0900   1
  38   6  -2 128.710 59.5700   1
  38   2  -6 -53.610 58.2000   1
  38  -6   2 -17.640 55.7600   1
  38  -2  -6 -26.520 58.4300   1
  38  -6  -2 27.0400 58.6300   1
  -2  38  -6 -44.370 61.9200   1
   2  38   6 103.520 59.4200   1
   2  38  -6 -37.190 44.6700   1
   6  38   2 91.2700 67.5000   1
   8  32  20 205.770 71.4400   1
   8  32  20 108.100 72.7800   1
  32  -8 -20 39.1800 70.8200   1
  20   8 -32 135.530 61.2100   1
  32   8 -20 190.010 70.9100   1
  32  20  -8 211.240 69.1400   1
   8  20  32 246.460 76.3100   1
  20  32  -8 248.570 52.6900   1
  32   8  20 215.700 53.0500   1
  32  20   8 155.300 62.3900   1
  20  32   8 213.260 71.6000   1
  37 -11   1 349.690 60.8000   1
  37   1 -11 499.290 80.0600   1
  37 -11  -1 589.620 84.8000   1
  37  -1 -11 511.200 73.0900   1
   1  37  11 413.040 66.0600   1
  11  37   1 545.100 88.2200   1
  11  37  -1 449.760 75.7100   1
  25  29   5 102.440 71.7900   1
  29   5  25 72.4100 51.0200   1
   5  29  25 50.4400 75.6400   1
  13  19  31 110.440 77.2300   1
  19  13  31 -33.680 58.5700   1
  13  31  19 -53.310 91.1000   1
  31  13  19 -71.630 56.5300   1
  19  31 -13 190.400 57.5700   1
  31  19  13 58.4000 47.9500   1
  31  19 -13 53.8900 65.3900   1
  31  13 -19 -35.750 66.9600   1
  13  31  19 47.0800 70.2300   1
  19  31  13 148.540 53.8400   1
  23  31  -1 54.7000 67.9100   1
  23  31   1 -67.740 46.8900   1
  31  23   1 44.2200 67.3300   1
  31  23  -1 -77.080 65.7000   1
  31   1 -23 95.8000 64.0300   1
  31  -1 -23 -6.2400 64.3600   1
  31 -23   1 46.9900 62.7800   1
  23   1 -31 47.4200 51.3700   1
  31 -23  -1 -24.360 75.8100   1
  19  17  29 272.700 61.6700   1
  11  23  29 178.620 80.7300   1
  19  17  29 384.230 95.5200   1
  17  29  19 348.250 84.5000   1
  19  29  17 414.720 87.0400   1
  17  19  29 476.170 80.3000   1
  11  29  23 68.9500 61.0800   1
  23  11 -29 52.5800 47.0300   1
  29  11 -23 122.080 68.5800   1
  29  23 -11 60.2800 56.7200   1
  23  29 -11 92.1100 55.0500   1
  29  23  11 17.8000 70.0700   1
  29  11  23 101.960 61.6200   1
  23  29  11 21.6900 75.8000   1
  23  11  29 55.8300 69.7700   1
  11  29  23 -21.280 92.4000   1
  29  19  17 354.180 73.9400   1
  29  17  19 344.060 72.4500   1
  29  19 -17 327.130 58.3300   1
  29  17 -19 376.940 77.4000   1
  17  19  29 306.500 55.0600   1
  17  29  19 293.990 66.3700   1
  19  29  17 217.000 64.6600   1
  19  31  13 -5.1600 80.9800   1
  29  -5 -25 -105.40 72.4800   1
  25   5 -29 139.170 70.5600   1
  29   5 -25 -53.670 59.3800   1
  29  25  -5 -47.660 64.0700   1
  25  29  -5 61.1600 56.7900   1
  29  25   5 -19.930 67.6200   1
   1  37  11 587.720 101.520   1
  11  37   1 608.510 95.7500   1
  11  37  -1 677.420 97.6700   1
  37  11   1 455.000 80.6200   1
  37  -1  11 561.980 85.7800   1
  37  11  -1 391.790 79.6800   1
  36 -14   0 549.830 75.9100   1
  18  32  12 51.0100 62.6000   1
  12  32  18 21.7200 48.6300   1
  32  12 -18 21.6600 58.5100   1
  30  -4 -24 -10.540 66.7800   1
  24   4 -30 -27.750 60.9600   1
  30   4 -24 28.1500 61.2100   1
  30  24  -4 23.3800 56.4200   1
  30  24   4 -76.880 59.1200   1
  24  30  -4 -54.270 44.7100   1
  24  30   4 -20.930 71.6700   1
   4  30  24 -193.55 82.1600   1
  32  18 -12 -168.64 65.7000   1
  32  18  12 -1.3900 67.8700   1
  32  12  18 53.5500 66.1500   1
  18  32 -12 48.2100 55.0500   1
  18  32  12 191.850 86.2400   1
  12  32  18 284.990 97.1200   1
  18  12  32 -42.010 59.1600   1
  12  18  32 40.6700 74.7600   1
  36   0  14 610.020 88.0100   1
  36  14   0 536.480 80.1800   1
  36   0 -14 602.310 88.9700   1
  14  36   0 327.630 71.2800   1
  18   4 -34 84.1000 59.5800   1
  34 -18  -4 36.0600 74.5800   1
  34  -4 -18 63.1900 77.0900   1
  34 -18   4 25.8300 66.5200   1
  34   4 -18 79.1700 71.7000   1
  26  12  26 450.630 88.2100   1
  26  26  12 267.480 71.5000   1
  26  26 -12 230.910 67.8400   1
  26  12 -26 214.210 52.2900   1
  12  26  26 238.830 54.5100   1
  14  12  34 184.930 72.8300   1
  12  14  34 278.140 74.2600   1
  28   6 -26 37.9500 59.5100   1
  28  26  -6 -3.9900 65.4500   1
  26  28  -6 51.0800 65.3100   1
  28  26   6 44.8500 49.3400   1
   2  36  14 284.850 59.6400   1
  12  26  26 293.030 73.9700   1
  10  36 -10 193.770 62.0700   1
  34  12  14 286.440 55.9400   1
  34  14 -12 164.190 52.3200   1
  34  12 -14 174.510 51.9500   1
  34 -12 -14 261.210 81.6900   1
  34 -14 -12 308.500 63.8000   1
  12  34  14 177.100 73.1000   1
  14  34  12 196.460 72.8900   1
  26  28   6 79.0400 72.0400   1
  26   6 -28 -3.9100 48.0900   1
  34  18  -4 193.450 51.6500   1
  34  18   4 153.230 61.6300   1
  34   4  18 112.400 57.5300   1
  18  34  -4 79.3000 60.7100   1
  18  34   4 299.320 83.4000   1
   4  34  18 166.010 79.8200   1
  10  36  10 245.440 67.0600   1
  14  20  30 -7.9700 62.6300   1
  20  14  30 162.530 85.2600   1
  14  30  20 58.6200 90.4600   1
  20  30  14 146.260 74.7200   1
  30  14  20 127.790 49.8000   1
  30  20  14 252.670 66.7900   1
  20  30 -14 157.980 63.7400   1
  30  20 -14 26.9900 65.4600   1
  30  14 -20 -6.6700 57.9700   1
  14  20  30 13.4900 44.6400   1
  14  30  20 204.330 64.2600   1
  20  30  14 41.3200 62.0900   1
  36 -10 -10 248.010 68.3800   1
  36  10 -10 267.540 65.8300   1
   6  38  -4 -88.160 45.1800   1
  36 -10  10 158.480 58.0200   1
  36  10  10 197.380 59.4400   1
  10  36  10 106.310 61.9100   1
   4  34  18 81.7000 71.2500   1
   4  38   6 -98.980 81.3300   1
   6  38   4 -69.290 83.1700   1
  38   6   4 -129.35 65.0100   1
  38   4   6 27.5400 45.4300   1
  38  -4   6 -56.900 54.1000   1
  38   6  -4 24.4500 56.8200   1
  38  -6   4 -7.4300 63.9400   1
  38   4  -6 98.3400 69.0600   1
  38  -6  -4 -1.1600 66.8700   1
   6  26  28 -68.300 83.8200   1
   6  28  26 -57.460 60.7800   1
  28   6  26 3.68000 49.0000   1
  38  -4  -6 56.4100 58.9700   1
   4  38  -6 -20.610 63.5900   1
   6  38   4 -27.110 66.4500   1
  36  -2 -14 446.610 69.2800   1
  36   2 -14 275.840 77.0300   1
  36 -14   2 503.850 79.5900   1
  36  14  -2 271.610 65.9400   1
  36  -2  14 335.130 56.3300   1
  36  14   2 328.670 58.7800   1
  36   2  14 347.040 65.5700   1
  14  36  -2 392.400 67.8300   1
  14  36   2 351.170 67.2400   1
   2  36  14 342.230 91.0400   1
  14  36   2 262.910 76.2400   1
  36 -14  -2 433.920 83.9400   1
  34  14  12 266.480 55.7600   1
  14  34  12 220.290 79.2100   1
  12  34  14 390.210 99.1500   1
  31 -23  -3 -122.93 55.2400   1
  31  -3 -23 -17.050 66.2000   1
  23   3 -31 30.9600 59.6300   1
  31   3 -23 14.1500 69.8400   1
  31  23  -3 94.0400 47.4900   1
  31  23   3 -99.900 59.0100   1
  23  31  -3 49.7400 48.3000   1
  23  31   3 -46.680 71.1600   1
   3  31  23 -88.690 87.8000   1
  33  19  -7 149.850 60.8800   1
  33   7 -19 257.250 66.3700   1
  23  23  21 178.170 83.9700   1
  23  23 -21 157.710 63.1400   1
  11  33  17 -14.700 88.4100   1
  19   7 -33 152.960 69.7000   1
  33  -7 -19 60.8100 69.1500   1
  33 -19  -7 282.380 82.3600   1
   7  33  19 166.740 62.9800   1
  37   3 -11 382.360 79.1500   1
  37 -11   3 351.980 69.0100   1
  37  -3 -11 319.910 69.8100   1
  37 -11  -3 239.540 56.0500   1
   3  37  11 160.790 52.2700   1
   3  37 -11 304.590 62.6400   1
  11  37   3 349.650 77.4600   1
  17  33  11 -186.22 71.4800   1
  11  37  -3 203.290 62.7300   1
  17  11  33 51.9000 73.3900   1
  35 -15  -7 54.1200 62.9500   1
  35  -7 -15 23.9800 53.4500   1
   7  35  15 -46.150 61.4300   1
  15  35   7 -91.980 49.4400   1
   3  37  11 262.910 81.1300   1
  11  37   3 251.580 85.8700   1
  23  23  21 244.270 71.6500   1
   9  37  -7 120.580 65.6700   1
   7  37  -9 11.3500 44.5900   1
   9  37   7 15.2300 70.1500   1
   7  35  15 -161.46 90.2400   1
  33  17  11 46.4000 48.9300   1
  15  35   7 -3.2300 70.2400   1
  11  37  -3 240.720 72.8100   1
  37   3  11 380.930 66.9200   1
  37  11   3 349.980 67.9300   1
  37  -3  11 209.890 49.5700   1
  15  35  -7 68.7100 49.2600   1
  35   7  15 -20.840 45.1900   1
  35  15   7 40.4300 65.4100   1
  35  15  -7 -66.190 66.8900   1
  35   7 -15 130.080 61.6500   1
  17  33 -11 -76.010 64.6300   1
  33  11  17 22.0200 45.4100   1
  33 -17 -11 -58.790 56.9900   1
   7  37   9 120.810 70.9600   1
  37  -7  -9 -59.850 49.5500   1
  37  -9  -7 69.4200 50.0100   1
  37   7  -9 -9.8200 48.7100   1
  37  -9   7 49.9500 54.9000   1
  37   9  -7 139.400 61.5500   1
  37  -7   9 33.8100 43.8200   1
  37   7   9 54.2000 44.9500   1
  37   9   7 -80.330 63.2700   1
  33  17 -11 6.74000 47.4100   1
  33  11 -17 -125.69 58.9700   1
  33 -11 -17 -47.480 80.9900   1
  11  33  17 -79.600 59.7800   1
  17  33  11 3.95000 71.1900   1
   9  37   7 13.7300 84.7300   1
   7  37   9 -8.6100 73.6300   1
   7  33  19 166.600 70.1900   1
  19  33   7 292.260 85.0100   1
  37  11  -3 190.530 71.3500   1
  19  33  -7 227.750 53.9800   1
  33   7  19 269.670 63.3900   1
  33  19   7 148.530 70.4800   1
  21  23  23 243.870 77.7000   1
  23  21 -23 167.260 56.9300   1
  21  23  23 152.660 48.8300   1
  23  21  23 322.160 64.7400   1
  23  21  23 77.9100 70.7600   1
  12  24  28 -29.350 90.4300   1
  12  28  24 -58.310 82.2700   1
  24  12  28 131.410 70.3500   1
  28  12  24 87.0300 71.2800   1
  24  28  12 122.820 67.3700   1
  28  24  12 66.2500 63.5600   1
  24  28 -12 104.410 46.3500   1
  28  24 -12 192.760 67.1700   1
  28  12 -24 126.540 67.7100   1
  24  12 -28 118.200 58.4000   1
  12  24  28 211.870 69.6300   1
  12  28  24 105.570 49.7500   1
  12  36   8 176.400 52.7600   1
   8  36  12 336.930 71.9400   1
  36  -8 -12 227.690 68.7800   1
  36 -12  -8 181.890 55.2100   1
  36 -12   8 121.460 65.5000   1
  36  12  -8 216.760 53.9100   1
  36  12   8 247.890 62.7900   1
  36   8  12 181.860 58.9900   1
  12  36   8 245.210 65.8800   1
   8  36  12 181.960 80.6100   1
   8  36 -12 157.710 65.0800   1
  36   8 -12 75.3800 70.9800   1
;
_shelx_hkl_checksum              55972
_shelx_fab_checksum              5774
_shelx_fab_file
;
    0    0    4   -601.73      0.00
    1    3    3    192.85      0.00
    2    2    4     41.93      0.00
    3    3    3   -370.90      0.00
    1    1    5   -133.73      0.00
    0    4    4    -59.64      0.00
    1    3    5    101.37      0.00
    2    4    4    -96.47      0.00
    0    0    6     35.04      0.00
    0    2    6   -113.15      0.00
    3    3    5    -99.18      0.00
    4    4    4    200.45      0.00
    1    5    5    174.43      0.00
    1    1    7     55.72      0.00
    0    4    6    -41.64      0.00
    2    4    6    -31.41      0.00
    1    3    7    -62.56      0.00
    3    5    5     -0.36      0.00
    0    0    8    172.46      0.00
    3    3    7    135.71      0.00
    0    2    8    -22.95      0.00
    4    4    6    -44.38      0.00
    2    2    8     39.26      0.00
    0    6    6    187.41      0.00
    5    5    5    -86.17      0.00
    1    5    7     30.02      0.00
    2    6    6     -2.61      0.00
    0    4    8    -90.21      0.00
    1    1    9     27.80      0.00
    3    5    7    -29.02      0.00
    2    4    8     32.85      0.00
    4    6    6    -31.03      0.00
    1    3    9    -58.13      0.00
    4    4    8     25.41      0.00
    3    3    9    -10.11      0.00
    1    7    7    -46.97      0.00
    5    5    7    -37.60      0.00
    0    6    8      3.30      0.00
    0    0   10     37.75      0.00
    2    6    8    -29.79      0.00
    0    2   10     69.45      0.00
    3    7    7    -68.58      0.00
    1    5    9    -20.69      0.00
    6    6    6    -74.83      0.00
    2    2   10    -29.16      0.00
    3    5    9     20.00      0.00
    0    4   10     -6.44      0.00
    4    6    8     23.80      0.00
    2    4   10     -5.20      0.00
    5    7    7     18.34      0.00
    1    1   11      8.34      0.00
    0    8    8     82.34      0.00
    5    5    9      6.79      0.00
    1    7    9    -11.16      0.00
    1    3   11     30.40      0.00
    2    8    8    -23.50      0.00
    4    4   10     54.15      0.00
    0    6   10    -87.32      0.00
    6    6    8     39.03      0.00
    3    7    9     34.64      0.00
    3    3   11    -45.89      0.00
    2    6   10     -5.06      0.00
    4    8    8     28.25      0.00
    0    0   12     18.44      0.00
    7    7    7     38.39      0.00
    1    5   11    -82.65      0.00
    0    2   12      1.97      0.00
    2    2   12    -24.88      0.00
    4    6   10     61.26      0.00
    5    7    9     20.62      0.00
    3    5   11     16.27      0.00
    0    4   12     34.30      0.00
    1    9    9     29.14      0.00
    6    8    8      3.15      0.00
    2    4   12    -14.00      0.00
    0    8   10     14.26      0.00
    2    8   10     -3.42      0.00
    5    5   11     38.28      0.00
    1    1   13    -15.45      0.00
    1    7   11      3.45      0.00
    3    9    9    -21.71      0.00
    6    6   10     -8.32      0.00
    4    4   12     -7.88      0.00
    7    7    9    -17.37      0.00
    1    3   13      2.08      0.00
    3    7   11     18.06      0.00
    4    8   10    -21.11      0.00
    0    6   12    -13.94      0.00
    2    6   12     14.78      0.00
    3    3   13     15.99      0.00
    5    9    9    -35.41      0.00
    8    8    8    -24.82      0.00
    5    7   11    -15.31      0.00
    1    5   13      9.69      0.00
    4    6   12     27.01      0.00
    0    0   14     -8.64      0.00
    6    8   10    -28.72      0.00
    0    2   14    -27.48      0.00
    0   10   10     83.33      0.00
    3    5   13     -5.14      0.00
    1    9   11     30.21      0.00
    2    2   14     11.59      0.00
    2   10   10      0.68      0.00
    0    8   12    -10.09      0.00
    7    9    9    -15.19      0.00
    3    9   11    -12.30      0.00
    0    4   14     14.26      0.00
    2    8   12     -0.53      0.00
    2    4   14     16.66      0.00
    4   10   10    -42.90      0.00
    6    6   12      1.24      0.00
    1    7   13     10.27      0.00
    5    5   13     15.35      0.00
    7    7   11      1.90      0.00
    4    8   12     -7.17      0.00
    3    7   13    -10.51      0.00
    1    1   15     -4.92      0.00
    5    9   11    -21.37      0.00
    4    4   14    -16.86      0.00
    8    8   10     14.27      0.00
    0    6   14     38.71      0.00
    1    3   15     -4.62      0.00
    6   10   10     -7.82      0.00
    2    6   14     -4.67      0.00
    5    7   13    -26.18      0.00
    9    9    9     26.86      0.00
    1   11   11     -3.73      0.00
    3    3   15      9.67      0.00
    6    8   12    -14.59      0.00
    0   10   12      6.12      0.00
    4    6   14    -32.58      0.00
    2   10   12      4.00      0.00
    1    9   13     -6.39      0.00
    7    9   11     11.24      0.00
    1    5   15     32.83      0.00
    3   11   11    -31.36      0.00
    0    0   16    -32.28      0.00
    3    5   15    -13.70      0.00
    3    9   13     14.05      0.00
    4   10   12     -5.93      0.00
    0    2   16    -21.62      0.00
    0    8   14     -0.96      0.00
    8   10   10     18.10      0.00
    2    8   14     -0.90      0.00
    2    2   16    -13.99      0.00
    5   11   11     -1.79      0.00
    7    7   13     -0.16      0.00
    6    6   14     18.49      0.00
    0    4   16     30.77      0.00
    8    8   12     17.68      0.00
    5    9   13      9.64      0.00
    1    7   15      4.65      0.00
    5    5   15    -44.39      0.00
    2    4   16     13.79      0.00
    4    8   14      8.55      0.00
    6   10   12      4.01      0.00
    9    9   11     10.20      0.00
    3    7   15    -24.69      0.00
    0   12   12      6.66      0.00
    4    4   16    -22.92      0.00
    1   11   13      0.21      0.00
    1    1   17     -8.14      0.00
    7   11   11     -3.08      0.00
    0    6   16     23.01      0.00
    2   12   12     -6.93      0.00
    6    8   14     15.34      0.00
    2    6   16      1.91      0.00
    0   10   14    -37.19      0.00
    7    9   13      8.49      0.00
    1    3   17      9.83      0.00
    3   11   13      8.95      0.00
    5    7   15      5.51      0.00
   10   10   10     23.22      0.00
    2   10   14     -3.81      0.00
    4   12   12      0.39      0.00
    3    3   17    -11.23      0.00
    1    9   15    -22.47      0.00
    4    6   16    -22.45      0.00
    8   10   12     -2.22      0.00
    4   10   14     17.26      0.00
    1    5   17      6.66      0.00
    5   11   13      5.41      0.00
    3    9   15      5.52      0.00
    0    8   16    -20.34      0.00
    3    5   17      0.96      0.00
    7    7   15      1.60      0.00
    9   11   11      6.33      0.00
    8    8   14     -7.23      0.00
    2    8   16     10.11      0.00
    0    0   18      7.40      0.00
    6   12   12     13.77      0.00
    6    6   16     -9.47      0.00
    0    2   18     14.59      0.00
    5    9   15     21.16      0.00
    9    9   13    -10.71      0.00
    6   10   14      6.30      0.00
    2    2   18     -4.14      0.00
    4    8   16     15.15      0.00
    7   11   13    -10.62      0.00
    1    7   17      1.95      0.00
    5    5   17     -5.53      0.00
    1   13   13      5.92      0.00
    0    4   18      4.25      0.00
    0   12   14    -11.82      0.00
    2   12   14      4.00      0.00
    2    4   18      1.94      0.00
   10   10   12     -4.90      0.00
    3   13   13      0.21      0.00
    1   11   15    -17.33      0.00
    3    7   17     -1.57      0.00
    8   12   12     -6.71      0.00
    7    9   15     -6.72      0.00
    3   11   15      9.02      0.00
    4    4   18      2.80      0.00
    6    8   16      4.78      0.00
    0   10   16    -13.30      0.00
    4   12   14     -0.64      0.00
    0    6   18    -18.46      0.00
    2   10   16      2.96      0.00
    8   10   14     -0.97      0.00
    5    7   17      7.62      0.00
    1    1   19      7.08      0.00
    5   13   13      1.02      0.00
   11   11   11      6.22      0.00
    2    6   18     -2.70      0.00
    1    3   19     -3.63      0.00
    1    9   17     -7.45      0.00
    5   11   15      8.06      0.00
    9   11   13     -3.70      0.00
    4   10   16     20.02      0.00
    6   12   14     -4.02      0.00
    4    6   18      6.46      0.00
    3    9   17     -5.60      0.00
    3    3   19    -15.17      0.00
    8    8   16    -13.02      0.00
    9    9   15     -3.93      0.00
    7   13   13     -1.40      0.00
    1    5   19    -17.00      0.00
    7    7   17     -5.54      0.00
    0    8   18      4.28      0.00
   10   12   12      4.84      0.00
    6   10   16      5.28      0.00
    2    8   18      5.36      0.00
    0   14   14     34.66      0.00
    7   11   15      4.14      0.00
    1   13   15     -0.95      0.00
    5    9   17      6.47      0.00
    3    5   19      8.03      0.00
    2   14   14      0.94      0.00
    6    6   18     -0.56      0.00
   10   10   14     -5.51      0.00
    0   12   16     -4.67      0.00
    0    0   20     16.56      0.00
    3   13   15     -8.81      0.00
    4    8   18      2.00      0.00
    0    2   20      6.65      0.00
    8   12   14     -4.77      0.00
    2   12   16      0.05      0.00
    2    2   20      7.43      0.00
    4   14   14      1.15      0.00
    1    7   19     -7.68      0.00
    1   11   17      2.42      0.00
    5    5   19     24.70      0.00
   11   11   13     -4.79      0.00
    4   12   16      1.97      0.00
    0    4   20    -13.99      0.00
    3    7   19      2.91      0.00
    7    9   17     -2.51      0.00
    5   13   15     -2.19      0.00
    3   11   17      2.14      0.00
    9   13   13      6.77      0.00
    8   10   16     -5.69      0.00
    2    4   20    -15.44      0.00
    0   10   18      5.70      0.00
    6    8   18      0.71      0.00
    9   11   15     -6.47      0.00
    6   14   14     -0.99      0.00
    2   10   18     -5.73      0.00
    4    4   20     14.78      0.00
   12   12   12     -6.28      0.00
    5    7   19     -3.65      0.00
    5   11   17      3.14      0.00
    6   12   16      0.21      0.00
    0    6   20    -10.22      0.00
    2    6   20     -2.06      0.00
    4   10   18     -9.16      0.00
   10   12   14      3.70      0.00
    1    9   19      7.47      0.00
    7   13   15     -1.89      0.00
    1    1   21     10.36      0.00
    1   15   15     11.65      0.00
    1    3   21     -4.63      0.00
    9    9   17      1.60      0.00
    3    9   19     -3.89      0.00
    4    6   20     12.46      0.00
    0   14   16      0.72      0.00
    8    8   18      8.96      0.00
    2   14   16     -0.66      0.00
   10   10   16     -5.31      0.00
    8   14   14      6.82      0.00
    1   13   17      4.75      0.00
    3    3   21      9.34      0.00
    3   15   15    -14.74      0.00
    7   11   17      0.98      0.00
    7    7   19     -2.32      0.00
   11   13   13      2.78      0.00
    6   10   18     -1.32      0.00
    8   12   16      6.02      0.00
    0    8   20     11.47      0.00
    5    9   19     -7.70      0.00
    1    5   21     -7.99      0.00
    3   13   17      0.60      0.00
   11   11   15    -11.79      0.00
    4   14   16     -2.20      0.00
    0   12   18      3.93      0.00
    2    8   20      5.12      0.00
    6    6   20     -0.88      0.00
    2   12   18     -5.06      0.00
    3    5   21      6.48      0.00
    9   13   15      6.57      0.00
    5   15   15    -12.63      0.00
    4    8   20     -7.41      0.00
    1   11   19      9.61      0.00
    5   13   17      5.37      0.00
    4   12   18     -2.03      0.00
   12   12   14      2.24      0.00
    0    0   22     10.57      0.00
    6   14   16     -0.21      0.00
    8   10   18     -2.68      0.00
    0    2   22      0.56      0.00
    1    7   21     -6.02      0.00
    9   11   17     -1.57      0.00
    7    9   19      3.51      0.00
    3   11   19      1.58      0.00
    5    5   21      9.04      0.00
    2    2   22      3.29      0.00
   10   14   14      4.96      0.00
    3    7   21     -1.60      0.00
    7   15   15     -7.31      0.00
   10   12   16    -10.50      0.00
    0   10   20      3.78      0.00
    6    8   20     -9.11      0.00
    0    4   22     -4.16      0.00
    2    4   22     -1.07      0.00
    2   10   20      3.38      0.00
    6   12   18      0.69      0.00
    7   13   17     -3.87      0.00
    5   11   19     -2.81      0.00
   13   13   13      4.72      0.00
    0   16   16     20.78      0.00
    5    7   21      3.06      0.00
   11   13   15     -1.39      0.00
    1   15   17      3.90      0.00
    8   14   16      1.22      0.00
    4    4   22     -2.57      0.00
    2   16   16     -4.50      0.00
    4   10   20     -2.68      0.00
    0   14   18     -1.97      0.00
    0    6   22     -3.49      0.00
    9    9   19      6.59      0.00
    3   15   17      2.00      0.00
    1    9   21     11.39      0.00
    2   14   18      0.19      0.00
    2    6   22      1.80      0.00
   10   10   18      2.94      0.00
    4   16   16     -1.81      0.00
    8    8   20      7.83      0.00
    1   13   19     -6.50      0.00
    7   11   19     -7.51      0.00
    9   15   15      0.30      0.00
    1    1   23     -3.38      0.00
   11   11   17     -8.60      0.00
    3    9   21    -12.87      0.00
    8   12   18     -1.79      0.00
    6   10   20     -2.59      0.00
   12   14   14     -0.69      0.00
    4    6   22     15.12      0.00
    4   14   18      0.85      0.00
    3   13   19     -1.81      0.00
    5   15   17     -0.41      0.00
    7    7   21     -0.18      0.00
    9   13   17     -0.57      0.00
    1    3   23     -3.40      0.00
   12   12   16     -8.44      0.00
    0   12   20      7.06      0.00
    3    3   23     -3.45      0.00
    5    9   21     -3.03      0.00
    2   12   20      0.86      0.00
    6   16   16    -17.08      0.00
    0    8   22     -7.56      0.00
   10   14   16      1.99      0.00
    2    8   22      2.49      0.00
    5   13   19     -0.54      0.00
    1    5   23      6.91      0.00
    6   14   18      1.22      0.00
    6    6   22     10.00      0.00
    4   12   20      2.92      0.00
    7   15   17     -1.80      0.00
    3    5   23      3.91      0.00
   13   13   15     -7.19      0.00
    9   11   19      2.85      0.00
    1   11   21      4.77      0.00
    8   10   20     -6.47      0.00
    4    8   22      1.44      0.00
   10   12   18      5.71      0.00
    7    9   21     -3.39      0.00
   11   15   15      1.94      0.00
    3   11   21    -13.54      0.00
    8   16   16     -1.84      0.00
    0    0   24     -2.60      0.00
    7   13   19     -3.60      0.00
    1    7   23     -0.98      0.00
   11   13   17      1.42      0.00
    5    5   23    -25.86      0.00
    1   17   17     -3.12      0.00
    6   12   20     -5.10      0.00
    0    2   24     -3.18      0.00
    0   16   18     12.51      0.00
    8   14   18      1.89      0.00
    6    8   22      2.16      0.00
    2    2   24      0.86      0.00
    0   10   22     11.14      0.00
    2   16   18      2.84      0.00
    1   15   19     -3.03      0.00
    5   11   21     -8.00      0.00
    3    7   23      0.01      0.00
    3   17   17     -2.29      0.00
   14   14   14     10.17      0.00
    2   10   22      2.65      0.00
    0    4   24      0.83      0.00
    9   15   17      8.57      0.00
    3   15   19      1.57      0.00
    4   16   18     -6.32      0.00
    0   14   20     -3.83      0.00
    2    4   24      4.39      0.00
   12   14   16      7.03      0.00
    4   10   22      2.20      0.00
    2   14   20     -3.12      0.00
   10   10   20      2.05      0.00
    5    7   23     -1.73      0.00
    5   17   17     -4.63      0.00
   11   11   19      0.75      0.00
    9    9   21      8.15      0.00
    8   12   20      1.04      0.00
    4    4   24      7.77      0.00
    1    9   23     -1.33      0.00
    5   15   19     -3.24      0.00
    9   13   19      0.87      0.00
    1   13   21      7.09      0.00
    7   11   21      0.36      0.00
   10   16   16      3.63      0.00
    4   14   20      3.34      0.00
    8    8   22     -4.67      0.00
    0    6   24     20.25      0.00
   12   12   18      8.38      0.00
    2    6   24     -1.32      0.00
    6   16   18     -3.75      0.00
    3   13   21      0.18      0.00
   13   15   15     -1.09      0.00
    3    9   23     -0.24      0.00
    6   10   22     -4.18      0.00
   10   14   18     -8.87      0.00
    7   17   17     -0.64      0.00
    7    7   23    -12.65      0.00
    1    1   25    -10.67      0.00
   13   13   17      6.98      0.00
    0   12   22      0.71      0.00
    4    6   24    -27.17      0.00
    6   14   20      5.55      0.00
    2   12   22     -1.29      0.00
    1    3   25     -4.67      0.00
   11   15   17      5.13      0.00
    7   15   19      1.86      0.00
    5   13   21    -13.67      0.00
    5    9   23      5.16      0.00
    0    8   24      1.41      0.00
    3    3   25      2.03      0.00
    9   11   21      5.07      0.00
    4   12   22      0.16      0.00
    2    8   24     -1.64      0.00
    8   16   18      6.96      0.00
   10   12   20      6.17      0.00
    8   10   22      7.24      0.00
    0   18   18      1.88      0.00
   14   14   16     -2.03      0.00
    6    6   24      8.90      0.00
    1    5   25      9.75      0.00
   11   13   19      5.18      0.00
    1   11   23     -2.72      0.00
    1   17   19     -4.88      0.00
    2   18   18     -6.12      0.00
    4    8   24     -5.08      0.00
    0   16   20      0.62      0.00
   12   16   16     18.38      0.00
    7    9   23     -4.23      0.00
    9   17   17      2.99      0.00
    3   17   19     -2.91      0.00
    7   13   21      5.81      0.00
    3    5   25     -1.96      0.00
    3   11   23      1.05      0.00
    2   16   20     -1.59      0.00
    8   14   20      1.78      0.00
   12   14   18      1.25      0.00
    4   18   18      5.16      0.00
    6   12   22      1.65      0.00
    9   15   19      4.92      0.00
    1   15   21    -11.34      0.00
    4   16   20      0.08      0.00
    5    5   25     -6.61      0.00
    1    7   25      0.60      0.00
    5   17   19      5.15      0.00
    5   11   23     -5.03      0.00
    3   15   21      7.93      0.00
   15   15   15    -21.19      0.00
    0   10   24      1.03      0.00
    6    8   24      3.92      0.00
    0    0   26      2.37      0.00
    2   10   24     -7.08      0.00
   10   16   18      9.93      0.00
    0    2   26      2.62      0.00
    0   14   22      2.51      0.00
   13   15   17      3.41      0.00
    3    7   25      1.00      0.00
   11   11   21      5.73      0.00
   10   10   22      4.67      0.00
    6   18   18      6.01      0.00
    2   14   22     -1.88      0.00
    2    2   26      0.71      0.00
   12   12   20      1.04      0.00
    9   13   21      8.22      0.00
    9    9   23      1.20      0.00
    5   15   21      9.37      0.00
    6   16   20      6.96      0.00
    0    4   26      7.01      0.00
    4   10   24      8.38      0.00
    8   12   22      3.91      0.00
    4   14   22      7.66      0.00
   10   14   20     -2.79      0.00
    2    4   26      4.18      0.00
    7   17   19      5.52      0.00
    5    7   25      5.06      0.00
   11   17   17      0.68      0.00
    7   11   23      4.12      0.00
    1   13   23      0.43      0.00
   13   13   19     -2.83      0.00
    8    8   24     -1.47      0.00
    3   13   23      0.13      0.00
    1    9   25     -4.57      0.00
   11   15   19     -4.27      0.00
    4    4   26      3.30      0.00
   14   16   16      8.85      0.00
    8   18   18      5.78      0.00
    6   10   24      9.16      0.00
    0    6   26      3.89      0.00
    3    9   25      0.89      0.00
    7   15   21      1.39      0.00
    2    6   26     -6.72      0.00
    6   14   22      5.66      0.00
   14   14   18     -3.70      0.00
    8   16   20     -6.24      0.00
    0   12   24     -5.03      0.00
    7    7   25      3.66      0.00
    5   13   23      2.19      0.00
    1   19   19     -8.76      0.00
    0   18   20     -1.14      0.00
    2   12   24     -5.33      0.00
   12   16   18    -10.39      0.00
   10   12   22      0.14      0.00
    4    6   26      5.85      0.00
    2   18   20     -0.22      0.00
    1   17   21    -11.27      0.00
    9   11   23     -1.57      0.00
   11   13   21     -2.96      0.00
    5    9   25     -8.00      0.00
    3   19   19     10.51      0.00
    1    1   27      3.32      0.00
    9   17   19     -2.33      0.00
    4   12   24      8.90      0.00
    3   17   21      7.54      0.00
    1    3   27      5.67      0.00
   15   15   17    -21.73      0.00
    4   18   20      8.64      0.00
    8   10   24      2.57      0.00
   12   14   20     -8.16      0.00
    0    8   26      1.63      0.00
    0   16   22     -6.61      0.00
    2   16   22     -2.70      0.00
    8   14   22     -2.26      0.00
    2    8   26      1.53      0.00
    7   13   23     -4.48      0.00
    5   19   19      5.87      0.00
   13   17   17     -8.21      0.00
    1   11   25    -11.01      0.00
    3    3   27     -2.25      0.00
    9   15   21     -9.60      0.00
    6    6   26     -2.02      0.00
   10   18   18     -6.37      0.00
    1    5   27     -4.71      0.00
    3   11   25      6.32      0.00
    1   15   23     -0.98      0.00
   13   15   19     -7.27      0.00
    7    9   25      2.59      0.00
    5   17   21     10.64      0.00
    4    8   26      2.55      0.00
    6   12   24     -4.80      0.00
    4   16   22      8.01      0.00
   10   16   20    -12.20      0.00
    6   18   20      0.24      0.00
    3    5   27     -7.57      0.00
    3   15   23     -1.07      0.00
   16   16   16     -6.68      0.00
    7   19   19     -4.77      0.00
   11   17   19     -6.28      0.00
   11   11   23    -10.77      0.00
    5   11   25      8.20      0.00
   12   12   22     -3.03      0.00
    0   14   24      1.48      0.00
   10   10   24     -5.72      0.00
    0   10   26     -6.81      0.00
    6    8   26      0.93      0.00
   14   16   18     -5.68      0.00
    6   16   22      3.85      0.00
    2   14   24     -2.68      0.00
    1    7   27     -1.00      0.00
    5   15   23     -4.80      0.00
   13   13   21     -4.32      0.00
    9   13   23     -6.13      0.00
    5    5   27      5.44      0.00
    7   17   21     -0.10      0.00
   10   14   22     -4.59      0.00
    2   10   26      4.64      0.00
    8   12   24      0.39      0.00
    0    0   28     14.40      0.00
   11   15   21     -4.61      0.00
    3    7   27      4.55      0.00
    9    9   25      1.23      0.00
    4   14   24      2.28      0.00
    8   18   20    -14.14      0.00
    0    2   28    -12.05      0.00
    4   10   26      2.62      0.00
   14   14   20      3.84      0.00
   12   18   18     -6.47      0.00
    2    2   28    -10.57      0.00
    1   13   25      2.84      0.00
    7   11   25      0.87      0.00
    0    4   28     -8.81      0.00
   12   16   20     -1.22      0.00
    0   20   20     26.62      0.00
    5    7   27     -6.23      0.00
    9   19   19     -4.50      0.00
    7   15   23     -0.38      0.00
    1   19   21     -4.00      0.00
    3   13   25     -3.41      0.00
   15   17   17     -5.58      0.00
    2   20   20      5.30      0.00
    2    4   28     -3.91      0.00
    8    8   26      1.15      0.00
    8   16   22     -1.24      0.00
    6   14   24     -2.66      0.00
    0   18   22      3.85      0.00
    9   17   21    -11.31      0.00
    3   19   21     -1.42      0.00
   15   15   19      4.44      0.00
    1    9   27      4.12      0.00
    2   18   22      5.05      0.00
    6   10   26     -6.35      0.00
    4    4   28     -1.63      0.00
    4   20   20    -10.80      0.00
   11   13   23      2.46      0.00
    5   13   25      6.00      0.00
    1   17   23      2.88      0.00
   13   17   19      1.08      0.00
    3    9   27      0.62      0.00
   10   12   24     -5.72      0.00
    0   12   26      6.86      0.00
    0    6   28      6.37      0.00
    2   12   26     -1.91      0.00
   10   18   20     -5.38      0.00
    2    6   28      3.64      0.00
   12   14   22      1.45      0.00
    4   18   22      0.65      0.00
    5   19   21     -8.84      0.00
    7    7   27     -1.37      0.00
    3   17   23      2.49      0.00
    9   11   25     -2.57      0.00
    0   16   24     -1.62      0.00
   13   15   21     -3.43      0.00
    9   15   23     -6.30      0.00
    5    9   27      1.48      0.00
    8   14   24     -5.33      0.00
    4   12   26     -0.15      0.00
    4    6   28      1.17      0.00
   16   16   18      4.86      0.00
    6   20   20     -7.05      0.00
    2   16   24      0.86      0.00
    8   10   26     -3.51      0.00
   10   16   22      3.89      0.00
    5   17   23    -10.33      0.00
    1    1   29     -7.17      0.00
    7   13   25      0.17      0.00
   11   19   19      0.79      0.00
   14   18   18      7.91      0.00
    6   18   22     -1.84      0.00
    4   16   24     -3.94      0.00
    0    8   28     -4.19      0.00
    1   15   25      5.10      0.00
    7   19   21     -4.16      0.00
    1   11   27      5.36      0.00
    1    3   29     28.37      0.00
   11   17   21      3.21      0.00
   14   16   20      8.44      0.00
    2    8   28     -1.50      0.00
    6   12   26     -9.05      0.00
    6    6   28     -1.71      0.00
    3   11   27     -0.54      0.00
    7    9   27      3.11      0.00
    3   15   25      0.59      0.00
    3    3   29     -9.17      0.00
    4    8   28      4.75      0.00
    8   20   20      0.28      0.00
   12   12   24      1.02      0.00
    7   17   23      2.26      0.00
   17   17   17      7.80      0.00
    1    5   29     -5.84      0.00
   11   11   25      4.11      0.00
   13   13   23      5.58      0.00
   12   18   20      7.79      0.00
    6   16   24     -4.74      0.00
    0   14   26     -3.00      0.00
   10   14   24      3.76      0.00
    8   18   22     -0.58      0.00
    3    5   29      1.45      0.00
    5   15   25     -0.01      0.00
   11   15   23     -1.46      0.00
   15   17   19      6.15      0.00
    9   13   25      0.36      0.00
    5   11   27     12.71      0.00
    2   14   26      1.38      0.00
   10   10   26     -2.57      0.00
   14   14   22      4.72      0.00
    9   19   21      8.46      0.00
    1   21   21      5.57      0.00
    8   12   26     -1.61      0.00
    6    8   28     -4.10      0.00
    0   20   22      8.69      0.00
    0   10   28     -3.03      0.00
   12   16   22     -0.39      0.00
    2   10   28     -6.26      0.00
    4   14   26     -0.55      0.00
    2   20   22     10.06      0.00
   13   19   19      8.01      0.00
    1    7   29     -5.72      0.00
    5    5   29      6.99      0.00
   15   15   21     20.24      0.00
    9    9   27      1.42      0.00
    1   19   23      2.88      0.00
    3   21   21    -26.20      0.00
    8   16   24      0.69      0.00
    3   19   23    -15.35      0.00
   13   17   21      3.14      0.00
    3    7   29     -1.41      0.00
    9   17   23     -1.76      0.00
    7   15   25      0.73      0.00
    7   11   27      5.05      0.00
    1   13   27      1.57      0.00
    4   10   28     -3.65      0.00
   10   20   20     12.98      0.00
    4   20   22     -8.04      0.00
    0    0   30      9.32      0.00
    0   18   24      9.69      0.00
    2   18   24      7.93      0.00
   16   18   18      9.10      0.00
    0    2   30     -3.20      0.00
    3   13   27     -2.97      0.00
    5   21   21     -7.24      0.00
    6   14   26      3.03      0.00
    2    2   30     -3.73      0.00
   10   18   22      6.91      0.00
   16   16   20      3.24      0.00
    8    8   28     -1.42      0.00
   11   13   25      1.85      0.00
    5    7   29      1.05      0.00
    1   17   25      2.13      0.00
    5   19   23      2.59      0.00
    4   18   24     -8.23      0.00
   12   14   24      4.44      0.00
    0    4   30    -15.27      0.00
   10   12   26     -2.20      0.00
   14   18   20      7.57      0.00
    2    4   30     -8.12      0.00
    6   20   22     -1.47      0.00
    6   10   28     -1.91      0.00
   11   19   21      3.41      0.00
    1    9   29      5.05      0.00
    5   13   27     -3.03      0.00
    3   17   25     -4.99      0.00
   13   15   23      1.49      0.00
    0   12   28      3.31      0.00
    9   15   25      2.66      0.00
    3    9   29     -2.22      0.00
    9   11   27      3.33      0.00
    7   21   21     10.03      0.00
   10   16   24      8.10      0.00
    0   16   26     10.63      0.00
    4    4   30      3.52      0.00
    2   12   28      2.15      0.00
   14   16   22      2.24      0.00
    2   16   26     -0.37      0.00
    0    6   30      4.57      0.00
    8   14   26      4.13      0.00
    6   18   24     -5.40      0.00
   17   17   19      2.79      0.00
   11   17   23      2.14      0.00
    7    7   29     -4.99      0.00
    7   19   23      4.78      0.00
    5   17   25      3.49      0.00
    2    6   30      2.47      0.00
    4   12   28     -7.13      0.00
   12   20   20      3.47      0.00
    7   13   27     -2.39      0.00
    5    9   29     -0.41      0.00
   15   19   19      7.49      0.00
    8   10   28     -4.23      0.00
    4   16   26     -8.45      0.00
    8   20   22      9.25      0.00
    4    6   30      2.60      0.00
   12   18   22      5.24      0.00
   15   17   21     -0.15      0.00
    1   15   27     -6.73      0.00
    1   11   29     -1.82      0.00
    1    1   31      4.79      0.00
   13   13   25     -4.98      0.00
    7   17   25      1.70      0.00
    9   21   21     15.80      0.00
    3   15   27      4.53      0.00
    8   18   24      4.83      0.00
   12   12   26      2.39      0.00
    6   12   28      7.09      0.00
    0    8   30     -5.96      0.00
    2    8   30     -3.40      0.00
    6   16   26     -1.05      0.00
   14   14   24      3.90      0.00
    0   22   22      1.81      0.00
    7    9   29     -0.66      0.00
    1    3   31     -0.92      0.00
   11   15   25      1.15      0.00
    9   19   23      5.71      0.00
   13   19   21      3.41      0.00
    3   11   29     -6.82      0.00
    1   21   23     -5.51      0.00
   11   11   27     -5.59      0.00
   18   18   18    -14.55      0.00
   10   14   26     -2.38      0.00
    6    6   30      1.03      0.00
    2   22   22      2.86      0.00
    0   20   24    -13.61      0.00
   12   16   24     -1.36      0.00
    3    3   31      3.21      0.00
    9   13   27      0.49      0.00
   15   15   23      3.50      0.00
    5   15   27     -1.59      0.00
    3   21   23      4.75      0.00
    4    8   30      2.56      0.00
   16   18   20     -2.35      0.00
    0   14   28    -13.86      0.00
    2   20   24     -2.55      0.00
   10   10   28     -5.46      0.00
   10   20   22      1.83      0.00
    4   22   22      4.41      0.00
    2   14   28      1.83      0.00
    1    5   31     -2.86      0.00
    1   19   25     -0.91      0.00
   13   17   23     -6.74      0.00
    5   11   29     -5.01      0.00
    8   12   28     -3.90      0.00
    4   20   24      6.78      0.00
    3   19   25     -2.33      0.00
    5   21   23     10.53      0.00
    3    5   31      4.60      0.00
    9   17   25     -1.24      0.00
    4   14   28      5.38      0.00
   16   16   22      2.26      0.00
   14   20   20    -22.36      0.00
    8   16   26      3.50      0.00
    6    8   30      3.83      0.00
    0   10   30    -13.44      0.00
   10   18   24      1.67      0.00
    0   18   26     -6.33      0.00
   11   21   21     -8.78      0.00
    9    9   29      8.35      0.00
    7   15   27     -1.64      0.00
    2   18   26     -3.20      0.00
    6   22   22     18.03      0.00
   14   18   22     -2.21      0.00
    2   10   30     10.85      0.00
    1   13   29     -7.85      0.00
    1    7   31      0.90      0.00
   11   19   23     -0.51      0.00
    5    5   31      0.36      0.00
    7   11   29      0.69      0.00
    5   19   25      4.00      0.00
   17   19   19     -5.27      0.00
    6   20   24      0.90      0.00
    4   10   30      4.75      0.00
    4   18   26      1.72      0.00
    6   14   28     -1.16      0.00
   12   14   26      0.08      0.00
    7   21   23    -26.80      0.00
   13   15   25     -0.18      0.00
    1   17   27      7.14      0.00
    3   13   29      1.55      0.00
   11   13   27      5.75      0.00
   17   17   21     -2.96      0.00
    3    7   31     -0.58      0.00
    0    0   32      4.30      0.00
    3   17   27     -5.28      0.00
   15   19   21     -5.23      0.00
   10   12   28      1.61      0.00
   14   16   24     -1.94      0.00
    8    8   30     -3.63      0.00
   12   20   22    -10.45      0.00
    0    2   32      3.27      0.00
   10   16   26      4.52      0.00
    8   22   22      3.94      0.00
    2    2   32      5.19      0.00
    5   13   29     -2.08      0.00
    5    7   31      4.74      0.00
    7   19   25      3.66      0.00
   11   17   25      0.14      0.00
    9   15   27      2.21      0.00
    6   18   26     -2.79      0.00
    6   10   30      1.62      0.00
    8   20   24     -0.04      0.00
    0   16   28      2.86      0.00
    0    4   32     -4.29      0.00
   15   17   23     -2.04      0.00
    1    9   31     12.22      0.00
    9   11   29     -1.37      0.00
    5   17   27      1.57      0.00
    8   14   28      2.81      0.00
   12   18   24     -2.87      0.00
    0   12   30     -1.01      0.00
    2    4   32      1.68      0.00
    2   16   28     -4.71      0.00
   18   18   20     -7.07      0.00
    2   12   30     15.73      0.00
    3    9   31     -8.53      0.00
    9   21   23      4.33      0.00
   13   21   21      3.81      0.00
    4   16   28      0.67      0.00
   16   20   20    -10.58      0.00
    4    4   32      5.35      0.00
   13   19   23     -1.80      0.00
    7   13   29      3.01      0.00
    7    7   31      2.40      0.00
    1   23   23     -2.57      0.00
    4   12   30      0.13      0.00
    0   22   24     -5.00      0.00
    0    6   32      9.46      0.00
   16   18   22     -8.10      0.00
    2   22   24      1.12      0.00
    8   18   26      3.76      0.00
    8   10   30     -8.35      0.00
    2    6   32      0.50      0.00
   13   13   27      3.41      0.00
    1   15   29     23.59      0.00
    7   17   27     -0.06      0.00
    5    9   31      1.52      0.00
    3   23   23     -4.00      0.00
    9   19   25     -7.09      0.00
    1   21   25      1.94      0.00
   14   14   26     -3.81      0.00
   10   22   22     -7.11      0.00
   12   12   28      2.81      0.00
    3   15   29     -5.19      0.00
   15   15   25     -5.78      0.00
    3   21   25      3.14      0.00
   11   15   27      5.08      0.00
   12   16   26     -0.37      0.00
    6   16   28     -2.61      0.00
    4    6   32     -6.09      0.00
    4   22   24      0.07      0.00
    0   20   26    -10.25      0.00
   10   20   24      0.33      0.00
   14   20   22     -8.37      0.00
    2   20   26     -1.83      0.00
   10   14   28     -3.99      0.00
    6   12   30     -2.78      0.00
   11   11   29     -5.82      0.00
    1   11   31     -0.04      0.00
   19   19   19    -11.43      0.00
   13   17   25      1.11      0.00
    5   23   23      4.27      0.00
    0    8   32     -5.70      0.00
   16   16   24     -0.38      0.00
    5   15   29     -3.64      0.00
    3   11   31      1.24      0.00
    7    9   31      2.00      0.00
    5   21   25      7.81      0.00
    1    1   33     -3.67      0.00
    9   13   29      6.09      0.00
    1   19   27     -0.64      0.00
   17   19   21     -1.05      0.00
   11   21   23      4.98      0.00
    4   20   26      6.32      0.00
    2    8   32     -1.70      0.00
   14   18   24     -0.35      0.00
    6   22   24     -0.32      0.00
    6    6   32    -11.29      0.00
    0   14   30      8.24      0.00
    3   19   27      4.34      0.00
    1    3   33     -4.73      0.00
    9   17   27      7.04      0.00
   10   10   30     12.52      0.00
   10   18   26      8.71      0.00
    2   14   30    -14.60      0.00
    8   16   28     -4.15      0.00
    4    8   32     -1.80      0.00
    7   23   23      4.71      0.00
    5   11   31     -0.10      0.00
   11   19   25    -12.79      0.00
   17   17   23      3.79      0.00
    3    3   33     -9.75      0.00
   15   21   21     -0.90      0.00
    8   12   30      0.81      0.00
    0   18   28      5.26      0.00
    6   20   26      2.55      0.00
    4   14   30     -1.17      0.00
   12   22   22     -3.20      0.00
    2   18   28     -2.21      0.00
   15   19   23     -9.06      0.00
    1    5   33     -1.95      0.00
    5   19   27      6.02      0.00
    7   21   25     -0.64      0.00
    7   15   29      0.47      0.00
   12   20   24      3.11      0.00
    3    5   33      3.11      0.00
    9    9   31      3.86      0.00
   13   15   27     -2.31      0.00
    4   18   28     -1.04      0.00
    6    8   32      3.97      0.00
    8   22   24     -4.17      0.00
    0   10   32     -8.37      0.00
   18   20   20     -2.28      0.00
   12   14   28     -5.83      0.00
   14   16   26     -1.36      0.00
    2   10   32      5.92      0.00
    7   11   31     -3.96      0.00
    1   13   31      0.08      0.00
   11   13   29     -6.67      0.00
    1   17   29     -6.31      0.00
    6   14   30      0.92      0.00
   18   18   22      5.27      0.00
    3   13   31     -4.76      0.00
    5    5   33     -6.53      0.00
    3   17   29      6.52      0.00
    1    7   33     -8.16      0.00
    7   19   27     -4.31      0.00
   15   17   25     -3.30      0.00
    9   23   23    -12.55      0.00
   13   21   23      0.64      0.00
   11   17   27    -12.56      0.00
   10   16   28      9.83      0.00
   16   20   22     -0.06      0.00
    4   10   32     -5.37      0.00
    8   20   26      0.21      0.00
   12   18   26     -3.74      0.00
   10   12   30      6.96      0.00
    6   18   28     -3.06      0.00
    9   21   25     -7.37      0.00
    3    7   33      5.35      0.00
    9   15   29     -3.73      0.00
    8    8   32     -1.09      0.00
    0   24   24     -3.44      0.00
   13   19   25     -8.84      0.00
    5   17   29      1.96      0.00
    5   13   31      2.75      0.00
    1   23   25      4.18      0.00
    0   16   30    -22.55      0.00
   16   18   24      0.46      0.00
    0    0   34     -2.28      0.00
    2   24   24      0.43      0.00
    2   16   30     -3.25      0.00
    0   22   26      8.80      0.00
    8   14   30      3.85      0.00
    0    2   34     -2.61      0.00
   10   22   24     -6.45      0.00
    6   10   32      3.13      0.00
    3   23   25     -3.66      0.00
    5    7   33      0.49      0.00
   19   19   21      6.17      0.00
    9   11   31     -6.91      0.00
    2   22   26      1.81      0.00
    2    2   34      1.41      0.00
   14   22   22      6.59      0.00
    4   24   24     -3.62      0.00
    0   12   32      0.82      0.00
    9   19   27     -4.39      0.00
   17   21   21      7.67      0.00
    1    9   33      1.86      0.00
    1   21   27     -9.72      0.00
    0    4   34      1.01      0.00
    2   12   32     -0.26      0.00
   14   20   24      4.05      0.00
    4   16   30      6.21      0.00
    8   18   28     -7.09      0.00
   10   20   26     -4.24      0.00
    4   22   26     -5.82      0.00
   14   14   28     -0.31      0.00
    2    4   34      4.38      0.00
    3    9   33    -10.61      0.00
    7   13   31      0.66      0.00
   13   13   29    -13.01      0.00
   15   15   27      4.66      0.00
    7   17   29      3.33      0.00
   17   19   23      5.15      0.00
    3   21   27     13.43      0.00
    5   23   25     -1.94      0.00
   11   23   23     -8.99      0.00
   12   16   28      9.99      0.00
    0   20   28     22.63      0.00
    4   12   32     -8.99      0.00
    1   15   31     16.82      0.00
   11   21   25      1.79      0.00
   11   15   29    -11.31      0.00
    7    7   33      1.69      0.00
   13   17   27     -2.30      0.00
    8   10   32      1.00      0.00
    4    4   34      9.29      0.00
   12   12   30     -3.27      0.00
   16   16   26    -13.46      0.00
    6   24   24     -0.94      0.00
    2   20   28      1.04      0.00
    0    6   34      5.89      0.00
    6   16   30     -2.59      0.00
   15   21   23      4.11      0.00
    3   15   31     -5.22      0.00
    5    9   33     -0.87      0.00
    5   21   27      0.88      0.00
   14   18   26      3.68      0.00
    6   22   26    -20.12      0.00
   10   14   30      9.83      0.00
    2    6   34      0.31      0.00
    4   20   28     -6.57      0.00
   20   20   20     13.18      0.00
    7   23   25      4.05      0.00
   17   17   25      6.32      0.00
   11   11   31      3.32      0.00
    1   19   29     -4.05      0.00
    6   12   32      3.11      0.00
   12   22   24      4.31      0.00
   10   18   28     -2.11      0.00
    4    6   34      5.53      0.00
   18   20   22      7.42      0.00
    9   13   31     -4.94      0.00
    9   17   29     -8.16      0.00
   15   19   25      5.17      0.00
    5   15   31     -6.58      0.00
    1   11   33     -0.04      0.00
   11   19   27      7.48      0.00
    3   19   29     -1.35      0.00
    8   24   24      7.56      0.00
    7    9   33     -2.17      0.00
    3   11   33      2.19      0.00
    7   21   27     10.09      0.00
    0    8   34     -3.12      0.00
    8   16   30      1.50      0.00
   12   20   26      7.32      0.00
    6   20   28     -2.90      0.00
    0   14   32     -7.03      0.00
    0   18   30     -4.13      0.00
   10   10   32     12.32      0.00
   16   22   22     -0.57      0.00
    8   22   26      4.19      0.00
   18   18   24     -3.89      0.00
    2   14   32      8.52      0.00
    2    8   34      8.18      0.00
   13   23   23      3.29      0.00
    5   19   29     -5.60      0.00
    1    1   35      3.93      0.00
    6    6   34     -1.15      0.00
    2   18   30      0.51      0.00
   16   20   24     -6.29      0.00
    8   12   32      1.69      0.00
   13   15   29     14.13      0.00
   13   21   25      2.92      0.00
    1    3   35      1.85      0.00
    5   11   33      0.79      0.00
    9   23   25      9.42      0.00
    7   15   31     -2.25      0.00
    4    8   34      0.60      0.00
   14   16   28     -9.71      0.00
    4   14   32      5.95      0.00
   12   14   30      5.23      0.00
    4   18   30      9.16      0.00
   15   17   27      4.23      0.00
   19   21   21      6.25      0.00
    3    3   35      4.33      0.00
    8   20   28      0.60      0.00
    9    9   33     -9.77      0.00
    7   19   29     -0.31      0.00
   19   19   23      3.23      0.00
   11   13   31      0.41      0.00
   11   17   29     -3.42      0.00
    1    5   35      3.11      0.00
    1   25   25      1.22      0.00
    1   17   31     -3.86      0.00
    9   21   27    -12.24      0.00
   12   18   28     -0.59      0.00
   10   24   24      6.09      0.00
    0   24   26      6.32      0.00
   14   22   24      5.89      0.00
    6   14   32     -2.41      0.00
   16   18   26      2.44      0.00
    6    8   34     -0.70      0.00
   10   16   30      3.09      0.00
    0   10   34      6.33      0.00
    2   24   26      2.52      0.00
    3   25   25     -0.33      0.00
    1   13   33     -2.10      0.00
    7   11   33     -7.13      0.00
    3   17   31      0.24      0.00
   13   19   27      9.27      0.00
   17   21   23     -2.92      0.00
    3    5   35    -18.77      0.00
    1   23   27      8.53      0.00
    2   10   34      0.49      0.00
   10   22   26     -2.63      0.00
    6   18   30      5.72      0.00
    9   15   31     -4.64      0.00
    3   23   27     -2.20      0.00
    3   13   33     -2.09      0.00
    4   24   26     -1.92      0.00
    0   22   28    -13.07      0.00
   10   12   32     -5.27      0.00
   14   20   26      4.26      0.00
    4   10   34     -0.07      0.00
    2   22   28    -12.31      0.00
    1    7   35      0.69      0.00
    5    5   35      8.84      0.00
   11   23   25     -0.30      0.00
    5   25   25     -5.34      0.00
    5   17   31      2.04      0.00
   17   19   25      6.61      0.00
    0   16   32      5.87      0.00
    3    7   35     -8.78      0.00
    9   19   29      9.43      0.00
    5   13   33      4.02      0.00
    5   23   27      3.85      0.00
   15   23   23      4.95      0.00
    1   21   29      2.56      0.00
    2   16   32     -8.23      0.00
   20   20   22     -6.11      0.00
    8   14   32      4.08      0.00
    8    8   34      2.72      0.00
    4   22   28     -0.19      0.00
   10   20   28    -10.11      0.00
    8   18   30     -4.52      0.00
    6   24   26      2.22      0.00
   15   21   25      6.68      0.00
    9   11   33      6.07      0.00
   11   21   27      4.73      0.00
    3   21   29     -4.16      0.00
   15   15   29      7.87      0.00
   18   22   22     -2.21      0.00
   14   14   30    -18.81      0.00
    6   10   34      5.35      0.00
   16   16   28     -7.82      0.00
   12   24   24      2.90      0.00
    4   16   32      9.19      0.00
    0    0   36    -16.70      0.00
    5    7   35      0.25      0.00
    7   17   31      2.87      0.00
    7   25   25     -6.89      0.00
   13   13   31     12.31      0.00
   13   17   29      1.88      0.00
    0    2   36      0.37      0.00
    0   12   34      5.21      0.00
   18   20   24     12.34      0.00
    0   20   30      7.57      0.00
   12   16   30      2.45      0.00
    2   12   34     -1.80      0.00
    2    2   36     -3.50      0.00
   12   22   26      1.72      0.00
   14   18   28      0.01      0.00
    6   22   28      2.26      0.00
    2   20   30     -2.15      0.00
    7   13   33     -3.66      0.00
    1    9   35      2.15      0.00
    5   21   29     -1.59      0.00
   11   15   31     -1.93      0.00
    7   23   27     -4.88      0.00
   17   17   27      3.95      0.00
    0    4   36      2.18      0.00
   12   12   32     -5.26      0.00
    3    9   35      4.98      0.00
   15   19   27      3.04      0.00
    1   15   33    -13.40      0.00
    6   16   32     -5.24      0.00
    8   24   26      0.81      0.00
    2    4   36     -0.51      0.00
    4   20   30     -0.13      0.00
    4   12   34     -2.55      0.00
   16   22   24     -5.63      0.00
    8   10   34      7.03      0.00
   10   14   32      6.60      0.00
   11   19   29     10.36      0.00
    7    7   35      7.17      0.00
   13   23   25     -1.71      0.00
    1   19   31      0.73      0.00
   21   21   21      9.09      0.00
    3   15   33      4.92      0.00
   18   18   26     -7.48      0.00
   10   18   30     -2.13      0.00
    4    4   36      7.90      0.00
   12   20   28    -10.60      0.00
    3   19   31      6.52      0.00
    5    9   35    -20.20      0.00
    9   17   31     -1.81      0.00
    7   21   29      0.88      0.00
   19   21   23     -9.16      0.00
    9   25   25     -5.99      0.00
   11   11   33      0.09      0.00
    8   22   28      5.96      0.00
   16   20   26      2.88      0.00
    0    6   36      8.13      0.00
    6   12   34     -1.19      0.00
    6   20   30      1.04      0.00
    2    6   36      7.87      0.00
    5   15   33     10.39      0.00
    9   13   33     -4.96      0.00
    9   23   27     -3.98      0.00
   13   21   27     -3.91      0.00
    8   16   32      0.48      0.00
    1   11   35     -3.65      0.00
   17   23   23     -1.86      0.00
   19   19   25      3.29      0.00
    5   19   31     -3.29      0.00
    4    6   36    -10.44      0.00
    0   18   32     -0.47      0.00
   14   24   24    -11.00      0.00
   10   24   26      8.50      0.00
    0   14   34     -3.19      0.00
    0   26   26      0.31      0.00
   14   16   30      2.04      0.00
    2   18   32      0.66      0.00
    7    9   35      0.36      0.00
   17   21   25    -12.72      0.00
   13   15   31     -4.08      0.00
    3   11   35     -3.49      0.00
   15   17   29     -3.94      0.00
    1   25   27     -8.75      0.00
    2   14   34      3.51      0.00
   10   10   34     -6.33      0.00
   14   22   26      1.26      0.00
    2   26   26     -8.76      0.00
    0    8   36     -9.19      0.00
    0   24   28      3.03      0.00
    7   15   33      5.90      0.00
    3   25   27      0.70      0.00
    9   21   29      9.48      0.00
    8   12   34     -3.51      0.00
    8   20   30     -2.15      0.00
    4   18   32     -4.07      0.00
    2    8   36     -0.35      0.00
   16   18   28     -2.36      0.00
    2   24   28     -9.18      0.00
   12   14   32     -2.72      0.00
    4   26   26      1.79      0.00
    4   14   34     -0.39      0.00
   12   18   30      0.74      0.00
   20   22   22     -2.80      0.00
    6    6   36     -3.43      0.00
   10   22   28      9.38      0.00
    7   19   31     -1.64      0.00
    5   11   35      5.69      0.00
    1   23   29     -3.79      0.00
   11   17   31     -4.08      0.00
   11   25   25     -5.44      0.00
   13   19   29      1.86      0.00
    1    1   37     -2.84      0.00
   20   20   24     -6.16      0.00
    4   24   28      5.90      0.00
    4    8   36     14.83      0.00
   17   19   27     -1.47      0.00
   11   13   33      1.49      0.00
    1    3   37      0.72      0.00
    1   17   33      4.46      0.00
    5   25   27      8.82      0.00
   15   23   25     -3.17      0.00
    3   23   29     17.71      0.00
   11   23   27      3.84      0.00
   14   20   28      0.80      0.00
   10   16   32      3.73      0.00
    6   18   32      1.56      0.00
   18   22   24      7.36      0.00
    0   22   30     10.58      0.00
    3   17   33     -2.10      0.00
    9    9   35      1.83      0.00
    3    3   37     -1.13      0.00
    6   26   26      3.90      0.00
    6   14   34    -13.93      0.00
    2   22   30     -3.87      0.00
    9   15   33     -9.70      0.00
    5   23   29     -1.43      0.00
    1   13   35      1.08      0.00
    7   11   35     -0.64      0.00
    1    5   37     -0.85      0.00
   15   21   27     -6.44      0.00
   12   24   26     -0.48      0.00
    6   24   28     -4.76      0.00
    0   10   36      0.23      0.00
    6    8   36     -3.42      0.00
    2   10   36     -3.29      0.00
   10   20   30      6.08      0.00
    4   22   30      2.79      0.00
   10   12   34      3.01      0.00
   18   20   26     -4.19      0.00
    9   19   31     -1.02      0.00
   11   21   29    -10.89      0.00
    3   13   35      2.68      0.00
    3    5   37      5.23      0.00
    1   21   31      0.11      0.00
    5   17   33     -4.90      0.00
    7   25   27      1.48      0.00
   16   24   24     12.93      0.00
   21   21   23      3.30      0.00
    3   21   31     -5.63      0.00
   15   15   31      1.74      0.00
    4   10   36      7.34      0.00
    0   16   34     -6.90      0.00
   12   22   28      2.93      0.00
    8   18   32      0.42      0.00
   16   16   30     -4.58      0.00
    8   26   26     -0.74      0.00
    8   14   34     -3.76      0.00
   16   22   26      7.13      0.00
    2   16   34     -2.68      0.00
   14   14   32      4.60      0.00
    1    7   37      2.71      0.00
   19   23   23     -0.97      0.00
    5   13   35      5.73      0.00
    5    5   37     -2.37      0.00
    7   23   29      2.56      0.00
   13   17   31      0.96      0.00
   17   17   29      5.55      0.00
   13   25   25     -0.06      0.00
   14   18   30      1.86      0.00
    6   22   30      4.64      0.00
   12   16   32      1.42      0.00
    8   24   28      7.92      0.00
    8    8   36    -10.97      0.00
    0   20   32    -11.84      0.00
   15   19   29      0.59      0.00
    5   21   31      0.29      0.00
   19   21   25     -6.33      0.00
    7   17   33      5.21      0.00
    3    7   37     -3.57      0.00
   13   13   33      7.45      0.00
    9   11   35      0.07      0.00
   13   23   27     -0.48      0.00
    2   20   32      0.48      0.00
    4   16   34     -5.12      0.00
    6   10   36      4.14      0.00
   18   18   28     -1.70      0.00
   11   15   33     -8.68      0.00
    9   25   27     -2.30      0.00
    0   12   36     -1.07      0.00
   16   20   28      8.34      0.00
    4   20   32     -1.89      0.00
   11   19   31     -8.25      0.00
    7   13   35      2.97      0.00
    5    7   37      2.38      0.00
   17   23   25      1.19      0.00
    0    0   38     -1.93      0.00
   12   12   34      0.84      0.00
   12   20   30      0.03      0.00
    2   12   36     -1.40      0.00
   14   24   26     -3.55      0.00
    6   16   34      3.05      0.00
    8   22   30     -3.78      0.00
    0    2   38     -2.74      0.00
   10   18   32      1.62      0.00
    1   19   33     -2.11      0.00
    9   23   29    -12.07      0.00
   13   21   29     -2.50      0.00
    1    9   37     -0.26      0.00
    7   21   31      2.81      0.00
   19   19   27      4.25      0.00
    1   15   35      1.81      0.00
   10   26   26      5.76      0.00
   10   14   34      4.64      0.00
    2    2   38      0.87      0.00
   22   22   22      8.33      0.00
    4   12   36      3.27      0.00
    9   17   33      8.87      0.00
    3   19   33     -2.30      0.00
    3   15   35      6.96      0.00
    3    9   37      1.74      0.00
    1   27   27      0.32      0.00
   17   21   27      8.64      0.00
   10   24   28     -4.90      0.00
   20   22   24      4.31      0.00
    0   26   28      9.17      0.00
    8   10   36      6.72      0.00
    6   20   32      0.09      0.00
    0    4   38      0.22      0.00
    2    4   38     -3.81      0.00
   14   22   28     -4.66      0.00
    2   26   28     -0.67      0.00
    3   27   27     16.52      0.00
   11   11   35      0.26      0.00
    7    7   37     12.57      0.00
    1   25   29     -4.28      0.00
    5   19   33      7.86      0.00
    5    9   37      6.82      0.00
    5   15   35     11.18      0.00
   11   25   27     -1.95      0.00
    9   13   35      0.46      0.00
   15   25   25     -1.19      0.00
    3   25   29      0.92      0.00
   15   17   31      6.87      0.00
    4   26   28     -9.47      0.00
   18   24   24     -8.92      0.00
    6   12   36      1.65      0.00
   14   16   32      1.95      0.00
    0   24   30     -2.70      0.00
   20   20   26     -8.97      0.00
    8   16   34     -7.09      0.00
    4    4   38     -9.11      0.00
    2   24   30      4.11      0.00
   16   18   30     -2.46      0.00
    0   18   34     13.02      0.00
    0    6   38      3.23      0.00
   13   15   33     -4.05      0.00
    9   21   31      4.72      0.00
   15   23   27     -2.58      0.00
    5   27   27     -8.11      0.00
    2   18   34      0.20      0.00
   18   22   26      1.19      0.00
   10   22   30     -5.88      0.00
    2    6   38      0.53      0.00
    8   20   32     -1.84      0.00
    1   11   37     -2.91      0.00
    5   25   29      2.03      0.00
   13   19   31      8.65      0.00
    1   23   31     -7.26      0.00
   17   19   29      2.17      0.00
   11   23   29      4.18      0.00
    0   14   36      1.22      0.00
   12   18   32     -3.49      0.00
    4   24   30      2.47      0.00
    4   18   34     -5.81      0.00
   12   26   26     -3.94      0.00
   12   14   34      3.14      0.00
    6   26   28      8.43      0.00
    2   14   36     -4.06      0.00
   10   10   36     -3.45      0.00
   14   20   30     -5.31      0.00
    4    6   38      4.14      0.00
    3   23   31    -11.27      0.00
    7   19   33      5.25      0.00
   21   23   23     -4.36      0.00
   11   17   33     -4.40      0.00
    3   11   37      3.48      0.00
    7   15   35      8.50      0.00
    7    9   37    -11.11      0.00
   12   24   28    -12.14      0.00
    8   12   36      6.47      0.00
    1    1    1   -343.01      0.00
    0    0    2   -135.64      0.00
    0    2    2     69.57      0.00
    2    2    2   -126.67      0.00
    1    1    3     -9.79      0.00
    0    2    4    142.66      0.00
    2    2    6     73.49      0.00
   21   21   25      1.63      0.00
   19   23   25     -9.98      0.00
   16   24   26     -2.22      0.00
   13   25   27      6.63      0.00
    7   27   27     -3.19      0.00
   18   20   28    -12.67      0.00
   15   21   29      1.80      0.00
    7   25   29      2.29      0.00
    6   24   30     -7.81      0.00
   11   21   31      3.66      0.00
    5   23   31      1.89      0.00
    0   22   32     10.87      0.00
    2   22   32      8.31      0.00
   10   16   34     -2.08      0.00
    6   18   34     -7.03      0.00
   11   13   35     -1.98      0.00
    1   17   35      5.10      0.00
    3   17   35     -0.08      0.00
    4   14   36    -11.33      0.00
    5   11   37     -7.75      0.00
    6    6   38    -18.00      0.00
    0    8   38     -1.39      0.00
    2    8   38     -8.45      0.00
    0    0    0      0.00      0.00
loop_
  _platon_squeeze_void_nr
  _platon_squeeze_void_average_x
  _platon_squeeze_void_average_y
  _platon_squeeze_void_average_z
  _platon_squeeze_void_volume
  _platon_squeeze_void_count_electrons
  _platon_squeeze_void_content
   1  0.294 -0.009 -0.006     16938      2434 ' '
loop_
  _platon_missing_refln_index_h
  _platon_missing_refln_index_k
  _platon_missing_refln_index_l
  _platon_missing_refln_theta
    1    1    1     1.181
    0    0    2     1.364
    0    2    2     1.929
    2    2    2     2.363
    1    1    3     2.262
    0    2    4     3.051
    2    2    6     4.528
_platon_squeeze_void_probe_radius                  1.20
_platon_squeeze_details
)
TITL proc2_r
CELL   29.8610   29.8610   29.8610     90.00     90.00     90.00
SPGR Fm-3m
C101 0.098 0.098 0.098 !       2.45 eA-3
Q102 0.530 0.467 0.033 !       2.22 eA-3
Q103 0.508 0.414 0.020 !       2.14 eA-3
Q104 0.447 0.449 0.048 !       1.70 eA-3
C105 0.636 0.347 0.132 !       1.29 eA-3
C106 0.117 0.117 0.117 !       1.22 eA-3
Q107 0.214 0.433 0.220 !       1.13 eA-3
C108 0.365 0.307 0.131 !       1.02 eA-3
Q109 0.453 0.504 0.133 !       0.91 eA-3
C110 0.250 0.250 0.250 !       0.91 eA-3
C111 0.102 0.141 0.102 !       0.75 eA-3
C112 0.352 0.148-0.001 !       0.66 eA-3
C113 0.180 0.321 0.179 !       0.66 eA-3
Q114 0.483 0.423 0.110 !       0.63 eA-3
Q115 0.522 0.385 0.060 !       0.62 eA-3
Q116 0.932 0.068 0.068 !       0.62 eA-3
C117 0.924 0.406 0.228 !       0.60 eA-3
C118 0.984 0.375 0.125 !       0.59 eA-3
Q119 1.000 0.227 0.146 !       0.59 eA-3
Q120 0.750 0.249 0.102 !       0.58 eA-3
C121 0.767 0.087 0.087 !       0.58 eA-3
C122 0.963 0.352 0.142 !       0.57 eA-3
C123 0.149 0.150 0.243 !       0.54 eA-3
C124 0.272 0.500 0.000 !       0.54 eA-3
C125 0.350 0.339 0.219 !       0.50 eA-3
C126 0.500 0.094-0.004 !       0.50 eA-3
)
;
_shelx_shelxl_version_number     2014/7
_olex2_submission_special_instructions 'No special instructions were received'
loop_
_space_group_symop_operation_xyz
'x, y, z'
'-y, x, z'
'-x, -y, z'
'y, -x, z'
'x, -z, y'
'x, -y, -z'
'x, z, -y'
'z, y, -x'
'-x, y, -z'
'-z, y, x'
'z, x, y'
'y, z, x'
'-y, -z, x'
'z, -x, -y'
'-y, z, -x'
'-z, -x, y'
'-z, x, -y'
'y, -z, -x'
'y, x, -z'
'-y, -x, -z'
'-x, z, y'
'-x, -z, -y'
'z, -y, x'
'-z, -y, -x'
'x, y+1/2, z+1/2'
'-y, x+1/2, z+1/2'
'-x, -y+1/2, z+1/2'
'y, -x+1/2, z+1/2'
'x, -z+1/2, y+1/2'
'x, -y+1/2, -z+1/2'
'x, z+1/2, -y+1/2'
'z, y+1/2, -x+1/2'
'-x, y+1/2, -z+1/2'
'-z, y+1/2, x+1/2'
'z, x+1/2, y+1/2'
'y, z+1/2, x+1/2'
'-y, -z+1/2, x+1/2'
'z, -x+1/2, -y+1/2'
'-y, z+1/2, -x+1/2'
'-z, -x+1/2, y+1/2'
'-z, x+1/2, -y+1/2'
'y, -z+1/2, -x+1/2'
'y, x+1/2, -z+1/2'
'-y, -x+1/2, -z+1/2'
'-x, z+1/2, y+1/2'
'-x, -z+1/2, -y+1/2'
'z, -y+1/2, x+1/2'
'-z, -y+1/2, -x+1/2'
'x+1/2, y, z+1/2'
'-y+1/2, x, z+1/2'
'-x+1/2, -y, z+1/2'
'y+1/2, -x, z+1/2'
'x+1/2, -z, y+1/2'
'x+1/2, -y, -z+1/2'
'x+1/2, z, -y+1/2'
'z+1/2, y, -x+1/2'
'-x+1/2, y, -z+1/2'
'-z+1/2, y, x+1/2'
'z+1/2, x, y+1/2'
'y+1/2, z, x+1/2'
'-y+1/2, -z, x+1/2'
'z+1/2, -x, -y+1/2'
'-y+1/2, z, -x+1/2'
'-z+1/2, -x, y+1/2'
'-z+1/2, x, -y+1/2'
'y+1/2, -z, -x+1/2'
'y+1/2, x, -z+1/2'
'-y+1/2, -x, -z+1/2'
'-x+1/2, z, y+1/2'
'-x+1/2, -z, -y+1/2'
'z+1/2, -y, x+1/2'
'-z+1/2, -y, -x+1/2'
'x+1/2, y+1/2, z'
'-y+1/2, x+1/2, z'
'-x+1/2, -y+1/2, z'
'y+1/2, -x+1/2, z'
'x+1/2, -z+1/2, y'
'x+1/2, -y+1/2, -z'
'x+1/2, z+1/2, -y'
'z+1/2, y+1/2, -x'
'-x+1/2, y+1/2, -z'
'-z+1/2, y+1/2, x'
'z+1/2, x+1/2, y'
'y+1/2, z+1/2, x'
'-y+1/2, -z+1/2, x'
'z+1/2, -x+1/2, -y'
'-y+1/2, z+1/2, -x'
'-z+1/2, -x+1/2, y'
'-z+1/2, x+1/2, -y'
'y+1/2, -z+1/2, -x'
'y+1/2, x+1/2, -z'
'-y+1/2, -x+1/2, -z'
'-x+1/2, z+1/2, y'
'-x+1/2, -z+1/2, -y'
'z+1/2, -y+1/2, x'
'-z+1/2, -y+1/2, -x'
'-x, -y, -z'
'y, -x, -z'
'x, y, -z'
'-y, x, -z'
'-x, z, -y'
'-x, y, z'
'-x, -z, y'
'-z, -y, x'
'x, -y, z'
'z, -y, -x'
'-z, -x, -y'
'-y, -z, -x'
'y, z, -x'
'-z, x, y'
'y, -z, x'
'z, x, -y'
'z, -x, y'
'-y, z, x'
'-y, -x, z'
'y, x, z'
'x, -z, -y'
'x, z, y'
'-z, y, -x'
'z, y, x'
'-x, -y+1/2, -z+1/2'
'y, -x+1/2, -z+1/2'
'x, y+1/2, -z+1/2'
'-y, x+1/2, -z+1/2'
'-x, z+1/2, -y+1/2'
'-x, y+1/2, z+1/2'
'-x, -z+1/2, y+1/2'
'-z, -y+1/2, x+1/2'
'x, -y+1/2, z+1/2'
'z, -y+1/2, -x+1/2'
'-z, -x+1/2, -y+1/2'
'-y, -z+1/2, -x+1/2'
'y, z+1/2, -x+1/2'
'-z, x+1/2, y+1/2'
'y, -z+1/2, x+1/2'
'z, x+1/2, -y+1/2'
'z, -x+1/2, y+1/2'
'-y, z+1/2, x+1/2'
'-y, -x+1/2, z+1/2'
'y, x+1/2, z+1/2'
'x, -z+1/2, -y+1/2'
'x, z+1/2, y+1/2'
'-z, y+1/2, -x+1/2'
'z, y+1/2, x+1/2'
'-x+1/2, -y, -z+1/2'
'y+1/2, -x, -z+1/2'
'x+1/2, y, -z+1/2'
'-y+1/2, x, -z+1/2'
'-x+1/2, z, -y+1/2'
'-x+1/2, y, z+1/2'
'-x+1/2, -z, y+1/2'
'-z+1/2, -y, x+1/2'
'x+1/2, -y, z+1/2'
'z+1/2, -y, -x+1/2'
'-z+1/2, -x, -y+1/2'
'-y+1/2, -z, -x+1/2'
'y+1/2, z, -x+1/2'
'-z+1/2, x, y+1/2'
'y+1/2, -z, x+1/2'
'z+1/2, x, -y+1/2'
'z+1/2, -x, y+1/2'
'-y+1/2, z, x+1/2'
'-y+1/2, -x, z+1/2'
'y+1/2, x, z+1/2'
'x+1/2, -z, -y+1/2'
'x+1/2, z, y+1/2'
'-z+1/2, y, -x+1/2'
'z+1/2, y, x+1/2'
'-x+1/2, -y+1/2, -z'
'y+1/2, -x+1/2, -z'
'x+1/2, y+1/2, -z'
'-y+1/2, x+1/2, -z'
'-x+1/2, z+1/2, -y'
'-x+1/2, y+1/2, z'
'-x+1/2, -z+1/2, y'
'-z+1/2, -y+1/2, x'
'x+1/2, -y+1/2, z'
'z+1/2, -y+1/2, -x'
'-z+1/2, -x+1/2, -y'
'-y+1/2, -z+1/2, -x'
'y+1/2, z+1/2, -x'
'-z+1/2, x+1/2, y'
'y+1/2, -z+1/2, x'
'z+1/2, x+1/2, -y'
'z+1/2, -x+1/2, y'
'-y+1/2, z+1/2, x'
'-y+1/2, -x+1/2, z'
'y+1/2, x+1/2, z'
'x+1/2, -z+1/2, -y'
'x+1/2, z+1/2, y'
'-z+1/2, y+1/2, -x'
'z+1/2, y+1/2, x'
loop_
_atom_site_label
_atom_site_type_symbol
_atom_site_fract_x
_atom_site_fract_y
_atom_site_fract_z
_atom_site_U_iso_or_equiv
_atom_site_adp_type
_atom_site_occupancy
_atom_site_site_symmetry_order
_atom_site_calc_flag
_atom_site_refinement_flags_posn
_atom_site_refinement_flags_adp
_atom_site_refinement_flags_occupancy
_atom_site_disorder_assembly
_atom_site_disorder_group
Zr1 Zr 0.5000 0.08259(3) 0.5000 0.0342(4) Uani 1 8 d S T P . .
O1 O 0.56385(18) 0.11936(17) 0.5000 0.0727(15) Uani 1 2 d S T P . .
O2 O 0.5410(2) 0.0410(2) 0.5410(2) 0.076(3) Uani 1 6 d S T P . .
C1 C 0.6043(3) 0.1043(3) 0.5000 0.081(3) Uiso 1 4 d S T P . .
C2 C 0.6408(4) 0.1408(4) 0.5000 0.109(5) Uiso 1 4 d DS T P . .
C5 C 0.7037(5) 0.2037(5) 0.5000 0.230(14) Uiso 1 4 d DS T P . .
Br1 Br 0.7385(7) 0.2615(7) 0.4260(2) 0.391(16) Uani 0.5 2 d DS T P . .
C6 C 0.7379(4) 0.2379(4) 0.4853(5) 0.34(3) Uiso 0.5 2 d DS T P A .
C4A C 0.6607(4) 0.2183(5) 0.4853(5) 0.138(7) Uiso 0.5 1 d D . . A -1
H4A H 0.6549 0.2473 0.4757 0.166 Uiso 0.5 1 calc R . . A -1
C3A C 0.6279(5) 0.1844(3) 0.4866(4) 0.108(5) Uiso 0.5 1 d D . . A -1
H3A H 0.5983 0.1906 0.4789 0.130 Uiso 0.5 1 calc R . . A -1
loop_
_atom_site_aniso_label
_atom_site_aniso_U_11
_atom_site_aniso_U_22
_atom_site_aniso_U_33
_atom_site_aniso_U_23
_atom_site_aniso_U_13
_atom_site_aniso_U_12
Zr1 0.0400(4) 0.0227(5) 0.0400(4) 0.000 0.000 0.000
O1 0.072(3) 0.059(3) 0.087(4) 0.000 0.000 -0.031(3)
O2 0.076(3) 0.076(3) 0.076(3) 0.041(4) 0.041(4) 0.041(4)
Br1 0.45(2) 0.45(2) 0.265(6) 0.118(13) -0.118(13) -0.30(2)
loop_
_atom_type_symbol
_atom_type_description
_atom_type_scat_dispersion_real
_atom_type_scat_dispersion_imag
_atom_type_scat_source
C C 0.0033 0.0016 'International Tables Vol C Tables 4.2.6.8 and 6.1.1.4'
H H 0.0000 0.0000 'International Tables Vol C Tables 4.2.6.8 and 6.1.1.4'
Br Br -0.2901 2.4595 'International Tables Vol C Tables 4.2.6.8 and 6.1.1.4'
O O 0.0106 0.0060 'International Tables Vol C Tables 4.2.6.8 and 6.1.1.4'
Zr Zr -2.9673 0.5597 'International Tables Vol C Tables 4.2.6.8 and 6.1.1.4'
loop_
_geom_angle_atom_site_label_1
_geom_angle_atom_site_label_2
_geom_angle_atom_site_label_3
_geom_angle
_geom_angle_site_symmetry_1
_geom_angle_site_symmetry_3
Zr1 Zr1 Zr1 59.999(1) 74_545 125_645
Zr1 Zr1 Zr1 60.0 29 170_556
Zr1 Zr1 Zr1 89.999(1) 74_545 170_556
Zr1 Zr1 Zr1 89.999(1) 125_645 29
Zr1 Zr1 Zr1 60.0 74_545 29
Zr1 Zr1 Zr1 60.0 125_645 170_556
O1 Zr1 Zr1 164.94(15) 10_655 125_645
O1 Zr1 Zr1 164.94(15) 8_556 29
O1 Zr1 Zr1 110.66(10) . 125_645
O1 Zr1 Zr1 110.66(10) 10_655 170_556
O1 Zr1 Zr1 110.66(10) . 29
O1 Zr1 Zr1 164.94(15) 102_655 170_556
O1 Zr1 Zr1 110.66(10) 10_655 74_545
O1 Zr1 Zr1 110.66(10) 102_655 125_645
O1 Zr1 Zr1 110.66(10) 8_556 74_545
O1 Zr1 Zr1 74.94(15) . 170_556
O1 Zr1 Zr1 110.66(10) 102_655 29
O1 Zr1 Zr1 74.94(15) 8_556 125_645
O1 Zr1 Zr1 74.94(15) 10_655 29
O1 Zr1 Zr1 164.93(15) . 74_545
O1 Zr1 Zr1 110.66(10) 8_556 170_556
O1 Zr1 Zr1 74.94(15) 102_655 74_545
O1 Zr1 O1 120.1(3) . 102_655
O1 Zr1 O1 75.58(14) 8_556 102_655
O1 Zr1 O1 75.58(14) 10_655 102_655
O1 Zr1 O1 75.58(14) . 10_655
O1 Zr1 O1 120.1(3) 10_655 8_556
O1 Zr1 O1 75.58(14) . 8_556
O2 Zr1 Zr1 35.09(15) 74_545 74_545
O2 Zr1 Zr1 89.7(3) 172_546 29
O2 Zr1 Zr1 35.09(15) 99_556 125_645
O2 Zr1 Zr1 89.7(3) . 125_645
O2 Zr1 Zr1 35.09(15) 74_545 29
O2 Zr1 Zr1 35.09(15) 172_546 125_645
O2 Zr1 Zr1 89.7(3) 172_546 170_556
O2 Zr1 Zr1 89.7(3) 99_556 29
O2 Zr1 Zr1 89.7(3) 74_545 170_556
O2 Zr1 Zr1 35.09(15) . 170_556
O2 Zr1 Zr1 89.7(3) 99_556 74_545
O2 Zr1 Zr1 35.09(15) 172_546 74_545
O2 Zr1 Zr1 89.7(3) 74_545 125_645
O2 Zr1 Zr1 35.09(15) . 29
O2 Zr1 Zr1 89.7(3) . 74_545
O2 Zr1 Zr1 35.09(15) 99_556 170_556
O2 Zr1 O1 142.07(6) 172_546 .
O2 Zr1 O1 78.0(3) . 10_655
O2 Zr1 O1 142.07(6) 99_556 10_655
O2 Zr1 O1 142.07(6) 99_556 102_655
O2 Zr1 O1 142.07(6) 172_546 10_655
O2 Zr1 O1 78.0(3) 172_546 8_556
O2 Zr1 O1 78.0(3) 172_546 102_655
O2 Zr1 O1 142.07(6) . 102_655
O2 Zr1 O1 142.07(6) . 8_556
O2 Zr1 O1 78.0(3) 99_556 .
O2 Zr1 O1 78.0(3) 99_556 8_556
O2 Zr1 O1 142.07(6) 74_545 8_556
O2 Zr1 O1 78.0(3) 74_545 10_655
O2 Zr1 O1 142.07(6) 74_545 .
O2 Zr1 O1 78.0(3) 74_545 102_655
O2 Zr1 O1 78.0(3) . .
O2 Zr1 O2 70.2(3) . 99_556
O2 Zr1 O2 108.8(6) 99_556 74_545
O2 Zr1 O2 70.2(3) 172_546 99_556
O2 Zr1 O2 70.2(3) . 74_545
O2 Zr1 O2 70.2(3) 172_546 74_545
O2 Zr1 O2 108.8(6) . 172_546
C1 O1 Zr1 129.6(7) . .
Zr1 O2 Zr1 109.8(3) 29 .
Zr1 O2 Zr1 109.8(3) 170_556 .
Zr1 O2 Zr1 109.8(3) 29 170_556
O1 C1 O1 130.9(12) . 91_546
O1 C1 C2 114.5(6) 91_546 .
O1 C1 C2 114.5(6) . .
C3A C2 C1 117.3(9) . .
C4A C5 C6 108.3(9) . .
C4A C5 C6 119.6(10) . 99_556
C5 C6 Br1 121.8(5) . .
C6 C6 C5 123(2) 20_666 .
C6 C6 Br1 113.6(17) 20_666 .
C3A C4A C5 113.6(16) . .
C4A C3A C2 118.6(15) . .
loop_
_geom_bond_atom_site_label_1
_geom_bond_atom_site_label_2
_geom_bond_distance
_geom_bond_site_symmetry_2
Zr1 Zr1 3.4878(13) 170_556
Zr1 Zr1 3.4878(13) 125_645
Zr1 Zr1 3.4878(13) 29
Zr1 Zr1 3.4878(13) 74_545
Zr1 O1 2.200(5) 10_655
Zr1 O1 2.200(5) 8_556
Zr1 O1 2.200(5) .
Zr1 O1 2.200(5) 102_655
Zr1 O2 2.131(4) 74_545
Zr1 O2 2.131(4) 172_546
Zr1 O2 2.131(4) 99_556
Zr1 O2 2.131(4) .
O1 C1 1.288(8) .
O2 Zr1 2.131(4) 29
O2 Zr1 2.131(4) 170_556
C1 O1 1.288(8) 91_546
C1 C2 1.54(2) .
C2 C3A 1.416(8) .
C5 C6 1.506(10) .
C5 C4A 1.425(9) .
Br1 C6 1.906(14) .
C6 C6 1.35(2) 20_666
C4A C3A 1.410(9) .
loop_
_platon_squeeze_void_nr
_platon_squeeze_void_average_x
_platon_squeeze_void_average_y
_platon_squeeze_void_average_z
_platon_squeeze_void_volume
_platon_squeeze_void_count_electrons
_platon_squeeze_void_content
1 0.294 -0.009 -0.006 16938 2434 ' '
