#------------------------------------------------------------------------------
#$Date: 2015-09-06 01:32:58 +0300 (Sun, 06 Sep 2015) $
#$Revision: 154625 $
#$URL: svn://www.crystallography.net/cod/cif/4/12/41/4124173.cif $
#------------------------------------------------------------------------------
#
# This file is available in the Crystallography Open Database (COD),
# http://www.crystallography.net/
#
# All data on this site have been placed in the public domain by the
# contributors.
#
data_4124173
loop_
_publ_author_name
'Marshall, Ross J.'
'Griffin, Sarah L.'
'Wilson, Claire'
'Forgan, Ross S.'
_publ_section_title
;
 Single-Crystal to Single-Crystal Mechanical Contraction of Metal-Organic
 Frameworks through Stereoselective Postsynthetic Bromination.
;
_journal_issue                   30
_journal_name_full               'Journal of the American Chemical Society'
_journal_page_first              9527
_journal_page_last               9530
_journal_paper_doi               10.1021/jacs.5b05434
_journal_volume                  137
_journal_year                    2015
_chemical_formula_moiety         'C18 H14 Br2 O4'
_chemical_formula_sum            'C18 H14 Br2 O4'
_chemical_formula_weight         454.11
_space_group_crystal_system      triclinic
_space_group_IT_number           2
_space_group_name_Hall           '-P 1'
_space_group_name_H-M_alt        'P -1'
_symmetry_space_group_name_Hall  '-P 1'
_symmetry_space_group_name_H-M   'P -1'
_atom_sites_solution_hydrogens   geom
_atom_sites_solution_primary     iterative
_audit_creation_date             2015-05-11
_audit_creation_method
;
Olex2 1.2
(compiled 2015.01.26 svn.r3150 for OlexSys, GUI svn.r4998)
;
_cell_angle_alpha                79.735(4)
_cell_angle_beta                 66.523(4)
_cell_angle_gamma                84.834(5)
_cell_formula_units_Z            1
_cell_length_a                   7.3612(14)
_cell_length_b                   7.8256(15)
_cell_length_c                   8.1466(15)
_cell_measurement_reflns_used    4590
_cell_measurement_temperature    100(2)
_cell_measurement_theta_max      27.51
_cell_measurement_theta_min      2.65
_cell_volume                     423.46(14)
_computing_cell_refinement       'SAINT v8.34A (Bruker, 2013)'
_computing_data_reduction        'SAINT v8.34A (Bruker, 2013)'
_computing_molecular_graphics    'Olex2 (Dolomanov et al., 2009)'
_computing_publication_material  'Olex2 (Dolomanov et al., 2009)'
_computing_structure_refinement  'ShelXL (Sheldrick, 2008)'
_computing_structure_solution
;
Superflip (Palatinus & Chapuis, 2007;Palatinus & van der Lee, 2008;
Palatinus et al., 2012)
;
_diffrn_ambient_temperature      100(2)
_diffrn_measured_fraction_theta_full 0.999
_diffrn_measured_fraction_theta_max 0.993
_diffrn_measurement_device_type  'Bruker APEX-II CCD'
_diffrn_measurement_method       '\f and \w scans'
_diffrn_radiation_type           MoK\a
_diffrn_radiation_wavelength     0.71073
_diffrn_reflns_av_R_equivalents  0.0754
_diffrn_reflns_av_unetI/netI     0.0698
_diffrn_reflns_laue_measured_fraction_full 0.999
_diffrn_reflns_laue_measured_fraction_max 0.993
_diffrn_reflns_limit_h_max       9
_diffrn_reflns_limit_h_min       -9
_diffrn_reflns_limit_k_max       10
_diffrn_reflns_limit_k_min       -9
_diffrn_reflns_limit_l_max       10
_diffrn_reflns_limit_l_min       -8
_diffrn_reflns_number            6417
_diffrn_reflns_point_group_measured_fraction_full 0.999
_diffrn_reflns_point_group_measured_fraction_max 0.993
_diffrn_reflns_theta_full        26.000
_diffrn_reflns_theta_max         27.506
_diffrn_reflns_theta_min         2.646
_diffrn_standards_number         0
_exptl_absorpt_coefficient_mu    4.805
_exptl_absorpt_correction_T_max  0.7455
_exptl_absorpt_correction_T_min  0.3811
_exptl_absorpt_correction_type   multi-scan
_exptl_absorpt_process_details
;
SADABS-2012/1 (Bruker,2012) was used for absorption correction.
wR2(int) was 0.1523 before and 0.1175 after correction.
The Ratio of minimum to maximum transmission is 0.5112.
The \l/2 correction factor is 0.0015.
;
_exptl_crystal_colour            colourless
_exptl_crystal_colour_primary    colourless
_exptl_crystal_density_diffrn    1.781
_exptl_crystal_description       block
_exptl_crystal_F_000             224
_exptl_crystal_size_max          0.54
_exptl_crystal_size_mid          0.39
_exptl_crystal_size_min          0.3
_refine_diff_density_max         1.210
_refine_diff_density_min         -1.131
_refine_diff_density_rms         0.203
_refine_ls_extinction_method     none
_refine_ls_goodness_of_fit_ref   1.075
_refine_ls_hydrogen_treatment    constr
_refine_ls_matrix_type           full
_refine_ls_number_parameters     110
_refine_ls_number_reflns         1941
_refine_ls_number_restraints     0
_refine_ls_restrained_S_all      1.075
_refine_ls_R_factor_all          0.0623
_refine_ls_R_factor_gt           0.0545
_refine_ls_shift/su_max          0.000
_refine_ls_shift/su_mean         0.000
_refine_ls_structure_factor_coef Fsqd
_refine_ls_weighting_details
'w=1/[\s^2^(Fo^2^)+(0.0950P)^2^] where P=(Fo^2^+2Fc^2^)/3'
_refine_ls_weighting_scheme      calc
_refine_ls_wR_factor_gt          0.1370
_refine_ls_wR_factor_ref         0.1436
_reflns_Friedel_coverage         0.000
_reflns_number_gt                1730
_reflns_number_total             1941
_reflns_threshold_expression     'I > 2\s(I)'
_cod_data_source_file            ja5b05434_si_003.cif
_cod_data_source_block           trans2
_cod_depositor_comments
'Adding full bibliography for 4124172--4124178.cif.'
_cod_database_code               4124173
_shelx_space_group_comment
;
The symmetry employed for this shelxl refinement is uniquely defined
by the following loop, which should always be used as a source of
symmetry information in preference to the above space-group names.
They are only intended as comments.
;
_olex2_refinement_description
;
1. Fixed Uiso
 At 1.2 times of:
  All C(H) groups
 At 1.5 times of:
  All C(H,H,H) groups
2.a Aromatic/amide H refined with riding coordinates:
 C4(H4), C5(H5), C7(H7), C8(H8)
2.b Idealised Me refined as rotating group:
 C1(H1A,H1B,H1C)
;
_shelx_res_file
;
    rjm_7_062a_0m.res created by SHELXL-2014/7

TITL RJM_7_062a_0m in P-1
CELL 0.71073 7.3612 7.8256 8.1466 79.7348 66.5227 84.8342
ZERR 1 0.0014 0.0015 0.0015 0.0041 0.004 0.0046
LATT 1
SFAC C H Br O
UNIT 18 14 2 4

L.S. 4 0 0
PLAN  5
MORE -1
BOND $H
CONF
fmap 2 53
acta 52
OMIT 1 0 0
REM <olex2.extras>
REM <HklSrc "%.\\RJM_7_062a_0m.hkl">
REM </olex2.extras>

WGHT    0.095000
FVAR       0.29670
BR1   3    0.191949    0.387613    0.084633    11.00000    0.01534    0.02728 =
         0.02175   -0.01311   -0.00421   -0.00377
O1    4    0.197319    1.083445    0.598881    11.00000    0.03271    0.01758 =
         0.01697   -0.00914   -0.00681    0.00107
O2    4    0.211980    0.843375    0.791096    11.00000    0.05546    0.02468 =
         0.01718   -0.00840   -0.01700    0.00067
C1    1    0.150743    1.182652    0.745882    11.00000    0.03744    0.02318 =
         0.02260   -0.01593   -0.00587   -0.00457
AFIX 137
H1A   2    0.104921    1.297119    0.712598    11.00000   -1.50000
H1B   2    0.267369    1.190879    0.769209    11.00000   -1.50000
H1C   2    0.049163    1.125513    0.852973    11.00000   -1.50000
AFIX   0
C2    1    0.225290    0.913056    0.642362    11.00000    0.01854    0.01988 =
         0.01711   -0.00646   -0.00568   -0.00232
C3    1    0.272302    0.816668    0.486842    11.00000    0.01406    0.01685 =
         0.01412   -0.00454   -0.00424   -0.00279
C4    1    0.285402    0.635649    0.523324    11.00000    0.02784    0.01893 =
         0.01372   -0.00303   -0.00620    0.00076
AFIX  43
H4    2    0.264793    0.580572    0.640134    11.00000   -1.20000
AFIX   0
C5    1    0.328841    0.538816    0.386257    11.00000    0.03127    0.01828 =
         0.01605   -0.00577   -0.00670    0.00128
AFIX  43
H5    2    0.334284    0.418238    0.411536    11.00000   -1.20000
AFIX   0
C6    1    0.364828    0.620687    0.209243    11.00000    0.01393    0.01892 =
         0.01352   -0.00783   -0.00428   -0.00069
C7    1    0.352383    0.800524    0.172013    11.00000    0.02553    0.02076 =
         0.01409   -0.00399   -0.00574   -0.00072
AFIX  43
H7    2    0.375403    0.855051    0.054541    11.00000   -1.20000
AFIX   0
C8    1    0.305161    0.900065    0.311248    11.00000    0.02631    0.01604 =
         0.01499   -0.00674   -0.00710    0.00087
AFIX  43
H8    2    0.295807    1.020499    0.286898    11.00000   -1.20000
AFIX   0
C9    1    0.413242    0.511934    0.064773    11.00000    0.01977    0.01522 =
         0.01801   -0.00615   -0.00944   -0.00016
HKLF 4

REM  RJM_7_062a_0m in P-1
REM R1 =  0.0545 for    1730 Fo > 4sig(Fo)  and  0.0623 for all    1941 data
REM    110 parameters refined using      0 restraints

END

WGHT      0.0952      0.0000

REM Highest difference peak  1.210,  deepest hole -1.131,  1-sigma level  0.203
Q1    1   0.3158  0.3643  0.0472  11.00000  0.05    1.21
Q2    1   0.0766  0.4165  0.1028  11.00000  0.05    0.90
Q3    1   0.1570  0.4796  0.0050  11.00000  0.05    0.87
Q4    1   0.4355  0.5769  0.1573  11.00000  0.05    0.86
Q5    1   0.1652  0.6239  0.6657  11.00000  0.05    0.83
;
_shelx_res_checksum              61528
_shelx_hkl_file
;
  -1   0   0    5.07    0.77
  -1   0   0    3.88    0.69
  -1   0   0    4.91    0.68
  -1   0   0    6.83    0.80
  -1   0   0    6.04    0.78
   1   0   0    5.79    0.77
   1   0   0    5.13    0.71
   1   0   0    6.62    0.79
   1   0   0    5.18    0.79
  -2   0   0  862.28   84.10
  -2   0   0 1000.00   90.19
  -2   0   0  921.84   81.02
  -2   0   0  947.42   90.20
   2   0   0  728.21   90.16
   2   0   0  752.79   91.01
   2   0   0  865.01   90.19
   2   0   0  950.55   80.91
   2   0   0  888.67   84.11
  -3   0   0  105.71    9.90
   3   0   0   76.96    9.86
   3   0   0   92.11    9.90
   3   0   0  105.71    9.26
  -4   0   0    2.36    0.91
  -4   0   0    3.36    0.86
   4   0   0    2.35    0.94
   4   0   0    2.89    0.71
   4   0   0    3.36    0.91
  -5   0   0  131.45   13.95
  -5   0   0  108.16   14.08
   5   0   0  149.62   13.13
   5   0   0  145.52   13.84
  -6   0   0   35.44    4.42
  -6   0   0   42.64    4.73
   6   0   0   31.88    4.49
   6   0   0   41.62    4.48
   6   0   0   43.40    4.39
  -7   0   0   26.89    3.80
   7   0   0   22.02    3.60
  -8   0   0   52.34    5.99
   8   0   0   53.62    5.93
   8   0   0   43.53    5.85
   8  -1   0   18.53    2.91
  -8   1   0   15.11    2.78
   7  -1   0   57.68    6.29
  -7   1   0   57.85    6.68
   6  -1   0    1.27    0.71
   6  -1   0    1.51    1.05
   6  -1   0    0.38    1.37
  -6   1   0    0.02    0.81
  -6   1   0    1.80    0.93
   5  -1   0   83.22    8.87
   5  -1   0   81.73    8.27
  -5   1   0   83.71    8.82
  -5   1   0   84.79    7.97
   4  -1   0   60.29    6.42
   4  -1   0   56.52    6.01
  -4   1   0   68.51    6.40
  -4   1   0   50.46    5.73
  -4   1   0   64.31    6.50
   3  -1   0    8.03    1.09
  -3   1   0   10.30    1.16
  -3   1   0    7.18    1.24
   2  -1   0  338.58   35.96
  -2   1   0  347.95   35.98
  -2   1   0  404.86   32.29
  -2   1   0  330.32   33.55
  -2   1   0  328.87   36.30
   1  -1   0    6.48    0.82
   1  -1   0    7.50    0.79
   1  -1   0    5.45    0.78
   1  -1   0    8.21    0.85
  -1   1   0    7.80    0.86
  -1   1   0    6.87    0.84
  -1   1   0    7.15    0.78
   0  -1   0  132.41   11.22
   0   1   0  118.45   12.51
   0   1   0  128.62   12.45
   0   1   0  108.00   11.66
  -1  -1   0    8.66    0.86
  -1  -1   0    8.91    0.89
  -1  -1   0    5.83    0.86
  -1  -1   0    8.38    0.79
   1   1   0    6.72    0.85
   1   1   0    7.39    0.86
  -2  -1   0  131.48   13.52
  -2  -1   0  130.82   14.51
   2   1   0  148.01   14.51
   2   1   0  154.05   14.44
   2   1   0  138.97   14.66
  -3  -1   0   24.84    3.07
  -3  -1   0   28.64    3.04
  -3  -1   0   29.86    3.17
  -3  -1   0   24.77    2.94
   3   1   0   27.52    3.00
   3   1   0   27.80    3.02
   3   1   0   30.15    2.94
   3   1   0   27.56    3.14
   3   1   0   29.43    2.91
  -4  -1   0  218.67   20.69
   4   1   0  195.15   19.41
   4   1   0  187.43   20.30
   4   1   0  180.98   20.48
   4   1   0  206.58   19.12
  -5  -1   0   24.37    2.74
  -5  -1   0   19.78    2.72
   5   1   0   19.68    2.73
   5   1   0   21.59    2.89
   5   1   0   21.19    2.85
   5   1   0   20.04    2.56
  -6  -1   0   79.46    8.02
  -6  -1   0   75.92    7.90
   6   1   0   67.05    7.72
   6   1   0   66.43    7.64
   6   1   0   71.49    7.53
   6   1   0   76.35    8.00
  -7  -1   0    7.40    1.94
   7   1   0    7.59    2.03
   7   1   0    3.01    2.05
  -8  -1   0   32.19    4.58
   8   1   0   29.49    4.35
   8   1   0   27.06    4.01
   8  -2   0   -1.53    1.92
  -8   2   0    0.21    1.68
   7  -2   0   40.88    4.33
  -7   2   0   30.34    4.26
   6  -2   0   35.78    4.14
   6  -2   0   36.94    4.08
  -6   2   0   28.99    4.20
  -6   2   0   37.07    3.84
  -6   2   0   36.74    4.07
   5  -2   0    6.60    1.48
   5  -2   0   11.21    1.68
  -5   2   0   10.26    1.52
  -5   2   0    5.97    1.29
  -5   2   0    7.90    1.31
   4  -2   0   69.07    7.05
  -4   2   0   83.55    7.52
  -4   2   0   59.44    7.58
  -4   2   0   72.68    6.79
   3  -2   0   59.40    6.07
   3  -2   0   60.66    6.06
  -3   2   0   55.03    6.10
  -3   2   0   46.91    5.99
  -3   2   0   65.62    5.46
   2  -2   0   95.67   11.07
   2  -2   0   93.92   10.33
   2  -2   0  123.42   11.21
  -2   2   0  125.00    9.97
  -2   2   0  100.15   11.06
  -2   2   0  105.46   11.10
   1  -2   0  413.53   42.43
   1  -2   0  429.49   38.10
   1  -2   0  391.33   42.25
  -1   2   0  449.57   39.58
  -1   2   0  429.10   42.24
  -1   2   0  366.33   38.08
  -1   2   0  415.87   42.43
   0  -2   0   27.37    2.90
   0  -2   0   28.81    2.75
   0  -2   0   26.97    2.91
   0  -2   0   25.43    2.59
   0   2   0   30.05    2.70
   0   2   0   28.74    2.91
   0   2   0   26.34    2.74
   0   2   0   24.95    2.90
   0   2   0   26.38    2.90
  -1  -2   0  200.10   24.51
  -1  -2   0  220.16   24.51
  -1  -2   0  234.98   24.41
   1   2   0  223.03   23.18
   1   2   0  275.30   24.53
   1   2   0  249.66   24.42
   1   2   0  251.13   24.74
   1   2   0  222.24   21.98
   1   2   0  268.80   24.53
  -2  -2   0   64.16    6.73
  -2  -2   0   58.63    6.29
  -2  -2   0   79.71    6.78
   2   2   0   61.12    6.75
   2   2   0   62.22    6.79
  -3  -2   0  144.12   14.58
  -3  -2   0  141.26   14.39
  -3  -2   0  119.65   14.38
   3   2   0  145.50   14.43
   3   2   0  145.95   13.66
  -4  -2   0  133.04   13.22
  -4  -2   0  130.19   13.39
   4   2   0  117.48   13.22
   4   2   0  125.98   13.08
  -5  -2   0    4.31    1.23
  -5  -2   0    5.52    1.17
   5   2   0    4.28    1.27
   5   2   0    5.28    1.07
   5   2   0    5.41    1.49
  -6  -2   0   72.76    7.04
  -6  -2   0   57.88    6.78
   6   2   0   66.46    6.73
   6   2   0   51.70    6.86
   6   2   0   59.21    6.59
  -7  -2   0   32.27    4.55
   7   2   0   31.80    4.56
  -8  -2   0   15.14    3.02
   8   2   0   18.76    2.96
   8  -3   0   10.63    2.48
  -8   3   0   12.41    2.25
   7  -3   0    4.57    1.79
  -7   3   0    4.97    1.47
  -7   3   0    5.55    1.57
   6  -3   0   51.74    5.98
  -6   3   0   65.32    6.53
   5  -3   0    3.68    1.02
   5  -3   0   -0.01    1.01
  -5   3   0    1.01    0.98
  -5   3   0    2.71    0.77
  -5   3   0    1.57    0.89
   4  -3   0  102.57    9.48
   4  -3   0   95.97   10.11
  -4   3   0   92.62    9.08
  -4   3   0   94.35   10.19
   3  -3   0   87.12    8.69
   3  -3   0   81.76    9.28
  -3   3   0   82.93    8.33
  -3   3   0  101.56    9.38
  -3   3   0   91.40    9.28
   2  -3   0  106.18   10.72
   2  -3   0  102.60   10.70
   2  -3   0   95.05    9.98
  -2   3   0  113.14   10.76
  -2   3   0  100.42    9.62
  -2   3   0  102.36   10.78
  -1   3   0  101.38   10.60
  -1   3   0  108.12   10.64
  -1   3   0  103.11   10.71
  -1   3   0   98.60   10.65
   0  -3   0    6.72    0.81
   0  -3   0    8.45    0.80
   0   3   0    6.83    0.81
   0   3   0    8.45    0.95
   0   3   0    6.28    0.84
   0   3   0    5.48    0.93
  -1  -3   0   14.90    1.73
  -1  -3   0   21.51    2.01
  -1  -3   0   16.58    1.99
   1   3   0   20.36    1.97
   1   3   0   19.34    1.75
   1   3   0   14.85    1.85
   1   3   0   20.99    2.01
  -2  -3   0  175.42   18.98
  -2  -3   0  181.81   18.98
   2   3   0  170.10   16.99
   2   3   0  195.85   18.92
   2   3   0  198.93   18.99
  -3  -3   0    0.69    0.56
  -3  -3   0    1.22    0.64
   3   3   0    1.41    0.59
   3   3   0    0.21    0.62
   3   3   0   -0.44    0.59
  -4  -3   0  139.40   15.04
   4   3   0  146.15   14.76
  -5  -3   0   47.57    4.73
  -5  -3   0   40.61    4.68
   5   3   0   49.30    4.84
   5   3   0   36.50    4.53
   5   3   0   31.96    4.47
  -6  -3   0   14.98    2.37
  -6  -3   0   16.76    2.77
   6   3   0   13.22    2.09
   6   3   0   15.51    2.45
  -7  -3   0   55.41    6.80
   7   3   0   59.40    6.61
  -8  -3   0    1.80    1.97
   8   3   0    4.20    2.06
   7  -4   0    6.07    1.98
  -7   4   0    5.85    1.62
  -7   4   0    6.02    1.72
   6  -4   0   17.96    2.68
  -6   4   0   18.98    2.58
  -6   4   0   16.15    2.46
   5  -4   0   28.77    3.48
  -5   4   0   33.33    3.59
  -5   4   0   25.05    3.25
  -5   4   0   35.60    3.57
   4  -4   0   -0.19    0.87
   4  -4   0    0.49    0.84
  -4   4   0    1.07    0.73
  -4   4   0    0.52    0.67
  -4   4   0    0.56    0.69
   3  -4   0   67.04    7.62
   3  -4   0   78.14    7.15
  -3   4   0   74.46    7.67
  -3   4   0   70.22    7.61
   2  -4   0   93.17    8.09
   2  -4   0   70.42    8.65
  -2   4   0   85.46    7.79
   1  -4   0   22.00    2.60
   1  -4   0   24.20    2.37
  -1   4   0   24.15    2.52
  -1   4   0   21.68    2.56
  -1   4   0   23.88    2.32
   0  -4   0  316.65   35.94
   0   4   0  374.29   32.25
   0   4   0  331.54   33.96
   0   4   0  377.44   35.80
  -1  -4   0   41.01    4.20
  -1  -4   0   36.91    4.55
   1   4   0   45.40    4.59
   1   4   0   45.33    4.31
   1   4   0   44.99    4.59
   1   4   0   48.25    4.57
   1   4   0   40.26    4.05
  -2  -4   0  408.09   37.63
   2   4   0  354.14   33.72
   2   4   0  331.56   35.57
   2   4   0  378.71   37.48
   2   4   0  358.54   37.64
   3   4   0   91.46    9.97
   3   4   0  102.44   10.05
   3   4   0   93.79    9.50
  -4  -4   0   31.57    4.45
  -4  -4   0   40.71    4.39
   4   4   0   48.75    4.34
   4   4   0   45.11    3.82
   4   4   0   33.00    4.38
   4   4   0   39.04    4.37
  -5  -4   0   85.68    8.77
  -5  -4   0   75.18    8.91
   5   4   0   86.19    8.84
   5   4   0   79.97    8.70
  -6  -4   0   13.91    2.47
   6   4   0   15.93    2.30
   6   4   0   14.81    2.50
  -7  -4   0   33.06    4.66
   7   4   0   31.22    4.53
  -8  -4   0   19.34    3.52
   8   4   0   24.60    3.75
   7  -5   0   16.67    2.74
  -7   5   0   21.37    2.80
  -7   5   0   14.96    2.45
   6  -5   0    3.66    1.39
  -6   5   0    4.11    1.26
  -6   5   0    5.30    1.44
  -5   5   0   20.50    2.51
  -5   5   0   21.77    2.72
   4  -5   0    5.34    1.16
   4  -5   0    4.09    1.19
  -4   5   0    5.51    1.14
  -4   5   0    4.95    1.20
  -4   5   0    5.20    0.98
   3  -5   0   33.73    3.72
   3  -5   0   34.64    4.00
  -3   5   0   41.58    3.66
  -3   5   0   31.23    3.91
  -3   5   0   39.13    3.96
   2  -5   0   84.33    8.23
  -2   5   0   81.34    7.95
  -2   5   0   84.57    8.85
  -2   5   0   87.20    8.85
   1  -5   0    4.44    0.91
   1  -5   0    4.11    0.73
  -1   5   0    6.61    0.87
  -1   5   0    5.88    0.86
  -1   5   0    5.05    0.84
  -1   5   0    2.89    0.85
   0  -5   0   94.43    9.56
   0   5   0   92.74    8.55
   0   5   0   87.68    9.00
  -1  -5   0   18.22    1.89
  -1  -5   0   13.65    2.14
   1   5   0   22.03    2.06
   1   5   0   22.52    2.28
   1   5   0   17.14    2.14
   1   5   0   17.67    1.88
  -2  -5   0   26.90    2.80
   2   5   0   22.00    2.59
   2   5   0   20.70    2.76
   2   5   0   24.48    2.37
   2   5   0   24.29    2.79
  -3  -5   0   38.51    4.35
   3   5   0   37.48    4.15
   3   5   0   40.60    3.80
   3   5   0   40.81    4.42
   3   5   0   41.42    4.42
  -4  -5   0    9.74    1.63
   4   5   0   12.31    1.87
   4   5   0   13.11    2.00
   4   5   0   12.66    2.00
   4   5   0   13.08    1.42
  -5  -5   0   17.50    2.79
  -5  -5   0   16.63    2.71
   5   5   0   26.09    2.95
   5   5   0   16.52    2.61
  -6  -5   0   34.05    5.00
   6   5   0   42.00    4.88
   6   5   0   44.94    5.05
  -7  -5   0   -1.10    1.66
   7   5   0   -3.71    2.21
   6  -6   0    2.95    1.29
  -6   6   0    1.39    1.33
  -6   6   0    2.80    1.17
   5  -6   0   13.79    2.07
  -5   6   0   13.35    1.91
  -5   6   0   12.51    2.01
   4  -6   0   56.16    5.47
  -4   6   0   53.64    5.30
  -4   6   0   49.69    5.72
   3  -6   0    0.19    1.00
   3  -6   0   -0.27    0.78
  -3   6   0    0.55    0.62
  -3   6   0   -0.26    0.96
  -3   6   0   -0.04    0.81
   2  -6   0   93.97   10.01
   2  -6   0   88.08    9.27
  -2   6   0  106.42   10.03
  -2   6   0   93.99    9.98
  -2   6   0   94.11    8.99
   1  -6   0   18.98    2.44
  -1   6   0   24.75    2.63
  -1   6   0   26.20    2.76
  -1   6   0   24.21    2.50
  -1   6   0   24.38    2.71
   0  -6   0   10.29    1.31
   0  -6   0    9.66    1.60
   0   6   0    9.11    1.26
   0   6   0   11.83    1.33
   0   6   0    8.85    1.46
   1   6   0   92.91   10.49
   1   6   0   97.99    9.92
   1   6   0  106.37    9.40
   1   6   0  104.32   10.51
  -2  -6   0    6.06    1.17
  -2  -6   0    6.37    1.10
   2   6   0    9.14    1.44
   2   6   0    9.95    1.49
   2   6   0    9.34    1.31
   2   6   0    7.99    1.14
  -3  -6   0   57.76    5.67
   3   6   0   46.29    5.36
   3   6   0   43.89    5.64
   3   6   0   55.69    4.96
   3   6   0   56.06    5.74
  -4  -6   0   40.63    4.71
   4   6   0   44.44    4.79
   4   6   0   39.34    4.55
   5   6   0    2.24    1.32
   5   6   0    1.42    1.60
   6   6   0   31.74    4.60
   6   6   0   36.73    4.48
   7   6   0   -2.68    2.25
   6  -7   0   17.44    2.43
  -6   7   0   14.31    2.36
   5  -7   0    2.28    1.39
  -5   7   0    1.71    1.21
   4  -7   0   29.45    3.43
  -4   7   0   30.62    3.47
   3  -7   0   11.98    1.96
   3  -7   0   13.44    2.19
  -3   7   0   12.73    1.82
   2  -7   0    1.68    1.04
   2  -7   0    1.50    0.94
  -2   7   0    1.57    0.96
  -2   7   0    1.38    0.98
   1  -7   0   48.65    5.19
  -1   7   0   47.41    4.63
  -1   7   0   47.50    5.06
  -1   7   0   42.10    5.01
   0  -7   0   22.05    2.42
   0  -7   0   21.12    2.80
   0   7   0   25.09    2.73
   0   7   0   22.58    2.72
   0   7   0   24.56    2.53
   0   7   0   22.68    2.60
   0   7   0   19.81    2.49
  -1  -7   0   53.93    5.96
  -1  -7   0   53.19    5.36
   1   7   0   58.65    5.57
   1   7   0   51.64    5.22
  -2  -7   0   31.91    4.03
  -2  -7   0   34.65    3.52
   2   7   0   37.48    4.09
  -3  -7   0    3.51    1.24
  -3  -7   0    6.86    1.05
   3   7   0    8.67    1.45
   3   7   0    7.03    1.50
   4   7   0   38.04    4.77
   4   7   0   41.75    4.50
   5   7   0    7.84    1.84
   5   7   0    3.56    1.86
   6   7   0    7.86    2.37
   6   7   0   13.98    2.49
   5  -8   0    4.85    1.57
  -5   8   0    7.55    1.46
   4  -8   0    1.77    1.17
  -4   8   0    1.45    1.60
   3  -8   0   13.31    2.00
  -3   8   0   15.05    2.10
   2  -8   0    3.80    1.13
  -2   8   0    4.84    1.26
  -2   8   0    2.68    0.97
   1  -8   0   21.67    2.45
  -1   8   0   21.45    2.61
  -1   8   0   21.63    2.77
   0  -8   0   15.41    1.81
   0   8   0   15.83    2.43
   0   8   0   15.76    2.15
   0   8   0   13.39    2.08
   1   8   0   11.07    2.06
   1   8   0   13.76    2.00
   1   8   0   12.00    1.70
   2   8   0    6.26    1.60
   2   8   0    9.91    1.56
   3   8   0    4.73    1.51
   3   8   0    4.51    1.60
   4   8   0    1.97    1.55
   4   8   0    3.49    1.56
   5   8   0   22.66    3.36
   5   8   0   16.04    2.82
  -3   9   0   11.94    2.07
  -2   9   0    9.06    1.81
  -2   9   0    9.47    1.79
  -1   9   0    4.97    1.58
  -1   9   0    3.58    1.41
   0   9   0   37.91    4.56
   0   9   0   35.00    4.01
   1   9   0    2.22    1.32
   1   9   0    1.95    1.09
   2   9   0   13.51    2.55
   2   9   0   16.42    2.48
   3   9   0   22.07    3.66
   3   9   0   28.32    3.47
   3   9  -1   10.47    2.21
   3   9  -1    9.84    1.91
   2   9  -1    0.94    1.57
   2   9  -1    0.94    1.41
   1   9  -1    5.14    1.94
   1   9  -1    6.02    1.62
   0   9  -1    8.93    1.78
  -1   9  -1    2.48    1.07
  -1   9  -1    2.27    1.48
  -2   9  -1    6.99    1.80
   2  -9   1    5.94    1.31
  -3   9  -1    6.32    1.49
   3  -9   1    3.44    1.32
   4   8  -1    0.42    1.32
   4   8  -1    0.77    1.62
   3   8  -1   19.53    3.28
   3   8  -1   20.31    3.05
   2   8  -1   28.24    3.68
   2   8  -1   32.96    3.43
  -2  -8   1   24.27    3.05
  -2  -8   1   26.58    3.73
   1   8  -1    4.08    1.22
   1   8  -1    4.97    1.46
  -1  -8   1    3.34    1.02
  -1  -8   1    3.48    1.29
   0   8  -1   74.37    7.02
   0   8  -1   58.38    6.12
   0   8  -1   54.75    6.44
   0  -8   1   60.13    6.86
   0  -8   1   68.44    6.32
  -1   8  -1   -1.21    1.18
  -1   8  -1    0.29    0.89
   1  -8   1   -0.22    0.83
   1  -8   1   -1.54    1.19
  -2   8  -1   21.81    2.71
   2  -8   1   21.49    3.04
   2  -8   1   21.11    2.53
  -3   8  -1   10.53    1.92
   3  -8   1   11.57    1.74
   4  -8   1    1.69    1.13
  -5   8  -1   20.51    2.86
   5  -8   1   18.72    2.81
   5   7  -1   15.21    2.53
   5   7  -1   17.39    2.83
   4   7  -1   13.28    2.09
   4   7  -1    9.67    1.99
   3   7  -1    3.46    1.20
   3   7  -1    2.21    1.27
  -3  -7   1   -1.20    1.19
   2   7  -1   34.24    3.89
   2   7  -1   36.55    3.64
  -2  -7   1   26.96    3.72
  -2  -7   1   30.62    3.31
   1   7  -1    4.82    1.13
   1   7  -1    7.39    1.11
   1   7  -1    6.13    1.41
  -1  -7   1    5.26    0.91
  -1  -7   1    5.44    1.28
   0   7  -1   15.58    1.88
   0   7  -1   17.28    1.83
   0   7  -1   14.93    2.31
   0  -7   1   10.11    1.86
   0  -7   1   14.02    1.75
  -1   7  -1   18.45    2.30
  -1   7  -1   19.18    2.54
   1  -7   1   19.82    2.18
   1  -7   1   16.27    2.52
  -2   7  -1    5.94    1.26
  -2   7  -1    9.34    1.43
   2  -7   1    8.90    1.25
   2  -7   1    7.83    1.43
  -3   7  -1   27.33    3.21
   3  -7   1   26.50    3.17
   3  -7   1   31.50    3.74
  -4   7  -1   25.95    3.33
   4  -7   1   30.75    3.60
   4  -7   1   31.34    3.39
  -5   7  -1    8.63    1.63
   5  -7   1    8.69    1.78
  -6   7  -1   13.88    2.28
   6  -7   1   13.61    2.26
   6   6  -1    9.31    2.30
   5   6  -1    2.19    1.09
   5   6  -1    3.97    1.39
   4   6  -1   50.99    5.42
  -4  -6   1   51.87    5.77
   3   6  -1    7.37    1.39
   3   6  -1    6.79    1.44
  -3  -6   1    7.90    1.41
   2   6  -1   35.31    3.33
   2   6  -1   32.91    3.82
   1   6  -1   72.17    7.77
   1   6  -1   70.23    6.91
   1   6  -1   68.31    7.74
   1   6  -1   75.37    7.36
  -1  -6   1   81.46    7.22
   0   6  -1    2.01    0.78
   0   6  -1    2.88    0.77
   0   6  -1    2.56    0.97
   0  -6   1    2.24    0.89
   0  -6   1    3.49    0.80
  -1   6  -1   72.69    7.20
  -1   6  -1   59.69    7.06
  -1   6  -1   74.38    7.18
   1  -6   1   72.67    6.65
   1  -6   1   60.78    7.17
  -2   6  -1   18.93    2.68
  -2   6  -1   28.36    2.55
  -2   6  -1   22.55    2.48
   2  -6   1   23.44    2.88
   2  -6   1   19.98    2.45
  -3   6  -1   26.60    2.71
  -3   6  -1   19.19    2.61
   3  -6   1   26.24    2.64
  -4   6  -1   18.60    2.71
   4  -6   1   27.55    2.84
   4  -6   1   23.30    3.02
  -5   6  -1   -0.70    1.02
   5  -6   1    0.85    1.28
   5  -6   1    0.18    1.18
  -6   6  -1    5.13    1.44
   6  -6   1    4.67    1.63
   7  -6   1   10.37    1.87
   7   5  -1   -5.03    2.24
  -7  -5   1    0.81    1.72
   6   5  -1   92.90    8.56
  -6  -5   1   66.66    8.74
   5   5  -1   11.00    2.11
   5   5  -1   19.43    2.79
  -5  -5   1   16.83    2.30
  -5  -5   1   11.53    2.15
   4   5  -1   53.97    5.28
   4   5  -1   48.54    5.12
  -4  -5   1   43.13    5.29
  -4  -5   1   44.69    5.32
   3   5  -1   86.20    9.23
   3   5  -1   89.78    9.29
   3   5  -1   85.47    8.79
  -3  -5   1   89.37    9.24
   2   5  -1   -0.24    0.69
   2   5  -1   -0.27    0.44
   2   5  -1    0.21    0.76
   2   5  -1   -0.08    0.55
  -2  -5   1    0.31    0.70
   1   5  -1  130.41   12.44
  -1  -5   1  138.31   13.92
  -1  -5   1  134.46   12.95
   0   5  -1   28.20    3.51
   0   5  -1   36.97    3.65
   0   5  -1   31.43    3.34
   0  -5   1   38.74    3.81
   0  -5   1   36.29    3.74
  -1   5  -1   38.24    4.04
  -1   5  -1   45.22    4.49
  -1   5  -1   43.18    4.53
   1  -5   1   44.82    4.17
   1  -5   1   34.51    4.49
   1  -5   1   44.92    4.54
  -2   5  -1   52.16    5.82
  -2   5  -1   55.85    5.81
   2  -5   1   59.56    5.48
   2  -5   1   52.83    5.92
  -3   5  -1    0.69    0.67
  -3   5  -1    0.78    0.53
  -3   5  -1    0.14    0.88
   3  -5   1    0.14    0.75
   3  -5   1    2.01    0.97
  -4   5  -1   27.31    3.22
   4  -5   1   29.92    3.47
   4  -5   1   28.55    3.06
  -5   5  -1   17.30    2.84
  -5   5  -1   25.61    2.99
   5  -5   1   27.65    3.19
   5  -5   1   24.92    3.03
  -6   5  -1    3.34    1.06
  -6   5  -1    1.45    1.24
   6  -5   1    3.23    1.33
   6  -5   1    3.59    1.49
  -7   5  -1   32.28    3.81
  -7   5  -1   36.46    3.92
   7  -5   1   23.52    3.67
   7   4  -1    6.56    2.30
  -7  -4   1    8.92    2.24
   6   4  -1   22.29    3.77
  -6  -4   1   31.32    4.01
  -6  -4   1   27.38    3.87
   5   4  -1   33.87    4.05
   5   4  -1   42.47    4.07
  -5  -4   1   39.25    4.41
  -5  -4   1   26.23    4.28
   4   4  -1    2.34    0.93
   4   4  -1    2.10    0.47
   4   4  -1    0.50    0.96
   4   4  -1    2.67    1.17
  -4  -4   1    0.78    0.97
  -4  -4   1    0.93    0.97
   3   4  -1   85.01    8.92
   3   4  -1   80.28    7.90
   3   4  -1   78.82    8.52
   3   4  -1   98.54    9.05
  -3  -4   1   84.15    8.94
  -3  -4   1   90.60    9.09
  -3  -4   1   82.46    8.96
   2   4  -1   70.34    6.92
   2   4  -1   65.47    6.57
   2   4  -1   68.06    6.92
  -2  -4   1   53.31    6.93
  -2  -4   1   64.24    6.90
  -2  -4   1   74.69    6.93
   1   4  -1   29.06    2.75
   1   4  -1   31.88    3.14
   1   4  -1   26.99    3.10
   1   4  -1   26.62    3.16
  -1  -4   1   31.26    3.15
  -1  -4   1   27.68    2.72
   0   4  -1   51.63    4.92
   0   4  -1   44.70    4.61
   0   4  -1   40.73    4.38
   0   4  -1   44.17    4.89
   0  -4   1   41.38    4.89
   0  -4   1   56.87    4.58
  -1   4  -1   53.08    5.17
  -1   4  -1   45.12    4.69
  -1   4  -1   56.82    5.25
  -1   4  -1   58.97    5.23
  -1   4  -1   43.02    4.92
   1  -4   1   42.52    5.21
   1  -4   1   46.96    5.24
  -2   4  -1   35.07    3.70
  -2   4  -1   30.54    3.37
  -2   4  -1   35.48    3.64
   2  -4   1   33.37    3.71
   2  -4   1   35.48    3.45
  -3   4  -1  128.48   15.16
  -3   4  -1  147.91   13.59
   3  -4   1  144.53   15.09
   3  -4   1  146.48   14.06
   3  -4   1  160.85   15.09
  -4   4  -1    3.94    0.84
  -4   4  -1    0.29    0.84
  -4   4  -1    2.67    0.79
   4  -4   1    3.62    0.94
   4  -4   1    1.57    0.93
  -5   4  -1   79.16    8.22
  -5   4  -1   72.89    7.41
   5  -4   1   76.08    8.19
   5  -4   1   77.65    7.69
  -6   4  -1   10.33    1.75
  -6   4  -1    8.18    1.51
   6  -4   1    9.18    1.75
   6  -4   1    8.71    1.55
  -7   4  -1   16.93    2.34
   7  -4   1   13.35    2.23
  -8   4  -1   16.71    2.76
   8  -4   1   22.82    3.37
   7   3  -1   33.63    5.06
  -7  -3   1   44.03    5.04
   6   3  -1    2.30    1.63
  -6  -3   1    3.40    1.63
  -6  -3   1   -0.19    1.56
   5   3  -1   64.60    7.16
  -5  -3   1   68.84    7.54
  -5  -3   1   69.96    7.48
   4   3  -1   12.75    1.41
   4   3  -1   12.46    2.00
   4   3  -1   13.56    1.93
   4   3  -1   12.21    1.77
  -4  -3   1   12.37    1.91
  -4  -3   1   13.88    2.14
   3   3  -1   73.35    7.14
   3   3  -1   78.04    7.43
   3   3  -1   61.42    7.50
  -3  -3   1   76.06    7.51
  -3  -3   1   73.94    7.63
  -3  -3   1   64.61    7.46
   2   3  -1   86.51    7.78
   2   3  -1   71.21    6.87
   2   3  -1   76.56    7.72
   2   3  -1   64.02    7.33
  -2  -3   1   75.50    7.76
  -2  -3   1   85.58    7.86
  -2  -3   1   62.11    7.73
   1   3  -1    5.53    0.55
   1   3  -1    3.27    0.69
   1   3  -1    3.80    0.70
   1   3  -1    4.44    0.67
   1   3  -1    5.26    0.70
  -1  -3   1    5.60    0.78
  -1  -3   1    3.42    0.63
  -1  -3   1    4.38    0.50
  -1  -3   1    3.82    0.64
   0   3  -1   91.18    9.14
   0   3  -1   91.92    8.61
   0   3  -1   84.00    9.09
   0   3  -1   85.45    8.17
   0   3  -1   96.62    9.12
   0  -3   1   90.64    9.11
   0  -3   1   87.07    9.11
   0  -3   1   77.80    8.48
  -1   3  -1  135.01   14.32
  -1   3  -1  141.58   12.91
  -1   3  -1  148.93   14.43
   1  -3   1  143.95   14.36
   1  -3   1  126.55   14.36
  -2   3  -1  140.98   11.59
  -2   3  -1  119.51   12.94
   2  -3   1  127.25   12.93
   2  -3   1  109.75   12.84
   2  -3   1  124.87   11.99
  -3   3  -1   98.27    9.90
  -3   3  -1  110.40   11.07
  -3   3  -1  112.16   10.97
   3  -3   1  101.10   10.97
  -4   3  -1    5.07    0.86
  -4   3  -1    4.01    1.07
  -4   3  -1    5.95    1.01
   4  -3   1    5.00    1.11
   4  -3   1    5.70    1.04
  -5   3  -1   18.63    2.73
  -5   3  -1   23.70    2.98
  -5   3  -1   25.58    2.82
   5  -3   1   29.79    3.02
   5  -3   1   22.84    2.85
  -6   3  -1   18.71    2.88
  -6   3  -1   22.48    2.90
   6  -3   1   27.17    3.07
  -7   3  -1    0.23    1.32
   7  -3   1   -0.31    1.12
  -8   3  -1   20.53    3.41
   8  -3   1   22.11    3.46
   8   2  -1    7.46    2.63
  -8  -2   1    5.03    2.32
   7   2  -1   70.14    8.21
  -7  -2   1   78.30    8.59
   6   2  -1    2.54    1.80
  -6  -2   1    2.16    1.55
  -6  -2   1    2.51    1.32
   5   2  -1   30.48    3.64
   5   2  -1   30.04    3.21
   5   2  -1   26.80    3.52
  -5  -2   1   33.92    3.73
  -5  -2   1   21.11    3.49
   4   2  -1  123.64   11.92
   4   2  -1  104.28   11.49
   4   2  -1  110.83   12.13
  -4  -2   1  112.18   12.12
  -4  -2   1  116.67   12.06
  -4  -2   1  124.74   12.30
   3   2  -1    2.75    0.61
   3   2  -1    4.04    0.83
   3   2  -1    1.84    0.76
   3   2  -1    3.62    0.53
  -3  -2   1    1.86    0.72
  -3  -2   1    3.82    0.66
  -3  -2   1    2.03    0.82
   2   2  -1  257.96   24.64
   2   2  -1  240.25   26.04
   2   2  -1  275.64   25.90
  -2  -2   1  255.04   26.04
  -2  -2   1  236.61   26.03
  -2  -2   1  240.91   26.31
  -2  -2   1  265.70   25.89
   1   2  -1  225.65   23.03
   1   2  -1  207.99   21.88
   1   2  -1  250.85   23.14
   1   2  -1  205.76   23.36
   1   2  -1  235.27   23.13
   1   2  -1  190.81   20.71
  -1  -2   1  234.02   23.36
  -1  -2   1  233.87   23.13
  -1  -2   1  243.71   23.03
   0   2  -1   73.32    6.52
   0   2  -1   70.88    6.18
   0   2  -1   64.31    6.88
   0   2  -1   64.11    6.88
   0  -2   1   64.95    6.16
   0  -2   1   61.97    6.51
   0  -2   1   67.07    6.89
  -1   2  -1  583.22   61.17
  -1   2  -1  580.59   54.91
   1  -2   1  609.44   60.93
   1  -2   1  631.68   61.74
   1  -2   1  550.74   54.91
   1  -2   1  623.07   57.83
   2  -2   1   21.11    2.23
   2  -2   1   19.78    2.21
   2  -2   1   19.39    2.08
  -3   2  -1   85.86    9.31
  -3   2  -1   86.89    9.19
  -3   2  -1   76.49    8.31
   3  -2   1  100.32    8.62
   3  -2   1   82.36    9.20
   3  -2   1   99.29    9.23
  -4   2  -1   89.48    8.65
  -4   2  -1   93.05    9.53
  -5   2  -1    2.80    0.80
  -5   2  -1    3.29    1.12
  -5   2  -1    1.57    0.96
   5  -2   1    2.62    1.06
   5  -2   1    3.51    0.95
  -6   2  -1   95.80   10.18
  -6   2  -1  103.27    9.13
   6  -2   1   85.58   10.01
  -7   2  -1   34.02    4.10
   7  -2   1   27.04    3.81
   7  -2   1   31.57    3.90
  -8   2  -1   17.57    2.67
   8  -2   1   13.92    2.55
   8   1  -1    9.50    2.37
  -8  -1   1    7.47    2.37
   7   1  -1   15.06    2.72
  -7  -1   1   16.15    2.74
   6   1  -1   62.65    6.84
  -6  -1   1   67.03    7.14
   5   1  -1   11.38    1.86
   5   1  -1    7.53    1.37
  -5  -1   1   12.78    1.92
  -5  -1   1    9.33    1.67
   4   1  -1  167.92   15.50
   4   1  -1  138.54   16.07
  -4  -1   1  162.86   16.27
  -4  -1   1  158.29   16.34
  -4  -1   1  158.31   16.50
   3   1  -1  135.41   14.97
   3   1  -1  179.67   15.65
  -3  -1   1  141.57   15.79
   2   1  -1   29.34    3.04
   2   1  -1   36.13    3.47
  -2  -1   1   26.88    3.49
  -2  -1   1   34.88    3.36
  -2  -1   1   33.66    3.47
   1   1  -1  593.69   59.44
  -1  -1   1  652.95   59.21
  -1  -1   1  562.02   59.44
  -1  -1   1  510.26   59.43
   0   1  -1  341.66   30.77
   0   1  -1  275.21   31.05
   0   1  -1  340.24   30.65
   0   1  -1  331.27   30.77
   0   1  -1  298.23   29.09
   0  -1   1  298.60   29.09
   0  -1   1  267.64   30.77
   0  -1   1  260.27   30.64
   0  -1   1  288.28   27.61
  -1   1  -1  590.77   60.05
   1  -1   1  592.84   60.69
   1  -1   1  595.55   53.91
   1  -1   1  564.72   56.01
  -2   1  -1  178.90   16.55
  -2   1  -1  143.36   14.88
  -2   1  -1  157.41   16.71
   2  -1   1  148.40   16.70
   2  -1   1  175.28   15.44
  -3   1  -1   23.53    3.10
  -3   1  -1   33.80    2.87
  -3   1  -1   29.78    3.05
   3  -1   1   25.40    3.07
   3  -1   1   28.77    2.84
  -4   1  -1   89.65    9.62
   4  -1   1   94.89    9.64
   4  -1   1   91.46    9.00
  -5   1  -1   35.87    3.77
   5  -1   1   30.88    3.79
  -6   1  -1   29.63    3.53
  -6   1  -1   28.99    3.50
   6  -1   1   27.39    3.49
  -7   1  -1   54.91    5.41
   7  -1   1   50.48    5.21
   7  -1   1   35.07    4.85
   7  -1   1   40.53    4.89
  -8   1  -1    1.38    1.70
   8  -1   1    1.54    1.77
  -9   1  -1   15.78    2.94
   8   0  -1   38.65    4.90
  -8   0   1   34.42    5.12
   7   0  -1    3.02    1.71
   7   0  -1   -0.28    1.92
  -7   0   1    0.90    1.58
   6   0  -1   52.18    5.11
  -6   0   1   40.83    4.94
  -6   0   1   41.67    5.22
   5   0  -1   47.45    4.62
   5   0  -1   45.08    4.76
  -5   0   1   43.22    4.89
  -5   0   1   36.08    4.97
   4   0  -1   12.51    1.59
   4   0  -1   10.20    1.36
   4   0  -1    9.46    1.65
  -4   0   1   13.12    1.74
  -4   0   1   11.83    1.42
  -4   0   1   11.43    1.67
  -4   0   1    7.96    1.57
   3   0  -1  107.26   11.07
   3   0  -1   98.11   10.50
  -3   0   1  106.61   10.05
  -3   0   1  110.65   11.24
  -3   0   1  116.61   11.26
   2   0  -1   56.84    6.49
   2   0  -1   61.55    6.07
   2   0  -1   61.63    6.37
  -2   0   1   69.73    6.59
  -2   0   1   60.64    6.50
  -1   0   1  131.91   12.56
  -1   0   1  116.91   11.59
  -1   0   1  102.74   12.43
  -1   0   1  131.21   11.13
   0   0  -1   61.72    5.59
   0   0  -1   60.36    5.91
   0   0  -1   51.62    5.98
   0   0   1   62.86    5.91
   0   0   1   51.03    5.30
  -1   0  -1   12.56    1.35
  -1   0  -1   13.81    1.45
  -1   0  -1   13.71    1.45
   1   0   1   14.71    1.35
   1   0   1   11.91    1.45
   1   0   1   13.31    1.45
  -2   0  -1   96.61    8.92
  -2   0  -1   80.42    8.30
   2   0   1   89.89    8.31
   2   0   1   75.97    8.91
  -3   0  -1  247.91   24.63
  -3   0  -1  226.50   24.85
   3   0   1  240.70   24.62
   3   0   1  240.79   22.96
  -4   0  -1   11.74    1.62
   4   0   1   11.71    1.40
   4   0   1    8.05    1.44
   4   0   1    8.88    1.31
   4   0   1    7.97    1.27
  -5   0  -1  220.15   23.82
   5   0   1  219.67   22.24
   5   0   1  251.45   23.88
  -6   0  -1    1.70    1.29
  -6   0  -1    3.17    0.91
   6   0   1    0.94    1.21
   6   0   1    1.62    0.82
   6   0   1    1.90    0.92
  -7   0  -1   82.37    8.49
   7   0   1   67.71    7.64
   7   0   1   76.85    8.09
  -8   0  -1   20.38    3.20
   8   0   1   20.25    3.01
  -9   0  -1    3.19    2.22
   9   0   1    5.35    2.14
   9   0   1    3.37    2.19
   8  -1  -1   54.53    6.86
   8  -1  -1   64.15    6.82
  -8   1   1   60.10    7.18
   7  -1  -1   21.53    2.98
  -7   1   1   16.56    2.64
   6  -1  -1   23.20    2.84
  -6   1   1   17.32    3.04
  -6   1   1   18.46    2.66
  -6   1   1   24.59    2.87
   5  -1  -1  101.25   10.75
  -5   1   1   92.20   11.07
  -5   1   1  118.49   10.96
   4  -1  -1    5.35    0.99
   4  -1  -1    4.42    1.15
  -4   1   1    2.39    0.95
  -4   1   1    2.37    0.75
  -4   1   1    3.60    0.82
  -4   1   1    2.24    1.04
   3  -1  -1  164.20   18.17
   3  -1  -1  161.53   18.36
   3  -1  -1  199.21   17.17
  -3   1   1  170.32   18.53
  -3   1   1  176.30   18.34
  -3   1   1  195.82   18.43
   2  -1  -1  154.54   14.50
   2  -1  -1  144.26   14.34
   2  -1  -1  129.08   14.47
  -2   1   1  121.31   14.45
  -2   1   1  152.21   14.62
   1  -1  -1   98.42   10.54
   1  -1  -1  110.89    9.45
   1  -1  -1   85.79   10.52
  -1   1   1   95.02   10.63
  -1   1   1  111.50   10.55
  -1   1   1  111.44    9.44
   0  -1  -1  256.77   24.81
   0  -1  -1  275.10   26.61
   0   1   1  279.13   23.88
   0   1   1  230.13   26.48
   0   1   1  259.30   26.60
   0   1   1  254.46   24.82
  -1  -1  -1   50.39    5.67
  -1  -1  -1   54.08    5.27
  -1  -1  -1   46.28    5.36
   1   1   1   61.18    5.37
   1   1   1   56.22    5.69
   1   1   1   61.09    5.68
   1   1   1   55.65    5.67
  -2  -1  -1  219.07   23.53
  -2  -1  -1  246.10   21.96
   2   1   1  237.87   23.76
   2   1   1  223.28   23.47
   2   1   1  219.40   23.55
  -3  -1  -1  707.81   65.20
   3   1   1  549.95   64.28
   3   1   1  637.31   60.24
   3   1   1  621.98   64.55
  -4  -1  -1  117.48   11.43
  -4  -1  -1   96.27   11.27
   4   1   1  115.75   11.33
   4   1   1  115.76   11.25
   4   1   1   96.05   11.21
  -5  -1  -1  295.75   30.28
  -5  -1  -1  251.58   29.95
   5   1   1  283.24   29.82
   5   1   1  336.02   30.05
   5   1   1  285.19   27.97
  -6  -1  -1    1.72    1.04
  -6  -1  -1    2.78    0.97
   6   1   1    1.69    1.27
   6   1   1    1.02    1.17
   6   1   1    1.55    1.35
  -7  -1  -1   15.53    2.55
   7   1   1   19.57    2.90
   7   1   1   16.65    2.51
   7   1   1   14.14    2.20
   7   1   1   11.77    2.17
  -8  -1  -1   34.26    4.62
   8   1   1   28.66    3.79
   8   1   1   29.56    4.19
  -9  -1  -1    3.79    2.02
   9   1   1   -0.79    2.28
   8  -2  -1    6.23    2.33
  -8   2   1    5.39    1.41
   7  -2  -1   20.23    3.00
  -7   2   1   20.88    3.14
  -7   2   1   17.44    2.62
   6  -2  -1   19.04    2.79
  -6   2   1   11.69    2.14
  -6   2   1   16.38    2.31
  -6   2   1   14.54    2.03
   5  -2  -1   41.71    4.06
   5  -2  -1   40.27    4.32
  -5   2   1   29.67    3.77
  -5   2   1   38.52    4.20
   4  -2  -1  108.50   10.42
   4  -2  -1   96.07    9.75
  -4   2   1  101.64   10.36
  -4   2   1   85.68   10.46
  -4   2   1  102.95    9.32
   3  -2  -1    1.84    0.64
   3  -2  -1    2.66    0.50
   3  -2  -1    0.25    0.75
  -3   2   1    1.02    0.50
  -3   2   1    3.40    0.69
  -3   2   1    2.58    0.64
  -3   2   1    1.38    0.68
   2  -2  -1  184.75   18.96
  -2   2   1  184.16   19.13
  -2   2   1  182.51   18.94
   1  -2  -1   86.83    9.08
   1  -2  -1   90.41    8.98
   1  -2  -1   80.27    8.99
   1  -2  -1   92.61    8.94
  -1   2   1   84.67    8.06
  -1   2   1   89.69    8.41
  -1   2   1   83.87    9.00
   0  -2  -1   97.22   11.07
   0  -2  -1  113.05    9.94
   0  -2  -1  119.42   10.45
   0   2   1  111.82   11.02
   0   2   1   96.16   11.06
  -1  -2  -1  225.05   19.86
  -1  -2  -1  185.86   17.86
   1   2   1  170.93   19.84
  -2  -2  -1   16.83    1.55
   2   2   1   13.26    1.73
   2   2   1   14.05    1.61
   2   2   1   16.18    1.74
   3   2   1  200.71   18.33
   3   2   1  190.38   19.67
   3   2   1  180.43   19.58
  -4  -2  -1   95.08   10.59
  -4  -2  -1   88.37   10.70
   4   2   1  100.76   10.66
   4   2   1  111.90    9.93
   4   2   1  112.79   10.57
   4   2   1  100.83   10.59
  -5  -2  -1    4.99    1.08
  -5  -2  -1    3.53    1.15
   5   2   1    3.82    1.17
   5   2   1    3.39    1.02
   5   2   1    2.60    1.24
   5   2   1    4.06    1.26
  -6  -2  -1  109.90   11.63
  -6  -2  -1  112.49   11.79
   6   2   1  104.07   10.88
   6   2   1  122.38   11.73
   6   2   1   99.32   11.49
  -7  -2  -1   34.33    5.19
   7   2   1   43.33    4.91
   7   2   1   42.91    5.02
   7   2   1   38.55    5.03
   7   2   1   53.69    5.38
  -8  -2  -1   44.59    6.20
   8   2   1   53.71    6.14
   8   2   1   53.16    5.99
   7  -3  -1   25.52    3.24
  -7   3   1   26.33    3.16
  -7   3   1   19.71    3.36
   6  -3  -1   54.77    4.92
  -6   3   1   36.62    4.99
  -6   3   1   38.03    4.57
  -6   3   1   53.17    5.11
   5  -3  -1   14.44    2.19
   5  -3  -1   12.14    1.87
  -5   3   1   12.27    1.93
  -5   3   1   16.05    2.10
   4  -3  -1   82.32    9.38
   4  -3  -1   93.27   10.01
  -4   3   1   97.53   10.11
  -4   3   1  107.36    9.00
   3  -3  -1   29.49    3.24
  -3   3   1   25.82    3.17
  -3   3   1   29.61    3.15
  -3   3   1   28.39    3.20
   2  -3  -1   95.03    9.11
  -2   3   1   95.56    9.73
  -2   3   1   98.61    8.74
  -2   3   1   85.97    9.64
   1  -3  -1  202.16   23.43
  -1   3   1  224.87   23.65
  -1   3   1  257.04   23.47
   0  -3  -1   -0.34    0.28
   0  -3  -1   -0.25    0.33
   0  -3  -1    0.01    0.23
   0  -3  -1   -0.16    0.32
   0   3   1    0.94    0.40
   0   3   1    0.31    0.29
   0   3   1    0.46    0.34
   0   3   1    0.10    0.32
   0   3   1    0.41    0.20
  -1  -3  -1  283.66   31.58
  -1  -3  -1  303.32   33.91
  -1  -3  -1  344.25   33.91
   1   3   1  344.24   33.91
   1   3   1  347.40   33.78
   1   3   1  359.20   32.05
  -2  -3  -1  221.79   22.64
   2   3   1  230.49   22.58
   2   3   1  208.73   22.64
  -3  -3  -1  116.33   10.69
   3   3   1  114.54   10.74
   3   3   1  103.24   10.69
   3   3   1   95.18   10.13
   3   3   1   86.69   10.66
  -4  -3  -1  116.73   14.09
  -4  -3  -1  154.26   13.96
   4   3   1  142.13   13.93
   4   3   1  123.78   13.22
  -5  -3  -1    0.49    0.90
  -5  -3  -1    2.15    1.10
   5   3   1    1.26    1.00
   5   3   1    0.35    1.11
   5   3   1    1.68    1.13
  -6  -3  -1   33.63    4.20
  -6  -3  -1   31.32    4.34
   6   3   1   35.20    4.19
   6   3   1   33.94    4.17
   6   3   1   36.03    4.44
  -7  -3  -1   48.72    5.68
   7   3   1   46.29    5.51
   7   3   1   48.47    5.69
  -8  -3  -1   -0.40    1.92
   8   3   1    0.57    2.11
   7  -4  -1    0.92    1.85
  -7   4   1    1.54    1.08
  -7   4   1    2.21    1.33
   6  -4  -1   44.86    4.49
  -6   4   1   34.75    4.43
  -6   4   1   36.35    4.04
   5  -4  -1    3.47    1.43
  -5   4   1    4.42    1.16
  -5   4   1    3.43    1.09
  -5   4   1    4.93    1.00
   4  -4  -1   42.58    4.97
  -4   4   1   42.68    4.46
  -4   4   1   49.23    5.01
  -4   4   1   45.32    4.92
   3  -4  -1   69.68    6.85
   3  -4  -1   56.70    6.38
  -3   4   1   63.66    6.12
  -3   4   1   58.49    6.79
  -3   4   1   73.33    6.88
   2  -4  -1    1.57    0.65
   2  -4  -1    0.91    0.60
  -2   4   1    0.40    0.46
  -2   4   1    2.24    0.68
  -2   4   1    1.86    0.56
  -2   4   1    1.73    0.54
  -2   4   1    1.65    0.55
   1  -4  -1  116.86   11.40
   1  -4  -1  113.78   10.61
  -1   4   1  100.48   11.36
  -1   4   1   96.07   11.45
  -1   4   1  110.10   11.40
  -1   4   1  122.39   10.23
   0  -4  -1   44.73    4.68
   0   4   1   46.82    5.07
   0   4   1   48.35    5.05
   0   4   1   50.73    4.79
   0   4   1   54.39    4.69
   0   4   1   44.14    4.55
  -1  -4  -1   33.09    3.72
  -1  -4  -1   30.50    3.39
   1   4   1   36.46    3.33
   1   4   1   34.91    3.76
   1   4   1   40.39    3.51
   2   4   1   65.85    7.16
   2   4   1   71.20    6.77
   2   4   1   68.30    6.40
  -3  -4  -1    1.80    0.61
   3   4   1    2.39    0.79
   3   4   1    3.78    0.78
   3   4   1    2.72    0.60
   3   4   1    3.74    0.86
  -4  -4  -1   15.39    2.02
   4   4   1   16.04    1.97
   4   4   1   14.05    2.08
   4   4   1   13.26    2.03
  -5  -4  -1   73.24    7.56
  -5  -4  -1   67.88    7.72
   5   4   1   64.73    7.24
   5   4   1   73.47    7.59
   5   4   1   72.77    7.66
  -6  -4  -1   -0.66    1.25
   6   4   1   -0.79    1.19
   6   4   1    0.45    1.39
   6   4   1    0.55    1.24
  -7  -4  -1   56.01    7.13
   7   4   1   71.24    7.05
   7   4   1   56.79    6.61
  -8  -4  -1    3.69    2.00
   8   4   1    5.88    1.87
   7  -5  -1   17.41    2.78
  -7   5   1   17.59    2.84
  -7   5   1   17.26    2.53
  -6   5   1   38.85    4.52
  -6   5   1   48.08    5.01
   5  -5  -1   31.21    3.64
  -5   5   1   33.80    3.47
  -5   5   1   28.20    3.65
  -5   5   1   31.20    3.62
   4  -5  -1   -0.86    0.83
   4  -5  -1    0.21    1.04
  -4   5   1    0.12    0.79
  -4   5   1    0.62    0.97
  -4   5   1    0.19    0.91
   3  -5  -1   74.92    8.13
   3  -5  -1   81.97    7.60
  -3   5   1   63.97    8.05
  -3   5   1   86.16    8.17
  -3   5   1   76.84    7.27
   2  -5  -1  103.46    9.84
  -2   5   1  112.17   10.50
  -2   5   1  100.22    9.48
  -2   5   1   89.10   10.61
   1  -5  -1   38.66    3.58
   1  -5  -1   32.67    3.91
  -1   5   1   33.79    3.86
  -1   5   1   41.20    3.88
  -1   5   1   33.21    3.84
  -1   5   1   34.78    3.48
   0  -5  -1  179.76   15.81
   0  -5  -1  154.27   17.01
   0   5   1  143.18   15.24
   0   5   1  186.88   16.95
   0   5   1  158.81   16.05
  -1  -5  -1   17.23    2.07
  -1  -5  -1   15.91    1.75
   1   5   1   17.48    1.89
   1   5   1   18.00    2.13
   1   5   1   17.30    1.80
   1   5   1   16.92    2.03
  -2  -5  -1  103.08   12.15
   2   5   1  138.10   13.13
   2   5   1  136.62   12.41
   2   5   1  131.25   13.14
  -3  -5  -1  123.07   12.10
   3   5   1   94.34   11.42
   3   5   1  125.52   12.16
   3   5   1  123.51   12.10
  -4  -5  -1   10.78    1.86
   4   5   1   10.61    1.54
   4   5   1   14.58    1.89
   4   5   1   12.85    2.06
   4   5   1   13.67    2.10
  -5  -5  -1   97.73   12.23
   5   5   1  128.27   12.41
   5   5   1  122.18   11.74
   5   5   1  123.92   12.38
   5   5   1  115.20   10.94
   6   5   1    1.79    1.71
   6   5   1    3.21    1.75
   7   5   1   38.56    4.90
   7   5   1   38.46    4.96
   8   5   1    9.36    2.67
   6  -6  -1    0.38    1.56
  -6   6   1    2.89    1.12
   5  -6  -1    1.71    1.27
  -5   6   1    1.86    0.98
  -5   6   1    1.33    1.28
  -4   6   1   44.20    4.62
  -4   6   1   46.50    5.04
  -4   6   1   45.29    5.11
   3  -6  -1    3.65    1.02
   3  -6  -1    2.18    1.05
  -3   6   1    2.85    1.04
  -3   6   1    3.38    1.00
  -3   6   1    3.38    0.97
   2  -6  -1   54.83    5.87
   2  -6  -1   68.91    6.47
  -2   6   1   49.15    6.31
  -2   6   1   64.21    6.31
  -2   6   1   65.96    6.38
  -2   6   1   54.96    5.66
   1  -6  -1    1.64    0.66
   1  -6  -1    2.21    0.88
  -1   6   1    1.19    0.67
  -1   6   1    1.64    0.66
  -1   6   1    2.59    0.85
  -1   6   1    0.28    0.75
   0  -6  -1   16.75    2.00
   0  -6  -1   20.68    2.43
   0   6   1   18.33    2.19
   0   6   1   16.31    2.14
   0   6   1   22.70    2.38
   0   6   1   22.18    2.12
   0   6   1   19.53    2.28
  -1  -6  -1   60.52    5.45
  -1  -6  -1   57.01    5.98
   1   6   1   54.68    5.95
   1   6   1   57.58    5.34
   1   6   1   49.40    5.59
  -2  -6  -1    2.76    0.51
  -2  -6  -1    2.32    0.81
   2   6   1    3.36    0.75
   2   6   1    0.74    0.78
   2   6   1    3.78    1.07
   2   6   1    4.37    0.89
  -3  -6  -1   68.67    6.62
   3   6   1   56.62    6.58
   3   6   1   58.09    5.81
   3   6   1   70.98    6.67
   3   6   1   54.20    6.19
  -4  -6  -1    8.51    1.56
   4   6   1   10.91    1.64
   4   6   1   11.09    1.78
   4   6   1    9.75    1.51
   4   6   1   11.38    1.76
   5   6   1   15.33    2.50
   5   6   1   18.56    2.57
   6   6   1   34.67    4.64
   6   6   1   38.27    4.49
   7   6   1   -4.00    2.05
   7   6   1   -4.13    1.73
   5  -7  -1    7.29    1.57
  -5   7   1    6.31    1.70
  -4   7   1   46.19    4.93
  -4   7   1   39.26    4.52
   3  -7  -1    1.23    1.00
  -3   7   1    1.64    1.05
  -3   7   1    1.68    0.85
   2  -7  -1   38.87    4.27
  -2   7   1   43.85    4.26
  -2   7   1   37.85    4.59
  -2   7   1   45.00    4.76
  -2   7   1   44.93    4.68
   1  -7  -1   17.03    2.64
   1  -7  -1   19.67    2.22
  -1   7   1   15.53    2.33
  -1   7   1   22.48    2.32
  -1   7   1   23.11    2.40
  -1   7   1   19.99    2.51
   0  -7  -1   13.96    2.06
   0  -7  -1   13.20    1.42
   0   7   1   12.95    1.80
   0   7   1    8.23    1.64
   0   7   1   12.19    1.66
   0   7   1   11.12    1.60
  -1  -7  -1   83.08    8.73
  -1  -7  -1   85.64    7.95
   1   7   1   78.43    7.75
   1   7   1   80.53    8.17
  -2  -7  -1   -0.11    0.52
  -2  -7  -1   -2.33    0.93
   2   7   1    1.15    1.15
   2   7   1    0.97    0.90
   2   7   1    0.18    0.87
   2   7   1    0.10    0.78
   3   7   1   28.21    3.07
   3   7   1   27.61    3.48
   3   7   1   30.62    3.36
   3   7   1   31.18    3.66
   4   7   1   30.25    3.81
   4   7   1   27.94    3.39
   5   7   1   -2.45    1.54
   5   7   1    0.00    1.35
   6   7   1   37.52    4.35
   6   7   1   31.43    4.59
   4  -8  -1   30.78    3.51
  -4   8   1   29.93    3.60
   3  -8  -1   14.23    2.25
  -3   8   1   15.71    2.31
   2  -8  -1   10.59    1.62
  -2   8   1   10.19    1.80
  -2   8   1   13.29    1.83
   1  -8  -1   38.13    4.25
  -1   8   1   42.89    4.28
  -1   8   1   44.10    4.78
   0   8   1    4.01    1.39
   0   8   1    4.25    1.19
   1   8   1   29.04    3.17
   1   8   1   25.41    3.04
   2   8   1   33.78    3.48
   2   8   1   32.68    3.69
   3   8   1    3.50    1.29
   3   8   1    1.89    1.54
   4   8   1   62.55    6.39
   4   8   1   56.69    6.84
   5   8   1   19.02    2.64
   5   8   1   14.79    2.91
  -3   9   1   11.96    2.12
  -2   9   1   10.27    1.75
  -2   9   1    7.79    1.68
  -1   9   1    5.33    1.51
  -1   9   1    5.68    1.68
   0   9   1   41.66    3.91
   0   9   1   29.48    3.98
   1   9   1    2.14    1.11
   1   9   1    2.07    1.18
   1   9   1    2.23    1.43
   2   9   1   22.13    2.93
   2   9   1   22.70    3.16
   3   9   1   21.38    3.18
   3   9   1   16.86    2.80
   4   9   1    3.09    1.68
   4   9   1    4.72    1.86
   0  10   1    6.68    2.05
   0  10   1    7.96    1.89
   1  10   1    4.90    1.78
   2   9  -2    0.69    1.99
   1   9  -2   12.32    2.46
   1   9  -2   14.34    2.25
   0   9  -2    4.80    1.58
   0   9  -2    2.98    1.33
   1  -9   2    8.34    1.55
   2  -9   2   10.24    1.75
  -3   9  -2    4.81    1.50
   3  -9   2    3.98    1.25
   3   8  -2   21.57    3.84
   3   8  -2   29.20    3.65
   2   8  -2    3.22    1.42
   2   8  -2    1.85    1.78
  -2  -8   2    1.76    1.26
  -2  -8   2    1.35    1.42
   1   8  -2   14.43    2.21
   1   8  -2   13.77    2.32
  -1  -8   2    9.46    1.97
  -1  -8   2   14.07    1.93
   0   8  -2   16.89    2.71
   0   8  -2   18.94    2.52
   0  -8   2   17.21    2.68
   0  -8   2   16.71    2.42
   1  -8   2   -0.68    1.11
   1  -8   2   -0.95    1.18
  -2   8  -2   16.43    1.83
   2  -8   2    9.22    2.01
   2  -8   2   11.33    1.73
  -3   8  -2   18.22    2.39
   3  -8   2   15.30    2.70
   3  -8   2   19.20    2.54
  -4   8  -2    6.35    1.68
   4  -8   2   -0.16    1.37
  -5   8  -2   23.48    2.97
   5  -8   2   20.01    3.00
   5   7  -2   22.57    3.04
   4   7  -2    1.53    1.43
   4   7  -2    1.49    1.65
   3   7  -2   21.14    3.09
   3   7  -2   24.27    2.84
  -3  -7   2   20.37    3.18
   2   7  -2   23.85    3.22
  -2  -7   2   21.90    2.63
  -2  -7   2   23.61    2.96
   1   7  -2    1.92    1.39
   1   7  -2    2.36    1.01
  -1  -7   2    1.62    0.90
  -1  -7   2    0.64    1.13
   0   7  -2   50.72    4.55
   0   7  -2   41.58    4.27
   0   7  -2   45.74    4.89
   0  -7   2   36.36    4.73
   0  -7   2   39.67    4.36
  -1   7  -2    6.42    1.46
  -1   7  -2    8.37    1.39
   1  -7   2    6.55    1.40
   1  -7   2    9.11    1.40
  -2   7  -2   13.29    2.00
   2  -7   2   13.46    2.00
   2  -7   2   12.89    1.93
  -3   7  -2   21.08    2.73
   3  -7   2   26.29    2.85
   3  -7   2   23.89    3.04
  -4   7  -2    2.63    1.35
   4  -7   2    2.57    1.31
   4  -7   2    1.02    1.36
  -5   7  -2   12.74    2.08
   5  -7   2   16.17    2.46
   5  -7   2   13.46    2.10
  -6   7  -2    2.64    1.79
   6  -7   2   -0.26    1.63
   5   6  -2   19.76    2.78
  -5  -6   2   19.56    3.05
  -5  -6   2   14.43    2.66
   4   6  -2   63.31    7.17
   4   6  -2   66.07    6.89
  -4  -6   2   65.20    7.26
   3   6  -2    1.13    1.17
   3   6  -2    0.29    1.21
  -3  -6   2   -0.90    1.04
   2   6  -2   34.06    4.77
   2   6  -2   49.97    4.58
  -2  -6   2   44.16    4.77
   1   6  -2   25.45    3.10
   1   6  -2   26.47    2.69
  -1  -6   2   22.32    2.62
  -1  -6   2   22.87    2.90
   0   6  -2    5.26    0.99
   0   6  -2    4.16    1.00
   0   6  -2    5.91    1.25
   0  -6   2    2.97    0.86
   0  -6   2    4.78    1.03
  -1   6  -2   35.15    4.48
  -1   6  -2   37.06    4.20
   1  -6   2   45.93    4.16
   1  -6   2   43.81    4.49
  -2   6  -2    7.81    1.44
   2  -6   2   12.05    1.61
   2  -6   2   11.58    1.65
  -3   6  -2   16.83    2.50
   3  -6   2   22.72    2.62
  -4   6  -2   23.06    3.05
   4  -6   2   25.56    3.35
   4  -6   2   27.98    3.07
  -5   6  -2    0.74    1.20
   5  -6   2    0.99    1.23
   5  -6   2    0.77    1.22
  -6   6  -2   29.59    3.55
   6  -6   2   24.11    3.78
   6  -6   2   28.45    3.60
  -7   6  -2    9.42    1.94
   7  -6   2    9.12    2.10
   6   5  -2   29.26    4.05
  -6  -5   2   28.60    4.44
   5   5  -2   27.43    3.52
  -5  -5   2   22.26    3.63
  -5  -5   2   22.29    3.82
   4   5  -2    8.69    1.57
   4   5  -2    7.92    1.66
  -4  -5   2    8.17    1.61
  -4  -5   2   12.92    1.91
   3   5  -2    0.54    0.95
   3   5  -2    1.24    0.82
  -3  -5   2    0.57    0.94
  -3  -5   2    1.62    0.76
   2   5  -2    2.46    0.94
   2   5  -2    2.25    1.03
  -2  -5   2    2.20    0.90
   1   5  -2   69.17    6.87
   1   5  -2   58.24    6.09
   1   5  -2   55.27    6.89
   1   5  -2   71.23    6.55
  -1  -5   2   72.35    6.90
   0   5  -2    1.31    0.84
   0   5  -2    0.08    0.30
   0   5  -2    0.11    0.63
   0   5  -2   -0.46    0.65
   0  -5   2    0.84    0.66
   0  -5   2   -0.50    0.72
   0  -5   2    1.27    0.73
  -1   5  -2   50.30    5.20
  -1   5  -2   48.81    4.98
  -1   5  -2   52.89    5.47
   1  -5   2   49.01    5.49
   1  -5   2   56.54    5.53
  -2   5  -2   30.76    3.63
   2  -5   2   33.80    3.43
   2  -5   2   34.52    3.70
  -3   5  -2    5.53    1.27
   3  -5   2    8.60    1.25
   3  -5   2    8.94    1.28
  -4   5  -2   42.23    4.74
  -4   5  -2   48.91    5.07
   4  -5   2   47.83    4.83
  -5   5  -2    2.24    1.05
  -5   5  -2    1.60    1.18
   5  -5   2    2.60    1.22
   5  -5   2    4.47    1.25
  -6   5  -2   19.68    2.89
   6  -5   2   19.48    3.05
   6  -5   2   18.31    2.88
  -7   5  -2   14.10    2.39
   7  -5   2   17.68    2.55
   7   4  -2   -4.96    2.62
  -7  -4   2    2.60    1.88
   6   4  -2   26.78    4.32
  -6  -4   2   24.35    4.23
  -6  -4   2   30.22    4.23
   5   4  -2    6.01    1.83
  -5  -4   2    5.64    1.74
  -5  -4   2    4.53    1.72
   4   4  -2    7.99    1.36
   4   4  -2   10.82    1.56
  -4  -4   2    7.01    1.53
  -4  -4   2    7.60    1.66
   3   4  -2  105.78   11.42
  -3  -4   2  117.07   12.04
  -3  -4   2  122.93   12.24
   2   4  -2    0.29    0.57
   2   4  -2   -0.25    0.79
   2   4  -2    0.63    0.58
  -2  -4   2    0.13    0.60
  -2  -4   2    0.64    0.64
  -2  -4   2   -0.27    0.67
   1   4  -2  129.67   15.26
   1   4  -2  142.98   14.49
   1   4  -2  133.27   15.43
  -1  -4   2  169.72   15.33
  -1  -4   2  165.31   15.33
   0   4  -2   25.87    2.71
   0   4  -2   29.18    2.93
   0   4  -2   29.56    2.89
   0   4  -2   31.57    3.14
   0   4  -2   22.94    2.98
   0  -4   2   30.06    2.66
   0  -4   2   27.68    3.02
   0  -4   2   25.77    3.02
  -1   4  -2   28.55    2.59
  -1   4  -2   18.28    2.61
   1  -4   2   20.59    2.40
   1  -4   2   24.75    2.62
  -2   4  -2  153.78   14.32
  -2   4  -2  127.96   14.33
   2  -4   2  134.48   14.32
  -3   4  -2    2.14    0.55
  -3   4  -2    1.88    0.91
  -3   4  -2    2.22    0.59
   3  -4   2    1.20    0.75
   3  -4   2    3.58    0.83
   3  -4   2    0.78    0.68
   3  -4   2    1.64    0.54
  -4   4  -2   87.90    9.13
  -4   4  -2   88.87    9.20
   4  -4   2   84.07    8.53
  -5   4  -2   28.32    3.21
  -5   4  -2   25.89    3.07
   5  -4   2   19.40    2.99
   5  -4   2   29.60    3.29
  -6   4  -2    0.00    1.19
  -6   4  -2    0.20    1.31
   6  -4   2    1.32    1.27
   6  -4   2    1.39    1.11
  -7   4  -2   24.94    3.56
   7  -4   2   22.46    3.35
   7  -4   2   24.57    3.48
  -8   4  -2    6.13    1.83
   8  -4   2    7.72    1.81
   7   3  -2    6.78    2.49
  -7  -3   2    6.65    2.26
   6   3  -2   31.99    4.63
  -6  -3   2   33.40    4.98
  -6  -3   2   41.88    4.87
   5   3  -2   51.40    5.89
  -5  -3   2   56.16    6.45
  -5  -3   2   59.60    6.45
   4   3  -2    1.08    0.75
   4   3  -2    1.70    1.07
  -4  -3   2    2.02    1.18
  -4  -3   2    2.36    1.19
   3   3  -2  146.75   14.11
   3   3  -2  141.81   14.74
  -3  -3   2  125.12   14.82
  -3  -3   2  147.39   15.10
  -3  -3   2  155.48   14.88
   2   3  -2  123.24   13.08
  -2  -3   2  112.43   13.80
  -2  -3   2  154.52   14.04
  -2  -3   2  145.69   13.84
   1   3  -2   33.10    3.68
   1   3  -2   40.72    3.73
   1   3  -2   31.72    3.48
  -1  -3   2   33.90    3.67
  -1  -3   2   32.09    3.65
   0   3  -2  324.61   30.91
   0   3  -2  323.71   29.31
   0   3  -2  264.34   30.98
   0   3  -2  271.62   31.23
   0  -3   2  328.96   31.00
   0  -3   2  289.40   31.00
   0  -3   2  310.22   27.78
  -1   3  -2   45.27    4.33
   1  -3   2   49.91    4.79
   1  -3   2   43.07    4.45
   1  -3   2   43.61    4.78
  -2   3  -2  222.35   22.90
  -2   3  -2  185.51   20.47
   2  -3   2  242.56   21.25
   2  -3   2  233.97   22.77
  -3   3  -2   78.17    8.24
  -3   3  -2   70.62    7.48
   3  -3   2   87.24    8.25
  -4   3  -2    1.20    0.50
  -4   3  -2   -0.81    0.68
  -4   3  -2   -0.48    0.90
   4  -3   2    0.46    0.80
   4  -3   2    0.31    0.64
  -5   3  -2   52.80    5.08
  -5   3  -2   45.89    5.33
   5  -3   2   54.38    5.46
   5  -3   2   47.28    5.10
  -6   3  -2   73.56    7.01
   6  -3   2   54.08    6.35
   6  -3   2   63.02    6.88
  -7   3  -2   21.63    3.19
   7  -3   2   21.42    3.20
  -8   3  -2   46.50    5.10
   8  -3   2   33.83    4.64
   7   2  -2   26.07    4.15
  -7  -2   2   28.51    4.36
   6   2  -2    3.40    1.46
  -6  -2   2    3.14    1.76
  -6  -2   2    4.96    1.61
   5   2  -2   27.33    3.48
  -5  -2   2   28.38    3.58
  -5  -2   2   25.92    3.61
   4   2  -2  134.26   13.18
   4   2  -2  141.45   13.47
  -4  -2   2  107.67   13.55
  -4  -2   2  128.02   13.46
   3   2  -2   16.34    1.97
   3   2  -2   17.92    1.52
   3   2  -2   13.99    1.79
  -3  -2   2   15.77    1.72
  -3  -2   2   13.04    2.08
  -3  -2   2   11.72    1.91
  -3  -2   2   16.19    1.86
   2   2  -2  186.32   17.66
   2   2  -2  166.75   18.52
  -2  -2   2  177.37   18.64
  -2  -2   2  170.19   18.87
  -2  -2   2  202.98   18.66
  -2  -2   2  181.25   18.51
   1   2  -2    5.28    0.79
   1   2  -2    4.55    0.73
   1   2  -2    5.51    0.88
   1   2  -2    3.64    0.66
  -1  -2   2    3.16    0.73
  -1  -2   2    6.56    0.75
  -1  -2   2    4.71    0.75
  -1  -2   2    5.73    0.75
   0   2  -2   19.56    2.41
   0   2  -2   21.75    2.35
   0   2  -2   25.80    2.24
   0   2  -2   21.63    2.35
   0  -2   2   21.99    2.36
  -1   2  -2  115.12   10.31
   1  -2   2  108.24    9.80
   1  -2   2  106.32   10.88
   1  -2   2   93.07   10.88
  -2   2  -2    4.84    0.77
  -2   2  -2    4.15    0.58
  -2   2  -2    3.88    0.63
   2  -2   2    6.19    0.77
   2  -2   2    4.34    0.69
   2  -2   2    4.66    0.66
  -3   2  -2   46.36    4.52
   3  -2   2   39.18    4.88
   3  -2   2   54.07    4.59
  -4   2  -2   55.82    6.04
   4  -2   2   67.21    6.67
   4  -2   2   66.67    6.17
   4  -2   2   60.13    6.61
  -5   2  -2   21.18    2.52
  -5   2  -2   23.09    2.72
   5  -2   2   18.30    2.64
   5  -2   2   21.46    2.50
   6  -2   2   62.73    6.51
   6  -2   2   65.19    6.98
  -7   2  -2    2.40    1.42
   7  -2   2   -0.06    0.89
   7  -2   2    3.15    1.16
  -8   2  -2   16.78    2.66
   8  -2   2   10.31    2.31
   8  -2   2   20.64    2.99
   8  -2   2   15.93    2.43
  -9   2  -2    5.90    2.13
   9  -2   2    6.39    2.09
   7   1  -2   44.30    5.73
  -7  -1   2   44.97    5.75
   6   1  -2   46.24    4.79
  -6  -1   2   37.20    4.30
  -6  -1   2   27.38    4.38
  -5  -1   2   20.55    2.65
  -5  -1   2   13.54    2.34
   4   1  -2  149.58   14.50
   4   1  -2  149.72   13.74
   4   1  -2  142.05   14.15
  -4  -1   2  111.83   14.41
   3   1  -2    1.22    0.37
   3   1  -2    1.68    0.82
   3   1  -2    1.64    0.45
   3   1  -2    0.72    0.64
  -3  -1   2    2.28    0.65
  -3  -1   2    1.31    0.32
  -3  -1   2    0.13    0.70
  -3  -1   2   -0.60    0.69
   2   1  -2   45.78    4.63
   2   1  -2   50.36    4.77
  -2  -1   2   46.31    4.31
  -2  -1   2   38.19    4.97
  -2  -1   2   48.39    4.92
   1   1  -2   71.94    7.91
   1   1  -2   71.82    8.01
   1   1  -2   72.54    7.49
  -1  -1   2   80.31    7.05
  -1  -1   2   86.43    7.85
  -1  -1   2   84.95    7.92
  -1  -1   2   66.11    8.02
   0   1  -2    6.33    0.72
   0   1  -2    6.72    0.76
   0  -1   2    5.39    0.77
   0  -1   2    6.00    0.73
   0  -1   2    4.80    0.72
   0  -1   2    6.52    0.73
   0  -1   2    6.10    0.77
  -1   1  -2  242.57   23.78
  -1   1  -2  244.59   25.14
   1  -1   2  268.64   23.48
   1  -1   2  245.10   25.14
   1  -1   2  223.48   22.60
   2  -1   2   21.41    2.27
   2  -1   2   24.49    2.16
   2  -1   2   20.32    2.27
   2  -1   2   19.26    2.27
  -3   1  -2   81.41    7.87
   3  -1   2   77.13    7.27
   3  -1   2   66.37    7.79
  -4   1  -2  158.32   14.71
  -4   1  -2  127.54   14.52
   4  -1   2  162.20   14.62
   4  -1   2  117.77   13.54
   4  -1   2  137.37   14.54
  -5   1  -2    0.75    0.68
  -5   1  -2    0.09    0.89
   5  -1   2   -0.26    0.60
   5  -1   2    0.34    0.69
   6  -1   2   83.47    7.94
   6  -1   2   64.26    7.36
  -7   1  -2   27.62    3.44
   7  -1   2   23.54    2.86
   7  -1   2   18.35    2.89
   7  -1   2   19.70    2.96
  -8   1  -2   10.12    2.31
   8  -1   2   17.36    2.41
   8  -1   2    9.34    2.15
   8  -1   2    9.56    1.86
   9  -1   2   32.99    4.42
   7   0  -2   13.40    2.43
  -7   0   2   10.57    2.17
  -6   0   2   38.02    5.11
  -6   0   2   51.71    5.14
   5   0  -2    3.24    1.44
  -5   0   2    2.01    0.90
  -5   0   2    3.28    1.02
  -5   0   2    3.40    1.23
   4   0  -2  117.71   11.79
  -4   0   2  106.48   11.71
  -4   0   2  110.44   11.73
   3   0  -2  100.60    9.37
   3   0  -2   75.15    8.82
  -3   0   2   88.81    8.28
  -3   0   2   91.73    9.32
  -3   0   2   97.21    9.32
  -3   0   2   79.00    9.40
   2   0  -2   24.93    2.27
   2   0  -2   20.49    2.00
  -2   0   2   20.10    2.41
  -2   0   2   20.65    2.39
  -2   0   2   17.40    2.32
   1   0  -2  306.72   35.45
   1   0  -2  378.30   31.79
   1   0  -2  384.54   33.52
  -1   0   2  329.73   35.47
  -1   0   2  327.07   35.46
   0   0  -2   17.25    1.83
   0   0  -2   18.88    1.90
   0   0  -2   16.73    1.74
   0   0   2   16.16    1.74
   0   0   2   16.45    1.85
   0   0   2   19.84    1.66
   0   0   2   16.34    1.89
   0   0   2   18.63    1.84
   1   0   2  335.90   34.85
   1   0   2  393.08   37.38
  -2   0  -2  266.11   26.71
  -2   0  -2  269.78   24.91
   2   0   2  258.95   26.95
   2   0   2  224.28   26.71
   2   0   2  281.05   24.91
  -3   0  -2    0.33    0.39
  -3   0  -2    0.37    0.44
   3   0   2   -0.15    0.40
   3   0   2    0.12    0.41
   3   0   2    0.64    0.43
  -4   0  -2  338.06   33.62
  -4   0  -2  335.94   33.94
   4   0   2  305.70   33.61
  -5   0  -2   37.30    4.04
   5   0   2   36.51    4.07
   5   0   2   31.33    3.77
   5   0   2   40.52    4.06
  -6   0  -2   70.85    7.15
   6   0   2   59.78    7.09
   6   0   2   68.89    6.73
  -7   0  -2   27.79    3.86
   7   0   2   27.54    3.45
   7   0   2   27.07    3.48
   7   0   2   25.65    3.41
  -8   0  -2    3.17    1.75
   8   0   2    3.70    1.60
   8   0   2    4.91    1.72
   8   0   2    6.99    1.74
  -9   0  -2   10.29    2.44
   9   0   2   10.88    2.45
   7  -1  -2    3.46    1.71
   7  -1  -2    1.35    1.71
  -7   1   2    0.20    1.51
   6  -1  -2   12.62    2.41
  -6   1   2    8.32    1.96
  -6   1   2   16.50    2.32
  -6   1   2   12.19    1.78
  -5   1   2   55.51    6.06
  -5   1   2   71.68    6.87
   4  -1  -2   -0.09    1.08
   4  -1  -2   -0.15    0.20
   4  -1  -2    1.22    0.87
  -4   1   2    0.33    0.77
  -4   1   2   -0.10    0.59
  -4   1   2   -0.33    0.84
   3  -1  -2  135.54   16.09
  -3   1   2  169.96   17.32
  -3   1   2  188.05   17.47
  -3   1   2  155.99   17.24
  -3   1   2  183.92   15.46
   2  -1  -2  100.64   10.75
  -2   1   2  124.96   11.65
  -2   1   2  106.83   11.55
  -2   1   2  111.36   10.29
   1  -1  -2   65.63    6.73
   1  -1  -2   69.42    7.44
   1  -1  -2   73.00    7.55
  -1   1   2   70.93    7.61
  -1   1   2   84.32    6.74
   0  -1  -2  375.20   43.83
   0  -1  -2  495.56   39.35
   0   1   2  504.29   43.87
   0   1   2  388.25   44.26
   0   1   2  375.18   43.83
  -1  -1  -2   20.65    2.28
  -1  -1  -2   19.79    2.18
  -1  -1  -2   22.50    2.19
   1   1   2   20.93    2.28
   1   1   2   20.97    2.19
  -2  -1  -2  391.04   38.89
  -2  -1  -2  402.21   38.86
   2   1   2  336.59   38.76
   2   1   2  411.61   36.25
   2   1   2  352.19   38.88
  -3  -1  -2  240.10   26.69
  -3  -1  -2  277.53   24.66
   3   1   2  248.47   26.43
   3   1   2  249.22   24.66
   3   1   2  270.94   26.48
   4   1   2   32.02    3.74
   4   1   2   34.70    3.63
   4   1   2   32.96    3.73
  -5  -1  -2   58.45    7.25
   5   1   2   68.09    6.81
   5   1   2   78.58    7.26
  -6  -1  -2   36.44    5.25
  -6  -1  -2   41.64    5.03
   6   1   2   52.90    5.29
   6   1   2   46.59    4.84
   6   1   2   55.08    5.40
  -7  -1  -2   12.98    2.39
   7   1   2   15.48    2.34
   7   1   2   14.40    2.22
   7   1   2   14.68    2.27
  -8  -1  -2  129.61   14.89
   8   1   2  149.42   14.65
   8   1   2  125.63   14.73
   8   1   2  148.82   14.07
   8   1   2  140.97   13.83
  -9  -1  -2    0.29    2.13
   9   1   2   -0.14    1.98
   9   1   2    6.20    1.95
   7  -2  -2   36.58    4.71
  -7   2   2   33.87    3.80
  -7   2   2   33.25    4.46
   6  -2  -2    5.85    1.96
  -6   2   2    3.54    1.43
  -6   2   2    6.57    1.25
  -6   2   2    9.05    1.47
   5  -2  -2  173.26   15.42
  -5   2   2  148.13   16.52
  -5   2   2  149.78   16.31
   4  -2  -2    0.32    1.15
   4  -2  -2    2.09    0.80
  -4   2   2    0.84    0.73
  -4   2   2    0.99    0.90
  -4   2   2    0.28    0.66
   3  -2  -2  144.43   13.36
   3  -2  -2  155.41   14.30
  -3   2   2  117.53   14.29
  -3   2   2  131.62   14.37
  -3   2   2  137.53   12.76
   2  -2  -2   46.72    4.95
   2  -2  -2   43.35    5.28
   2  -2  -2   52.88    5.18
  -2   2   2   46.93    4.72
  -2   2   2   53.74    5.29
  -2   2   2   56.56    5.38
   1  -2  -2   14.60    1.63
   1  -2  -2   15.10    1.58
   1  -2  -2   13.17    1.55
  -1   2   2   14.32    1.47
  -1   2   2   16.93    1.70
  -1   2   2   12.29    1.64
  -1   2   2   13.95    1.62
   0  -2  -2  243.73   23.33
   0  -2  -2  244.53   23.63
   0   2   2  255.80   24.92
   0   2   2  269.32   25.02
   0   2   2  205.27   25.02
  -1  -2  -2   49.96    5.03
  -1  -2  -2   56.45    5.07
  -1  -2  -2   40.97    4.72
   1   2   2   47.58    4.65
   1   2   2   48.79    5.06
   1   2   2   48.66    4.53
  -2  -2  -2   67.28    5.88
  -2  -2  -2   63.77    6.34
   2   2   2   60.97    6.41
   2   2   2   53.97    6.00
   2   2   2   67.75    6.34
   2   2   2   53.11    6.36
  -3  -2  -2  110.86   12.44
   3   2   2  130.68   11.64
  -4  -2  -2    1.99    0.61
  -4  -2  -2    1.07    0.66
   4   2   2    1.73    0.78
   4   2   2    3.53    0.99
   4   2   2    1.46    0.80
   4   2   2    1.74    0.48
   4   2   2    1.74    0.82
  -5  -2  -2   49.39    5.58
  -5  -2  -2   55.63    5.46
   5   2   2   44.49    5.37
   5   2   2   59.38    5.18
   5   2   2   51.48    5.64
   5   2   2   42.20    5.26
  -6  -2  -2   45.04    5.72
  -6  -2  -2   53.82    5.91
   6   2   2   52.50    5.86
   6   2   2   52.96    5.79
   6   2   2   59.24    5.44
   6   2   2   45.90    5.40
  -7  -2  -2    9.12    2.03
   7   2   2    8.54    1.90
   7   2   2   10.63    2.04
   7   2   2    7.03    1.87
   7   2   2    8.51    1.91
  -8  -2  -2   44.78    5.96
   8   2   2   47.07    5.62
   8   2   2   48.13    5.62
   8   2   2   47.99    5.46
  -9  -2  -2   -0.30    1.89
   9   2   2   -4.03    2.04
   9   2   2    2.90    1.97
  -7   3   2   46.03    4.34
  -7   3   2   33.25    4.85
   6  -3  -2    6.96    1.92
  -6   3   2    5.80    1.34
  -6   3   2    2.94    1.27
  -6   3   2    7.14    1.41
   5  -3  -2   39.86    4.06
  -5   3   2   29.86    3.86
  -5   3   2   31.22    3.99
  -5   3   2   35.55    3.55
   4  -3  -2   57.77    6.31
   4  -3  -2   58.16    5.98
  -4   3   2   52.23    5.57
  -4   3   2   63.81    6.35
   3  -3  -2   15.39    2.19
   3  -3  -2   15.92    2.19
  -3   3   2   18.78    1.97
  -3   3   2   16.84    2.39
  -3   3   2   19.07    2.26
  -3   3   2   19.03    2.21
   2  -3  -2  143.60   13.06
  -2   3   2  119.58   12.50
  -2   3   2  137.50   13.99
  -2   3   2  138.80   14.09
   1  -3  -2  252.26   24.29
  -1   3   2  242.25   26.28
  -1   3   2  255.77   23.36
  -1   3   2  262.07   26.02
   0  -3  -2   48.53    4.94
   0   3   2   48.05    5.39
   0   3   2   46.89    4.94
   0   3   2   60.58    5.32
   1   3   2  352.37   35.62
   1   3   2  372.00   35.75
   1   3   2  320.55   35.74
  -2  -3  -2   40.59    4.15
  -2  -3  -2   42.85    4.52
   2   3   2   44.27    4.61
   2   3   2   47.74    4.57
   2   3   2   36.47    4.26
   2   3   2   48.52    4.53
  -3  -3  -2  154.83   14.26
  -3  -3  -2  133.51   15.30
   3   3   2  158.34   15.36
   3   3   2  133.48   14.49
   3   3   2  162.41   15.32
  -4  -3  -2  112.71   10.54
   4   3   2   90.24   10.00
   4   3   2  103.32   10.63
   4   3   2   98.83   10.51
  -5  -3  -2    4.66    1.01
  -5  -3  -2    4.98    1.03
   5   3   2    3.72    1.13
   5   3   2    3.36    1.22
   5   3   2    5.26    1.27
   5   3   2    4.63    1.22
   6   3   2  113.08   10.89
   6   3   2  104.61   11.64
   6   3   2  113.97   11.16
   6   3   2  108.15   11.73
  -7  -3  -2   14.51    2.74
   7   3   2   20.46    2.99
   7   3   2   23.20    2.99
   7   3   2   17.53    2.79
   7   3   2   19.51    2.92
  -8  -3  -2   27.46    4.48
   8   3   2   40.51    4.70
   8   3   2   30.08    4.31
  -9  -3  -2   25.68    4.01
   9   3   2   31.69    4.52
   7  -4  -2   22.29    3.34
  -7   4   2   22.48    2.76
  -7   4   2   20.36    3.18
  -6   4   2   34.01    4.41
  -6   4   2   39.40    3.90
   5  -4  -2    3.00    1.51
  -5   4   2    2.93    0.89
  -5   4   2    3.09    1.15
  -5   4   2    1.82    1.11
   4  -4  -2   58.45    5.49
  -4   4   2   53.34    5.89
  -4   4   2   49.34    5.79
   3  -4  -2   47.93    4.96
   3  -4  -2   49.23    5.26
  -3   4   2   52.42    5.24
  -3   4   2   47.54    4.64
  -3   4   2   43.99    5.19
   2  -4  -2   40.36    3.74
   2  -4  -2   27.93    3.43
  -2   4   2   32.95    3.64
  -2   4   2   36.18    3.57
  -2   4   2   26.79    3.26
  -2   4   2   33.75    3.71
  -2   4   2   36.89    3.80
  -1   4   2  122.12   12.28
  -1   4   2  112.55   11.03
  -1   4   2  120.97   12.41
   0  -4  -2    1.02    0.51
   0  -4  -2    0.99    0.37
   0   4   2   -0.08    0.45
   0   4   2    0.59    0.49
   0   4   2    0.70    0.36
   0   4   2    1.30    0.47
   0   4   2    2.04    0.56
   0   4   2    1.11    0.53
  -1  -4  -2  104.64   10.41
  -1  -4  -2  103.66   11.24
   1   4   2  125.90   11.25
   1   4   2  111.09   11.23
   1   4   2   98.42   10.59
  -2  -4  -2   73.31    6.96
   2   4   2   75.80    7.14
   2   4   2   68.43    7.58
  -3  -4  -2   13.70    1.53
   3   4   2   15.84    1.64
   3   4   2   11.91    1.94
   3   4   2   19.53    1.85
  -4  -4  -2  105.86   10.84
   4   4   2  116.47   10.98
   4   4   2  103.29   10.83
   4   4   2   92.42   10.91
  -5  -4  -2   15.98    2.12
   5   4   2   13.98    2.12
   5   4   2   16.99    2.47
   5   4   2   14.08    2.32
   6   4   2   49.33    5.82
   6   4   2   52.21    6.26
   6   4   2   62.24    6.25
   7   4   2   47.51    6.22
   7   4   2   58.29    6.37
   8   4   2    4.80    1.86
   8   4   2    0.94    1.79
   6  -5  -2    4.12    1.89
  -6   5   2    3.63    1.19
  -6   5   2    4.87    1.34
   5  -5  -2    2.37    1.48
  -5   5   2    1.96    1.15
  -5   5   2    2.33    1.22
  -5   5   2    3.46    1.02
   4  -5  -2    6.08    1.44
  -4   5   2    5.36    1.19
  -4   5   2    6.42    1.26
  -4   5   2    5.89    1.22
   3  -5  -2   57.62    6.62
  -3   5   2   68.15    7.07
  -3   5   2   72.82    6.35
   2  -5  -2   13.81    1.87
  -2   5   2   17.53    1.98
  -2   5   2   11.28    1.85
  -2   5   2   16.01    1.80
  -2   5   2   16.51    1.85
   1  -5  -2   79.73    8.31
   1  -5  -2   75.85    7.73
  -1   5   2   73.88    8.36
  -1   5   2   70.46    8.27
  -1   5   2   83.15    8.25
  -1   5   2   93.48    8.36
   0  -5  -2   43.17    4.26
   0  -5  -2   35.35    3.84
   0   5   2   35.96    3.80
   0   5   2   41.99    4.18
   0   5   2   38.33    3.75
   0   5   2   39.21    4.22
   0   5   2   42.45    4.21
   0   5   2   36.92    4.18
  -1  -5  -2    3.82    0.51
  -1  -5  -2    2.82    0.74
   1   5   2    4.01    0.77
   1   5   2    3.71    0.78
   1   5   2    4.83    0.77
   1   5   2    3.25    0.68
   1   5   2    4.32    0.75
  -2  -5  -2  106.98   11.16
   2   5   2  112.19   11.42
   2   5   2  133.95   12.13
   2   5   2  121.40   10.86
   2   5   2  109.49   12.07
  -3  -5  -2   24.02    2.88
  -3  -5  -2   22.87    2.51
   3   5   2   26.06    2.64
   3   5   2   27.18    2.87
   3   5   2   27.40    2.97
   3   5   2   28.56    3.09
   3   5   2   24.92    2.74
  -4  -5  -2   45.26    4.96
   4   5   2   42.88    4.75
   4   5   2   36.88    5.10
   4   5   2   52.96    5.13
   4   5   2   51.64    4.51
   5   5   2   66.13    6.58
   5   5   2   69.23    7.53
   5   5   2   72.30    7.07
   5   5   2   67.26    7.43
   6   5   2   -1.56    1.44
   6   5   2    0.17    0.94
   6   5   2    1.33    1.32
   6   5   2   -0.53    1.22
   7   5   2   36.14    4.51
   7   5   2   28.80    4.12
   8   5   2   15.74    2.95
   8   5   2   19.69    3.07
   6  -6  -2    5.44    1.91
  -6   6   2    4.46    1.42
  -6   6   2    5.51    1.38
   5  -6  -2   62.43    6.91
  -5   6   2   66.07    7.35
  -5   6   2   71.22    6.64
   4  -6  -2   -0.06    1.14
  -4   6   2    0.60    1.07
  -4   6   2    0.12    1.12
  -4   6   2    0.95    0.92
   3  -6  -2  166.67   16.74
  -3   6   2  200.30   16.15
  -3   6   2  151.72   17.90
   2  -6  -2    2.15    0.80
  -2   6   2    5.19    1.02
  -2   6   2    1.62    0.75
  -2   6   2    2.77    0.94
  -2   6   2    3.78    0.89
   1  -6  -2   74.78    6.93
   1  -6  -2   64.63    7.49
  -1   6   2   69.47    7.49
  -1   6   2   72.80    7.46
   0  -6  -2   57.27    5.40
   0  -6  -2   54.88    5.95
   0   6   2   58.73    5.90
   0   6   2   48.44    5.27
   0   6   2   55.52    5.86
  -1  -6  -2   10.33    1.20
  -1  -6  -2    9.40    1.60
   1   6   2   11.39    1.42
   1   6   2    9.35    1.54
   1   6   2   11.53    1.41
   1   6   2   11.09    1.54
  -2  -6  -2   98.95   10.54
  -2  -6  -2  122.99   11.50
   2   6   2  101.12   11.47
   2   6   2  116.52   10.82
   2   6   2  111.33   10.30
  -3  -6  -2   53.58    6.28
  -3  -6  -2   56.13    5.71
   3   6   2   74.68    6.49
   3   6   2   56.06    6.40
   4   6   2    6.10    1.21
   4   6   2    5.71    1.31
   4   6   2    6.30    1.10
   4   6   2    5.44    1.51
   5   6   2   59.47    6.39
   5   6   2   61.56    5.99
   5   6   2   62.46    6.35
   5   6   2   46.89    5.51
   6   6   2   20.05    3.07
   6   6   2   19.91    3.00
   6   6   2   19.17    2.64
   6   6   2   20.75    3.12
   7   6   2   12.77    2.97
   7   6   2   14.59    2.74
   5  -7  -2   23.54    3.03
  -5   7   2   18.26    3.14
  -5   7   2   22.39    3.02
   4  -7  -2   10.58    1.91
  -4   7   2   13.58    2.23
  -4   7   2   14.27    2.01
   3  -7  -2    3.40    1.04
  -3   7   2    1.44    0.97
  -3   7   2    1.45    1.20
  -3   7   2    1.61    1.01
   2  -7  -2   17.58    2.37
  -2   7   2   17.99    2.67
  -2   7   2   24.45    2.60
  -2   7   2   22.77    2.38
   1  -7  -2   39.70    4.49
  -1   7   2   43.75    4.44
  -1   7   2   50.62    4.91
   0  -7  -2   19.41    2.05
   0   7   2   18.09    2.21
   0   7   2   17.50    2.41
   0   7   2   17.02    2.26
   0   7   2   19.22    2.37
   1   7   2  150.93   14.71
   1   7   2  161.27   15.46
   1   7   2  160.66   16.37
   2   7   2   -0.07    0.91
   2   7   2    0.74    1.11
   2   7   2   -0.14    0.83
   2   7   2   -0.44    0.86
   3   7   2   62.75    7.73
   3   7   2   72.64    6.87
   3   7   2   73.56    7.23
   3   7   2   76.66    7.76
   4   7   2   45.95    5.02
   4   7   2   49.48    5.34
   4   7   2   50.11    4.70
   4   7   2   42.88    5.31
   5   7   2   10.87    1.90
   5   7   2   12.23    1.88
   5   7   2   13.35    2.10
   5   7   2    9.35    2.26
   6   7   2   51.68    5.87
   6   7   2   56.16    6.52
   7   7   2    2.01    1.60
   4  -8  -2   28.45    3.58
  -4   8   2   31.89    3.66
  -3   8   2    2.02    1.36
  -2   8   2   11.95    1.86
  -2   8   2   11.75    2.03
  -2   8   2   13.34    2.18
  -1   8   2   24.53    3.29
  -1   8   2   27.81    3.38
  -1   8   2   27.39    3.27
  -1   8   2   28.19    3.08
   0   8   2   -1.22    0.83
   0   8   2   -1.84    0.92
   0   8   2    0.16    0.96
   0   8   2    0.04    1.08
   1   8   2   34.65    3.82
   1   8   2   38.16    3.70
   1   8   2   33.96    4.10
   2   8   2    8.31    1.43
   2   8   2    9.60    1.56
   2   8   2    9.03    1.83
   2   8   2    9.21    1.46
   3   8   2    8.73    1.70
   3   8   2    7.71    1.69
   3   8   2    9.98    1.57
   3   8   2    9.42    1.59
   4   8   2   36.26    3.99
   4   8   2   30.76    4.42
   5   8   2   -0.10    1.55
   5   8   2   -3.94    1.75
   6   8   2   11.00    1.95
   6   8   2    4.81    2.58
  -3   9   2    5.57    1.56
  -2   9   2    2.54    1.34
  -2   9   2    3.73    1.58
  -1   9   2   25.40    3.57
  -1   9   2   29.08    3.44
   0   9   2    7.65    1.83
   0   9   2    9.12    1.55
   1   9   2   22.07    2.82
   1   9   2   18.65    2.64
   2   9   2   13.88    1.90
   2   9   2   11.99    1.82
   2   9   2    9.16    1.75
   3   9   2   -0.49    1.30
   3   9   2   -0.85    1.73
   4   9   2   13.02    2.88
   4   9   2   19.48    2.54
   0  10   2   14.39    2.18
   0  10   2   11.45    2.21
   1  10   2   -0.12    1.34
   2  10   2   15.58    2.36
   0  -9   3    1.39    1.42
   0  -9   3   -0.29    1.28
   1  -9   3   11.10    2.31
   1  -9   3   12.90    2.10
   2   8  -3    3.53    1.62
   2   8  -3    1.03    1.54
  -2  -8   3   -0.95    1.55
  -2  -8   3   -2.54    1.46
   1   8  -3    4.60    1.44
   1   8  -3    5.65    1.64
  -1  -8   3    0.08    1.56
  -1  -8   3    3.47    1.14
   0   8  -3    7.80    1.63
   0  -8   3   10.26    1.58
   0  -8   3    5.91    1.61
   1  -8   3    0.64    1.21
   1  -8   3    0.47    1.21
   2  -8   3   13.08    1.95
   2  -8   3   12.45    2.20
  -3   8  -3    4.13    1.44
   3  -8   3    1.70    1.34
   3  -8   3    1.11    1.19
  -4   8  -3   12.55    2.13
   4  -8   3    4.46    2.01
   4  -8   3    8.99    1.66
   4   7  -3   -1.92    1.70
   3   7  -3   16.44    2.71
   3   7  -3   18.18    2.50
  -3  -7   3   11.73    2.36
   2   7  -3   11.26    2.10
   2   7  -3   13.05    1.95
  -2  -7   3   11.20    1.77
  -2  -7   3    8.97    1.78
   1   7  -3    5.11    1.27
   1   7  -3    5.18    1.49
  -1  -7   3    3.77    1.31
  -1  -7   3    4.66    1.28
   0   7  -3   40.97    3.82
   0  -7   3   34.93    3.99
   0  -7   3   28.03    3.60
  -1   7  -3    0.57    0.93
   1  -7   3   -0.22    0.99
   1  -7   3   -0.07    1.00
  -2   7  -3   20.25    2.80
   2  -7   3   26.81    2.88
   2  -7   3   23.22    3.13
  -3   7  -3   11.50    1.94
   3  -7   3   11.94    1.99
   3  -7   3   11.92    1.83
  -4   7  -3    4.96    1.77
   4  -7   3    3.23    1.32
   4  -7   3    1.59    1.53
  -5   7  -3   16.56    2.36
   5  -7   3   10.48    2.14
   5  -7   3   15.02    2.23
  -6   7  -3    4.96    1.72
   6  -7   3    1.35    1.62
   6  -7   3    3.68    1.61
   5   6  -3   28.73    4.08
  -5  -6   3   26.89    4.21
   4   6  -3    4.00    1.51
  -4  -6   3    0.57    1.67
   3   6  -3   11.14    1.80
   3   6  -3    9.79    1.88
  -3  -6   3    5.10    1.65
   2   6  -3    2.20    1.50
   2   6  -3    3.62    1.27
  -2  -6   3    1.15    1.20
   1   6  -3    1.54    0.83
   1   6  -3    1.22    1.09
  -1  -6   3    0.79    0.89
  -1  -6   3    0.69    0.92
   0   6  -3   21.10    3.22
   0   6  -3   26.03    2.88
   0  -6   3   31.20    3.27
   0  -6   3   27.38    2.95
  -1   6  -3   11.80    1.75
  -1   6  -3   11.56    1.62
   1  -6   3   11.98    1.93
   1  -6   3   10.80    1.71
  -2   6  -3    8.80    1.62
   2  -6   3   12.67    1.93
   2  -6   3   12.79    1.82
  -3   6  -3   20.40    3.03
   3  -6   3   28.52    3.40
   3  -6   3   31.63    3.14
  -4   6  -3    0.86    1.41
   4  -6   3    1.10    1.13
   4  -6   3    1.01    1.26
  -5   6  -3   14.18    2.15
   5  -6   3    9.34    1.90
   5  -6   3   12.40    1.99
  -6   6  -3   10.26    1.98
   6  -6   3    9.23    1.90
   6  -6   3    8.63    1.91
   7  -6   3    0.53    1.77
   7  -6   3    1.62    1.59
   5   5  -3    6.53    1.82
  -5  -5   3    4.82    2.10
  -5  -5   3    7.25    1.85
   4   5  -3   28.61    3.34
  -4  -5   3   21.72    3.60
  -4  -5   3   26.14    3.48
   3   5  -3   27.56    3.17
   3   5  -3   25.90    3.44
  -3  -5   3   26.33    3.39
  -3  -5   3   31.09    3.50
   2   5  -3  129.31   12.77
   2   5  -3  125.04   12.07
  -2  -5   3  128.37   12.74
  -2  -5   3  106.47   12.77
   1   5  -3  140.17   13.59
  -1  -5   3  135.97   14.33
   0   5  -3   64.70    7.78
   0   5  -3   79.45    7.38
   0  -5   3   74.34    7.78
   0  -5   3   77.22    7.28
  -1   5  -3  101.11    9.19
  -1   5  -3  108.43    9.68
   1  -5   3   84.49   10.18
  -2   5  -3    1.79    0.90
   2  -5   3    0.94    0.82
   2  -5   3    1.29    0.81
  -3   5  -3   41.80    4.59
   3  -5   3   40.81    4.90
   3  -5   3   49.60    4.59
  -4   5  -3   46.76    5.17
   4  -5   3   50.72    5.19
   4  -5   3   52.42    5.54
  -5   5  -3    0.72    1.33
   5  -5   3    1.13    1.28
   5  -5   3    1.48    1.09
   6  -5   3   31.28    4.04
   6  -5   3   30.32    3.71
   7  -5   3    6.51    1.56
   7  -5   3    6.44    1.91
   6   4  -3   19.65    3.71
  -6  -4   3   28.50    3.99
  -6  -4   3   28.30    4.23
   5   4  -3   -1.25    1.68
  -5  -4   3   -1.77    1.50
  -5  -4   3   -1.67    1.66
   4   4  -3   54.42    6.07
  -4  -4   3   58.23    6.50
  -4  -4   3   57.83    6.38
   3   4  -3   49.12    5.46
  -3  -4   3   46.27    5.57
  -3  -4   3   53.34    5.48
   2   4  -3   39.54    4.62
   2   4  -3   49.16    4.96
  -2  -4   3   47.79    5.02
   1   4  -3   38.97    4.03
   1   4  -3   35.04    3.77
  -1  -4   3   35.27    3.95
   0   4  -3    2.00    0.68
   0   4  -3    1.38    0.29
   0  -4   3    1.20    0.60
   0  -4   3    0.80    0.39
   0  -4   3    1.10    0.56
  -1   4  -3    2.46    0.68
  -1   4  -3    0.96    0.53
   1  -4   3    0.90    0.58
   1  -4   3    1.35    0.54
   1  -4   3    1.20    0.69
  -2   4  -3   97.90   10.02
  -2   4  -3  116.54   11.07
   2  -4   3  102.44   11.08
   2  -4   3  120.36   10.38
   2  -4   3   95.70   11.06
  -3   4  -3    2.85    0.60
  -3   4  -3    3.42    1.07
   3  -4   3    4.02    0.93
   3  -4   3    1.96    0.77
  -4   4  -3   52.83    5.73
  -4   4  -3   55.93    6.08
   4  -4   3   63.61    5.78
  -5   4  -3   15.10    2.30
  -5   4  -3   16.08    2.26
   5  -4   3   19.53    2.43
   5  -4   3   18.59    2.49
  -6   4  -3    3.12    1.01
   6  -4   3    3.17    1.37
   6  -4   3    5.18    1.24
   7  -4   3   32.72    4.09
   7  -4   3   35.57    4.27
   8  -4   3    0.73    1.72
   8  -4   3    2.44    1.57
   6   3  -3   19.63    3.17
  -6  -3   3   24.67    3.71
  -6  -3   3   18.63    3.24
   5   3  -3   25.60    3.72
  -5  -3   3   29.83    3.84
  -5  -3   3   23.28    3.80
   4   3  -3    1.20    1.30
  -4  -3   3    1.82    1.19
  -4  -3   3    0.59    1.29
   3   3  -3   99.08   10.57
   3   3  -3  108.43   10.15
  -3  -3   3   97.53   10.67
   2   3  -3    6.54    1.22
   2   3  -3    7.93    1.37
   2   3  -3    9.76    1.45
  -2  -3   3    7.78    1.33
  -2  -3   3   11.41    1.43
  -2  -3   3   11.63    1.44
   1   3  -3   26.22    3.25
   1   3  -3   30.62    3.40
   1   3  -3   33.92    3.49
  -1  -3   3   34.02    3.45
  -1  -3   3   34.23    3.52
   0   3  -3   71.73    8.75
   0   3  -3   84.85    8.32
   0   3  -3   85.19    8.80
   0  -3   3   80.46    8.77
   0  -3   3   93.15    8.79
   0  -3   3   92.14    7.82
  -1   3  -3    0.07    0.36
  -1   3  -3    1.09    0.51
   1  -3   3    1.07    0.47
   1  -3   3    1.39    0.47
   1  -3   3    0.69    0.56
   2  -3   3  147.97   13.21
   2  -3   3  125.89   14.12
  -3   3  -3   10.27    1.44
   3  -3   3   11.41    1.43
   3  -3   3   10.85    1.51
   3  -3   3   11.83    1.54
   3  -3   3   13.35    1.54
  -4   3  -3   21.01    2.58
  -4   3  -3   22.54    2.57
   4  -3   3   25.58    2.69
   4  -3   3   21.91    2.63
   4  -3   3   24.33    2.49
  -5   3  -3   43.61    4.94
   5  -3   3   47.60    4.60
   5  -3   3   43.56    4.99
  -6   3  -3   -0.37    0.85
   6  -3   3    1.27    0.95
   6  -3   3   -0.60    1.09
  -7   3  -3   33.21    4.35
   7  -3   3   34.26    4.13
   7  -3   3   42.11    4.54
  -8   3  -3    1.52    1.45
   8  -3   3    5.25    1.42
   8  -3   3    1.40    1.50
   7   2  -3   14.03    2.92
  -7  -2   3   15.55    2.88
   6   2  -3    8.68    2.26
  -6  -2   3   11.38    2.19
  -6  -2   3    9.82    2.08
   5   2  -3   61.85    6.61
  -5  -2   3   66.76    6.93
  -5  -2   3   55.66    6.91
   4   2  -3    0.43    1.09
  -4  -2   3   -0.48    1.02
  -4  -2   3   -1.89    1.01
   3   2  -3  125.11   10.94
   3   2  -3  129.54   12.41
  -3  -2   3  111.38   12.57
  -3  -2   3  107.44   12.43
   2   2  -3   16.89    1.91
   2   2  -3   12.67    1.80
  -2  -2   3   16.72    2.00
  -2  -2   3   17.30    1.93
   1   2  -3   33.98    3.30
  -1  -2   3   33.65    3.33
  -1  -2   3   29.57    3.31
  -1  -2   3   25.95    3.38
   0   2  -3  109.09    9.91
   0   2  -3  101.96   10.44
   0   2  -3   98.65   10.54
   0  -2   3  111.37    9.37
   0  -2   3   91.16   10.56
   0  -2   3   95.55   10.45
  -1   2  -3   37.15    3.98
  -1   2  -3   37.54    3.81
   1  -2   3   35.86    4.00
   1  -2   3   43.17    3.80
   2  -2   3  192.97   20.67
   2  -2   3  205.46   20.52
   2  -2   3  200.46   20.52
  -3   2  -3   96.84   10.44
   3  -2   3  110.05   10.46
   3  -2   3   95.76   10.52
  -4   2  -3    8.06    1.21
   4  -2   3   11.54    1.39
   4  -2   3    7.64    1.14
   4  -2   3    7.97    1.20
  -5   2  -3  127.68   12.68
   5  -2   3  112.83   11.71
  -6   2  -3   14.39    2.52
   6  -2   3   20.15    2.49
   6  -2   3   21.56    2.56
  -7   2  -3   12.30    2.14
   7  -2   3   16.40    2.42
   7  -2   3   13.55    2.09
  -8   2  -3   33.70    4.49
   8  -2   3   34.62    4.33
  -9   2  -3    4.67    2.15
   9  -2   3    5.90    1.89
  -7  -1   3   54.37    6.31
   6   1  -3    2.21    1.79
  -6  -1   3    3.01    1.51
   5   1  -3   33.15    3.81
  -5  -1   3   28.30    4.06
  -5  -1   3   36.18    4.15
   4   1  -3   45.40    4.72
  -4  -1   3   40.20    4.95
  -4  -1   3   44.42    4.97
   3   1  -3    0.75    0.39
   3   1  -3    1.06    0.68
   3   1  -3    0.29    0.73
  -3  -1   3    0.88    0.47
  -3  -1   3   -0.72    0.83
  -3  -1   3    0.53    0.85
  -3  -1   3    1.63    0.68
   2   1  -3   97.65    8.63
  -2  -1   3   82.21    9.14
  -2  -1   3   82.55    8.94
   1   1  -3  131.04   14.53
  -1  -1   3  140.97   13.00
  -1  -1   3  151.68   14.57
   0   1  -3  114.95   12.63
   0   1  -3  141.49   13.34
   0  -1   3  125.71   13.50
   0  -1   3  145.99   11.97
   0  -1   3  141.91   13.35
   0  -1   3  108.14   13.30
  -1   1  -3  376.81   38.50
   1  -1   3  335.48   38.50
   1  -1   3  347.93   38.88
   1  -1   3  442.12   38.51
  -2   1  -3   20.30    1.87
   2  -1   3   16.02    1.86
   2  -1   3   14.91    1.79
  -3   1  -3  139.68   13.16
   3  -1   3  130.17   13.15
   3  -1   3  112.33   13.14
  -4   1  -3   76.35    7.38
   4  -1   3   68.69    6.82
   4  -1   3   63.93    7.30
  -5   1  -3   10.59    1.50
  -5   1  -3   11.56    1.60
   5  -1   3    8.36    1.33
   5  -1   3    7.46    1.46
   5  -1   3    8.37    1.26
   6  -1   3   80.83    9.17
   6  -1   3   92.51    8.60
  -7   1  -3    6.63    1.69
   7  -1   3    6.08    1.34
   7  -1   3    4.27    1.37
  -8   1  -3   22.25    3.17
   8  -1   3   14.82    2.65
   8  -1   3   25.57    3.23
   8  -1   3   20.37    2.93
  -9   1  -3   28.81    4.52
   9  -1   3   29.92    4.05
   7   0  -3   25.25    3.79
  -7   0   3   24.94    3.80
   6   0  -3   28.08    4.02
  -6   0   3   31.45    3.69
  -6   0   3   23.31    3.50
   5   0  -3    3.69    1.62
  -5   0   3    4.54    0.97
  -5   0   3    4.30    1.24
  -5   0   3    2.24    1.25
   4   0  -3   96.03    8.69
  -4   0   3   80.74    9.17
  -4   0   3   82.71    8.00
  -4   0   3   82.17    9.05
   3   0  -3   24.79    3.05
   3   0  -3   26.54    2.93
  -3   0   3   24.97    3.04
  -3   0   3   27.92    3.03
  -3   0   3   25.61    3.11
  -3   0   3   24.61    2.57
   2   0  -3  104.26    9.94
   2   0  -3  110.76   10.52
  -2   0   3   96.37   10.63
  -2   0   3   92.51    9.36
  -2   0   3  101.64   10.54
   1   0  -3  240.04   21.24
  -1   0   3  214.99   23.72
  -1   0   3  251.56   23.96
  -1   0   3  215.71   21.23
   0   0  -3    5.88    0.83
   0   0  -3    8.66    0.83
   0   0   3    8.52    0.95
   0   0   3    6.99    0.80
   0   0   3    8.93    1.01
   0   0   3    6.92    0.90
  -1   0  -3  186.68   19.39
   1   0   3  213.09   19.40
   2   0   3   64.03    5.62
   2   0   3   49.19    5.62
   2   0   3   49.66    5.26
  -3   0  -3    4.51    0.68
   3   0   3    4.87    0.71
   3   0   3    4.03    0.64
   3   0   3    2.82    0.62
  -4   0  -3  108.15   12.17
   4   0   3  112.71   12.19
   4   0   3  131.36   12.20
  -5   0  -3    7.49    1.33
  -5   0  -3    9.85    1.44
   5   0   3    8.04    1.35
   5   0   3    8.73    1.39
   5   0   3   10.82    1.48
  -6   0  -3   38.67    4.63
   6   0   3   38.02    4.18
   6   0   3   40.38    4.53
   6   0   3   41.46    4.58
   7   0   3   26.97    3.11
   7   0   3   19.67    3.17
   7   0   3   24.33    2.89
  -8   0  -3   -1.87    1.59
   8   0   3    1.16    1.52
   8   0   3    1.58    1.25
   8   0   3    4.83    1.36
  -9   0  -3   43.96    5.77
   9   0   3   46.69    5.25
   7  -1  -3    9.24    2.13
  -7   1   3    7.23    1.96
  -6   1   3   56.85    5.30
  -6   1   3   42.90    6.07
  -6   1   3   60.44    6.16
   5  -1  -3   13.73    2.04
  -5   1   3   14.85    2.21
  -5   1   3    9.19    1.84
  -5   1   3   10.30    1.56
   4  -1  -3  102.43    9.94
  -4   1   3   96.25   10.37
  -4   1   3   96.98    9.24
   3  -1  -3   56.40    7.01
  -3   1   3   72.82    7.06
  -3   1   3   59.41    7.11
  -3   1   3   67.47    6.23
  -3   1   3   76.60    7.17
   2  -1  -3    6.62    1.20
   2  -1  -3    7.95    1.23
  -2   1   3    9.67    1.18
  -2   1   3    7.57    0.94
  -2   1   3    7.99    1.30
   1  -1  -3  121.60   12.14
   1  -1  -3  132.32   11.46
  -1   1   3  128.29   11.99
  -1   1   3  130.78   12.16
  -1   1   3  108.42   12.25
  -1   1   3   98.24   12.10
  -1   1   3  101.34   10.85
   0   1   3   91.93    9.34
   0   1   3   91.74    9.37
   0   1   3   88.63    8.41
   1   1   3   34.23    3.26
   1   1   3   34.06    3.46
   1   1   3   32.98    3.46
   1   1   3   32.83    3.58
   2   1   3  154.34   15.87
  -3  -1  -3   11.52    1.06
  -3  -1  -3   11.05    1.12
   3   1   3    6.64    1.31
   3   1   3    7.80    1.15
   3   1   3    9.32    1.09
   3   1   3    8.91    1.27
   4   1   3   80.01    7.23
   4   1   3   67.37    7.85
  -5  -1  -3   46.34    5.07
  -5  -1  -3   50.58    5.24
   5   1   3   41.42    5.16
   5   1   3   49.69    4.79
   5   1   3   48.84    5.11
  -6  -1  -3    4.52    1.27
   6   1   3    3.58    1.05
   6   1   3    4.07    1.26
   6   1   3    7.08    1.40
  -7  -1  -3   57.66    7.87
   7   1   3   85.83    7.89
   7   1   3   71.05    7.79
   7   1   3   70.29    7.23
  -8  -1  -3    2.37    1.69
   8   1   3    4.30    1.60
   8   1   3    5.44    1.58
   8   1   3    2.40    1.60
  -9  -1  -3   27.99    4.93
   9   1   3   37.36    4.60
   9   1   3   43.57    4.74
  -7   2   3   10.13    2.13
  -6   2   3   16.82    2.80
  -6   2   3   20.50    2.37
  -5   2   3   45.76    5.27
  -5   2   3   45.48    4.52
   4  -2  -3   -1.22    1.23
  -4   2   3    0.43    0.72
  -4   2   3    0.55    0.86
  -4   2   3    0.61    0.79
   3  -2  -3   58.82    6.02
  -3   2   3   63.91    5.64
  -3   2   3   51.20    6.29
  -3   2   3   63.42    6.40
   2  -2  -3  177.12   20.68
   2  -2  -3  206.71   20.49
   2  -2  -3  230.85   19.34
  -2   2   3  178.32   20.70
  -2   2   3  208.78   18.53
   1  -2  -3    9.85    1.33
   1  -2  -3   13.25    1.47
  -1   2   3   10.61    1.37
  -1   2   3   11.32    1.26
  -1   2   3    9.79    1.51
  -1   2   3   11.71    1.45
  -1   2   3   13.59    1.29
   0  -2  -3  510.46   57.75
   0   2   3  513.95   58.57
   0   2   3  672.31   57.75
   0   2   3  565.14   57.98
  -1  -2  -3   12.75    1.35
   1   2   3   11.01    1.25
   1   2   3   13.01    1.48
  -2  -2  -3  353.02   37.68
   2   2   3  362.77   37.63
   2   2   3  371.26   35.13
   2   2   3  382.51   37.69
  -3  -2  -3  118.11   13.47
   3   2   3  121.80   13.49
   3   2   3  130.17   12.58
   3   2   3  157.16   13.64
  -4  -2  -3   41.10    4.28
   4   2   3   41.48    4.18
   4   2   3   37.67    4.54
   5   2   3  167.61   17.89
   5   2   3  186.52   19.27
   5   2   3  185.19   19.16
   5   2   3  190.98   19.27
   5   2   3  197.80   18.24
   6   2   3   13.54    2.11
   6   2   3   17.89    2.61
   6   2   3   13.76    2.17
   6   2   3   14.06    2.00
  -7  -2  -3   50.07    6.42
   7   2   3   63.94    6.45
   7   2   3   54.63    6.38
   7   2   3   55.56    5.86
   7   2   3   53.98    6.00
  -8  -2  -3   37.72    5.95
   8   2   3   50.07    5.63
   8   2   3   52.60    5.96
   8   2   3   48.44    5.98
   8   2   3   54.24    5.48
  -9  -2  -3   -2.53    1.91
   9   2   3    1.54    1.85
   9   2   3   -1.46    1.78
  -7   3   3   20.83    2.75
   6  -3  -3   -1.37    1.92
  -6   3   3    1.47    1.26
  -6   3   3   -0.36    1.18
  -6   3   3    1.48    0.94
   5  -3  -3   36.59    4.18
  -5   3   3   34.45    3.56
  -5   3   3   36.40    4.10
  -5   3   3   28.31    4.06
   4  -3  -3   23.47    2.88
  -4   3   3   19.67    2.76
  -4   3   3   24.68    2.38
  -4   3   3   17.26    2.62
   3  -3  -3   14.06    1.91
   3  -3  -3   12.44    1.91
  -3   3   3   12.44    1.55
  -3   3   3   14.20    1.94
  -3   3   3    9.92    1.75
   2  -3  -3  105.27   12.54
   2  -3  -3  127.90   11.87
  -2   3   3  133.19   12.52
  -2   3   3  125.75   11.37
  -2   3   3  116.82   12.81
  -2   3   3  123.86   12.72
   1  -3  -3    9.74    1.25
   1  -3  -3   12.67    1.38
  -1   3   3    9.28    1.29
  -1   3   3    9.35    1.22
  -1   3   3   13.00    1.51
  -1   3   3    7.83    1.37
   0  -3  -3   78.21    8.53
   0  -3  -3   84.20    8.01
   0   3   3   81.43    8.53
   0   3   3   81.26    7.97
   0   3   3   77.95    8.51
   0   3   3   84.84    8.50
   0   3   3   88.00    7.68
  -1  -3  -3    2.81    0.49
  -1  -3  -3    2.64    0.41
   1   3   3    2.53    0.45
   1   3   3    2.08    0.46
   1   3   3    2.90    0.40
   1   3   3    3.55    0.65
   1   3   3    1.39    0.50
  -2  -3  -3    1.28    0.31
  -2  -3  -3    0.90    0.37
   2   3   3    0.58    0.31
   2   3   3    0.96    0.41
   2   3   3    0.79    0.49
   2   3   3    1.16    0.61
   2   3   3    0.79    0.29
  -3  -3  -3   86.69    7.38
  -3  -3  -3   78.69    7.98
   3   3   3   72.70    8.11
   3   3   3   82.32    7.42
   3   3   3   64.54    7.55
   3   3   3   74.31    7.98
  -4  -3  -3   33.13    3.83
  -4  -3  -3   29.65    3.54
   4   3   3   42.01    3.67
   4   3   3   39.82    3.75
   4   3   3   39.85    4.20
  -5  -3  -3   43.63    4.89
   5   3   3   45.66    4.65
   5   3   3   49.28    4.80
   5   3   3   41.27    5.19
   5   3   3   46.12    5.05
   6   3   3   81.73    8.21
   6   3   3   78.74    8.72
   6   3   3   69.89    8.61
   6   3   3   88.48    8.03
   7   3   3   -1.92    1.38
   7   3   3   -1.24    1.51
   7   3   3   -0.35    1.43
   7   3   3    0.45    1.46
   8   3   3   43.90    5.95
   8   3   3   46.11    5.88
   8   3   3   45.88    5.31
   8   3   3   52.03    5.70
   9   3   3    8.26    2.56
   9   3   3    7.99    2.55
   6  -4  -3    6.42    2.16
  -6   4   3    7.35    1.33
  -6   4   3    6.93    1.74
  -6   4   3    7.48    1.64
   5  -4  -3   19.69    2.76
  -5   4   3   17.72    2.86
  -5   4   3   17.87    2.45
  -5   4   3   21.05    2.84
  -4   4   3   38.12    3.91
  -4   4   3   28.56    3.69
  -4   4   3   30.89    3.35
   3  -4  -3    3.20    1.15
  -3   4   3    2.17    0.89
  -3   4   3    4.21    0.98
  -3   4   3    3.45    1.06
   2  -4  -3  114.43   11.20
   2  -4  -3  127.99   11.99
  -2   4   3  119.08   10.73
  -2   4   3   93.84   11.81
  -2   4   3  121.30   12.11
   1  -4  -3   65.99    6.41
  -1   4   3   63.48    6.88
  -1   4   3   75.78    6.88
  -1   4   3   59.68    6.93
  -1   4   3   61.98    6.18
   0  -4  -3   40.56    3.86
   0  -4  -3   34.59    4.17
   0   4   3   34.35    3.86
   0   4   3   41.01    3.79
   0   4   3   39.11    4.19
   0   4   3   46.54    4.20
  -1  -4  -3  196.63   19.08
  -1  -4  -3  174.68   20.22
   1   4   3  195.66   19.08
   1   4   3  181.12   18.78
   1   4   3  213.80   18.18
   1   4   3  192.30   20.17
   1   4   3  221.07   20.23
  -2  -4  -3   46.44    4.62
   2   4   3   45.35    4.60
   2   4   3   39.38    4.33
   3   4   3  203.29   20.34
   3   4   3  205.81   21.51
   3   4   3  218.34   21.56
  -4  -4  -3  102.53    9.57
   4   4   3  107.11   10.34
   4   4   3   99.43   10.40
   4   4   3   94.75   10.48
   4   4   3   98.50    9.33
   4   4   3   92.93    9.80
   5   4   3    7.08    1.21
   5   4   3    5.33    1.50
   5   4   3    6.40    1.31
   6   4   3   65.20    7.52
   6   4   3   73.18    7.53
   6   4   3   64.68    6.99
   7   4   3   18.03    2.92
   7   4   3   19.15    2.96
   7   4   3   23.38    3.18
   8   4   3   15.16    2.63
   8   4   3   11.22    2.40
   8   4   3   10.40    2.82
   6  -5  -3   34.98    4.05
  -6   5   3   28.46    3.89
  -6   5   3   25.89    3.37
   5  -5  -3    0.04    1.58
  -5   5   3    0.65    1.19
  -5   5   3    2.18    1.02
  -5   5   3    0.60    1.32
   4  -5  -3   90.08    7.72
  -4   5   3   77.10    8.10
  -4   5   3   64.58    7.21
  -4   5   3   70.69    8.06
   3  -5  -3   64.98    6.95
  -3   5   3   72.43    7.38
   2  -5  -3  100.76    9.06
  -2   5   3   93.95    9.65
  -2   5   3   82.27    9.52
   1  -5  -3   90.27    8.32
  -1   5   3   78.95    8.82
  -1   5   3   86.36    9.02
   0  -5  -3    0.04    0.58
   0  -5  -3   -0.05    0.45
   0   5   3   -0.74    0.57
   0   5   3   -1.01    0.45
   0   5   3    0.85    0.63
   0   5   3   -0.14    0.62
   0   5   3   -0.78    0.62
   0   5   3    0.74    0.61
  -1  -5  -3   39.79    4.38
   1   5   3   37.06    4.08
   1   5   3   40.69    4.42
   1   5   3   44.30    3.97
   1   5   3   42.40    4.37
  -2  -5  -3  122.06   14.58
   2   5   3  153.82   14.62
   2   5   3  145.70   13.12
   2   5   3  155.73   14.63
   2   5   3  129.10   14.56
  -3  -5  -3    0.43    0.55
   3   5   3    0.15    0.68
   3   5   3    1.33    0.78
   3   5   3    0.80    0.57
   3   5   3    0.85    0.72
   3   5   3    0.67    0.53
   4   5   3  100.77   10.24
   4   5   3  106.33    9.74
   5   5   3   32.70    3.48
   5   5   3   36.17    3.74
   5   5   3   31.87    4.05
   6   5   3   16.43    2.24
   6   5   3   14.51    2.31
   6   5   3   11.59    2.40
   6   5   3   13.07    1.87
   7   5   3   43.51    6.18
   7   5   3   56.23    5.82
   7   5   3   56.54    6.36
   8   5   3   -0.38    1.81
   8   5   3    0.81    1.84
   5  -6  -3   22.30    3.21
  -5   6   3   21.81    2.97
  -5   6   3   24.09    3.40
   4  -6  -3    3.81    1.53
  -4   6   3    4.52    1.33
  -4   6   3    3.92    1.31
  -4   6   3    3.92    1.27
   3  -6  -3   30.59    3.77
  -3   6   3   38.36    3.96
  -3   6   3   30.94    3.86
  -3   6   3   30.68    3.48
   2  -6  -3   19.18    2.50
  -2   6   3   23.08    2.42
  -2   6   3   17.63    2.52
  -2   6   3   23.09    2.64
  -2   6   3   17.27    2.33
   1  -6  -3    1.34    0.76
  -1   6   3    1.54    0.84
  -1   6   3    1.67    0.92
  -1   6   3    0.35    0.81
  -1   6   3    1.06    0.71
   0   6   3  185.64   20.43
   0   6   3  256.11   22.71
  -1  -6  -3   29.33    3.65
  -1  -6  -3   29.58    3.14
   1   6   3   34.03    3.29
   1   6   3   38.12    3.70
   2   6   3  279.48   27.40
   2   6   3  259.65   25.92
   2   6   3  260.30   27.47
   3   6   3   44.95    4.61
   3   6   3   38.21    4.20
   3   6   3   40.53    4.05
   3   6   3   39.21    4.64
   4   6   3   34.27    3.66
   4   6   3   30.58    4.03
   4   6   3   33.83    4.19
   4   6   3   37.89    3.60
   5   6   3   55.06    5.26
   5   6   3   51.03    5.53
   5   6   3   51.56    6.18
   5   6   3   56.37    6.09
   6   6   3    0.40    1.69
   6   6   3    2.62    1.42
   6   6   3    2.57    1.34
   6   6   3    2.24    1.39
   7   6   3   27.08    4.97
   7   6   3   33.90    4.62
   7   6   3   41.78    4.08
   7   6   3   38.23    4.95
   8   6   3    9.00    2.76
   8   6   3    9.12    2.71
   4  -7  -3    1.13    1.64
  -4   7   3    0.58    1.33
  -4   7   3    2.53    1.38
  -4   7   3    2.49    1.24
   3  -7  -3   18.58    2.51
  -3   7   3   15.84    2.65
  -3   7   3   19.14    2.47
  -3   7   3   18.62    2.67
   2  -7  -3   32.19    3.60
  -2   7   3   33.42    3.52
  -2   7   3   36.79    3.74
  -2   7   3   25.73    3.70
  -2   7   3   34.98    3.82
   1  -7  -3    6.17    1.14
  -1   7   3    5.45    1.20
  -1   7   3    5.88    1.24
  -1   7   3    7.32    1.30
  -1   7   3    3.16    0.98
   0   7   3  100.74    9.76
   0   7   3   85.46    9.65
   0   7   3   88.73    9.59
   1   7   3    4.68    1.22
   1   7   3    2.52    0.97
   2   7   3   34.65    4.24
   2   7   3   45.59    4.19
   2   7   3   41.16    4.61
   2   7   3   45.91    4.67
   3   7   3    1.15    0.90
   3   7   3    1.70    1.02
   3   7   3    1.93    1.00
   3   7   3    1.48    1.01
   4   7   3    1.40    1.20
   4   7   3    2.27    0.99
   4   7   3    2.55    1.12
   4   7   3    1.74    1.54
   5   7   3   18.43    2.55
   5   7   3   21.77    2.60
   5   7   3   17.53    3.01
   5   7   3   19.96    2.92
   6   7   3   23.99    2.94
   6   7   3   22.55    2.95
   6   7   3   16.25    3.36
   6   7   3   20.05    3.48
   7   7   3    9.21    2.02
   7   7   3   -0.51    2.47
  -4   8   3   14.72    2.49
  -3   8   3   -0.20    1.16
  -3   8   3    1.28    1.43
  -2   8   3   24.44    3.24
  -2   8   3   24.62    3.37
  -2   8   3   28.75    3.19
  -2   8   3   28.46    3.32
  -1   8   3   15.60    2.26
  -1   8   3   11.31    1.85
  -1   8   3   13.29    2.28
  -1   8   3   15.49    2.32
   0   8   3   17.18    2.87
   0   8   3   25.77    2.72
   0   8   3   23.34    2.84
   0   8   3   21.17    2.84
   1   8   3   53.90    5.51
   1   8   3   59.73    6.10
   1   8   3   49.33    6.07
   1   8   3   61.01    6.22
   2   8   3   -0.06    1.00
   2   8   3    0.95    1.33
   2   8   3   -0.51    1.05
   3   8   3   63.09    6.60
   3   8   3   64.04    5.99
   3   8   3   58.60    6.15
   3   8   3   53.10    6.56
   4   8   3   54.68    5.73
   4   8   3   55.96    6.06
   4   8   3   49.59    6.23
   4   8   3   51.54    5.34
   5   8   3   16.94    3.27
   5   8   3   18.25    2.92
   5   8   3   24.90    3.54
   5   8   3   27.02    2.89
   6   8   3   41.64    5.77
  -2   9   3   16.95    2.79
  -2   9   3   20.42    2.74
  -1   9   3   35.44    3.76
  -1   9   3   30.34    3.93
   0   9   3    4.95    1.14
   0   9   3    3.71    1.35
   0   9   3    4.18    1.44
   0   9   3    2.47    1.25
   1   9   3   20.24    3.41
   1   9   3   24.63    3.33
   1   9   3   24.68    3.00
   1   9   3   25.90    2.99
   2   9   3    8.48    1.64
   2   9   3    8.16    1.57
   2   9   3    9.78    2.05
   3   9   3    0.33    1.08
   3   9   3    2.83    1.19
   3   9   3   -1.59    1.68
   4   9   3   43.51    5.44
   4   9   3   47.13    4.86
   4   9   3   34.19    4.74
   5   9   3    0.67    1.84
   5   9   3   -0.12    2.29
   0  10   3   15.70    2.40
   1  10   3    0.12    1.51
   1  10   3    4.22    1.42
   2  10   3   35.17    4.38
   2  10   3   30.67    3.84
   1   8  -4   12.52    2.11
  -1  -8   4   10.58    2.31
  -1  -8   4   13.04    1.98
   0   8  -4   -0.64    1.39
   0  -8   4    2.66    1.14
   0  -8   4   -1.46    1.37
   1  -8   4   27.42    3.69
   1  -8   4   26.22    3.32
   2  -8   4    0.15    1.38
   2  -8   4   -2.92    1.48
   3  -8   4   10.12    1.91
   3  -8   4    9.67    2.04
   4  -8   4    4.69    1.57
   4  -8   4   -0.69    1.92
   3   7  -4    5.55    1.99
  -3  -7   4    2.28    1.85
   2   7  -4   -1.42    1.49
  -2  -7   4   -1.51    1.30
  -2  -7   4   -2.53    1.45
   1   7  -4   17.72    2.58
  -1  -7   4   17.11    2.57
  -1  -7   4   16.74    2.89
   0   7  -4    5.97    1.45
   0  -7   4    7.20    1.56
   0  -7   4    6.82    1.42
  -1   7  -4    5.62    1.29
   1  -7   4    4.99    1.38
   1  -7   4    6.16    1.38
   2  -7   4    8.04    1.58
   2  -7   4    7.55    1.58
   3  -7   4    5.59    1.59
   3  -7   4    6.37    1.54
   4  -7   4    5.41    1.73
   4  -7   4    5.56    1.25
   5  -7   4   19.15    2.82
   5  -7   4   18.90    3.10
   4   6  -4   -1.87    1.64
   3   6  -4   19.30    2.64
  -3  -6   4   20.69    3.16
   2   6  -4   54.76    5.78
  -2  -6   4   52.69    6.11
   1   6  -4   12.43    1.73
  -1  -6   4    9.26    1.67
  -1  -6   4    8.44    1.54
   0   6  -4  101.50   10.66
   0  -6   4  113.11   11.28
   0  -6   4  107.19   10.55
  -1   6  -4    0.84    0.93
   1  -6   4   -0.71    0.88
   1  -6   4   -0.46    0.87
   2  -6   4   30.63    3.46
   2  -6   4   31.11    3.63
   3  -6   4   23.02    2.75
   3  -6   4   19.72    2.93
   4  -6   4    1.63    1.34
   4  -6   4    1.07    1.02
   5  -6   4   17.37    2.34
   5  -6   4   16.01    2.60
   6  -6   4    2.84    1.70
   6  -6   4    3.35    1.51
   5   5  -4   11.20    2.43
  -5  -5   4   12.19    2.83
   4   5  -4    8.82    1.96
  -4  -5   4    8.56    2.03
   3   5  -4    1.70    1.21
  -3  -5   4    0.15    1.32
   2   5  -4   29.53    3.71
  -2  -5   4   40.92    4.08
   1   5  -4    3.42    1.09
  -1  -5   4    2.19    1.01
   0   5  -4    2.73    0.88
   0  -5   4    1.42    0.93
   0  -5   4    1.01    0.82
  -1   5  -4    0.82    0.67
   1  -5   4    1.18    0.69
   1  -5   4    0.34    0.69
   2  -5   4   49.47    4.41
   2  -5   4   35.94    4.62
   3  -5   4   25.57    2.86
   3  -5   4   22.83    3.00
   4  -5   4   42.76    5.06
   4  -5   4   54.79    5.49
   5  -5   4   11.81    1.85
   5  -5   4   11.82    1.88
   6  -5   4   24.32    3.22
   6  -5   4   21.80    3.40
   7  -5   4    1.27    1.44
   7  -5   4    1.37    1.50
   5   4  -4    5.62    1.95
  -5  -4   4    3.89    2.22
  -5  -4   4    8.11    2.06
   4   4  -4   27.99    3.96
  -4  -4   4   38.91    4.43
  -4  -4   4   37.17    4.63
   3   4  -4    0.94    1.15
  -3  -4   4   -0.76    1.09
  -3  -4   4   -0.67    1.19
   2   4  -4   28.35    3.75
  -2  -4   4   37.40    3.99
  -2  -4   4   39.79    4.14
   1   4  -4   29.98    3.21
  -1  -4   4   30.26    3.37
  -1  -4   4   28.09    3.37
   0   4  -4    1.33    0.76
   0  -4   4    0.92    0.40
   0  -4   4    0.86    0.67
  -1   4  -4  135.88   13.36
   1  -4   4  133.77   14.12
   1  -4   4  128.71   14.11
   1  -4   4  147.24   13.22
   2  -4   4   16.89    2.32
   2  -4   4   24.49    2.48
   3  -4   4  158.72   18.65
   3  -4   4  202.90   17.46
   4  -4   4   22.28    2.66
   4  -4   4   19.62    2.58
   5  -4   4   20.10    2.79
   5  -4   4   25.33    3.00
   6  -4   4    8.66    1.62
   6  -4   4   12.10    1.88
   7  -4   4    4.68    1.64
   7  -4   4    6.00    1.39
   8  -4   4    6.35    1.91
   8  -4   4    5.28    1.79
   6   3  -4   14.46    3.30
  -6  -3   4   23.49    3.69
  -6  -3   4   21.62    3.46
   5   3  -4   -1.42    1.71
  -5  -3   4   -1.43    1.79
  -5  -3   4    0.84    1.67
   4   3  -4   32.31    3.66
  -4  -3   4   25.29    3.57
  -4  -3   4   29.28    4.04
   3   3  -4   34.05    3.98
  -3  -3   4   40.23    4.35
  -3  -3   4   35.10    4.27
   2   3  -4   10.90    1.68
  -2  -3   4   11.54    1.81
  -2  -3   4   10.48    1.67
   1   3  -4   67.77    6.41
  -1  -3   4   60.70    6.72
  -1  -3   4   59.37    6.86
  -1  -3   4   67.94    6.74
   0   3  -4   19.11    1.97
   0  -3   4   18.83    2.00
   0  -3   4   15.71    1.98
   0  -3   4   15.96    1.65
  -1   3  -4   41.10    4.02
  -1   3  -4   39.64    4.17
   1  -3   4   35.98    4.19
   1  -3   4   42.22    4.18
   1  -3   4   38.75    3.99
  -2   3  -4   78.52    7.59
   2  -3   4   67.30    7.60
  -3   3  -4    0.48    0.55
   3  -3   4    2.18    0.78
   3  -3   4    2.11    0.47
   3  -3   4    1.31    0.59
   4  -3   4   19.13    2.33
   5  -3   4   56.72    6.04
   5  -3   4   62.43    6.41
   6  -3   4    4.56    1.21
   6  -3   4    4.69    1.15
  -7   3  -4   61.24    7.23
   7  -3   4   76.20    7.33
   7  -3   4   60.43    6.64
  -8   3  -4    2.02    1.37
   8  -3   4    3.54    1.32
   8  -3   4    1.88    1.55
   6   2  -4   23.59    3.98
  -6  -2   4   36.56    4.52
  -6  -2   4   27.81    3.89
   5   2  -4   14.01    2.64
  -5  -2   4   25.01    3.16
  -5  -2   4   20.98    3.18
   4   2  -4    2.98    1.38
  -4  -2   4    1.25    1.29
  -4  -2   4    3.69    1.29
   3   2  -4   69.98    6.98
  -3  -2   4   79.77    7.48
  -3  -2   4   56.97    7.40
   2   2  -4   35.37    3.71
  -2  -2   4   30.23    3.96
  -2  -2   4   40.14    3.98
   1   2  -4   28.48    3.37
   1   2  -4   25.68    3.27
  -1  -2   4   37.42    3.57
  -1  -2   4   34.90    3.48
  -1  -2   4   34.01    3.47
   0   2  -4  247.68   21.94
   0  -2   4  187.15   23.15
   0  -2   4  218.22   23.18
   0  -2   4  223.70   20.75
   0  -2   4  251.63   23.43
  -1   2  -4    1.75    0.50
   1  -2   4    0.96    0.38
   1  -2   4    2.23    0.44
   1  -2   4    3.00    0.50
   1  -2   4    1.90    0.43
   2  -2   4  189.67   17.94
   2  -2   4  183.36   19.18
   3  -2   4   39.91    4.14
   3  -2   4   35.54    4.13
   3  -2   4   35.04    3.93
   3  -2   4   46.12    4.17
  -4   2  -4   17.12    1.98
   4  -2   4   16.62    1.99
   4  -2   4   16.48    2.04
   4  -2   4   16.23    2.02
   5  -2   4   73.67    7.30
   5  -2   4   73.67    7.81
   6  -2   4    6.98    1.29
   6  -2   4    6.89    1.22
  -7   2  -4   22.64    3.22
   7  -2   4   20.38    3.13
   7  -2   4   24.76    2.78
  -8   2  -4   12.70    2.37
   8  -2   4   20.02    2.96
   8  -2   4   15.73    2.36
  -9   2  -4    0.45    1.51
   9  -2   4    2.06    1.08
   9  -2   4    2.74    1.64
   6   1  -4    7.35    1.95
  -6  -1   4    5.51    1.81
   5   1  -4   36.54    4.30
  -5  -1   4   35.16    4.48
  -5  -1   4   36.60    4.47
   4   1  -4    5.93    1.33
  -4  -1   4    4.32    1.31
  -4  -1   4    3.11    1.14
   3   1  -4   46.25    4.54
  -3  -1   4   39.83    4.86
   2   1  -4   91.73    8.31
   2   1  -4   79.80    8.70
  -2  -1   4   87.04    8.88
  -2  -1   4   85.85    7.75
  -2  -1   4   75.19    8.56
   1   1  -4    6.68    1.10
   1   1  -4    8.44    1.11
  -1  -1   4   10.20    0.99
  -1  -1   4    8.62    1.20
  -1  -1   4    5.68    1.06
  -1  -1   4    8.02    0.89
  -1  -1   4   11.17    1.32
   0   1  -4  137.18   11.55
   0  -1   4  107.04   10.91
   0  -1   4  115.93   12.18
   0  -1   4  113.24   12.34
  -1   1  -4    1.50    0.44
   1  -1   4    2.11    0.46
   1  -1   4    2.05    0.36
   1  -1   4    3.17    0.44
   2  -1   4   28.84    2.78
   2  -1   4   26.79    2.70
   2  -1   4   23.87    2.78
   3  -1   4   20.46    1.97
   3  -1   4   14.47    1.92
   3  -1   4   18.01    1.92
  -4   1  -4   42.40    4.08
   4  -1   4   35.15    4.06
   4  -1   4   42.47    3.84
   4  -1   4   31.49    4.07
   5  -1   4   44.24    4.77
   5  -1   4   44.58    5.21
   5  -1   4   53.16    5.16
   6  -1   4   44.39    4.41
   6  -1   4   39.68    4.68
  -7   1  -4    8.88    1.71
   7  -1   4    8.34    1.61
   7  -1   4    8.49    1.55
  -8   1  -4   19.51    3.46
   8  -1   4   21.20    2.98
   8  -1   4   28.39    3.35
  -9   1  -4    2.60    1.94
   9  -1   4    7.47    1.74
   9  -1   4    6.67    1.76
   6   0  -4    1.43    1.87
  -6   0   4    1.26    1.46
   5   0  -4   27.01    3.33
  -5   0   4   18.94    3.00
   4   0  -4   69.36    6.20
  -4   0   4   58.02    5.57
  -4   0   4   58.50    6.52
  -4   0   4   49.32    6.46
   3   0  -4   -0.67    0.75
  -3   0   4    0.26    0.95
  -3   0   4   -0.97    0.84
  -3   0   4    0.25    0.56
   2   0  -4  110.40   12.88
  -2   0   4  133.68   13.10
  -2   0   4  147.82   12.99
  -2   0   4  107.37   12.95
   1   0  -4   99.43    9.75
  -1   0   4   98.69   10.36
  -1   0   4  110.33   10.46
  -1   0   4   82.56   10.33
  -1   0   4  106.64   10.20
   0   0  -4   27.76    3.15
   0   0   4   27.24    3.35
   0   0   4   37.57    3.36
   0   0   4   33.51    3.00
   0   0   4   32.83    3.46
  -1   0  -4  278.89   27.05
   2   0   4   32.63    2.99
   2   0   4   30.40    3.11
   2   0   4   25.95    3.10
   2   0   4   31.34    2.98
   3   0   4  188.78   20.65
   3   0   4  213.08   19.29
  -4   0  -4   90.74    9.59
   4   0   4   84.92    8.97
   4   0   4  102.38    9.66
  -5   0  -4   58.70    5.48
   5   0   4   43.85    5.52
   5   0   4   44.65    5.52
   5   0   4   57.33    5.15
   6   0   4   66.22    7.76
   6   0   4   82.52    7.25
   6   0   4   68.82    7.84
   7   0   4    2.10    1.17
   7   0   4    1.98    1.06
   7   0   4    3.18    1.28
  -8   0  -4   15.98    2.76
   8   0   4   17.58    2.79
   8   0   4   19.39    2.77
  -9   0  -4   26.79    4.34
   9   0   4   42.06    4.59
   9   0   4   32.77    4.32
   9   0   4   30.75    4.11
   6  -1  -4   30.28    4.92
  -6   1   4   36.45    4.26
   5  -1  -4    9.32    1.99
  -5   1   4    6.38    1.74
  -5   1   4   11.59    1.77
   4  -1  -4   73.10    7.94
  -4   1   4   78.92    8.46
  -4   1   4   73.92    7.36
  -4   1   4   85.80    8.42
   3  -1  -4   36.33    4.08
  -3   1   4   40.46    3.69
  -3   1   4   32.20    4.28
  -3   1   4   41.58    4.32
   2  -1  -4   24.96    2.41
   2  -1  -4   19.86    2.53
  -2   1   4   19.28    2.50
  -2   1   4   24.48    2.62
  -2   1   4   17.90    2.59
  -2   1   4   20.87    2.14
   1  -1  -4  108.57   11.77
   1  -1  -4  100.70   11.12
  -1   1   4   95.31   11.78
  -1   1   4  116.31   11.66
  -1   1   4  132.61   11.98
  -1   1   4  121.76   10.56
  -1   1   4  123.72   11.85
   0  -1  -4   10.39    1.07
   0   1   4    8.90    1.24
   0   1   4    7.57    1.33
   0   1   4   11.45    1.23
   0   1   4   10.11    1.08
   1   1   4  125.96   11.34
   1   1   4  105.68   12.62
   1   1   4  117.79   12.55
   1   1   4  138.64   12.56
   2   1   4   77.75    7.09
   2   1   4   84.91    7.49
   2   1   4   61.69    7.50
   2   1   4   65.53    7.66
   3   1   4   23.43    2.45
   3   1   4   17.95    2.59
   3   1   4   20.29    2.39
   3   1   4   26.04    2.26
   4   1   4  101.35    9.46
   4   1   4   91.90   10.19
   4   1   4   99.95   10.32
   5   1   4   11.08    1.44
   5   1   4    9.96    1.74
   5   1   4    8.80    1.55
   5   1   4   14.19    1.66
   6   1   4   30.32    3.67
   6   1   4   37.07    3.85
   6   1   4   26.98    3.40
   7   1   4   39.81    4.63
   7   1   4   50.69    5.25
   8   1   4    0.58    1.32
   8   1   4    0.56    1.49
   8   1   4    1.19    1.46
   9   1   4   47.20    5.46
   9   1   4   46.14    5.79
   9   1   4   39.12    5.22
   6  -2  -4   55.26    6.24
  -6   2   4   56.31    6.54
   5  -2  -4   12.42    2.10
  -5   2   4    9.99    1.50
  -5   2   4   10.63    1.77
  -5   2   4    8.00    1.63
   4  -2  -4   38.45    4.22
  -4   2   4   36.16    3.73
  -4   2   4   35.39    4.36
  -4   2   4   39.18    4.42
  -3   2   4   39.38    4.04
  -3   2   4   41.05    4.60
  -3   2   4   43.91    4.71
   2  -2  -4    2.04    0.64
  -2   2   4    1.72    0.70
  -2   2   4    1.92    0.68
  -2   2   4    0.60    0.76
   1  -2  -4  100.23   10.86
  -1   2   4  123.46   11.04
  -1   2   4   91.22   10.85
   0  -2  -4   31.44    2.84
   0   2   4   26.01    3.04
   0   2   4   28.95    2.77
   0   2   4   28.11    3.06
   1   2   4   35.02    3.92
   1   2   4   47.34    4.32
   2   2   4   53.55    5.16
   2   2   4   47.35    5.49
   2   2   4   47.62    5.66
   2   2   4   57.03    5.04
   2   2   4   59.31    5.14
  -3  -2  -4   46.33    4.44
   3   2   4   36.96    4.63
   3   2   4   51.23    4.18
   3   2   4   39.63    4.25
   3   2   4   37.70    4.45
  -4  -2  -4   44.88    4.33
   4   2   4   40.38    4.69
   4   2   4   35.68    4.44
   4   2   4   42.60    4.09
  -5  -2  -4  134.43   12.95
   5   2   4  130.42   13.09
   5   2   4  109.81   13.07
   5   2   4  123.51   12.97
   6   2   4   -0.35    1.14
   6   2   4    1.56    1.34
   6   2   4    0.36    0.73
   7   2   4   61.24    6.68
   7   2   4   69.86    6.94
   7   2   4   66.54    7.36
   7   2   4   65.72    7.40
   8   2   4   23.85    3.19
   8   2   4   24.75    3.36
   8   2   4   22.30    3.38
   8   2   4   24.92    3.87
   9   2   4   10.12    2.25
   9   2   4   12.76    2.45
   9   2   4   10.00    2.43
   9   2   4    8.13    2.32
   6  -3  -4   23.50    3.31
  -6   3   4   19.77    2.36
  -6   3   4   14.75    2.84
  -6   3   4   23.23    3.21
  -5   3   4   48.91    6.45
  -5   3   4   63.37    6.41
  -5   3   4   58.31    5.63
  -4   3   4   -0.37    1.02
  -4   3   4    0.69    0.88
  -4   3   4    0.57    0.93
  -3   3   4  122.87   10.98
  -3   3   4  111.08   12.41
  -2   3   4   69.12    5.89
  -2   3   4   56.26    6.66
  -2   3   4   68.30    6.57
  -2   3   4   54.69    6.36
   1  -3  -4   84.68    9.09
  -1   3   4   84.74    8.15
  -1   3   4   92.06    9.11
   0  -3  -4  208.78   19.41
   0  -3  -4  231.32   20.62
   0   3   4  189.62   20.58
   0   3   4  181.09   20.59
   0   3   4  195.82   20.50
   0   3   4  174.67   18.49
   0   3   4  219.71   20.88
  -1  -3  -4   23.66    2.32
  -2  -3  -4  139.45   15.38
   2   3   4  144.67   14.31
   2   3   4  165.52   13.88
   2   3   4  133.59   15.43
   2   3   4  164.22   15.39
  -3  -3  -4  338.72   35.85
   3   3   4  335.42   33.42
   3   3   4  343.32   35.87
   3   3   4  348.61   35.85
   3   3   4  358.43   35.89
   3   3   4  371.87   32.26
  -4  -3  -4   38.36    3.46
  -4  -3  -4   30.71    3.15
   4   3   4   28.16    3.44
   4   3   4   32.23    3.57
   5   3   4  203.68   21.20
   5   3   4  193.06   21.22
   5   3   4  198.81   19.71
   5   3   4  222.17   20.06
   6   3   4    8.68    1.48
   6   3   4   10.06    2.05
   6   3   4    9.35    1.73
   6   3   4    9.35    1.68
   7   3   4   29.84    3.17
   7   3   4   24.87    3.35
   7   3   4   20.95    3.74
   7   3   4   24.87    3.83
   8   3   4   40.57    5.42
   8   3   4   51.93    5.29
   8   3   4   44.10    5.84
   8   3   4   46.96    5.81
   9   3   4   -1.70    1.98
   9   3   4    1.13    1.78
   9   3   4    1.42    1.91
  -6   4   4    3.48    1.58
  -6   4   4    2.09    1.50
   5  -4  -4   49.58    5.54
  -5   4   4   51.60    5.63
  -5   4   4   42.83    4.88
  -5   4   4   49.24    5.53
   4  -4  -4   19.12    2.99
  -4   4   4   22.01    2.87
  -4   4   4   16.54    2.58
  -4   4   4   22.30    2.41
   3  -4  -4    0.19    1.35
  -3   4   4    2.99    0.96
  -3   4   4    1.56    0.82
  -3   4   4    3.24    0.96
   2  -4  -4  111.61   10.52
  -2   4   4  108.26   11.39
  -2   4   4  117.21   10.09
  -2   4   4   94.43   11.19
  -2   4   4  106.31   11.06
   1  -4  -4   41.78    4.66
  -1   4   4   48.63    4.76
  -1   4   4   46.77    4.54
  -1   4   4   42.41    4.69
  -1   4   4   36.46    4.13
   0  -4  -4   57.30    5.42
   0   4   4   53.29    5.81
   0   4   4   56.42    5.93
   0   4   4   56.70    5.78
   0   4   4   51.51    5.24
  -1  -4  -4  179.00   18.10
  -1  -4  -4  173.98   19.21
   1   4   4  197.94   19.19
   1   4   4  183.88   17.88
   1   4   4  198.69   17.28
  -2  -4  -4    2.72    0.57
  -2  -4  -4    2.61    0.47
   2   4   4    3.83    0.78
   2   4   4    3.46    0.61
   2   4   4    4.19    0.71
   2   4   4    3.04    0.49
   2   4   4    5.06    0.96
  -3  -4  -4  150.53   15.01
   3   4   4  150.45   15.05
   3   4   4  139.24   14.17
   3   4   4  141.81   15.00
  -4  -4  -4   28.20    3.72
   4   4   4   35.29    3.74
   4   4   4   39.32    3.54
   4   4   4   33.47    4.11
   4   4   4   40.33    3.59
   4   4   4   32.72    3.87
   5   4   4    3.71    0.87
   5   4   4    4.39    0.87
   5   4   4    2.81    1.16
   5   4   4    2.75    1.02
   6   4   4   57.53    6.28
   6   4   4   62.85    6.55
   6   4   4   49.94    5.80
   7   4   4   14.33    2.54
   7   4   4   10.16    2.02
   7   4   4   13.02    2.38
   8   4   4   35.88    5.35
   8   4   4   34.85    4.68
   8   4   4   43.03    5.20
   9   4   4   16.46    2.87
   9   4   4   22.79    3.51
   9   4   4   13.93    3.36
   5  -5  -4   -1.83    1.76
  -5   5   4    2.02    1.18
  -5   5   4    0.70    1.27
  -5   5   4   -0.19    1.50
   4  -5  -4   40.93    4.38
  -4   5   4   28.76    4.13
  -4   5   4   36.35    3.78
  -4   5   4   36.83    4.33
   3  -5  -4   15.77    2.60
  -3   5   4   23.17    2.84
  -3   5   4   18.39    2.38
  -3   5   4   20.51    2.78
   2  -5  -4   40.11    4.11
  -2   5   4   41.48    3.96
  -2   5   4   44.15    4.41
  -2   5   4   37.47    4.17
  -2   5   4   32.92    4.33
   1  -5  -4   61.28    6.15
  -1   5   4   59.85    6.51
  -1   5   4   55.87    5.93
  -1   5   4   72.63    6.77
   0   5   4    1.00    0.64
   0   5   4    2.30    0.71
   0   5   4    2.16    0.80
   0   5   4    2.02    0.75
  -1  -5  -4   92.72   10.97
   1   5   4  119.07    9.90
   2   5   4   69.41    7.35
   2   5   4   72.36    7.31
   2   5   4   60.67    6.85
   2   5   4   75.61    7.39
   2   5   4   72.81    6.64
   3   5   4   74.68    6.48
   3   5   4   59.76    7.24
   3   5   4   72.32    6.70
   3   5   4   63.41    7.15
   4   5   4   67.76    7.41
   4   5   4   68.60    7.52
   4   5   4   72.69    6.70
   5   5   4    0.71    0.94
   5   5   4    1.73    1.56
   5   5   4    0.75    1.00
   5   5   4    0.01    1.10
   6   5   4   53.17    5.33
   6   5   4   57.80    5.96
   6   5   4   50.94    5.10
   6   5   4   41.15    5.61
   7   5   4   23.63    3.34
   7   5   4   24.30    3.71
   7   5   4   21.64    3.74
   8   5   4   11.35    2.96
   8   5   4   13.68    2.71
   8   5   4   15.10    2.56
   5  -6  -4   -0.32    2.00
  -5   6   4   -0.44    1.55
  -5   6   4    1.92    1.47
   4  -6  -4   21.12    3.44
  -4   6   4   23.63    2.90
  -4   6   4   22.18    3.19
  -4   6   4   22.74    3.27
   3  -6  -4   21.95    2.98
  -3   6   4   24.60    3.24
  -3   6   4   24.01    2.83
  -3   6   4   23.66    3.24
   2  -6  -4    4.02    1.25
  -2   6   4    4.71    1.06
  -2   6   4    3.17    1.11
  -2   6   4    4.39    0.95
  -2   6   4    5.59    1.25
   1  -6  -4   52.18    5.65
  -1   6   4   53.38    5.50
  -1   6   4   64.41    6.11
   0   6   4    8.36    1.28
   0   6   4    6.37    1.21
   0   6   4   11.53    1.50
   1   6   4  100.55    9.24
   1   6   4   89.14   10.23
   1   6   4  104.69   10.26
   2   6   4   25.96    3.20
   2   6   4   28.88    3.19
   2   6   4   27.05    2.88
   3   6   4   22.34    2.43
   3   6   4   24.57    2.72
   3   6   4   19.75    2.38
   3   6   4   18.24    2.85
   4   6   4    7.54    1.18
   4   6   4    8.88    1.59
   4   6   4    8.62    1.38
   4   6   4    5.93    1.29
   5   6   4   43.73    4.71
   5   6   4   31.77    4.18
   5   6   4   43.24    5.02
   5   6   4   42.48    4.19
   6   6   4    2.00    1.17
   6   6   4    1.06    1.50
   6   6   4   -0.01    1.75
   6   6   4    2.50    1.24
   7   6   4   72.69    7.85
   7   6   4   72.68    7.30
   7   6   4   76.71    8.50
   7   6   4   73.41    8.55
   8   6   4   -3.41    2.47
   8   6   4   -3.52    2.04
   8   6   4    4.37    2.10
   8   6   4   -1.96    2.03
  -4   7   4    1.40    1.40
  -4   7   4    2.09    1.37
  -4   7   4    0.73    1.44
  -3   7   4   52.06    5.48
  -3   7   4   64.61    6.25
  -3   7   4   46.96    6.13
  -2   7   4   13.13    1.99
  -2   7   4   13.17    1.81
  -2   7   4   15.01    2.20
  -2   7   4   10.35    1.82
  -1   7   4   43.83    4.58
  -1   7   4   49.47    5.12
  -1   7   4   42.19    5.11
   0   7   4   73.13    8.21
   0   7   4   82.64    8.08
   0   7   4   71.93    7.29
   1   7   4    1.03    1.03
   1   7   4    0.00    0.89
   1   7   4   -0.34    0.92
   1   7   4   -0.07    0.87
   2   7   4   70.05    6.31
   2   7   4   72.03    7.08
   2   7   4   55.01    6.45
   3   7   4   89.24    8.84
   3   7   4  101.33    9.24
   3   7   4   87.98    9.85
   4   7   4   11.22    1.88
   4   7   4   13.05    1.81
   4   7   4   10.51    1.64
   4   7   4   10.30    2.17
   5   7   4  183.57   16.49
   5   7   4  175.07   17.26
   5   7   4  168.11   18.34
   6   7   4   -0.91    1.19
   6   7   4    1.49    1.50
   6   7   4   -4.13    1.94
   6   7   4   -1.69    1.61
   7   7   4   52.17    7.18
   7   7   4   54.72    5.78
   7   7   4   58.73    6.09
   7   7   4   57.97    6.94
  -3   8   4   14.16    2.03
  -3   8   4   10.18    1.91
  -3   8   4   10.11    1.99
  -2   8   4   18.46    2.56
  -2   8   4   19.24    2.87
  -2   8   4   19.49    2.59
  -2   8   4   16.28    2.87
  -1   8   4   -1.41    1.15
  -1   8   4   -0.58    1.20
  -1   8   4    0.40    1.03
  -1   8   4    0.56    0.96
   0   8   4   24.68    2.75
   0   8   4   20.81    2.86
   0   8   4   18.13    3.01
   0   8   4   26.09    2.99
   1   8   4   26.48    3.13
   1   8   4   22.96    2.77
   1   8   4   24.60    3.11
   1   8   4   18.19    2.88
   2   8   4    4.18    1.54
   2   8   4    4.56    1.41
   3   8   4   44.59    4.49
   3   8   4   48.15    5.01
   3   8   4   36.71    4.50
   3   8   4   43.03    5.14
   4   8   4    4.98    1.31
   4   8   4    5.05    1.91
   4   8   4    4.01    1.38
   4   8   4    3.91    1.31
   5   8   4   15.59    2.36
   5   8   4   17.84    2.71
   5   8   4   14.30    2.97
   5   8   4   19.08    2.55
   6   8   4   11.47    2.13
   6   8   4    3.52    2.67
   6   8   4    9.73    2.17
   6   8   4    9.77    1.98
  -1   9   4   14.45    2.37
  -1   9   4   14.02    2.20
  -1   9   4   15.56    2.62
  -1   9   4   16.42    2.33
   0   9   4    5.88    1.29
   0   9   4    4.55    1.38
   0   9   4    4.91    1.30
   0   9   4    5.61    1.66
   1   9   4   39.12    4.53
   1   9   4   30.08    4.01
   1   9   4   44.21    4.52
   1   9   4   36.05    4.50
   2   9   4    0.80    1.41
   2   9   4    5.04    1.46
   2   9   4    5.37    1.35
   2   9   4    6.83    1.55
   3   9   4   27.05    3.67
   3   9   4   28.29    3.43
   4   9   4   32.12    4.28
   4   9   4   30.23    3.74
   4   9   4   29.87    4.52
   5   9   4    3.88    2.50
   5   9   4    5.82    1.85
   1   7  -5    7.75    1.75
  -1  -7   5    7.49    1.82
  -1  -7   5    9.40    1.92
   0   7  -5    0.77    1.37
   0  -7   5    1.09    1.27
   0  -7   5    0.31    1.35
  -1   7  -5    4.99    1.31
   1  -7   5    3.49    1.25
   1  -7   5    3.43    1.41
   2  -7   5    6.56    1.63
   2  -7   5    5.94    1.55
   3  -7   5   -0.19    1.27
   3  -7   5    0.10    1.42
   4  -7   5   18.31    2.69
   4  -7   5   15.59    2.37
   5  -7   5    1.76    1.59
   5  -7   5    2.91    1.36
   3   6  -5   -0.90    1.71
  -3  -6   5   -3.47    1.80
   2   6  -5    1.38    1.56
  -2  -6   5   -1.05    1.44
   1   6  -5    6.16    1.48
  -1  -6   5    6.22    1.70
  -1  -6   5    4.07    1.29
   0   6  -5    8.51    1.58
   0  -6   5    9.53    1.64
   0  -6   5    9.30    1.71
  -1   6  -5    0.92    1.03
   1  -6   5    0.22    1.04
   1  -6   5   -0.24    1.02
   2  -6   5   10.01    1.48
   2  -6   5    7.56    1.54
   3  -6   5   11.74    1.81
   3  -6   5    9.83    1.79
   4  -6   5    9.42    1.84
   4  -6   5    7.84    1.74
   5  -6   5   10.66    1.92
   5  -6   5   15.37    2.14
   6  -6   5    1.94    1.51
   6  -6   5    1.24    1.57
   4   5  -5    1.22    1.47
  -4  -5   5   -1.57    1.76
   3   5  -5   18.74    2.90
  -3  -5   5   16.86    2.60
   2   5  -5   22.81    3.01
  -2  -5   5   21.25    3.21
   1   5  -5   17.25    2.36
  -1  -5   5   14.32    2.45
   0   5  -5   31.67    3.70
   0  -5   5   35.11    3.76
   0  -5   5   35.46    3.91
  -1   5  -5    5.18    1.14
   1  -5   5    5.08    1.09
   1  -5   5    4.79    1.09
   2  -5   5   33.07    3.46
   2  -5   5   25.41    3.21
   3  -5   5   44.04    5.77
   3  -5   5   62.37    5.47
   4  -5   5   36.10    4.26
   4  -5   5   41.79    4.59
   5  -5   5   19.24    2.50
   5  -5   5   22.07    2.91
   6  -5   5    1.49    1.38
   6  -5   5    0.68    0.93
   7  -5   5    2.88    1.55
   7  -5   5    0.49    1.67
   4   4  -5   15.79    2.63
  -4  -4   5   20.96    3.03
   3   4  -5    0.35    1.14
  -3  -4   5   -0.16    1.36
   2   4  -5   40.22    4.43
  -2  -4   5   40.79    4.66
   1   4  -5   19.64    2.50
  -1  -4   5   20.69    2.66
   0   4  -5   18.62    2.30
   0  -4   5   19.71    2.42
  -1   4  -5   81.67    7.96
   1  -4   5   88.00    8.39
   1  -4   5   69.57    7.87
   2  -4   5   -1.08    0.81
   2  -4   5   -0.01    0.66
   3  -4   5   30.20    4.00
   3  -4   5   42.70    3.85
   4  -4   5   13.65    1.93
   4  -4   5   16.95    2.23
   5  -4   5    4.75    1.37
   5  -4   5    6.91    1.32
   6  -4   5   34.40    4.57
   6  -4   5   50.93    4.99
   7  -4   5   26.10    3.68
   7  -4   5   28.69    3.59
   8  -4   5   34.79    4.37
   8  -4   5   35.95    4.56
   5   3  -5   10.44    2.36
  -5  -3   5    9.67    2.70
  -5  -3   5   13.97    2.31
   4   3  -5   27.24    3.61
  -4  -3   5   29.29    4.29
  -4  -3   5   28.92    3.72
   3   3  -5    1.35    1.06
  -3  -3   5    1.30    1.08
  -3  -3   5    1.67    1.37
   2   3  -5   34.89    4.00
  -2  -3   5   31.85    4.23
  -2  -3   5   43.18    4.25
   1   3  -5   34.44    3.63
  -1  -3   5   31.58    3.83
  -1  -3   5   36.39    3.81
   0   3  -5    4.80    0.90
   0  -3   5    3.81    0.82
   0  -3   5    3.31    0.81
   0  -3   5    3.89    0.77
   1  -3   5   61.17    6.12
   1  -3   5   68.32    6.50
   1  -3   5   54.90    6.43
   2  -3   5   13.63    1.84
   2  -3   5   15.32    1.65
   2  -3   5   15.51    1.81
   2  -3   5   12.65    1.78
   3  -3   5   16.73    2.14
   3  -3   5   17.66    2.20
   3  -3   5   20.58    2.22
   4  -3   5   26.75    3.06
   5  -3   5    2.40    1.12
   5  -3   5    3.76    0.96
   6  -3   5   24.30    2.74
   7  -3   5    4.90    1.41
   7  -3   5    4.29    1.52
   8  -3   5    7.38    1.69
   8  -3   5    7.38    1.65
   5   2  -5   -0.90    1.80
  -5  -2   5    2.39    2.05
  -5  -2   5    2.76    1.45
   4   2  -5    6.73    1.70
  -4  -2   5    6.19    1.51
  -4  -2   5    6.30    1.97
   3   2  -5   55.16    5.22
  -3  -2   5   43.73    5.47
   2   2  -5    0.16    0.81
  -2  -2   5   -0.73    0.74
  -2  -2   5   -0.25    0.92
  -1  -2   5   73.91    7.86
  -1  -2   5   76.25    7.74
  -1  -2   5   70.62    7.73
   0   2  -5   40.99    3.65
   0  -2   5   33.37    3.80
   0  -2   5   30.07    3.78
   0  -2   5   38.04    3.92
   0  -2   5   36.09    3.33
  -1   2  -5   20.34    2.14
   1  -2   5   18.77    2.27
   1  -2   5   22.62    2.20
   1  -2   5   17.81    2.20
   2  -2   5   83.94    7.00
   2  -2   5   63.25    7.37
   2  -2   5   67.63    7.45
   3  -2   5    2.76    0.81
   3  -2   5    2.47    0.56
   4  -2   5   27.89    3.20
   4  -2   5   33.30    3.11
   4  -2   5   26.12    3.15
   5  -2   5   50.09    4.66
   5  -2   5   34.19    4.34
   6  -2   5    5.89    1.18
   6  -2   5    3.79    1.22
   7  -2   5   35.77    4.04
   7  -2   5   40.12    4.48
   8  -2   5    2.91    1.58
   8  -2   5    4.58    1.35
   9  -2   5    9.60    2.08
   9  -2   5    9.34    2.16
   5   1  -5   28.28    3.64
  -5  -1   5   27.74    3.72
   4   1  -5   -0.19    1.13
  -4  -1   5    0.39    1.29
  -4  -1   5    0.01    0.92
  -3  -1   5   66.55    7.16
  -3  -1   5   63.93    7.19
   2   1  -5   27.80    2.82
  -2  -1   5   20.52    3.05
  -2  -1   5   26.55    3.06
   1   1  -5   33.34    3.48
  -1  -1   5   27.55    3.68
  -1  -1   5   36.20    3.19
  -1  -1   5   31.99    3.67
  -1  -1   5   39.00    3.80
   0   1  -5  105.84    9.82
   0  -1   5  103.62   10.38
   0  -1   5   95.42    9.28
   0  -1   5   96.39   10.53
  -1   1  -5    4.43    0.66
   1  -1   5    4.70    0.64
   1  -1   5    5.07    0.79
   1  -1   5    3.42    0.57
   2  -1   5   99.84   10.09
   2  -1   5   95.64    9.92
   2  -1   5   92.24    9.92
   2  -1   5   97.83    9.33
   3  -1   5   62.56    6.94
   3  -1   5   71.62    6.54
   4  -1   5   20.23    2.41
   4  -1   5   19.37    2.41
   4  -1   5   25.14    2.38
   5  -1   5  121.34   13.74
   5  -1   5  140.44   12.82
   5  -1   5  134.10   13.72
   6  -1   5    0.58    0.97
   6  -1   5   -0.30    0.78
   7  -1   5   25.38    3.04
   7  -1   5   25.02    3.35
   8  -1   5   11.45    2.04
   8  -1   5   11.45    2.23
   8  -1   5   19.14    2.72
   5   0  -5    8.92    1.89
  -5   0   5   12.82    2.13
   4   0  -5   33.87    3.95
  -4   0   5   41.66    4.48
  -4   0   5   31.13    4.23
   3   0  -5   13.81    2.04
  -3   0   5   15.86    2.23
  -3   0   5   17.92    2.43
   2   0  -5   60.49    6.12
  -2   0   5   59.78    6.60
  -2   0   5   61.72    5.71
   1   0  -5    0.82    0.57
  -1   0   5   -0.30    0.58
  -1   0   5   -1.37    0.58
  -1   0   5    0.02    0.45
  -1   0   5    0.16    0.40
  -1   0   5    0.69    0.72
   0   0  -5   44.97    4.32
   0   0   5   50.92    4.74
   0   0   5   36.08    4.59
  -1   0  -5   44.13    4.55
   1   0   5   44.63    4.56
   1   0   5   50.36    4.38
   2   0   5    8.56    0.87
   2   0   5    7.81    0.94
   2   0   5    6.38    1.06
   3   0   5   76.67    8.55
   3   0   5   88.81    8.56
   4   0   5   18.24    1.90
   4   0   5   15.09    2.02
   5   0   5   23.59    2.49
   5   0   5   24.06    2.77
   5   0   5   20.34    2.71
   6   0   5   35.21    4.18
   6   0   5   32.72    4.15
   6   0   5   39.94    3.84
   7   0   5    5.03    1.54
   7   0   5    3.34    1.25
   7   0   5    3.36    1.21
   8   0   5   34.57    4.36
   8   0   5   39.52    4.11
   8   0   5   31.91    4.40
   9   0   5   22.82    3.18
   9   0   5   28.52    3.73
   5  -1  -5   59.29    6.41
  -5   1   5   67.07    6.67
  -5   1   5   49.43    6.64
   4  -1  -5   73.07    8.81
  -4   1   5  100.08    9.43
  -4   1   5   88.52    9.45
   3  -1  -5   32.95    3.81
  -3   1   5   38.50    3.54
  -3   1   5   43.23    4.28
  -3   1   5   29.07    4.15
  -2   1   5   74.78    7.99
  -2   1   5   74.99    7.90
  -2   1   5   73.33    6.98
   1  -1  -5   19.30    2.45
  -1   1   5   25.50    2.75
  -1   1   5   21.49    2.37
  -1   1   5   25.61    2.81
  -1   1   5   25.93    2.51
  -1   1   5   25.84    2.84
   0   1   5   30.86    3.69
   0   1   5   37.36    3.71
   0   1   5   35.30    3.32
   1   1   5  203.36   19.39
   1   1   5  176.06   19.68
   1   1   5  166.53   19.42
   1   1   5  208.11   17.47
   2   1   5    4.19    0.72
   2   1   5    5.33    0.54
   2   1   5    4.20    0.57
   2   1   5    2.67    0.97
   2   1   5    4.49    0.55
   3   1   5  134.73   12.75
   3   1   5  142.12   13.64
   3   1   5  120.53   13.63
   3   1   5  132.30   12.88
   4   1   5  119.76   11.54
   4   1   5  113.17   10.73
   4   1   5  113.95   11.51
   4   1   5   94.80   11.67
   5   1   5    4.88    1.06
   5   1   5    5.04    0.97
   5   1   5    5.38    0.97
   5   1   5    4.36    1.18
   6   1   5   71.13    6.69
   6   1   5   62.36    7.38
   7   1   5   18.23    2.72
   7   1   5   11.71    1.85
   8   1   5   17.29    2.73
   8   1   5   25.26    3.50
   8   1   5   19.98    3.32
   9   1   5   24.38    3.57
   9   1   5   25.89    4.14
   9   1   5   32.93    4.04
   5  -2  -5   -0.79    1.56
  -5   2   5    2.40    1.41
  -5   2   5    1.43    1.04
   4  -2  -5   31.74    4.05
  -4   2   5   35.47    4.21
  -4   2   5   37.47    4.21
  -4   2   5   31.75    3.50
   3  -2  -5   38.17    4.17
  -3   2   5   42.07    4.51
  -3   2   5   38.18    4.39
  -3   2   5   35.54    3.82
   2  -2  -5   -0.12    0.73
  -2   2   5    0.12    0.68
  -2   2   5    1.09    0.95
  -2   2   5    0.07    0.71
   1  -2  -5  171.43   16.73
  -1   2   5  167.25   17.77
  -1   2   5  175.43   17.75
  -1   2   5  173.15   15.93
   0  -2  -5   37.96    3.71
   0   2   5   42.59    4.02
   0   2   5   39.75    4.01
   0   2   5   32.99    3.98
   0   2   5   35.00    4.17
   1   2   5  124.00   11.05
   1   2   5  106.41   12.24
   1   2   5  104.02   12.46
   1   2   5  140.50   12.25
   2   2   5  159.68   16.00
   2   2   5  181.03   17.12
   2   2   5  176.89   17.13
   2   2   5  146.89   17.21
   3   2   5    1.55    0.38
   3   2   5    1.11    0.95
   3   2   5    1.18    0.43
   3   2   5    0.93    0.32
   3   2   5    0.33    0.38
   4   2   5  155.03   14.89
   4   2   5  127.90   14.63
   4   2   5  145.64   14.67
   4   2   5  141.32   13.65
   5   2   5   39.12    4.01
   5   2   5   37.11    3.87
   5   2   5   29.80    3.58
   5   2   5   35.87    4.17
   6   2   5   38.34    4.19
   6   2   5   28.29    3.59
   6   2   5   39.16    4.40
   7   2   5   33.71    4.35
   7   2   5   46.66    5.13
   7   2   5   49.65    5.24
   8   2   5    0.34    1.73
   8   2   5    1.77    1.47
   8   2   5    0.07    1.66
   8   2   5    0.97    1.29
   9   2   5   30.40    3.90
   9   2   5   33.89    4.55
   9   2   5   29.09    4.60
   9   2   5   24.56    3.79
  -5   3   5   20.84    2.72
  -5   3   5   24.74    3.23
  -5   3   5   17.43    3.24
   4  -3  -5    6.15    1.53
  -4   3   5    5.88    1.37
  -4   3   5    5.03    1.21
  -4   3   5    4.81    1.43
   3  -3  -5   63.69    6.41
  -3   3   5   59.24    6.00
  -3   3   5   59.97    6.86
  -3   3   5   65.06    6.74
  -2   3   5   28.75    3.58
  -2   3   5   33.73    3.19
   1  -3  -5   45.92    5.08
  -1   3   5   51.80    4.89
  -1   3   5   57.77    5.31
  -1   3   5   53.44    5.45
  -1   3   5   46.14    5.53
  -1   3   5   50.18    5.46
   0  -3  -5  125.84   11.52
   0   3   5  132.03   12.29
   0   3   5   99.93   12.25
   0   3   5  112.73   11.03
   0   3   5  122.64   12.50
   1   3   5    3.53    0.54
   1   3   5    2.73    0.70
   1   3   5    3.13    0.54
   1   3   5    1.43    0.83
   1   3   5    3.87    0.72
   2   3   5  113.07   12.33
   2   3   5  126.57   12.44
   2   3   5  115.66   11.48
   2   3   5  124.27   11.15
   3   3   5   58.46    5.53
   3   3   5   50.47    5.63
   3   3   5   64.45    5.59
   3   3   5   59.12    6.22
   3   3   5   52.31    6.04
   3   3   5   62.22    6.01
   4   3   5   39.97    4.74
   4   3   5   46.84    4.84
   4   3   5   52.06    5.11
   4   3   5   45.48    4.51
   4   3   5   44.01    4.42
   5   3   5   38.66    4.18
   5   3   5   38.14    4.98
   5   3   5   46.52    4.66
   5   3   5   42.04    4.34
   6   3   5    7.78    1.22
   6   3   5    5.12    1.45
   6   3   5    5.18    1.25
   6   3   5    8.57    1.76
   7   3   5   25.95    2.96
   7   3   5   19.08    3.05
   7   3   5   21.84    3.53
   7   3   5   30.40    3.97
   8   3   5   43.91    5.83
   8   3   5   46.26    5.28
   8   3   5   48.76    5.91
   9   3   5    5.26    2.11
   9   3   5    4.40    2.10
   9   3   5    5.73    2.32
  -5   4   5   13.25    2.38
  -5   4   5   11.82    1.98
  -5   4   5   12.37    2.17
  -4   4   5    5.00    1.53
  -4   4   5    5.01    1.36
  -4   4   5    7.72    1.47
  -3   4   5   24.16    3.02
  -3   4   5   21.68    2.47
  -3   4   5   17.21    2.73
  -2   4   5   62.44    7.67
  -2   4   5   75.55    6.84
  -2   4   5   76.29    7.61
  -1   4   5   15.28    2.34
  -1   4   5   17.34    1.97
  -1   4   5   20.28    2.00
  -1   4   5   13.70    2.10
   0   4   5   84.43    8.57
   0   4   5   89.83    9.53
   0   4   5   89.42    9.51
   0   4   5  101.85    9.77
   0   4   5   92.68    9.48
   1   4   5    1.03    0.49
   1   4   5    1.91    0.73
   1   4   5    1.05    0.63
   1   4   5    0.17    0.61
   1   4   5    2.03    0.54
   2   4   5   33.02    3.58
   2   4   5   41.14    3.54
   2   4   5   34.63    4.05
   3   4   5   58.79    5.16
   3   4   5   50.42    5.60
   3   4   5   45.33    5.82
   3   4   5   57.45    5.25
   4   4   5    2.73    1.02
   4   4   5    2.41    0.73
   4   4   5    2.76    1.05
   4   4   5    4.37    0.89
   4   4   5    3.71    0.70
   5   4   5   46.57    5.75
   5   4   5   57.98    6.16
   5   4   5   55.96    5.38
   6   4   5   46.05    5.08
   6   4   5   35.63    4.23
   6   4   5   39.50    4.64
   7   4   5   25.30    3.93
   7   4   5   23.36    3.09
   7   4   5   21.80    3.60
   8   4   5   62.25    7.00
   8   4   5   55.28    6.83
   8   4   5   50.85    6.35
   9   4   5   -5.28    2.35
   9   4   5    0.63    2.10
   9   4   5    1.14    1.76
  -4   5   5   44.86    4.34
  -4   5   5   35.35    4.72
  -4   5   5   42.13    4.98
  -3   5   5   11.16    1.89
  -3   5   5   10.03    1.61
  -3   5   5    8.25    1.55
  -2   5   5   87.90   10.55
  -2   5   5   93.70    9.34
  -2   5   5  114.42   10.45
  -1   5   5    3.31    0.97
  -1   5   5    3.87    0.83
  -1   5   5    3.61    0.89
  -1   5   5    3.90    1.18
   0   5   5   44.18    4.50
   0   5   5   38.29    4.08
   0   5   5   45.10    4.74
   0   5   5   38.29    4.46
   1   5   5  113.93   11.13
   1   5   5   99.90   10.01
   2   5   5    0.95    0.87
   2   5   5    0.80    0.69
   2   5   5    0.20    0.82
   3   5   5  145.74   16.32
   3   5   5  163.51   14.68
   3   5   5  161.97   16.30
   4   5   5   56.15    5.13
   4   5   5   46.38    5.83
   4   5   5   51.42    5.16
   5   5   5   13.11    1.77
   5   5   5   15.14    2.11
   5   5   5   10.63    1.72
   5   5   5    8.59    2.09
   6   5   5  115.34   10.41
   6   5   5   99.31   11.50
   6   5   5  110.96   10.85
   7   5   5    6.47    2.20
   7   5   5    8.27    1.56
   7   5   5    7.74    1.86
   8   5   5   27.86    4.86
   8   5   5   36.42    4.34
   8   5   5   38.25    5.02
  -4   6   5   35.03    4.27
  -4   6   5   28.00    3.99
  -4   6   5   33.74    3.72
  -3   6   5    8.42    1.72
  -3   6   5    8.88    1.85
  -3   6   5    7.89    1.62
  -2   6   5   25.77    3.34
  -2   6   5   24.47    2.86
  -2   6   5   26.07    3.24
  -1   6   5   53.51    5.28
  -1   6   5   51.60    5.10
  -1   6   5   41.63    4.89
  -1   6   5   39.32    4.55
   0   6   5    0.78    0.77
   0   6   5    0.37    0.85
   0   6   5    0.35    0.89
   0   6   5    0.75    0.85
   1   6   5  110.11   10.19
   1   6   5  106.03   11.29
   2   6   5   43.70    4.83
   2   6   5   55.78    5.49
   3   6   5   14.08    2.34
   3   6   5   13.69    1.89
   3   6   5   12.06    2.03
   4   6   5  110.41   10.02
   4   6   5   97.51   10.84
   4   6   5   88.56   10.68
   4   6   5  108.32    9.66
   5   6   5   22.58    3.53
   5   6   5   21.88    2.72
   5   6   5   25.70    3.19
   5   6   5   23.43    2.80
   6   6   5   79.97    8.28
   6   6   5   92.19    9.17
   6   6   5   83.16    8.54
   6   6   5   81.15    9.30
   7   6   5   29.75    4.30
   7   6   5   31.02    3.94
   7   6   5   28.94    3.60
   7   6   5   27.53    4.79
   8   6   5    9.03    2.28
   8   6   5    8.01    2.69
   8   6   5    9.20    2.50
  -3   7   5   30.87    3.97
  -3   7   5   25.67    3.40
  -3   7   5   31.24    4.11
  -2   7   5    0.30    1.20
  -2   7   5    0.43    1.04
  -2   7   5    0.36    1.01
  -1   7   5   27.50    3.48
  -1   7   5   31.27    3.15
  -1   7   5   24.81    3.14
   0   7   5   27.62    3.15
   0   7   5   29.08    3.63
   0   7   5   26.81    3.43
   0   7   5   31.71    3.42
   1   7   5    4.44    1.11
   1   7   5    4.37    1.20
   1   7   5    5.60    1.28
   1   7   5    2.37    0.92
   2   7   5   74.41    8.23
   2   7   5   80.24    7.47
   3   7   5    6.68    1.44
   3   7   5    9.81    1.85
   3   7   5    9.36    1.50
   4   7   5   40.34    4.51
   4   7   5   49.03    5.08
   4   7   5   40.32    5.02
   5   7   5   22.39    2.89
   5   7   5   22.05    3.06
   5   7   5   20.43    3.19
   6   7   5    1.39    2.29
   6   7   5    4.42    1.67
   6   7   5    6.24    1.54
   7   7   5    4.43    2.08
   7   7   5    0.03    2.59
   7   7   5    7.41    1.98
  -2   8   5    6.59    1.64
  -2   8   5    6.63    1.59
  -2   8   5    7.13    1.50
  -1   8   5   14.44    2.58
  -1   8   5   14.31    2.46
  -1   8   5   19.03    2.44
  -1   8   5   15.83    2.21
   0   8   5   46.45    5.11
   0   8   5   37.12    4.67
   0   8   5   54.39    5.26
   0   8   5   45.70    5.27
   1   8   5   -0.34    1.15
   1   8   5   -0.37    1.21
   1   8   5    0.07    1.22
   1   8   5    1.64    1.18
   2   8   5   64.18    5.81
   2   8   5   52.31    6.42
   2   8   5   55.97    6.31
   3   8   5   20.12    2.82
   3   8   5   20.11    2.79
   3   8   5   17.08    2.67
   4   8   5    7.74    2.25
   4   8   5    9.52    1.74
   4   8   5    9.95    1.85
   5   8   5   47.57    5.29
   5   8   5   37.70    5.62
   5   8   5   40.85    4.68
   6   8   5    4.32    1.86
   6   8   5   -1.38    2.50
   6   8   5    2.94    1.64
   0   9   5    9.76    1.75
   0   9   5    9.88    1.92
   0   9   5    8.82    1.71
   0   9   5    9.53    1.96
   1   9   5   31.95    3.73
   1   9   5   33.19    4.24
   1   9   5   39.01    4.41
   1   9   5   29.07    4.20
   2   9   5   -1.94    1.34
   2   9   5    2.27    1.38
   2   9   5    3.00    1.40
   2   9   5    0.18    1.59
   3   9   5   33.03    4.46
   3   9   5   30.63    4.06
   4   9   5    8.19    2.04
   4   9   5    7.40    2.44
   4   9   5    9.98    2.00
  -1   7  -6   17.36    2.62
   1  -7   6   15.85    2.50
   1  -7   6   18.62    2.62
   2  -7   6   -0.85    1.56
   2  -7   6   -0.63    1.42
   3  -7   6    9.98    1.97
   3  -7   6   11.71    2.07
   1   6  -6   35.94    4.17
  -1  -6   6   37.44    4.46
  -1  -6   6   33.51    4.50
   0   6  -6    0.32    1.22
   0  -6   6   -0.98    1.50
   0  -6   6   -1.51    1.29
  -1   6  -6   19.60    2.59
   1  -6   6   16.87    2.66
   1  -6   6   17.61    2.75
   2  -6   6    3.87    1.30
   2  -6   6    4.85    1.35
   3  -6   6   -0.47    1.21
   3  -6   6   -0.35    1.33
   4  -6   6   11.25    2.02
   4  -6   6   11.94    2.03
   5  -6   6    4.43    1.34
   5  -6   6    4.47    1.70
   2   5  -6    0.18    1.51
  -2  -5   6    1.33    1.50
   1   5  -6   15.95    2.50
  -1  -5   6   15.16    2.25
   0   5  -6   14.31    2.18
   0  -5   6   14.08    2.27
   0  -5   6   14.17    2.12
  -1   5  -6    1.85    1.10
   1  -5   6    0.47    1.33
   1  -5   6    1.17    0.97
   2  -5   6   14.04    2.19
   2  -5   6   17.23    2.37
   3  -5   6   18.37    2.89
   3  -5   6   22.47    2.53
   4  -5   6    6.33    1.35
   4  -5   6    7.93    1.54
   5  -5   6    8.57    1.58
   5  -5   6   10.36    1.62
   6  -5   6    6.18    1.64
   6  -5   6    6.28    1.68
   3   4  -6   10.91    2.02
  -3  -4   6   10.87    2.05
   2   4  -6   10.26    1.78
  -2  -4   6   10.44    1.83
   1   4  -6    1.71    1.15
  -1  -4   6    2.02    1.08
   0   4  -6   18.17    2.37
   0  -4   6   20.96    2.52
  -1   4  -6    5.05    1.15
   1  -4   6    4.66    1.27
   1  -4   6    6.07    1.08
   2  -4   6    6.53    1.15
   2  -4   6    8.12    1.36
   3  -4   6   15.40    2.18
   3  -4   6   15.41    2.23
   4  -4   6    0.85    0.96
   4  -4   6    0.67    1.12
   5  -4   6   10.53    1.65
   5  -4   6    9.52    1.76
   6  -4   6   16.57    2.51
   6  -4   6   11.74    2.09
   7  -4   6   11.20    2.05
   7  -4   6    7.22    1.61
   4   3  -6   16.39    2.50
  -4  -3   6   13.53    2.74
   3   3  -6    5.54    1.46
  -3  -3   6    6.47    1.58
  -3  -3   6    4.73    1.70
   2   3  -6   46.10    4.79
  -2  -3   6   36.16    5.00
  -2  -3   6   51.15    5.12
   1   3  -6   40.16    4.29
  -1  -3   6   40.33    4.47
   0   3  -6   18.11    2.29
   0  -3   6   20.26    2.36
  -1   3  -6   74.63    7.94
   1  -3   6   74.77    8.34
   1  -3   6   92.70    7.98
   2  -3   6    4.66    1.11
   2  -3   6    3.35    0.76
   3  -3   6   40.60    5.05
   3  -3   6   58.90    5.38
   4  -3   6   33.11    3.87
   4  -3   6   37.03    3.79
   5  -3   6    9.12    1.44
   5  -3   6    9.73    1.59
   6  -3   6   35.91    4.37
   6  -3   6   43.55    4.62
   7  -3   6    0.86    1.46
   7  -3   6    1.00    1.23
   8  -3   6    5.69    1.52
   8  -3   6    7.01    1.78
   4   2  -6   25.95    3.39
  -4  -2   6   25.15    3.46
  -4  -2   6   25.08    4.09
   3   2  -6    7.46    1.55
  -3  -2   6    7.47    1.44
  -3  -2   6    9.60    1.93
   2   2  -6   32.13    3.37
  -2  -2   6   28.06    3.59
   1   2  -6   16.38    2.15
  -1  -2   6   16.48    2.30
  -1  -2   6   17.91    2.28
   0   2  -6    1.15    0.79
   0  -2   6    2.43    0.72
   0  -2   6    1.63    0.62
   0  -2   6    0.62    0.58
   1  -2   6   25.84    3.08
   1  -2   6   25.42    2.96
   1  -2   6   29.58    3.00
   1  -2   6   28.48    2.68
   2  -2   6   19.94    2.42
   2  -2   6   21.14    2.41
   2  -2   6   20.18    2.33
   2  -2   6   22.11    2.35
   3  -2   6    2.79    0.96
   3  -2   6    4.84    0.78
   3  -2   6    6.49    1.01
   3  -2   6    5.79    0.79
   4  -2   6   36.91    3.82
   4  -2   6   37.71    4.02
   4  -2   6   36.83    4.04
   5  -2   6    8.39    1.34
   5  -2   6    5.91    1.13
   6  -2   6   20.14    2.48
   6  -2   6   15.33    2.12
   7  -2   6   20.97    2.87
   7  -2   6   18.41    2.81
   8  -2   6    1.62    1.40
   8  -2   6    2.45    1.23
   4   1  -6    3.37    1.63
  -4  -1   6    7.54    1.82
  -4  -1   6    5.05    1.25
   3   1  -6   30.79    3.78
  -3  -1   6   31.63    3.91
  -3  -1   6   34.30    4.15
   2   1  -6    0.84    0.79
  -2  -1   6    0.18    0.91
  -2  -1   6   -1.32    0.96
   1   1  -6   27.70    3.58
  -1  -1   6   41.46    3.91
  -1  -1   6   36.07    4.01
   0   1  -6   66.35    6.40
   0  -1   6   66.47    6.04
   0  -1   6   64.85    6.75
   0  -1   6   60.01    6.90
  -1   1  -6    6.46    1.15
   1  -1   6    9.47    1.08
   1  -1   6    9.91    1.13
   1  -1   6    7.60    1.07
   1  -1   6    8.01    1.32
   2  -1   6  156.63   16.10
   3  -1   6    5.09    0.80
   3  -1   6    4.27    0.91
   4  -1   6   53.55    5.26
   4  -1   6   44.57    5.26
   4  -1   6   51.53    5.02
   5  -1   6   52.28    5.52
   5  -1   6   50.10    5.19
   6  -1   6    0.62    0.80
   6  -1   6    0.85    0.97
   7  -1   6   25.21    3.43
   7  -1   6   28.55    3.25
   8  -1   6   19.53    2.81
   8  -1   6   14.59    2.26
   8  -1   6   12.46    2.48
   9  -1   6   18.41    3.13
  -5   0   6   44.08    5.21
   4   0  -6    4.47    1.38
  -4   0   6    7.55    1.61
  -4   0   6    3.49    1.39
   3   0  -6  133.01   12.86
  -3   0   6  131.09   13.78
  -3   0   6  123.55   13.68
   2   0  -6    2.32    0.83
  -2   0   6    3.56    1.10
  -2   0   6    0.53    1.08
   1   0  -6   26.76    2.87
  -1   0   6   30.54    3.22
  -1   0   6   21.26    3.16
  -1   0   6   30.23    3.28
  -1   0   6   27.87    2.69
   0   0   6   82.93    7.91
   0   0   6   84.37    7.05
   0   0   6   67.49    8.02
   0   0   6   65.93    7.89
  -1   0  -6    7.46    0.98
   1   0   6    5.54    1.10
   1   0   6    8.55    0.92
   1   0   6    6.82    1.05
   2   0   6   73.17    9.06
   2   0   6   99.29    8.41
   3   0   6   52.69    5.33
   3   0   6   50.41    5.36
   4   0   6    3.20    0.61
   4   0   6    4.41    0.84
   4   0   6    1.98    0.62
   5   0   6   61.53    7.58
   5   0   6   73.78    7.10
   5   0   6   81.24    7.66
   6   0   6   11.21    1.77
   6   0   6   13.18    2.14
   6   0   6   13.94    2.07
   7   0   6   15.21    2.03
   7   0   6   18.31    2.83
   7   0   6    9.95    1.85
   8   0   6   29.18    3.54
   8   0   6   29.62    3.84
   8   0   6   29.59    3.97
   9   0   6    2.80    1.67
   9   0   6    3.28    1.79
  -5   1   6   30.59    4.15
  -4   1   6    7.02    1.72
  -4   1   6    7.73    1.60
   3  -1  -6    3.38    1.00
  -3   1   6    1.94    1.22
  -3   1   6    1.84    1.12
   2  -1  -6   34.40    3.49
  -2   1   6   38.27    3.97
  -2   1   6   27.96    3.25
  -2   1   6   32.77    3.91
   1  -1  -6  148.95   16.66
  -1   1   6  190.37   17.76
  -1   1   6  176.81   17.74
  -1   1   6  169.49   15.84
   0  -1  -6   72.87    6.62
   0   1   6   66.95    7.04
   0   1   6   68.42    7.07
   0   1   6   63.83    7.08
   0   1   6   64.11    7.23
   1   1   6  200.37   20.57
   1   1   6  215.84   22.87
   1   1   6  251.02   22.86
   2   1   6    6.12    0.67
   2   1   6    3.24    1.08
   2   1   6    3.47    0.95
   2   1   6    6.51    0.92
   3   1   6   62.68    6.72
   3   1   6   60.26    6.00
   4   1   6   40.90    4.74
   4   1   6   36.18    5.10
   4   1   6   51.79    4.45
   4   1   6   46.24    4.74
   5   1   6   18.15    2.25
   5   1   6   12.52    2.35
   5   1   6   16.69    2.14
   5   1   6   18.23    2.00
   6   1   6   69.58    7.23
   6   1   6   63.87    6.62
   7   1   6    0.57    1.13
   7   1   6    0.25    1.22
   7   1   6    1.45    1.08
   8   1   6   28.50    4.16
   8   1   6   32.22    4.07
   8   1   6   29.34    3.69
   9   1   6   17.86    3.36
   9   1   6   22.63    3.64
   9   1   6   24.43    2.87
  -4   2   6   37.07    4.71
  -4   2   6   43.74    4.93
  -3   2   6   12.08    1.77
  -3   2   6   10.10    1.85
  -3   2   6    9.39    1.44
  -2   2   6   73.08    7.97
  -2   2   6   76.84    6.96
  -2   2   6   69.14    7.82
   1  -2  -6   55.19    5.38
  -1   2   6   58.17    5.19
  -1   2   6   56.69    5.97
  -1   2   6   46.59    5.77
   0  -2  -6   55.18    5.89
   0   2   6   56.26    6.32
   0   2   6   71.14    5.75
   1   2   6   22.89    2.60
   1   2   6   28.38    2.86
   1   2   6   23.47    2.60
   2   2   6    0.64    0.69
   2   2   6    0.87    0.27
   2   2   6    0.72    0.82
   3   2   6    5.66    0.76
   3   2   6    4.89    0.69
   3   2   6    4.50    0.96
   3   2   6    2.88    0.68
   3   2   6    4.48    1.24
   4   2   6   76.30    7.78
   4   2   6   83.95    8.35
   5   2   6    0.16    0.63
   5   2   6   -0.22    0.67
   5   2   6   -0.02    0.65
   5   2   6   -0.62    1.29
   6   2   6   42.79    5.02
   6   2   6   38.25    4.33
   6   2   6   46.85    4.88
   7   2   6   15.52    2.27
   7   2   6   17.61    2.78
   7   2   6   14.61    2.32
   8   2   6    5.59    1.70
   8   2   6    3.66    1.71
   9   2   6   45.50    5.47
   9   2   6   40.32    5.65
   9   2   6   39.80    4.84
  -4   3   6   16.61    2.97
  -4   3   6   23.15    3.17
  -3   3   6   32.75    3.81
  -3   3   6   29.61    3.84
  -3   3   6   31.25    3.38
  -2   3   6    3.38    1.07
  -2   3   6    3.99    1.10
  -2   3   6    3.92    0.99
  -1   3   6   84.32    8.74
  -1   3   6   77.93    7.63
   0   3   6    9.61    1.41
   0   3   6   10.65    1.34
   0   3   6    8.35    1.35
   0   3   6   10.38    1.30
   0   3   6    7.27    1.46
   1   3   6   28.03    3.67
   1   3   6   32.88    3.49
   1   3   6   29.68    3.57
   1   3   6   34.93    3.50
   1   3   6   37.58    3.28
   2   3   6  138.31   13.60
   2   3   6  124.83   13.71
   3   3   6    0.26    0.45
   3   3   6    0.72    0.38
   3   3   6    0.53    0.46
   3   3   6    0.11    0.64
   3   3   6   -0.25    1.04
   4   3   6  164.02   17.04
   4   3   6  162.25   15.86
   4   3   6  169.87   17.29
   5   3   6   25.34    3.37
   5   3   6   29.54    3.77
   5   3   6   28.40    3.09
   5   3   6   36.32    3.24
   6   3   6   22.98    2.87
   6   3   6   17.45    2.99
   6   3   6   18.45    2.55
   7   3   6   94.37   10.57
   7   3   6  102.03   10.85
   8   3   6    3.03    1.43
   8   3   6    2.53    2.19
   8   3   6    0.13    1.74
   9   3   6   41.98    5.69
   9   3   6   40.60    5.26
   9   3   6   40.55    5.67
  -4   4   6    3.49    1.42
  -4   4   6    3.07    1.32
  -4   4   6    2.20    1.49
  -3   4   6   83.79    7.83
  -3   4   6   73.30    8.81
  -3   4   6   87.28    8.78
  -2   4   6   10.00    1.64
  -2   4   6    8.37    1.50
  -2   4   6   14.03    1.66
  -1   4   6   85.96    8.31
  -1   4   6   79.38    8.51
  -1   4   6   69.86    7.46
   0   4   6   60.04    6.75
   0   4   6   55.20    6.96
   0   4   6   68.95    6.72
   0   4   6   71.15    6.13
   1   4   6    0.06    0.53
   1   4   6    0.20    0.71
   1   4   6    0.55    0.67
   1   4   6   -1.70    0.83
   1   4   6    0.17    0.50
   2   4   6   99.22    8.04
   2   4   6   70.33    8.92
   3   4   6   92.26    9.57
   3   4   6   91.42    8.70
   3   4   6  100.31    9.54
   3   4   6   81.51    9.72
   4   4   6   33.62    3.34
   4   4   6   23.09    3.12
   4   4   6   30.16    3.57
   5   4   6  135.09   11.95
   5   4   6  121.36   13.45
   5   4   6  122.11   13.17
   6   4   6   11.10    2.15
   6   4   6   10.38    1.75
   7   4   6   43.23    5.47
   7   4   6   50.25    5.98
   8   4   6   27.20    3.94
   8   4   6   25.53    4.17
  -4   5   6    2.62    1.43
  -4   5   6    3.27    1.33
  -4   5   6    3.33    1.35
  -3   5   6   17.37    2.48
  -3   5   6   18.23    2.70
  -3   5   6   19.42    3.08
  -2   5   6   33.47    3.63
  -2   5   6   24.41    3.68
  -2   5   6   28.34    3.18
  -1   5   6    0.52    0.89
  -1   5   6    1.27    0.83
  -1   5   6    1.31    0.92
   0   5   6   27.73    3.98
   0   5   6   36.72    3.47
   0   5   6   35.04    3.72
   1   5   6   78.62    6.67
   1   5   6   61.37    7.30
   1   5   6   73.64    7.35
   1   5   6   64.75    7.55
   2   5   6   10.27    1.73
   3   5   6  116.47   11.79
   3   5   6  112.15   11.62
   3   5   6  106.35   10.52
   4   5   6    0.75    1.20
   4   5   6    2.18    1.16
   4   5   6    1.30    0.82
   5   5   6   18.35    2.65
   5   5   6   24.15    2.84
   5   5   6   20.66    3.39
   6   5   6   37.07    5.11
   6   5   6   43.38    4.60
   6   5   6   45.45    4.98
   7   5   6    1.83    1.39
   7   5   6    0.06    1.56
   7   5   6   -0.38    1.54
   8   5   6   28.31    5.01
   8   5   6   35.06    4.58
  -3   6   6    0.14    1.48
  -3   6   6    0.99    1.43
  -3   6   6    2.45    1.15
  -2   6   6   47.89    4.67
  -2   6   6   43.66    5.37
  -1   6   6   22.80    2.96
  -1   6   6   21.25    2.66
  -1   6   6   25.33    2.98
   0   6   6   16.32    2.51
   0   6   6   17.58    2.33
   0   6   6   22.83    2.46
   0   6   6   22.61    2.85
   1   6   6   94.26    8.59
   1   6   6   66.01    8.48
   1   6   6   95.00    7.75
   1   6   6   70.13    8.65
   2   6   6   -0.33    1.01
   2   6   6    0.62    0.82
   2   6   6   -0.62    0.92
   3   6   6   50.04    5.72
   3   6   6   57.15    5.29
   3   6   6   50.88    5.92
   4   6   6   37.34    3.92
   4   6   6   27.81    4.12
   4   6   6   32.20    3.63
   5   6   6    1.91    1.08
   5   6   6    2.17    1.30
   5   6   6    1.98    1.78
   6   6   6   54.39    6.89
   6   6   6   55.85    6.33
   6   6   6   55.63    5.76
   7   6   6   -1.83    2.41
   7   6   6   -0.52    1.74
   7   6   6    2.59    1.65
   8   6   6    8.48    2.35
  -2   7   6   14.46    2.26
  -2   7   6   18.60    2.68
  -2   7   6   17.06    2.81
  -1   7   6   33.22    3.74
  -1   7   6   35.28    4.16
  -1   7   6   33.70    4.29
   0   7   6    0.17    0.95
   0   7   6    1.27    1.06
   0   7   6    0.02    1.16
   0   7   6    1.20    0.90
   1   7   6   38.69    4.16
   1   7   6   27.67    4.07
   1   7   6   36.64    3.83
   1   7   6   41.59    4.44
   2   7   6   36.98    3.67
   2   7   6   38.19    4.09
   2   7   6   25.19    4.11
   2   7   6   33.14    3.93
   3   7   6    8.18    1.54
   3   7   6    7.81    1.84
   4   7   6   48.87    6.24
   4   7   6   63.36    5.72
   5   7   6    8.76    2.31
   5   7   6    6.48    1.72
   5   7   6    6.62    1.67
   6   7   6   24.94    4.10
   6   7   6   30.25    3.82
   6   7   6   28.24    3.45
   7   7   6   37.81    4.16
   7   7   6   32.26    5.27
   7   7   6   31.75    4.83
  -1   8   6    1.84    1.46
  -1   8   6    1.18    1.26
  -1   8   6    2.23    1.48
   0   8   6   42.28    4.44
   0   8   6   28.98    3.82
   0   8   6   36.84    4.17
   0   8   6   34.06    4.34
   1   8   6    1.76    1.27
   1   8   6    0.00    0.96
   1   8   6   -0.14    1.24
   1   8   6   -0.77    1.60
   2   8   6   68.63    7.10
   2   8   6   65.35    6.45
   2   8   6   66.16    7.15
   2   8   6   56.03    7.22
   3   8   6   10.18    1.95
   3   8   6   10.97    2.17
   4   8   6   20.82    3.41
   4   8   6   22.86    2.99
   4   8   6   25.11    3.35
   5   8   6   35.01    5.33
   5   8   6   53.45    5.67
   5   8   6   50.97    5.21
   6   8   6   -3.02    1.75
   6   8   6    0.42    1.59
   1   9   6    3.24    1.53
   1   9   6    0.17    1.53
   1   9   6    0.23    1.49
   1   9   6    0.87    1.31
   2   9   6   31.84    3.92
   2   9   6   27.61    4.03
   2   9   6   30.24    4.05
   2   9   6   26.63    3.70
   3   9   6    6.48    1.97
   3   9   6    5.84    2.08
   4   9   6   -2.38    2.08
   4   9   6   -1.97    1.67
  -1   6  -7    3.58    1.28
   1  -6   7    1.66    1.57
   1  -6   7    0.17    1.30
   2  -6   7    3.27    1.36
   2  -6   7    0.66    1.28
   3  -6   7   -0.85    1.28
   3  -6   7   -0.83    1.49
   4  -6   7   14.23    2.33
   4  -6   7   16.72    2.47
   1   5  -7    9.11    1.90
  -1  -5   7    9.33    1.87
   0   5  -7    2.69    1.43
   0  -5   7    3.19    1.70
   0  -5   7    3.87    1.28
  -1   5  -7    1.37    1.13
   1  -5   7   -0.27    1.57
   1  -5   7    0.66    1.05
   2  -5   7   21.73    2.81
   2  -5   7   18.32    2.75
   3  -5   7   -0.06    1.09
   3  -5   7   -0.14    1.36
   4  -5   7   22.98    3.10
   4  -5   7   18.59    2.91
   5  -5   7    0.50    1.55
   5  -5   7    1.64    1.09
   6  -5   7    0.40    1.41
   2   4  -7    9.86    2.01
  -2  -4   7   10.62    1.98
   1   4  -7    5.37    1.46
  -1  -4   7    5.72    1.42
   0   4  -7   28.39    3.05
   0  -4   7   22.82    3.15
  -1   4  -7   -0.09    0.99
   1  -4   7   -0.15    0.87
   1  -4   7   -0.50    1.24
   2  -4   7   26.99    3.13
   2  -4   7   24.87    2.94
   3  -4   7    9.05    1.39
   3  -4   7    7.63    1.48
   4  -4   7    5.86    1.27
   4  -4   7    5.89    1.47
   5  -4   7   19.55    2.86
   5  -4   7   20.86    2.83
   6  -4   7    4.29    1.33
   6  -4   7    2.79    1.48
   7  -4   7    9.17    1.89
   7  -4   7    9.92    1.79
   2   3  -7   11.94    1.96
  -2  -3   7   14.31    2.06
   1   3  -7    3.63    1.23
  -1  -3   7    3.64    1.13
   0   3  -7    7.44    1.36
   0  -3   7    8.98    1.32
  -1   3  -7    1.58    0.90
   1  -3   7    1.95    0.74
   1  -3   7    2.90    1.37
   2  -3   7    0.31    0.64
   2  -3   7    0.67    1.17
   3  -3   7   10.80    1.81
   3  -3   7   17.03    1.95
   4  -3   7    4.17    0.91
   4  -3   7    4.40    1.04
   5  -3   7    6.88    1.26
   5  -3   7    7.60    1.55
   6  -3   7   10.47    1.82
   7  -3   7    2.20    1.34
   7  -3   7    1.30    1.21
  -3  -2   7   -2.56    1.53
   2   2  -7   30.85    3.58
  -2  -2   7   26.79    3.84
  -2  -2   7   35.10    3.94
   1   2  -7   13.72    1.96
  -1  -2   7   13.88    2.13
  -1  -2   7   13.21    2.31
   0   2  -7    2.11    0.92
   0  -2   7    2.09    0.74
   0  -2   7    2.59    0.83
  -1   2  -7  105.21   10.52
   1  -2   7  108.20   11.08
   2  -2   7    9.58    1.25
   2  -2   7    8.37    1.33
   2  -2   7    8.86    1.29
   3  -2   7   72.42    7.80
   3  -2   7   84.87    7.81
   3  -2   7   65.98    7.42
   4  -2   7   31.91    3.37
   4  -2   7   28.95    3.36
   5  -2   7    7.64    1.27
   5  -2   7    9.39    1.51
   6  -2   7   35.47    3.74
   6  -2   7   26.23    3.51
   7  -2   7    2.93    1.26
   7  -2   7    2.60    1.11
   8  -2   7    7.87    1.68
   8  -2   7    9.13    1.83
  -3  -1   7   14.90    2.43
  -3  -1   7   15.77    2.53
  -2  -1   7    5.23    1.47
  -2  -1   7    6.33    1.50
   1   1  -7   35.61    4.16
  -1  -1   7   46.09    4.49
  -1  -1   7   38.40    4.63
   0   1  -7    8.98    1.52
   0  -1   7   12.19    1.95
   0  -1   7   11.58    1.55
  -1   1  -7   42.30    4.00
   1  -1   7   32.75    3.75
   1  -1   7   42.25    4.11
   1  -1   7   37.97    4.37
   2  -1   7   26.27    2.86
   2  -1   7   31.19    2.78
   2  -1   7   27.05    3.17
   2  -1   7   24.27    2.98
   2  -1   7   26.39    2.86
   3  -1   7    0.42    0.38
   3  -1   7    0.07    0.82
   3  -1   7    1.00    0.69
   3  -1   7    0.66    0.37
   4  -1   7   15.05    1.96
   4  -1   7   18.84    2.12
   5  -1   7   24.80    3.08
   5  -1   7   29.36    3.06
   6  -1   7    2.78    1.13
   6  -1   7    3.37    0.94
   7  -1   7   32.12    3.90
   7  -1   7   32.97    3.85
   8  -1   7    2.72    1.35
   8  -1   7    4.28    1.85
   8  -1   7    2.74    1.34
  -3   0   7   31.91    4.04
  -3   0   7   31.42    4.05
  -2   0   7    9.77    1.68
  -2   0   7    9.33    1.64
  -1   0   7    9.21    1.49
  -1   0   7    6.42    1.24
   0   0   7   90.24    9.34
   0   0   7   91.42    9.12
   0   0   7   80.91    9.15
  -1   0  -7    0.09    0.50
   1   0   7   -0.45    0.43
   1   0   7    0.55    0.96
   1   0   7    1.16    0.36
   1   0   7    1.00    0.78
   1   0   7    0.53    0.67
   2   0   7  133.06   13.37
   2   0   7  120.93   12.33
   3   0   7    9.62    1.56
   3   0   7   10.47    1.50
   4   0   7   24.84    2.76
   4   0   7   25.07    2.69
   5   0   7   57.82    5.25
   5   0   7   44.43    5.48
   5   0   7   52.59    5.47
   6   0   7    0.93    1.48
   6   0   7    1.01    0.93
   6   0   7    0.25    0.82
   7   0   7   32.18    4.04
   7   0   7   30.63    3.27
   7   0   7   22.29    3.39
   8   0   7    7.66    1.55
   8   0   7    6.15    1.55
   8   0   7    8.35    1.95
  -4   1   7    1.63    1.34
  -4   1   7    5.89    1.54
  -3   1   7   27.39    3.28
  -3   1   7   18.24    3.08
  -2   1   7   27.24    3.27
  -2   1   7   20.39    3.15
  -1   1   7   17.83    2.02
  -1   1   7   14.03    2.45
  -1   1   7   23.73    2.67
   0   1   7   88.98    7.75
   0   1   7   67.00    8.81
   0   1   7   89.44    8.62
   1   1   7   19.15    2.54
   1   1   7   22.12    2.20
   1   1   7   16.27    2.46
   1   1   7   19.72    2.14
   2   1   7   17.39    1.74
   2   1   7   11.25    2.01
   2   1   7   12.77    2.02
   3   1   7   -0.58    1.04
   3   1   7    2.12    0.81
   3   1   7    1.11    0.78
   4   1   7    6.49    1.70
   4   1   7    7.88    1.20
   4   1   7    7.32    1.12
   4   1   7    8.01    1.08
   5   1   7   32.64    4.83
   5   1   7   44.81    4.10
   5   1   7   33.88    4.34
   5   1   7   45.92    4.40
   6   1   7   17.83    2.87
   6   1   7   20.62    2.79
   6   1   7   22.54    2.40
   7   1   7    8.50    1.70
   7   1   7   10.40    1.95
   7   1   7    9.17    1.51
   8   1   7   34.80    4.37
   8   1   7   29.74    4.13
   8   1   7   28.71    3.76
   9   1   7    3.31    2.05
   9   1   7    4.20    1.70
  -3   2   7    6.35    1.54
  -3   2   7    4.06    1.46
  -2   2   7   60.35    6.59
  -2   2   7   78.29    7.65
  -2   2   7   69.12    7.47
  -1   2   7    8.04    1.61
  -1   2   7    8.80    1.41
  -1   2   7    9.66    1.32
   0   2   7   32.27    2.91
   0   2   7   27.59    3.21
   0   2   7   23.72    3.14
   0   2   7   32.04    3.50
   1   2   7   75.35    8.67
   1   2   7   83.65    9.00
   1   2   7   93.94    7.92
   2   2   7   20.67    2.95
   2   2   7   27.65    2.97
   2   2   7   19.97    2.50
   2   2   7   25.73    2.53
   3   2   7  193.38   18.79
   3   2   7  162.40   17.33
   3   2   7  187.29   16.78
   4   2   7  129.43   13.48
   4   2   7  136.81   12.64
   4   2   7  136.14   13.50
   4   2   7  117.90   13.81
   5   2   7   64.23    6.81
   5   2   7   77.93    7.86
   6   2   7   70.73    7.79
   6   2   7   74.38    6.76
   6   2   7   59.74    7.29
   7   2   7   -0.54    1.14
   7   2   7    0.68    1.84
   8   2   7   19.13    3.39
   8   2   7   27.01    4.00
   9   2   7   22.01    3.73
   9   2   7   26.06    3.84
  -3   3   7    5.88    1.45
  -3   3   7    4.31    1.66
  -2   3   7   22.18    2.62
  -2   3   7   22.89    3.09
  -2   3   7   25.05    3.06
  -1   3   7   51.71    5.27
  -1   3   7   48.15    5.40
  -1   3   7   44.43    4.75
   0   3   7    0.19    0.79
   0   3   7    0.18    0.56
   0   3   7    0.57    1.14
   1   3   7   68.88    5.76
   1   3   7   57.73    6.32
   1   3   7   55.26    6.24
   1   3   7   58.51    6.26
   2   3   7   44.43    4.54
   2   3   7   47.36    4.30
   2   3   7   44.85    4.54
   2   3   7   38.34    4.75
   2   3   7   39.06    4.92
   3   3   7   24.86    2.74
   3   3   7   27.17    3.33
   3   3   7   25.56    2.82
   4   3   7   48.46    4.39
   4   3   7   46.60    5.27
   4   3   7   45.64    4.46
   4   3   7   37.37    4.65
   5   3   7    1.54    0.70
   5   3   7    1.93    1.70
   6   3   7    2.39    1.02
   6   3   7    3.95    1.95
   7   3   7   54.77    6.84
   7   3   7   62.32    6.70
   8   3   7    0.52    2.20
   8   3   7   -2.82    1.58
  -3   4   7   32.22    4.04
  -3   4   7   31.12    4.24
  -3   4   7   31.74    3.60
  -2   4   7    0.66    1.06
  -2   4   7    0.67    0.90
  -2   4   7   -0.28    1.01
  -1   4   7   33.27    4.20
  -1   4   7   39.05    4.37
  -1   4   7   40.29    3.83
   0   4   7   46.24    4.92
   0   4   7   41.24    4.17
   0   4   7   38.89    4.56
   1   4   7    7.97    1.34
   1   4   7    5.82    1.05
   1   4   7    4.60    0.84
   1   4   7    3.62    1.00
   2   4   7   98.78   11.57
   2   4   7  123.85   10.24
   2   4   7  102.78   11.22
   3   4   7    4.70    0.79
   3   4   7    4.12    1.15
   3   4   7    5.10    1.30
   4   4   7   63.31    7.25
   4   4   7   66.07    6.86
   5   4   7   27.05    3.21
   5   4   7   28.64    3.97
   5   4   7   27.35    3.23
   6   4   7    1.28    1.90
   6   4   7    1.46    1.03
   6   4   7    3.01    1.03
   7   4   7   44.32    5.91
   7   4   7   44.88    5.27
   8   4   7    0.15    2.21
   8   4   7    2.20    1.63
  -3   5   7   31.09    3.94
  -3   5   7   38.08    4.35
  -2   5   7   19.02    2.48
  -2   5   7   21.82    3.16
  -2   5   7   17.66    2.68
  -1   5   7   21.74    3.15
  -1   5   7   23.70    2.86
  -1   5   7   17.84    2.47
   0   5   7   54.63    6.37
   0   5   7   50.87    6.05
   0   5   7   63.69    5.52
   1   5   7    0.51    1.07
   1   5   7    0.16    0.95
   1   5   7   -0.42    0.94
   1   5   7    0.46    0.69
   2   5   7   76.43    8.81
   2   5   7   89.42    8.75
   2   5   7   77.72    9.07
   2   5   7   88.42    7.95
   3   5   7   12.94    1.91
   3   5   7   16.61    2.39
   4   5   7    7.31    1.22
   4   5   7    6.80    1.44
   4   5   7    9.14    1.81
   5   5   7   30.14    3.53
   5   5   7   33.83    4.26
   5   5   7   29.12    3.58
   6   5   7   12.94    2.06
   6   5   7   15.36    2.84
   6   5   7   16.56    2.26
   7   5   7   34.06    4.28
   7   5   7   34.54    4.17
   7   5   7   27.63    4.33
   8   5   7   31.35    4.19
   8   5   7   24.71    3.95
   8   5   7   30.80    4.86
  -2   6   7   30.45    3.86
  -2   6   7   31.93    4.11
  -2   6   7   28.37    3.34
  -1   6   7    1.78    1.49
  -1   6   7    1.40    1.13
  -1   6   7    2.19    1.09
   0   6   7   24.15    2.68
   0   6   7   22.47    2.93
   0   6   7   20.40    3.27
   1   6   7   39.78    4.62
   1   6   7   40.44    4.61
   1   6   7   48.54    4.90
   1   6   7   37.03    4.25
   2   6   7    1.84    1.13
   2   6   7    1.82    1.09
   2   6   7    0.37    1.05
   2   6   7    1.56    0.90
   3   6   7   77.08    6.69
   3   6   7   58.54    7.36
   4   6   7   23.18    3.14
   4   6   7   25.65    3.70
   4   6   7   27.84    3.21
   5   6   7   48.72    5.24
   5   6   7   41.12    5.77
   6   6   7   54.93    7.15
   6   6   7   70.80    7.81
   6   6   7   74.89    6.74
   7   6   7    4.27    1.85
   7   6   7    1.99    1.58
   7   6   7    2.59    2.41
  -1   7   7    7.88    1.71
  -1   7   7    8.90    2.00
  -1   7   7    8.29    1.65
   0   7   7    5.07    1.41
   0   7   7    3.90    1.22
   0   7   7    7.08    1.78
   1   7   7   53.95    6.27
   1   7   7   57.93    6.27
   1   7   7   62.89    6.65
   1   7   7   52.08    5.67
   2   7   7    3.35    1.45
   2   7   7    5.62    1.52
   2   7   7    4.73    1.25
   2   7   7    2.57    1.51
   3   7   7   44.95    5.06
   3   7   7   39.02    4.41
   4   7   7   35.92    4.30
   4   7   7   38.73    4.76
   4   7   7   33.67    4.12
   5   7   7    2.14    1.84
   5   7   7    0.47    1.42
   5   7   7    1.71    1.23
   6   7   7   34.62    4.15
   6   7   7   32.15    3.97
   6   7   7   24.77    4.62
   0   8   7    7.23    1.98
   0   8   7    6.40    1.48
   0   8   7    4.85    1.54
   1   8   7   54.23    5.68
   1   8   7   56.16    6.32
   1   8   7   60.31    6.61
   1   8   7   53.14    6.33
   2   8   7   24.62    3.23
   2   8   7   26.13    3.49
   2   8   7   23.99    3.51
   2   8   7   22.19    3.29
   3   8   7    4.98    1.70
   3   8   7    3.18    1.34
   3   8   7    2.30    1.74
   3   8   7    1.62    1.30
   4   8   7   24.38    4.03
   4   8   7   24.83    3.23
   5   8   7   14.98    2.61
   5   8   7   18.06    2.98
   5   8   7   14.78    3.10
   2  -5   8    3.65    1.58
   3  -5   8    0.40    1.14
   3  -5   8    0.98    1.56
   0  -4   8    3.50    1.16
   0  -4   8    3.69    1.72
  -1   4  -8    3.61    1.19
   1  -4   8    1.75    1.04
   1  -4   8    1.86    1.60
   2  -4   8   13.64    2.17
   2  -4   8   12.68    2.11
   3  -4   8    1.92    0.96
   3  -4   8    2.08    1.23
   4  -4   8    8.30    1.43
   4  -4   8    6.97    1.43
   5  -4   8   11.78    2.09
   5  -4   8   11.66    1.78
   6  -4   8    0.91    1.63
  -1  -3   8    7.74    1.53
   0  -3   8   29.38    3.53
   1  -3   8    2.68    0.91
   1  -3   8    1.58    1.24
   2  -3   8   23.84    2.99
   2  -3   8   29.57    3.37
   3  -3   8   28.89    2.99
   3  -3   8   20.59    3.02
   4  -3   8    7.72    1.36
   4  -3   8    5.06    1.01
   5  -3   8   19.17    2.76
   5  -3   8   19.09    2.64
   6  -3   8    1.95    1.01
   6  -3   8    0.70    1.41
   7  -3   8    5.69    1.64
  -1  -2   8    2.88    1.04
   0  -2   8    5.21    1.03
   1  -2   8   34.06    3.72
   2  -2   8    0.46    0.53
   2  -2   8    0.78    0.95
   3  -2   8   13.64    2.27
   3  -2   8   18.06    2.01
   4  -2   8    4.62    0.88
   4  -2   8    3.88    1.37
   5  -2   8   -0.03    1.19
   5  -2   8    0.57    0.73
   6  -2   8   23.68    3.07
   6  -2   8   24.53    3.07
   7  -2   8    3.99    1.47
   7  -2   8    4.47    1.16
  -2  -1   8   22.75    3.45
  -2  -1   8   25.85    3.41
  -1  -1   8   11.68    1.93
  -1  -1   8    9.64    1.57
   0  -1   8    7.81    1.12
   0  -1   8    6.94    1.45
   1  -1   8   31.39    3.01
   1  -1   8   28.67    3.44
   1  -1   8   23.01    3.04
   2  -1   8    0.51    0.39
   2  -1   8    0.34    0.37
   2  -1   8    0.11    0.96
   2  -1   8   -0.98    1.05
   3  -1   8   15.01    1.56
   3  -1   8   13.05    1.60
   3  -1   8   13.55    2.05
   4  -1   8   25.39    2.87
   4  -1   8   19.60    2.64
   4  -1   8   27.78    2.65
   5  -1   8   -0.06    1.10
   5  -1   8    0.25    0.60
   6  -1   8   50.17    4.63
   6  -1   8   37.18    4.70
   7  -1   8    3.98    1.40
   7  -1   8    2.34    1.05
   8  -1   8    8.35    1.70
   8  -1   8   13.67    2.56
   8  -1   8   10.58    1.92
  -2   0   8    6.56    1.48
  -2   0   8    7.16    1.55
  -1   0   8   14.95    2.25
  -1   0   8   15.18    2.53
   0   0   8    7.25    1.52
   0   0   8    7.91    1.14
   1   0   8   24.28    2.94
   1   0   8   21.67    2.43
   1   0   8   22.55    2.50
   2   0   8   35.85    3.27
   2   0   8   35.26    3.56
   2   0   8   27.72    3.66
   2   0   8   27.17    3.81
   3   0   8   -0.01    0.94
   3   0   8   -0.10    0.90
   3   0   8   -0.13    0.97
   3   0   8   -1.32    1.17
   4   0   8   32.34    3.46
   4   0   8   34.44    3.57
   5   0   8   25.24    3.14
   5   0   8   28.75    3.07
   5   0   8   22.52    3.91
   5   0   8   34.80    3.19
   6   0   8    4.96    1.14
   6   0   8    7.35    2.03
   6   0   8    9.85    1.39
   7   0   8   25.92    3.26
   7   0   8   29.06    3.94
   7   0   8   22.76    2.96
   8   0   8    6.42    1.93
   8   0   8    3.60    1.50
   8   0   8    5.09    1.45
  -2   1   8   11.14    2.16
  -2   1   8   15.14    2.37
  -1   1   8   30.00    3.50
  -1   1   8   22.19    3.14
   0   1   8   45.52    4.91
   1   1   8    0.63    1.01
   1   1   8    0.36    0.40
   1   1   8    0.24    0.38
   1   1   8    0.27    0.85
   2   1   8   50.81    5.17
   2   1   8   41.94    4.46
   3   1   8   63.79    6.00
   3   1   8   58.82    6.88
   3   1   8   63.24    6.81
   4   1   8   26.09    2.91
   5   1   8  107.12   12.31
   5   1   8  123.15   12.31
   5   1   8  127.54   11.62
   6   1   8    2.35    0.94
   6   1   8    3.79    1.11
   6   1   8    2.08    1.66
   7   1   8   21.34    3.13
   7   1   8   23.00    3.81
   7   1   8   25.18    3.03
   8   1   8    8.77    2.24
   8   1   8    5.59    1.66
  -2   2   8   19.75    3.23
  -2   2   8   21.14    3.00
  -1   2   8    1.02    1.25
  -1   2   8    0.24    0.98
   0   2   8   25.40    3.12
   0   2   8   27.74    2.80
   0   2   8   25.10    3.43
   1   2   8   29.95    2.85
   1   2   8   26.33    2.88
   1   2   8   26.50    3.45
   1   2   8   24.85    2.98
   2   2   8    3.79    0.65
   2   2   8    4.92    1.27
   2   2   8    7.73    1.19
   2   2   8    5.67    0.67
   2   2   8    8.08    1.53
   3   2   8   46.84    5.65
   3   2   8   46.29    5.60
   3   2   8   54.42    5.01
   4   2   8   -0.69    0.79
   4   2   8    0.08    1.49
   4   2   8   -0.59    0.39
   4   2   8    0.13    0.37
   4   2   8    0.11    1.08
   5   2   8    4.47    0.83
   5   2   8    6.97    1.13
   5   2   8    6.63    0.96
   5   2   8    3.69    1.86
   6   2   8    5.69    1.79
   6   2   8    4.28    1.07
   7   2   8   13.74    2.03
   7   2   8   14.43    2.91
   8   2   8   29.45    4.42
   8   2   8   24.15    3.63
  -2   3   8   47.67    5.40
  -2   3   8   45.96    5.64
  -1   3   8   19.31    2.66
  -1   3   8   18.79    2.27
  -1   3   8   20.14    2.98
   0   3   8   30.49    3.74
   0   3   8   30.65    3.12
   0   3   8   24.98    3.24
   1   3   8   45.32    5.07
   1   3   8   43.62    4.73
   1   3   8   56.71    5.51
   2   3   8   -0.36    1.20
   2   3   8    0.19    0.42
   2   3   8   -0.12    0.40
   2   3   8    0.07    0.92
   2   3   8   -0.28    0.90
   3   3   8   54.69    6.31
   3   3   8   59.64    6.35
   3   3   8   60.99    5.82
   3   3   8   49.51    5.81
   4   3   8   21.72    2.45
   4   3   8   28.30    3.50
   4   3   8   20.97    2.41
   4   3   8   19.97    2.63
   5   3   8    6.90    2.09
   5   3   8    6.38    1.00
   5   3   8    6.45    1.59
   6   3   8   50.63    5.75
   6   3   8   58.88    6.67
   7   3   8    5.90    2.41
   7   3   8    5.23    1.34
   8   3   8   60.23    7.58
   8   3   8   59.54    6.90
  -2   4   8    2.22    1.19
  -2   4   8   -0.19    1.61
  -2   4   8    3.30    1.05
  -1   4   8   31.85    3.78
  -1   4   8   41.73    4.25
  -1   4   8   37.04    4.60
   0   4   8    1.76    0.75
   0   4   8    2.26    1.15
   0   4   8    1.18    1.36
   1   4   8   27.46    3.93
   1   4   8   33.49    3.35
   1   4   8   31.20    3.48
   2   4   8   31.87    4.09
   2   4   8   29.43    3.76
   2   4   8   34.73    3.46
   3   4   8    4.29    1.35
   3   4   8    6.15    0.90
   3   4   8    6.51    1.43
   3   4   8    5.03    1.33
   4   4   8   46.57    5.18
   4   4   8   48.93    4.52
   4   4   8   37.16    4.58
   5   4   8    9.23    2.14
   5   4   8    7.52    1.43
   5   4   8    6.53    1.11
   6   4   8   14.31    3.05
   6   4   8   17.94    2.53
   6   4   8   19.18    2.60
   7   4   8   39.91    5.64
   7   4   8   40.33    4.75
   8   4   8   -0.01    2.34
   8   4   8    0.80    1.44
  -1   5   8   34.84    3.83
  -1   5   8   32.32    4.16
  -1   5   8   43.82    4.48
   0   5   8   12.66    2.07
   0   5   8   14.85    2.40
   0   5   8   19.32    2.41
   1   5   8    5.63    1.11
   1   5   8    7.55    1.50
   1   5   8    8.05    1.42
   2   5   8   48.82    6.58
   2   5   8   58.71    5.86
   2   5   8   69.08    6.38
   3   5   8   10.13    1.66
   3   5   8   10.79    1.82
   3   5   8    7.78    1.89
   3   5   8    9.34    1.70
   4   5   8   32.43    3.54
   4   5   8   28.79    4.01
   4   5   8   29.56    3.56
   5   5   8   68.44    6.74
   5   5   8   62.73    6.34
   5   5   8   52.42    7.17
   6   5   8    0.21    1.55
   6   5   8    1.23    1.01
   6   5   8   -0.11    1.84
   7   5   8   59.26    6.18
   7   5   8   48.31    5.78
   7   5   8   50.19    6.80
  -1   6   8   12.42    2.07
  -1   6   8   13.27    2.39
  -1   6   8   12.22    1.96
   0   6   8   32.11    3.40
   0   6   8   29.60    3.76
   0   6   8   27.58    3.65
   1   6   8    1.95    0.94
   1   6   8    2.62    1.54
   1   6   8    2.96    1.37
   2   6   8   30.34    4.12
   2   6   8   32.47    3.72
   2   6   8   33.07    4.43
   2   6   8   36.00    3.88
   3   6   8   41.40    4.06
   3   6   8   42.29    3.99
   3   6   8   27.88    4.47
   3   6   8   27.13    4.19
   4   6   8    1.89    1.33
   4   6   8    0.85    1.58
   5   6   8   31.99    4.14
   5   6   8   42.92    4.69
   5   6   8   34.14    4.13
   6   6   8    6.20    1.53
   6   6   8    7.14    2.40
   6   6   8    9.51    1.94
   7   6   8    5.82    2.33
   1   7   8   39.95    4.52
   1   7   8   29.58    3.95
   2   7   8    0.23    1.43
   2   7   8   -0.57    1.68
   2   7   8   -0.11    1.04
   2   7   8   -1.74    1.33
   3   7   8   54.77    5.53
   3   7   8   39.96    4.84
   3   7   8   45.50    5.70
   4   7   8   18.69    2.69
   4   7   8   17.37    2.95
   5   7   8    7.47    1.60
   5   7   8    6.89    2.21
   5   7   8    9.53    1.90
   1  -3   9   -0.87    0.86
   1  -3   9   -0.91    1.69
   2  -3   9    3.79    0.92
   2  -3   9    2.01    1.87
   3  -3   9    5.64    1.44
   3  -3   9    4.32    0.96
   4  -3   9    1.79    1.65
   5  -3   9    5.97    1.18
   5  -3   9    4.34    1.74
   0  -2   9    7.34    1.29
   1  -2   9    3.25    0.84
   1  -2   9    2.03    1.88
   2  -2   9   18.94    2.97
   2  -2   9   18.10    2.18
   3  -2   9    8.24    1.32
   3  -2   9   10.16    1.56
   4  -2   9    0.99    1.37
   4  -2   9    1.53    0.63
   5  -2   9   12.98    1.88
   5  -2   9   13.19    2.11
   6  -2   9    5.73    1.70
   6  -2   9    6.85    1.17
   0  -1   9    3.90    0.91
   1  -1   9   35.36    3.80
   2  -1   9    0.21    0.29
   2  -1   9   -1.68    1.25
   3  -1   9   37.67    4.18
   4  -1   9   20.83    2.78
   5  -1   9    9.85    1.73
   5  -1   9    7.98    1.26
   6  -1   9   25.95    3.20
   6  -1   9   31.30    3.41
   7  -1   9    2.36    0.86
   7  -1   9    2.58    1.37
   7  -1   9    2.11    1.90
  -1   0   9   25.06    3.35
  -1   0   9   21.19    2.94
   0   0   9    1.55    0.74
   0   0   9    1.42    1.52
   1   0   9   43.24    5.42
   1   0   9   54.81    5.94
   1   0   9   58.07    5.40
   2   0   9    7.25    1.62
   2   0   9    6.86    1.58
   3   0   9    8.30    1.90
   3   0   9    9.31    1.51
   3   0   9   10.39    1.75
   3   0   9   10.18    1.71
   4   0   9   13.95    1.93
   4   0   9   15.98    2.08
   4   0   9   10.88    2.35
   4   0   9   11.76    1.89
   5   0   9    0.85    1.38
   5   0   9    0.63    1.60
   5   0   9    1.79    0.46
   6   0   9    9.16    1.36
   6   0   9   10.52    1.67
   6   0   9   10.64    2.32
   7   0   9    5.36    1.26
   7   0   9    7.11    1.81
   7   0   9    7.64    1.48
  -1   1   9   28.64    3.38
  -1   1   9   27.14    3.87
   0   1   9    9.70    1.87
   0   1   9    8.85    1.28
   1   1   9   10.75    1.89
   1   1   9   10.45    1.33
   1   1   9   10.57    1.31
   2   1   9   15.93    2.17
   2   1   9   16.35    2.65
   2   1   9   17.74    2.29
   3   1   9    3.15    1.64
   3   1   9    5.40    1.31
   3   1   9    4.46    1.24
   3   1   9    4.01    1.45
   4   1   9   19.29    2.48
   4   1   9   20.92    2.49
   4   1   9   21.81    2.88
   4   1   9   16.61    2.98
   5   1   9   17.28    1.82
   5   1   9   17.63    2.28
   5   1   9   12.75    2.75
   6   1   9    3.70    0.86
   6   1   9    3.87    1.98
   7   1   9    7.28    1.35
   7   1   9   11.31    2.46
  -1   2   9   16.41    2.73
  -1   2   9   17.97    2.55
   0   2   9   27.19    3.20
   0   2   9   27.72    3.69
   1   2   9   -0.71    1.22
   1   2   9    1.23    0.48
   1   2   9    1.10    1.04
   2   2   9   40.58    4.09
   2   2   9   39.49    4.77
   3   2   9   18.14    2.13
   3   2   9   11.89    2.00
   3   2   9   15.03    2.38
   3   2   9   15.89    2.67
   4   2   9   11.22    1.91
   4   2   9    8.74    2.18
   4   2   9   10.41    1.67
   5   2   9   25.80    4.26
   5   2   9   29.13    3.10
   5   2   9   31.37    3.43
   5   2   9   28.75    3.14
   6   2   9    2.67    2.14
   6   2   9    3.42    0.76
   7   2   9   17.23    2.58
   7   2   9   21.30    3.44
  -1   3   9   12.16    2.32
   0   3   9   19.50    3.11
   0   3   9   19.30    2.54
   0   3   9   17.79    2.41
   1   3   9   36.28    3.59
   1   3   9   28.59    3.58
   1   3   9   34.63    4.24
   2   3   9    0.29    1.42
   2   3   9    0.33    0.51
   2   3   9    0.70    0.41
   2   3   9    0.95    1.17
   3   3   9   54.67    5.02
   3   3   9   55.71    4.96
   3   3   9   45.25    5.61
   3   3   9   40.21    4.99
   3   3   9   47.24    5.63
   4   3   9   19.50    2.53
   4   3   9   20.11    3.20
   4   3   9   16.97    1.93
   4   3   9   15.92    1.90
   5   3   9   24.54    3.88
   5   3   9   21.04    2.77
   5   3   9   19.81    2.39
   6   3   9   42.61    4.61
   6   3   9   39.25    4.48
   6   3   9   44.25    5.72
   7   3   9   -0.97    1.77
   7   3   9    1.23    0.90
   0   4   9   46.24    5.33
   0   4   9   38.53    4.74
   0   4   9   44.56    4.36
   1   4   9   35.18    3.94
   1   4   9   27.40    3.26
   1   4   9   23.69    3.05
   2   4   9    0.11    0.61
   2   4   9   -0.14    1.20
   2   4   9   -1.12    1.60
   3   4   9   24.12    3.12
   3   4   9   18.42    2.32
   3   4   9   21.81    2.84
   3   4   9   21.12    2.84
   4   4   9   25.54    3.06
   4   4   9   24.22    3.59
   4   4   9   25.50    2.87
   5   4   9    2.73    1.88
   5   4   9    3.51    0.84
   5   4   9    2.36    1.59
   6   4   9   21.76    3.06
   6   4   9   21.77    2.68
   6   4   9   21.84    3.69
   7   4   9    5.85    1.39
   7   4   9    4.06    2.21
   7   4   9    5.80    2.65
   0   5   9    7.48    1.75
   0   5   9    5.40    1.47
   1   5   9    7.18    2.05
   1   5   9    8.26    1.36
   1   5   9    8.00    1.70
   2   5   9   62.56    6.20
   2   5   9   73.59    7.40
   2   5   9   56.20    6.63
   3   5   9   -0.57    1.38
   3   5   9    0.33    0.76
   3   5   9   -0.39    1.45
   3   5   9   -0.04    1.43
   4   5   9   54.57    5.97
   4   5   9   66.74    6.26
   4   5   9   49.43    6.62
   5   5   9   15.97    2.25
   5   5   9   17.89    2.87
   5   5   9   13.92    2.26
   6   5   9    9.76    2.63
   6   5   9   11.40    1.69
   6   5   9   10.38    2.31
   1   6   9   -0.59    1.38
   2   6   9   33.43    4.41
   2   6   9   44.95    5.37
   2   6   9   44.99    4.40
   3   6   9    6.17    1.27
   3   6   9    9.93    1.78
   3   6   9    7.33    1.62
   4   6   9   16.54    2.47
   4   6   9   15.00    2.00
   4   6   9   12.89    2.56
   5   6   9   23.71    3.76
   5   6   9   19.48    2.95
   3  -1  10    9.06    1.85
   4  -1  10    1.00    1.52
   4  -1  10   -0.41    1.38
   5  -1  10    4.36    1.69
   5  -1  10    4.94    1.82
   2   0  10    3.70    1.54
   3   0  10    4.27    1.72
   4   0  10   11.64    1.92
   4   0  10    8.03    1.89
   5   0  10   -1.97    1.34
   5   0  10    4.34    1.56
   5   0  10    1.46    1.15
   1   1  10   10.46    2.08
   2   1  10   15.25    2.17
   2   1  10   12.41    2.27
   3   1  10   -1.95    1.30
   3   1  10    2.13    1.24
   4   1  10   50.55    5.12
   4   1  10   41.57    4.53
   4   1  10   28.68    5.10
   4   1  10   38.37    4.21
   5   1  10    2.69    1.71
   5   1  10    0.68    1.51
   6   1  10   15.52    2.85
   6   1  10   15.79    1.74
   1   2  10    3.60    0.65
   1   2  10    4.27    1.64
   2   2  10   41.54    5.18
   3   2  10    3.33    1.62
   3   2  10    3.40    1.43
   4   2  10   24.30    3.22
   4   2  10   20.44    2.96
   4   2  10   20.38    3.54
   5   2  10   17.68    3.20
   5   2  10   17.62    2.62
   5   2  10   22.85    3.15
   6   2  10   -1.17    1.97
   6   2  10   -2.72    1.51
   6   2  10   -0.86    0.48
   2   3  10   17.65    2.17
   2   3  10   10.67    2.41
   3   3  10    9.86    2.35
   3   3  10   10.23    1.78
   4   3  10    1.70    1.46
   4   3  10   -1.26    1.55
   4   3  10    1.15    1.23
   5   3  10   18.54    2.85
   5   3  10   19.86    3.42
   6   3  10    2.21    2.49
   6   3  10    2.88    0.74
   6   3  10    4.99    1.59
   2   4  10    9.52    2.14
   2   4  10   12.85    1.83
   2   4  10    9.56    1.53
   3   4  10   47.50    5.00
   4   4  10   32.41    4.20
   4   4  10   32.39    4.21
   4   4  10   26.40    3.56
   4   4  10   27.87    3.11
   5   4  10   19.65    3.29
   5   4  10   19.64    2.83
   0   0   0    0.00    0.00
;
_shelx_hkl_checksum              5739
_shelx_shelxl_version_number     2014/7
_olex2_submission_special_instructions 'No special instructions were received'
loop_
_space_group_symop_operation_xyz
'x, y, z'
'-x, -y, -z'
loop_
_atom_site_label
_atom_site_type_symbol
_atom_site_fract_x
_atom_site_fract_y
_atom_site_fract_z
_atom_site_U_iso_or_equiv
_atom_site_adp_type
_atom_site_occupancy
_atom_site_site_symmetry_order
_atom_site_calc_flag
_atom_site_refinement_flags_posn
Br1 Br 0.19195(6) 0.38761(5) 0.08463(5) 0.0210(2) Uani 1 1 d .
O1 O 0.1973(5) 1.0834(4) 0.5989(4) 0.0226(7) Uani 1 1 d .
O2 O 0.2120(6) 0.8434(4) 0.7911(4) 0.0309(8) Uani 1 1 d .
C1 C 0.1507(8) 1.1827(6) 0.7459(6) 0.0277(10) Uani 1 1 d .
H1A H 0.1049 1.2971 0.7126 0.042 Uiso 1 1 calc GR
H1B H 0.2674 1.1909 0.7692 0.042 Uiso 1 1 calc GR
H1C H 0.0492 1.1255 0.8530 0.042 Uiso 1 1 calc GR
C2 C 0.2253(6) 0.9131(5) 0.6424(6) 0.0183(8) Uani 1 1 d .
C3 C 0.2723(6) 0.8167(5) 0.4868(5) 0.0150(8) Uani 1 1 d .
C4 C 0.2854(7) 0.6356(6) 0.5233(6) 0.0208(9) Uani 1 1 d .
H4 H 0.2648 0.5806 0.6401 0.025 Uiso 1 1 calc R
C5 C 0.3288(7) 0.5388(6) 0.3863(6) 0.0224(9) Uani 1 1 d .
H5 H 0.3343 0.4182 0.4115 0.027 Uiso 1 1 calc R
C6 C 0.3648(6) 0.6207(5) 0.2092(5) 0.0151(8) Uani 1 1 d .
C7 C 0.3524(7) 0.8005(6) 0.1720(6) 0.0206(9) Uani 1 1 d .
H7 H 0.3754 0.8551 0.0545 0.025 Uiso 1 1 calc R
C8 C 0.3052(7) 0.9001(5) 0.3112(6) 0.0189(9) Uani 1 1 d .
H8 H 0.2958 1.0205 0.2869 0.023 Uiso 1 1 calc R
C9 C 0.4132(6) 0.5119(5) 0.0648(5) 0.0165(8) Uani 1 1 d .
loop_
_atom_site_aniso_label
_atom_site_aniso_U_11
_atom_site_aniso_U_22
_atom_site_aniso_U_33
_atom_site_aniso_U_23
_atom_site_aniso_U_13
_atom_site_aniso_U_12
Br1 0.0153(3) 0.0273(3) 0.0217(3) -0.01311(18) -0.0042(2) -0.00377(18)
O1 0.0327(18) 0.0176(15) 0.0170(14) -0.0091(12) -0.0068(13) 0.0011(13)
O2 0.055(2) 0.0247(16) 0.0172(16) -0.0084(13) -0.0170(16) 0.0007(16)
C1 0.037(3) 0.023(2) 0.023(2) -0.0159(18) -0.006(2) -0.005(2)
C2 0.019(2) 0.020(2) 0.0171(19) -0.0065(15) -0.0057(17) -0.0023(16)
C3 0.0141(19) 0.0168(19) 0.0141(18) -0.0045(15) -0.0042(15) -0.0028(15)
C4 0.028(2) 0.019(2) 0.0137(19) -0.0030(16) -0.0062(18) 0.0008(17)
C5 0.031(3) 0.018(2) 0.016(2) -0.0058(16) -0.0067(19) 0.0013(18)
C6 0.014(2) 0.0189(19) 0.0135(18) -0.0078(15) -0.0043(15) -0.0007(15)
C7 0.026(2) 0.021(2) 0.0141(19) -0.0040(15) -0.0057(17) -0.0007(17)
C8 0.026(2) 0.0160(19) 0.0150(19) -0.0067(15) -0.0071(17) 0.0009(16)
C9 0.020(2) 0.0152(18) 0.0180(19) -0.0061(15) -0.0094(17) -0.0002(15)
loop_
_atom_type_symbol
_atom_type_description
_atom_type_scat_dispersion_real
_atom_type_scat_dispersion_imag
_atom_type_scat_source
C C 0.0033 0.0016 'International Tables Vol C Tables 4.2.6.8 and 6.1.1.4'
H H 0.0000 0.0000 'International Tables Vol C Tables 4.2.6.8 and 6.1.1.4'
Br Br -0.2901 2.4595 'International Tables Vol C Tables 4.2.6.8 and 6.1.1.4'
O O 0.0106 0.0060 'International Tables Vol C Tables 4.2.6.8 and 6.1.1.4'
loop_
_geom_angle_atom_site_label_1
_geom_angle_atom_site_label_2
_geom_angle_atom_site_label_3
_geom_angle
_geom_angle_site_symmetry_1
C2 O1 C1 114.7(3) .
O1 C1 H1A 109.5 .
O1 C1 H1B 109.5 .
O1 C1 H1C 109.5 .
H1A C1 H1B 109.5 .
H1A C1 H1C 109.5 .
H1B C1 H1C 109.5 .
O1 C2 C3 112.7(3) .
O2 C2 O1 124.0(4) .
O2 C2 C3 123.3(4) .
C4 C3 C2 116.9(4) .
C8 C3 C2 122.8(4) .
C8 C3 C4 120.2(4) .
C3 C4 H4 120.0 .
C5 C4 C3 120.0(4) .
C5 C4 H4 120.0 .
C4 C5 H5 119.8 .
C4 C5 C6 120.4(4) .
C6 C5 H5 119.8 .
C5 C6 C9 118.8(4) .
C7 C6 C5 119.9(4) .
C7 C6 C9 121.3(4) .
C6 C7 H7 119.9 .
C6 C7 C8 120.1(4) .
C8 C7 H7 119.9 .
C3 C8 C7 119.4(4) .
C3 C8 H8 120.3 .
C7 C8 H8 120.3 .
C6 C9 Br1 113.2(3) .
C9 C9 Br1 118.8(4) 2_665
C9 C9 C6 128.0(5) 2_665
loop_
_geom_bond_atom_site_label_1
_geom_bond_atom_site_label_2
_geom_bond_distance
_geom_bond_site_symmetry_2
Br1 C9 1.909(4) .
O1 C1 1.453(5) .
O1 C2 1.336(5) .
O2 C2 1.206(5) .
C1 H1A 0.9600 .
C1 H1B 0.9600 .
C1 H1C 0.9600 .
C2 C3 1.496(5) .
C3 C4 1.397(6) .
C3 C8 1.397(5) .
C4 H4 0.9300 .
C4 C5 1.377(6) .
C5 H5 0.9300 .
C5 C6 1.399(6) .
C6 C7 1.388(6) .
C6 C9 1.485(5) .
C7 H7 0.9300 .
C7 C8 1.402(5) .
C8 H8 0.9300 .
C9 C9 1.317(8) 2_665
loop_
_geom_torsion_atom_site_label_1
_geom_torsion_atom_site_label_2
_geom_torsion_atom_site_label_3
_geom_torsion_atom_site_label_4
_geom_torsion
_geom_torsion_site_symmetry_4
O1 C2 C3 C4 -174.1(4) .
O1 C2 C3 C8 6.8(6) .
O2 C2 C3 C4 5.1(7) .
O2 C2 C3 C8 -174.0(5) .
C1 O1 C2 O2 0.7(7) .
C1 O1 C2 C3 179.9(4) .
C2 C3 C4 C5 -179.8(4) .
C2 C3 C8 C7 178.7(4) .
C3 C4 C5 C6 1.6(8) .
C4 C3 C8 C7 -0.3(7) .
C4 C5 C6 C7 -1.4(7) .
C4 C5 C6 C9 179.4(4) .
C5 C6 C7 C8 0.4(7) .
C5 C6 C9 Br1 71.2(5) .
C5 C6 C9 C9 -105.8(6) 2_665
C6 C7 C8 C3 0.4(7) .
C7 C6 C9 Br1 -107.9(4) .
C7 C6 C9 C9 75.1(7) 2_665
C8 C3 C4 C5 -0.7(7) .
C9 C6 C7 C8 179.6(4) .
