#------------------------------------------------------------------------------
#$Date: 2015-07-24 02:17:18 +0300 (Fri, 24 Jul 2015) $
#$Revision: 152487 $
#$URL: svn://www.crystallography.net/cod/cif/4/12/41/4124191.cif $
#------------------------------------------------------------------------------
#
# This file is available in the Crystallography Open Database (COD),
# http://www.crystallography.net/
#
# All data on this site have been placed in the public domain by the
# contributors.
#
data_4124191
loop_
_publ_author_name
'Vukotic, V. Nicholas'
'O'Keefe, Christopher A'
'Zhu, Kelong'
'Harris, Kristopher J.'
'To, Christine'
'Schurko, Robert W.'
'Loeb, Stephen J.'
_publ_section_title
;
 Mechanically Interlocked Linkers inside Metal-Organic Frameworks: Effect
 of Ring Size on Rotational Dynamics.
;
_journal_name_full               'Journal of the American Chemical Society'
_journal_page_first              150723135020006
_journal_paper_doi               10.1021/jacs.5b04674
_journal_year                    2015
_chemical_formula_moiety         '0.25(C496 H472 Cu48 N64 O240)'
_chemical_formula_sum            'C123 H199 Cu6 N27 O50'
_chemical_formula_weight         3237.32
_chemical_name_systematic
;
 ?
;
_space_group_crystal_system      tetragonal
_space_group_IT_number           87
_space_group_name_Hall           '-I 4'
_space_group_name_H-M_alt        'I 4/m'
_symmetry_space_group_name_Hall  '-I 4'
_symmetry_space_group_name_H-M   'I 4/m'
_atom_sites_solution_hydrogens   mixed
_atom_sites_solution_primary     direct
_audit_creation_date             2015-04-07
_audit_creation_method
;
Olex2 1.2
(compiled 2015.01.26 svn.r3150 for OlexSys, GUI svn.r4998)
;
_cell_angle_alpha                90
_cell_angle_beta                 90
_cell_angle_gamma                90
_cell_formula_units_Z            4
_cell_length_a                   26.1284(6)
_cell_length_b                   26.1284(6)
_cell_length_c                   34.1663(9)
_cell_measurement_reflns_used    9101
_cell_measurement_temperature    150(2)
_cell_measurement_theta_max      59.093
_cell_measurement_theta_min      3.523
_cell_volume                     23325.1(10)
_computing_cell_refinement       'SAINT v8.34A (Bruker, 2013)'
_computing_data_reduction        'SAINT v8.34A (Bruker, 2013)'
_computing_molecular_graphics    'Olex2 (Dolomanov et al., 2009)'
_computing_publication_material  'Olex2 (Dolomanov et al., 2009)'
_computing_structure_refinement  'XL (Sheldrick, 2008)'
_computing_structure_solution    'ShelXS (Sheldrick, 2008)'
_diffrn_ambient_temperature      149.94
_diffrn_measured_fraction_theta_full 0.791
_diffrn_measured_fraction_theta_max 0.997
_diffrn_measurement_device_type  'Bruker APEX-II CCD'
_diffrn_measurement_method       '\f and \w scans'
_diffrn_radiation_type           CuK\a
_diffrn_radiation_wavelength     1.54178
_diffrn_reflns_av_R_equivalents  0.0288
_diffrn_reflns_av_unetI/netI     0.0183
_diffrn_reflns_laue_measured_fraction_full 0.791
_diffrn_reflns_laue_measured_fraction_max 0.997
_diffrn_reflns_limit_h_max       25
_diffrn_reflns_limit_h_min       -29
_diffrn_reflns_limit_k_max       26
_diffrn_reflns_limit_k_min       -29
_diffrn_reflns_limit_l_max       37
_diffrn_reflns_limit_l_min       -36
_diffrn_reflns_number            53898
_diffrn_reflns_point_group_measured_fraction_full 0.791
_diffrn_reflns_point_group_measured_fraction_max 0.997
_diffrn_reflns_theta_full        67.679
_diffrn_reflns_theta_max         58.913
_diffrn_reflns_theta_min         2.391
_diffrn_standards_number         0
_exptl_absorpt_coefficient_mu    1.095
_exptl_absorpt_correction_T_max  0.7516
_exptl_absorpt_correction_T_min  0.6336
_exptl_absorpt_correction_type   multi-scan
_exptl_absorpt_process_details
;
SADABS-2012/1 (Bruker,2012) was used for absorption correction.
wR2(int) was 0.0987 before and 0.0610 after correction.
The Ratio of minimum to maximum transmission is 0.8430.
The \l/2 correction factor is 0.0015.
;
_exptl_crystal_density_diffrn    0.922
_exptl_crystal_F_000             6800
_refine_diff_density_max         0.778
_refine_diff_density_min         -0.778
_refine_diff_density_rms         0.095
_refine_ls_extinction_method     none
_refine_ls_goodness_of_fit_ref   1.116
_refine_ls_hydrogen_treatment    mixed
_refine_ls_matrix_type           full
_refine_ls_number_parameters     491
_refine_ls_number_reflns         8519
_refine_ls_number_restraints     42
_refine_ls_restrained_S_all      1.118
_refine_ls_R_factor_all          0.0786
_refine_ls_R_factor_gt           0.0761
_refine_ls_shift/su_max          0.001
_refine_ls_shift/su_mean         0.000
_refine_ls_structure_factor_coef Fsqd
_refine_ls_weighting_details
'w=1/[\s^2^(Fo^2^)+(0.1035P)^2^+149.1925P] where P=(Fo^2^+2Fc^2^)/3'
_refine_ls_weighting_scheme      calc
_refine_ls_wR_factor_gt          0.2164
_refine_ls_wR_factor_ref         0.2189
_reflns_Friedel_coverage         0.000
_reflns_number_gt                8155
_reflns_number_total             8519
_reflns_threshold_expression     'I > 2\s(I)'
_iucr_refine_instructions_details
;
TITL cu_NV003_0m in I4/m
CELL 1.54178 26.1284 26.1284 34.1663 90 90 90
ZERR 4 0.0006 0.0006 0.0009 0 0 0
LATT 2
SYMM -X,-Y,+Z
SYMM -Y,+X,+Z
SYMM +Y,-X,+Z
SFAC C H Cu N O
UNIT 492 796 24 108 200
SIMU 0.04 0.08 1.7 O1S N1S C1S C2S C3S
SIMU 0.04 0.08 1.7 O2S N2S C4S C5S C6S
 
L.S. 50 0 214
PLAN  10
TEMP -123.21
BOND
MORE -1
BOND $H
CONF
fmap 2
acta
REM <olex2.extras>
REM <HklSrc "%.\\cu_nv003_0m_sqd.hkl">
REM </olex2.extras>
 
WGHT    0.103500  149.192505
FVAR       0.26413
CU1   3    0.599771    0.230915    0.781215    11.00000    0.04197    0.04739 =
         0.04914   -0.01425    0.00302    0.00189
CU2   3   -0.074991    0.203653    0.663434    11.00000    0.03943    0.04595 =
         0.04901   -0.01259    0.00345   -0.00111
CU3   3    0.124883    0.279048    0.500000    10.50000    0.04986    0.03998 =
         0.05150    0.00000    0.00000   -0.00994
CU4   3    0.169186    0.370145    0.500000    10.50000    0.04863    0.03863 =
         0.05367    0.00000    0.00000   -0.00823
O1    5    0.281463    0.159345    0.684605    11.00000    0.05412    0.04746 =
         0.05045    0.00490   -0.00776   -0.00556
O2    5    0.223087    0.139067    0.639153    11.00000    0.06110    0.05283 =
         0.06499    0.01101   -0.01839   -0.00739
O3    5    0.175847    0.263769    0.540356    11.00000    0.06502    0.05853 =
         0.06589    0.01812   -0.01276   -0.00836
O4    5    0.214302    0.340525    0.539783    11.00000    0.05895    0.05089 =
         0.05187    0.00492   -0.00449   -0.00502
O5    5    0.536331    0.254416    0.756288    11.00000    0.04220    0.07297 =
         0.05907   -0.01562   -0.00325    0.01045
O6    5    0.513999    0.307574    0.804994    11.00000    0.05196    0.09779 =
         0.05787   -0.02079   -0.00830    0.02600
O7    5    0.345618    0.388058    0.803533    11.00000    0.04311    0.08390 =
         0.05817   -0.01055   -0.01198    0.01063
O8    5    0.290073    0.365253    0.756811    11.00000    0.04439    0.05499 =
         0.05847   -0.00314   -0.00736    0.00115
O9    5    0.118322    0.385471    0.540878    11.00000    0.06223    0.04680 =
         0.07744    0.00389    0.02342   -0.00779
O10   5    0.081126    0.307650    0.540412    11.00000    0.06127    0.05190 =
         0.06440    0.00118    0.01863   -0.00980
O11   5   -0.042576    0.264249    0.640679    11.00000    0.06891    0.04798 =
         0.06799   -0.01418    0.02742   -0.01309
O12   5   -0.060621    0.319731    0.688737    11.00000    0.05074    0.04914 =
         0.06380   -0.01759    0.01323   -0.00276
N1    4    0.410289    0.294080    0.648976    11.00000    0.07277    0.09325 =
         0.06434   -0.00399    0.00130   -0.01515
AFIX  43
H1    2    0.433608    0.274308    0.638173    11.00000   -1.20000
AFIX   0
C1    1    0.257079    0.167720    0.653518    11.00000    0.04566    0.04695 =
         0.05377    0.00279   -0.00324    0.00559
C2    1    0.269352    0.215039    0.631119    11.00000    0.05541    0.04607 =
         0.04826    0.00084   -0.00354    0.00124
C3    1    0.313004    0.243483    0.639989    11.00000    0.05377    0.05556 =
         0.04474   -0.00486   -0.00340   -0.00098
AFIX  43
H3    2    0.335373    0.232536    0.660248    11.00000   -1.20000
AFIX   0
C4    1    0.323749    0.288021    0.619062    11.00000    0.06130    0.05689 =
         0.04053   -0.00220    0.00289   -0.00852
C5    1    0.289464    0.305016    0.591090    11.00000    0.06123    0.05044 =
         0.04235    0.00066    0.00421   -0.00378
AFIX  43
H5    2    0.295766    0.336322    0.577795    11.00000   -1.20000
AFIX   0
C6    1    0.245801    0.276732    0.582200    11.00000    0.05471    0.05237 =
         0.04023    0.00265    0.00400    0.00183
C7    1    0.236811    0.231080    0.601427    11.00000    0.04834    0.05470 =
         0.05236    0.00019   -0.00394    0.00083
AFIX  43
H7    2    0.208256    0.210593    0.594302    11.00000   -1.20000
AFIX   0
C8    1    0.209496    0.295785    0.552062    11.00000    0.05817    0.05602 =
         0.04552    0.00583    0.00308   -0.00474
C9    1    0.370301    0.316858    0.625410    11.00000    0.06157    0.06813 =
         0.04210    0.00003   -0.00688   -0.01606
AFIX  23
H9A   2    0.360731    0.349811    0.637697    11.00000   -1.20000
H9B   2    0.385083    0.324898    0.599448    11.00000   -1.20000
AFIX   0
C10   1    0.411322    0.304369    0.690730    11.00000    0.04902    0.05542 =
         0.05144    0.00472   -0.00221   -0.01143
C11   1    0.453843    0.289625    0.711562    11.00000    0.04559    0.06445 =
         0.05443   -0.00669    0.00341   -0.00411
AFIX  43
H11   2    0.480100    0.270908    0.698716    11.00000   -1.20000
AFIX   0
C12   1    0.459219    0.301331    0.750487    11.00000    0.04645    0.06107 =
         0.05727   -0.00482   -0.00287   -0.00414
C13   1    0.420696    0.328445    0.770141    11.00000    0.04491    0.06865 =
         0.05267   -0.00023    0.00110    0.00700
AFIX  43
H13   2    0.425023    0.338239    0.796713    11.00000   -1.20000
AFIX   0
C14   1    0.376287    0.340694    0.750195    11.00000    0.04731    0.05421 =
         0.05564    0.00342   -0.00232    0.00171
C15   1    0.371793    0.328154    0.710675    11.00000    0.04710    0.05321 =
         0.05669    0.00507   -0.00297   -0.00843
AFIX  43
H15   2    0.341014    0.336083    0.697172    11.00000   -1.20000
AFIX   0
C16   1    0.506934    0.285787    0.772672    11.00000    0.03992    0.07151 =
         0.05789   -0.00684    0.00063    0.00206
C17   1    0.333759    0.366446    0.772150    11.00000    0.04478    0.04636 =
         0.05415    0.00369   -0.00557    0.00241
C18   1    0.086743    0.352894    0.552864    11.00000    0.05364    0.05006 =
         0.06345    0.00488    0.00509   -0.00141
C19   1    0.053015    0.368641    0.586788    11.00000    0.05150    0.04657 =
         0.07425    0.00508    0.01658    0.00635
C20   1    0.053219    0.418888    0.599859    11.00000    0.05667    0.04487 =
         0.11585    0.00242    0.02851   -0.00227
AFIX  43
H20   2    0.075343    0.443094    0.587851    11.00000   -1.20000
AFIX   0
C21   1    0.021754    0.434153    0.630030    11.00000    0.05539    0.04196 =
         0.16514   -0.01904    0.03487    0.00160
C22   1   -0.007978    0.397401    0.649423    11.00000    0.05399    0.04981 =
         0.12224   -0.02800    0.03234   -0.00153
AFIX  43
H22   2   -0.027911    0.406950    0.671501    11.00000   -1.20000
AFIX   0
C23   1   -0.008338    0.347312    0.636479    11.00000    0.04602    0.04580 =
         0.08501   -0.01084    0.01391   -0.00691
C24   1    0.021679    0.332766    0.605061    11.00000    0.04320    0.04415 =
         0.06451   -0.00580    0.00987   -0.00032
AFIX  43
H24   2    0.020926    0.298413    0.595972    11.00000   -1.20000
AFIX   0
C25   1   -0.039216    0.307029    0.657026    11.00000    0.04203    0.04811 =
         0.06204   -0.01315    0.00961   -0.00588
N2    4    0.020270    0.488385    0.639614    11.00000    0.08162    0.04423 =
         0.30929   -0.00527    0.06890    0.00660
O1S   5    0.623824    0.178727    0.736679    11.00000    0.05158    0.07561 =
         0.08076   -0.03697    0.02264   -0.00481
N1S   4    0.690382    0.154468    0.698603    11.00000    0.08187    0.09211 =
         0.08062   -0.01105    0.03359    0.01624
C1S   1    0.666806    0.182290    0.722892    11.00000    0.08843    0.07145 =
         0.07035   -0.00185    0.00867    0.01203
AFIX  43
H1S   2    0.685788    0.210921    0.732002    11.00000   -1.20000
AFIX   0
C2S   1    0.668927    0.100357    0.691316    11.00000    0.23365    0.19098 =
         0.20773   -0.09538    0.07362   -0.00564
AFIX  33
H2SA  2    0.635562    0.097000    0.704165    11.00000   -1.50000
H2SB  2    0.692606    0.074872    0.702038    11.00000   -1.50000
H2SC  2    0.664970    0.094792    0.663112    11.00000   -1.50000
AFIX   0
C3S   1    0.737521    0.157663    0.680941    11.00000    0.11084    0.24116 =
         0.15199    0.05633    0.08287    0.07629
AFIX  33
H3SA  2    0.751382    0.192210    0.684459    11.00000   -1.50000
H3SB  2    0.734019    0.150373    0.652932    11.00000   -1.50000
H3SC  2    0.760781    0.132686    0.692833    11.00000   -1.50000
AFIX   0
O2S   5   -0.045400    0.154577    0.618220    11.00000    0.19107    0.09154 =
         0.07586   -0.02984    0.01352    0.05897
AFIX  43
H2S   2   -0.063597    0.128492    0.604746    11.00000   -1.20000
AFIX   0
N2S   4    0.051345    0.151585    0.597747    11.00000    0.24400    0.21855 =
         0.33218   -0.10183    0.13406    0.00989
C4S   1    0.010203    0.169630    0.611959    11.00000    0.18482    0.15247 =
         0.18957   -0.04861    0.07967    0.02121
AFIX  43
H4S   2    0.016024    0.203141    0.621785    11.00000   -1.20000
AFIX   0
C5S   1    0.040894    0.100773    0.565924    11.00000    0.40020    0.24232 =
         0.61121   -0.24197   -0.02337   -0.03961
AFIX  33
H5SA  2    0.006117    0.087589    0.569634    11.00000   -1.50000
H5SB  2    0.065690    0.073530    0.571320    11.00000   -1.50000
H5SC  2    0.044981    0.112541    0.538869    11.00000   -1.50000
AFIX   0
C6S   1    0.091360    0.165488    0.581424    11.00000    0.06881    0.33238 =
         0.50724   -0.24888    0.06650   -0.01883
AFIX  33
H6SA  2    0.104700    0.196066    0.594533    11.00000   -1.50000
H6SB  2    0.084244    0.173417    0.553923    11.00000   -1.50000
H6SC  2    0.116777    0.137975    0.582911    11.00000   -1.50000
AFIX   0
O3W   5    0.092324    0.204746    0.514757    10.50000    0.08097    0.05110 =
         0.10270   -0.00552    0.00824   -0.02534
AFIX   3
H3WA  2    0.063154    0.202056    0.503926    10.50000    0.10281
H3WB  2    0.111164    0.185946    0.499996    10.50000    0.11413
AFIX   0
O4W   5    0.203261    0.444329    0.500000    10.50000    0.11142    0.04903 =
         0.09465    0.00000    0.00000   -0.03744
AFIX   3
H4WA  2    0.198761    0.470669    0.485810    11.00000    0.05158
H4WB  2    0.235781    0.443689    0.500000    10.50000    0.12167
AFIX   0
HKLF 4
 
REM  cu_NV003_0m in I4/m
REM R1 =  0.0761 for    8155 Fo > 4sig(Fo)  and  0.0786 for all    8519 data
REM    491 parameters refined using     42 restraints
 
END  
     
WGHT      0.1035    149.1833 

REM Highest difference peak  0.778,  deepest hole -0.778,  1-sigma level  0.095
Q1    1   0.0892  0.1991  0.5511  11.00000  0.05    0.78
Q2    1   0.0810  0.1533  0.5698  11.00000  0.05    0.73
Q3    1  -0.0815  0.1411  0.6237  11.00000  0.05    0.63
Q4    1   0.1209  0.1165  0.6146  11.00000  0.05    0.63
Q5    1   0.6570  0.1399  0.6645  11.00000  0.05    0.59
Q6    1   0.0000  0.5000  0.6224  10.50000  0.05    0.52
Q7    1   0.7262  0.2013  0.7237  11.00000  0.05    0.52
Q8    1   0.0887  0.1570  0.6124  11.00000  0.05    0.47
Q9    1   0.0544  0.1289  0.5000  10.50000  0.05    0.43
Q10   1   0.1994  0.4786  0.4782  11.00000  0.05    0.42

REM The information below was added by Olex2.
REM
REM R1 = 0.0761 for 8155 Fo > 4sig(Fo) and 0.0786 for all 53898 data
REM n/a parameters refined using n/a restraints
REM Highest difference peak 0.78, deepest hole -0.78
REM Mean Shift 0, Max Shift 0.001.

REM +++ Tabular Listing of Refinement Information +++
REM R1_all = 0.0786
REM R1_gt = 0.0761
REM wR_ref = 0.2189
REM GOOF = 1.116
REM Shift_max = 0.001
REM Shift_mean = 0
REM Reflections_all = 53898
REM Reflections_gt = 8155
REM Parameters = n/a
REM Hole = -0.78
REM Peak = 0.78
REM Flack = n/a

;
_cod_data_source_file            ja5b04674_si_004.cif
_cod_data_source_block           cu_nv003_0m_sqd
_cod_original_cell_volume        23325.1(12)
_cod_database_code               4124191
_shelxl_version_number           2013-4
_shelx_space_group_comment
;
The symmetry employed for this shelxl refinement is uniquely defined
by the following loop, which should always be used as a source of
symmetry information in preference to the above space-group names.
They are only intended as comments.
;
_olex2_refinement_description
;
1. Fixed Uiso
 At 1.2 times of:
  All C(H) groups, All C(H,H) groups, All N(H) groups, All O(H) groups
 At 1.5 times of:
  All C(H,H,H) groups
2. Uiso/Uaniso restraints and constraints
O1S \\sim N1S \\sim C1S \\sim C2S \\sim C3S: within 1.7A with sigma of 0.04 and
sigma for terminal atoms of 0.08
O2S \\sim N2S \\sim C4S \\sim C5S \\sim C6S: within 1.7A with sigma of 0.04 and
sigma for terminal atoms of 0.08
3. Others
 Fixed Sof: O3W(0.5) H3WA(0.5)
4.a Riding coordinates:
 O3W(H3WA,H3WB), O4W(H4WA,H4WB)
4.b Secondary CH2 refined with riding coordinates:
 C9(H9A,H9B)
4.c Me refined with riding coordinates:
 C2S(H2SA,H2SB,H2SC), C3S(H3SA,H3SB,H3SC), C5S(H5SA,H5SB,H5SC), C6S(H6SA,H6SB,
 H6SC)
4.d Aromatic/amide H refined with riding coordinates:
 N1(H1), C3(H3), C5(H5), C7(H7), C11(H11), C13(H13), C15(H15), C20(H20),
 C22(H22), C24(H24), C1S(H1S), O2S(H2S), C4S(H4S)
;
_olex2_submission_special_instructions 'No special instructions were received'
loop_
_space_group_symop_operation_xyz
'x, y, z'
'-x, -y, z'
'-y, x, z'
'y, -x, z'
'x+1/2, y+1/2, z+1/2'
'-x+1/2, -y+1/2, z+1/2'
'-y+1/2, x+1/2, z+1/2'
'y+1/2, -x+1/2, z+1/2'
'-x, -y, -z'
'x, y, -z'
'y, -x, -z'
'-y, x, -z'
'-x+1/2, -y+1/2, -z+1/2'
'x+1/2, y+1/2, -z+1/2'
'y+1/2, -x+1/2, -z+1/2'
'-y+1/2, x+1/2, -z+1/2'
loop_
_atom_site_label
_atom_site_type_symbol
_atom_site_fract_x
_atom_site_fract_y
_atom_site_fract_z
_atom_site_U_iso_or_equiv
_atom_site_adp_type
_atom_site_occupancy
_atom_site_site_symmetry_order
_atom_site_calc_flag
_atom_site_refinement_flags_posn
_atom_site_refinement_flags_adp
_atom_site_refinement_flags_occupancy
Cu1 Cu 0.59977(3) 0.23092(3) 0.78121(2) 0.0462(3) Uani 1 1 d . . .
Cu2 Cu -0.07499(3) 0.20365(3) 0.66343(2) 0.0448(3) Uani 1 1 d . . .
Cu3 Cu 0.12488(4) 0.27905(4) 0.5000 0.0471(3) Uani 1 2 d S T P
Cu4 Cu 0.16919(4) 0.37014(4) 0.5000 0.0470(3) Uani 1 2 d S T P
O1 O 0.28146(14) 0.15934(14) 0.68461(11) 0.0507(9) Uani 1 1 d . . .
O2 O 0.22309(15) 0.13907(15) 0.63915(12) 0.0596(10) Uani 1 1 d . . .
O3 O 0.17585(16) 0.26377(16) 0.54036(12) 0.0631(11) Uani 1 1 d . . .
O4 O 0.21430(15) 0.34053(14) 0.53978(11) 0.0539(9) Uani 1 1 d . . .
O5 O 0.53633(14) 0.25442(16) 0.75629(12) 0.0581(10) Uani 1 1 d . . .
O6 O 0.51400(15) 0.30757(19) 0.80499(12) 0.0692(12) Uani 1 1 d . . .
O7 O 0.34562(14) 0.38806(17) 0.80353(12) 0.0617(11) Uani 1 1 d . . .
O8 O 0.29007(14) 0.36525(14) 0.75681(11) 0.0526(9) Uani 1 1 d . . .
O9 O 0.11832(16) 0.38547(14) 0.54088(13) 0.0622(11) Uani 1 1 d . . .
O10 O 0.08113(15) 0.30765(15) 0.54041(12) 0.0592(10) Uani 1 1 d . . .
O11 O -0.04258(16) 0.26425(15) 0.64068(12) 0.0616(11) Uani 1 1 d . . .
O12 O -0.06062(14) 0.31973(14) 0.68874(12) 0.0546(10) Uani 1 1 d . . .
N1 N 0.4103(2) 0.2941(2) 0.64898(17) 0.0768(16) Uani 1 1 d . . .
H1 H 0.4336 0.2743 0.6382 0.092 Uiso 1 1 calc R . .
C1 C 0.2571(2) 0.1677(2) 0.65352(17) 0.0488(13) Uani 1 1 d . . .
C2 C 0.2694(2) 0.2150(2) 0.63112(16) 0.0499(13) Uani 1 1 d . . .
C3 C 0.3130(2) 0.2435(2) 0.63999(16) 0.0514(13) Uani 1 1 d . . .
H3 H 0.3354 0.2325 0.6602 0.062 Uiso 1 1 calc R . .
C4 C 0.3237(2) 0.2880(2) 0.61906(15) 0.0529(14) Uani 1 1 d . . .
C5 C 0.2895(2) 0.3050(2) 0.59109(16) 0.0513(13) Uani 1 1 d . . .
H5 H 0.2958 0.3363 0.5778 0.062 Uiso 1 1 calc R . .
C6 C 0.2458(2) 0.2767(2) 0.58220(15) 0.0491(13) Uani 1 1 d . . .
C7 C 0.2368(2) 0.2311(2) 0.60143(16) 0.0518(13) Uani 1 1 d . . .
H7 H 0.2083 0.2106 0.5943 0.062 Uiso 1 1 calc R . .
C8 C 0.2095(2) 0.2958(2) 0.55206(16) 0.0532(14) Uani 1 1 d . . .
C9 C 0.3703(2) 0.3169(2) 0.62541(17) 0.0573(15) Uani 1 1 d . . .
H9A H 0.3607 0.3498 0.6377 0.069 Uiso 1 1 calc R . .
H9B H 0.3851 0.3249 0.5994 0.069 Uiso 1 1 calc R . .
C10 C 0.4113(2) 0.3044(2) 0.69073(17) 0.0520(14) Uani 1 1 d . . .
C11 C 0.4538(2) 0.2896(2) 0.71156(17) 0.0548(14) Uani 1 1 d . . .
H11 H 0.4801 0.2709 0.6987 0.066 Uiso 1 1 calc R . .
C12 C 0.4592(2) 0.3013(2) 0.75049(17) 0.0549(14) Uani 1 1 d . . .
C13 C 0.4207(2) 0.3284(2) 0.77014(18) 0.0554(14) Uani 1 1 d . . .
H13 H 0.4250 0.3382 0.7967 0.066 Uiso 1 1 calc R . .
C14 C 0.3763(2) 0.3407(2) 0.75020(17) 0.0524(13) Uani 1 1 d . . .
C15 C 0.3718(2) 0.3282(2) 0.71068(17) 0.0523(13) Uani 1 1 d . . .
H15 H 0.3410 0.3361 0.6972 0.063 Uiso 1 1 calc R . .
C16 C 0.5069(2) 0.2858(2) 0.77267(18) 0.0564(14) Uani 1 1 d . . .
C17 C 0.3338(2) 0.3664(2) 0.77215(17) 0.0484(13) Uani 1 1 d . . .
C18 C 0.0867(2) 0.3529(2) 0.55286(18) 0.0557(14) Uani 1 1 d . . .
C19 C 0.0530(2) 0.3686(2) 0.58679(19) 0.0574(15) Uani 1 1 d . . .
C20 C 0.0532(2) 0.4189(2) 0.5999(2) 0.072(2) Uani 1 1 d . . .
H20 H 0.0753 0.4431 0.5879 0.087 Uiso 1 1 calc R . .
C21 C 0.0218(3) 0.4342(2) 0.6300(3) 0.087(3) Uani 1 1 d . . .
C22 C -0.0080(2) 0.3974(2) 0.6494(2) 0.075(2) Uani 1 1 d . . .
H22 H -0.0279 0.4070 0.6715 0.090 Uiso 1 1 calc R . .
C23 C -0.0083(2) 0.3473(2) 0.6365(2) 0.0589(15) Uani 1 1 d . . .
C24 C 0.0217(2) 0.3328(2) 0.60506(17) 0.0506(13) Uani 1 1 d . . .
H24 H 0.0209 0.2984 0.5960 0.061 Uiso 1 1 calc R . .
C25 C -0.0392(2) 0.3070(2) 0.65703(17) 0.0507(13) Uani 1 1 d . . .
N2 N 0.0203(3) 0.4884(2) 0.6396(4) 0.145(4) Uani 1 1 d . . .
O1S O 0.62382(16) 0.17873(17) 0.73668(14) 0.0693(12) Uani 1 1 d . U .
N1S N 0.6904(2) 0.1545(3) 0.69860(19) 0.0849(18) Uani 1 1 d . U .
C1S C 0.6668(3) 0.1823(3) 0.7229(2) 0.0767(19) Uani 1 1 d . U .
H1S H 0.6858 0.2109 0.7320 0.092 Uiso 1 1 calc R . .
C2S C 0.6689(7) 0.1004(6) 0.6913(5) 0.211(8) Uani 1 1 d . U .
H2SA H 0.6356 0.0970 0.7042 0.316 Uiso 1 1 calc R . .
H2SB H 0.6926 0.0749 0.7020 0.316 Uiso 1 1 calc R . .
H2SC H 0.6650 0.0948 0.6631 0.316 Uiso 1 1 calc R . .
C3S C 0.7375(4) 0.1577(6) 0.6809(4) 0.168(6) Uani 1 1 d . U .
H3SA H 0.7514 0.1922 0.6845 0.252 Uiso 1 1 calc R . .
H3SB H 0.7340 0.1504 0.6529 0.252 Uiso 1 1 calc R . .
H3SC H 0.7608 0.1327 0.6928 0.252 Uiso 1 1 calc R . .
O2S O -0.0454(3) 0.1546(2) 0.61822(17) 0.119(2) Uani 1 1 d . U .
H2S H -0.0636 0.1285 0.6047 0.143 Uiso 1 1 calc R . .
N2S N 0.0513(8) 0.1516(7) 0.5977(6) 0.265(8) Uani 1 1 d . U .
C4S C 0.0102(7) 0.1696(6) 0.6120(5) 0.176(6) Uani 1 1 d . U .
H4S H 0.0160 0.2031 0.6218 0.211 Uiso 1 1 calc R . .
C5S C 0.0409(11) 0.1008(9) 0.5659(10) 0.42(2) Uani 1 1 d . U .
H5SA H 0.0061 0.0876 0.5696 0.627 Uiso 1 1 calc R . .
H5SB H 0.0657 0.0735 0.5713 0.627 Uiso 1 1 calc R . .
H5SC H 0.0450 0.1125 0.5389 0.627 Uiso 1 1 calc R . .
C6S C 0.0914(5) 0.1655(8) 0.5814(8) 0.303(15) Uani 1 1 d . U .
H6SA H 0.1047 0.1961 0.5945 0.454 Uiso 1 1 calc R . .
H6SB H 0.0842 0.1734 0.5539 0.454 Uiso 1 1 calc R . .
H6SC H 0.1168 0.1380 0.5829 0.454 Uiso 1 1 calc R . .
O3W O 0.0923(4) 0.2047(3) 0.5148(3) 0.078(3) Uani 0.5 1 d . . .
H3WA H 0.0632 0.2021 0.5039 0.10(5) Uiso 0.5 1 d R . .
H3WB H 0.1112 0.1859 0.5000 0.11(6) Uiso 1 2 d RS T P
O4W O 0.2033(3) 0.4443(3) 0.5000 0.085(2) Uani 1 2 d S T P
H4WA H 0.1988 0.4707 0.4858 0.052(18) Uiso 1 1 d R . .
H4WB H 0.2358 0.4437 0.5000 0.12(6) Uiso 1 2 d RS T P
loop_
_atom_site_aniso_label
_atom_site_aniso_U_11
_atom_site_aniso_U_22
_atom_site_aniso_U_33
_atom_site_aniso_U_23
_atom_site_aniso_U_13
_atom_site_aniso_U_12
Cu1 0.0420(4) 0.0474(5) 0.0491(5) -0.0142(3) 0.0030(3) 0.0019(3)
Cu2 0.0394(4) 0.0460(4) 0.0490(5) -0.0126(3) 0.0034(3) -0.0011(3)
Cu3 0.0499(6) 0.0400(6) 0.0515(7) 0.000 0.000 -0.0099(5)
Cu4 0.0486(6) 0.0386(6) 0.0537(7) 0.000 0.000 -0.0082(4)
O1 0.054(2) 0.047(2) 0.050(2) 0.0049(17) -0.0078(18) -0.0056(17)
O2 0.061(2) 0.053(2) 0.065(2) 0.0110(19) -0.018(2) -0.0074(19)
O3 0.065(3) 0.059(2) 0.066(3) 0.018(2) -0.013(2) -0.008(2)
O4 0.059(2) 0.051(2) 0.052(2) 0.0049(18) -0.0045(18) -0.0050(18)
O5 0.042(2) 0.073(3) 0.059(2) -0.016(2) -0.0033(18) 0.0105(19)
O6 0.052(2) 0.098(3) 0.058(3) -0.021(2) -0.0083(19) 0.026(2)
O7 0.043(2) 0.084(3) 0.058(2) -0.011(2) -0.0120(18) 0.011(2)
O8 0.044(2) 0.055(2) 0.058(2) -0.0031(18) -0.0074(18) 0.0012(17)
O9 0.062(2) 0.047(2) 0.077(3) 0.004(2) 0.023(2) -0.0078(19)
O10 0.061(2) 0.052(2) 0.064(3) 0.0012(19) 0.019(2) -0.0098(18)
O11 0.069(3) 0.048(2) 0.068(3) -0.014(2) 0.027(2) -0.0131(19)
O12 0.051(2) 0.049(2) 0.064(2) -0.0176(18) 0.0132(19) -0.0028(17)
N1 0.073(4) 0.093(4) 0.064(3) -0.004(3) 0.001(3) -0.015(3)
C1 0.046(3) 0.047(3) 0.054(3) 0.003(3) -0.003(3) 0.006(2)
C2 0.055(3) 0.046(3) 0.048(3) 0.001(2) -0.004(3) 0.001(2)
C3 0.054(3) 0.056(3) 0.045(3) -0.005(3) -0.003(2) -0.001(3)
C4 0.061(3) 0.057(3) 0.041(3) -0.002(3) 0.003(3) -0.009(3)
C5 0.061(3) 0.050(3) 0.042(3) 0.001(2) 0.004(3) -0.004(3)
C6 0.055(3) 0.052(3) 0.040(3) 0.003(2) 0.004(2) 0.002(3)
C7 0.048(3) 0.055(3) 0.052(3) 0.000(3) -0.004(3) 0.001(2)
C8 0.058(3) 0.056(4) 0.046(3) 0.006(3) 0.003(3) -0.005(3)
C9 0.062(4) 0.068(4) 0.042(3) 0.000(3) -0.007(3) -0.016(3)
C10 0.049(3) 0.055(3) 0.051(3) 0.005(3) -0.002(3) -0.011(3)
C11 0.046(3) 0.064(4) 0.054(3) -0.007(3) 0.003(3) -0.004(3)
C12 0.046(3) 0.061(3) 0.057(3) -0.005(3) -0.003(3) -0.004(3)
C13 0.045(3) 0.069(4) 0.053(3) 0.000(3) 0.001(3) 0.007(3)
C14 0.047(3) 0.054(3) 0.056(3) 0.003(3) -0.002(3) 0.002(2)
C15 0.047(3) 0.053(3) 0.057(3) 0.005(3) -0.003(3) -0.008(3)
C16 0.040(3) 0.072(4) 0.058(4) -0.007(3) 0.001(3) 0.002(3)
C17 0.045(3) 0.046(3) 0.054(3) 0.004(3) -0.006(3) 0.002(2)
C18 0.054(3) 0.050(3) 0.063(4) 0.005(3) 0.005(3) -0.001(3)
C19 0.052(3) 0.047(3) 0.074(4) 0.005(3) 0.017(3) 0.006(3)
C20 0.057(4) 0.045(3) 0.116(6) 0.002(3) 0.029(4) -0.002(3)
C21 0.055(4) 0.042(3) 0.165(8) -0.019(4) 0.035(5) 0.002(3)
C22 0.054(4) 0.050(4) 0.122(6) -0.028(4) 0.032(4) -0.002(3)
C23 0.046(3) 0.046(3) 0.085(4) -0.011(3) 0.014(3) -0.007(2)
C24 0.043(3) 0.044(3) 0.065(4) -0.006(3) 0.010(3) 0.000(2)
C25 0.042(3) 0.048(3) 0.062(4) -0.013(3) 0.010(3) -0.006(2)
N2 0.082(5) 0.044(4) 0.309(13) -0.005(5) 0.069(6) 0.007(3)
O1S 0.052(2) 0.076(3) 0.081(3) -0.037(2) 0.023(2) -0.005(2)
N1S 0.082(4) 0.092(4) 0.081(4) -0.011(3) 0.034(3) 0.016(3)
C1S 0.088(5) 0.071(4) 0.070(4) -0.002(4) 0.009(4) 0.012(4)
C2S 0.234(18) 0.191(15) 0.208(16) -0.095(13) 0.074(14) -0.006(13)
C3S 0.111(8) 0.241(15) 0.152(10) 0.056(10) 0.083(8) 0.076(9)
O2S 0.191(7) 0.092(4) 0.076(4) -0.030(3) 0.014(4) 0.059(4)
N2S 0.244(17) 0.219(14) 0.332(19) -0.102(14) 0.134(15) 0.010(13)
C4S 0.185(13) 0.152(11) 0.190(13) -0.049(10) 0.080(11) 0.021(10)
C5S 0.40(4) 0.24(3) 0.61(6) -0.24(3) -0.02(4) -0.04(3)
C6S 0.069(7) 0.33(2) 0.51(4) -0.25(3) 0.067(14) -0.019(11)
O3W 0.081(6) 0.051(5) 0.103(9) -0.006(4) 0.008(5) -0.025(5)
O4W 0.111(7) 0.049(4) 0.095(5) 0.000 0.000 -0.037(4)
loop_
_atom_type_symbol
_atom_type_description
_atom_type_scat_dispersion_real
_atom_type_scat_dispersion_imag
_atom_type_scat_source
C C 0.0181 0.0091 'International Tables Vol C Tables 4.2.6.8 and 6.1.1.4'
H H 0.0000 0.0000 'International Tables Vol C Tables 4.2.6.8 and 6.1.1.4'
Cu Cu -1.9646 0.5888 'International Tables Vol C Tables 4.2.6.8 and 6.1.1.4'
N N 0.0311 0.0180 'International Tables Vol C Tables 4.2.6.8 and 6.1.1.4'
O O 0.0492 0.0322 'International Tables Vol C Tables 4.2.6.8 and 6.1.1.4'
loop_
_geom_angle_atom_site_label_1
_geom_angle_atom_site_label_2
_geom_angle_atom_site_label_3
_geom_angle
_geom_angle_site_symmetry_1
_geom_angle_site_symmetry_3
O1 Cu1 Cu2 82.83(11) 15_556 13_556
O1 Cu1 O8 90.75(16) 15_556 3_655
O1 Cu1 O1S 94.86(17) 15_556 .
O5 Cu1 Cu2 84.30(11) . 13_556
O5 Cu1 O1 167.13(16) . 15_556
O5 Cu1 O8 87.87(17) . 3_655
O5 Cu1 O12 89.87(18) . 13_556
O5 Cu1 O1S 97.99(17) . .
O8 Cu1 Cu2 84.78(11) 3_655 13_556
O8 Cu1 O1S 93.59(17) 3_655 .
O12 Cu1 Cu2 86.21(11) 13_556 13_556
O12 Cu1 O1 89.48(17) 13_556 15_556
O12 Cu1 O8 170.88(15) 13_556 3_655
O12 Cu1 O1S 95.48(16) 13_556 .
O1S Cu1 Cu2 177.14(12) . 13_556
O2 Cu2 Cu1 85.68(12) 3 13_556
O2 Cu2 O6 170.01(17) 3 13_556
O2 Cu2 O7 89.60(19) 3 15_456
O2 Cu2 O11 89.53(19) 3 .
O2 Cu2 O2S 99.2(2) 3 .
O6 Cu2 Cu1 84.32(12) 13_556 13_556
O6 Cu2 O7 89.2(2) 13_556 15_456
O6 Cu2 O11 89.3(2) 13_556 .
O6 Cu2 O2S 90.8(2) 13_556 .
O7 Cu2 Cu1 83.80(11) 15_456 13_556
O7 Cu2 O2S 101.4(2) 15_456 .
O11 Cu2 Cu1 82.31(11) . 13_556
O11 Cu2 O7 166.11(16) . 15_456
O11 Cu2 O2S 92.4(2) . .
O2S Cu2 Cu1 172.8(2) . 13_556
O3 Cu3 Cu4 83.45(12) . .
O3 Cu3 Cu4 83.45(12) 10_556 .
O3 Cu3 O3 89.5(3) 10_556 .
O3 Cu3 O3W 85.5(3) . .
O3 Cu3 O3W 104.3(3) 10_556 .
O3 Cu3 O3W 104.3(3) . 10_556
O3 Cu3 O3W 85.5(3) 10_556 10_556
O10 Cu3 Cu4 84.92(12) 10_556 .
O10 Cu3 Cu4 84.92(12) . .
O10 Cu3 O3 88.75(19) 10_556 10_556
O10 Cu3 O3 88.75(19) . .
O10 Cu3 O3 168.36(17) . 10_556
O10 Cu3 O3 168.36(17) 10_556 .
O10 Cu3 O10 90.6(3) . 10_556
O10 Cu3 O3W 106.1(3) . 10_556
O10 Cu3 O3W 106.1(3) 10_556 .
O10 Cu3 O3W 87.0(3) . .
O10 Cu3 O3W 87.0(3) 10_556 10_556
O3W Cu3 Cu4 166.4(3) 10_556 .
O3W Cu3 Cu4 166.4(3) . .
O3W Cu3 O3W 26.8(5) 10_556 .
O4 Cu4 Cu3 84.72(12) 10_556 .
O4 Cu4 Cu3 84.71(12) . .
O4 Cu4 O4 87.9(2) . 10_556
O4 Cu4 O9 168.19(17) . 10_556
O4 Cu4 O9 89.68(18) 10_556 10_556
O4 Cu4 O9 89.68(18) . .
O4 Cu4 O9 168.19(17) 10_556 .
O4 Cu4 O4W 96.2(2) 10_556 .
O4 Cu4 O4W 96.2(2) . .
O9 Cu4 Cu3 83.55(12) . .
O9 Cu4 Cu3 83.55(12) 10_556 .
O9 Cu4 O9 90.4(3) 10_556 .
O9 Cu4 O4W 95.6(2) 10_556 .
O9 Cu4 O4W 95.6(2) . .
O4W Cu4 Cu3 178.7(3) . .
C1 O1 Cu1 123.7(4) . 16_546
C1 O2 Cu2 122.1(4) . 4
C8 O3 Cu3 123.7(4) . .
C8 O4 Cu4 122.9(4) . .
C16 O5 Cu1 121.9(4) . .
C16 O6 Cu2 122.6(4) . 13_556
C17 O7 Cu2 123.5(3) . 16_556
C17 O8 Cu1 121.5(4) . 4_565
C18 O9 Cu4 122.5(4) . .
C18 O10 Cu3 122.0(4) . .
C25 O11 Cu2 125.1(4) . .
C25 O12 Cu1 120.1(3) . 13_556
C9 N1 H1 120.5 . .
C9 N1 C10 118.9(6) . .
C10 N1 H1 120.5 . .
O1 C1 O2 125.6(5) . .
O1 C1 C2 118.0(5) . .
O2 C1 C2 116.4(5) . .
C3 C2 C1 120.5(5) . .
C7 C2 C1 119.6(5) . .
C7 C2 C3 119.9(5) . .
C2 C3 H3 120.1 . .
C4 C3 C2 119.9(5) . .
C4 C3 H3 120.1 . .
C3 C4 C9 121.8(5) . .
C5 C4 C3 119.5(5) . .
C5 C4 C9 118.7(5) . .
C4 C5 H5 119.6 . .
C4 C5 C6 120.7(5) . .
C6 C5 H5 119.6 . .
C5 C6 C8 119.8(5) . .
C7 C6 C5 119.6(5) . .
C7 C6 C8 120.7(5) . .
C2 C7 H7 119.9 . .
C6 C7 C2 120.3(5) . .
C6 C7 H7 119.9 . .
O3 C8 C6 115.9(5) . .
O4 C8 O3 125.2(5) . .
O4 C8 C6 118.8(5) . .
N1 C9 H9A 107.7 . .
N1 C9 H9B 107.7 . .
C4 C9 N1 118.4(5) . .
C4 C9 H9A 107.7 . .
C4 C9 H9B 107.7 . .
H9A C9 H9B 107.1 . .
C11 C10 N1 118.2(6) . .
C11 C10 C15 118.3(5) . .
C15 C10 N1 123.6(5) . .
C10 C11 H11 119.3 . .
C12 C11 C10 121.5(6) . .
C12 C11 H11 119.3 . .
C11 C12 C13 120.2(5) . .
C11 C12 C16 120.6(5) . .
C13 C12 C16 119.1(5) . .
C12 C13 H13 120.6 . .
C14 C13 C12 118.9(6) . .
C14 C13 H13 120.6 . .
C13 C14 C15 119.6(5) . .
C13 C14 C17 118.6(5) . .
C15 C14 C17 121.8(5) . .
C10 C15 C14 121.3(5) . .
C10 C15 H15 119.4 . .
C14 C15 H15 119.4 . .
O5 C16 O6 126.7(5) . .
O5 C16 C12 117.1(5) . .
O6 C16 C12 116.1(5) . .
O7 C17 O8 126.4(5) . .
O7 C17 C14 116.6(5) . .
O8 C17 C14 117.0(5) . .
O9 C18 O10 126.9(6) . .
O9 C18 C19 116.7(5) . .
O10 C18 C19 116.4(5) . .
C20 C19 C18 120.1(5) . .
C20 C19 C24 119.7(6) . .
C24 C19 C18 120.2(5) . .
C19 C20 H20 119.6 . .
C21 C20 C19 120.9(6) . .
C21 C20 H20 119.6 . .
C20 C21 C22 119.1(6) . .
C20 C21 N2 117.8(7) . .
C22 C21 N2 123.1(7) . .
C21 C22 H22 120.0 . .
C23 C22 C21 120.1(6) . .
C23 C22 H22 120.0 . .
C22 C23 C24 120.3(6) . .
C22 C23 C25 121.2(6) . .
C24 C23 C25 118.4(5) . .
C19 C24 H24 120.1 . .
C23 C24 C19 119.8(5) . .
C23 C24 H24 120.1 . .
O11 C25 O12 125.8(5) . .
O11 C25 C23 117.1(5) . .
O12 C25 C23 117.1(5) . .
N2 N2 C21 120.5(9) 2_565 .
C1S O1S Cu1 119.8(5) . .
C1S N1S C2S 117.2(8) . .
C1S N1S C3S 133.7(10) . .
C3S N1S C2S 108.1(9) . .
O1S C1S N1S 131.1(8) . .
O1S C1S H1S 114.4 . .
N1S C1S H1S 114.4 . .
N1S C2S H2SA 109.5 . .
N1S C2S H2SB 109.5 . .
N1S C2S H2SC 109.5 . .
H2SA C2S H2SB 109.5 . .
H2SA C2S H2SC 109.5 . .
H2SB C2S H2SC 109.5 . .
N1S C3S H3SA 109.5 . .
N1S C3S H3SB 109.5 . .
N1S C3S H3SC 109.5 . .
H3SA C3S H3SB 109.5 . .
H3SA C3S H3SC 109.5 . .
H3SB C3S H3SC 109.5 . .
Cu2 O2S H2S 126.6 . .
C4S O2S Cu2 106.9(7) . .
C4S O2S H2S 126.6 . .
C4S N2S C5S 113(2) . .
C6S N2S C4S 141(2) . .
C6S N2S C5S 94.3(16) . .
O2S C4S H4S 110.0 . .
N2S C4S O2S 140.0(15) . .
N2S C4S H4S 110.0 . .
N2S C5S H5SA 109.5 . .
N2S C5S H5SB 109.5 . .
N2S C5S H5SC 109.5 . .
H5SA C5S H5SB 109.5 . .
H5SA C5S H5SC 109.5 . .
H5SB C5S H5SC 109.5 . .
N2S C6S H6SA 109.5 . .
N2S C6S H6SB 109.5 . .
N2S C6S H6SC 109.5 . .
H6SA C6S H6SB 109.5 . .
H6SA C6S H6SC 109.5 . .
H6SB C6S H6SC 109.5 . .
Cu3 O3W H3WA 108.8 . .
Cu3 O3W H3WB 98.6 . .
O3W O3W Cu3 76.6(3) 10_556 .
O3W O3W H3WA 64.2 10_556 .
O3W O3W H3WB 54.0 10_556 .
H3WA O3W H3WB 102.2 . .
Cu4 O4W H4WA 132.7 . .
Cu4 O4W H4WB 113.5 . .
H4WA O4W H4WB 98.9 . .
loop_
_geom_bond_atom_site_label_1
_geom_bond_atom_site_label_2
_geom_bond_distance
_geom_bond_site_symmetry_2
Cu1 Cu2 2.6303(10) 13_556
Cu1 O1 1.973(4) 15_556
Cu1 O5 1.962(4) .
Cu1 O8 1.980(4) 3_655
Cu1 O12 1.963(4) 13_556
Cu1 O1S 2.138(4) .
Cu2 Cu1 2.6303(10) 13_556
Cu2 O2 1.936(4) 3
Cu2 O6 1.947(4) 13_556
Cu2 O7 1.966(4) 15_456
Cu2 O11 1.957(4) .
Cu2 O2S 2.151(5) .
Cu3 Cu4 2.6468(14) .
Cu3 O3 1.958(4) 10_556
Cu3 O3 1.958(4) .
Cu3 O10 1.942(4) 10_556
Cu3 O10 1.942(4) .
Cu3 O3W 2.179(8) .
Cu3 O3W 2.179(8) 10_556
Cu4 O4 1.959(4) .
Cu4 O4 1.959(4) 10_556
Cu4 O9 1.969(4) .
Cu4 O9 1.969(4) 10_556
Cu4 O4W 2.133(6) .
O1 Cu1 1.973(4) 16_546
O1 C1 1.258(6) .
O2 Cu2 1.936(4) 4
O2 C1 1.261(7) .
O3 C8 1.278(7) .
O4 C8 1.248(7) .
O5 C16 1.255(7) .
O6 Cu2 1.947(4) 13_556
O6 C16 1.256(7) .
O7 Cu2 1.966(4) 16_556
O7 C17 1.251(7) .
O8 Cu1 1.980(4) 4_565
O8 C17 1.256(6) .
O9 C18 1.254(7) .
O10 C18 1.265(7) .
O11 C25 1.253(6) .
O12 Cu1 1.962(4) 13_556
O12 C25 1.264(7) .
N1 H1 0.8800 .
N1 C9 1.447(8) .
N1 C10 1.452(8) .
C1 C2 1.489(8) .
C2 C3 1.395(8) .
C2 C7 1.388(8) .
C3 H3 0.9500 .
C3 C4 1.394(8) .
C4 C5 1.383(8) .
C4 C9 1.447(8) .
C5 H5 0.9500 .
C5 C6 1.393(8) .
C6 C7 1.382(8) .
C6 C8 1.486(8) .
C7 H7 0.9500 .
C9 H9A 0.9900 .
C9 H9B 0.9900 .
C10 C11 1.375(8) .
C10 C15 1.385(8) .
C11 H11 0.9500 .
C11 C12 1.372(8) .
C12 C13 1.402(8) .
C12 C16 1.515(8) .
C13 H13 0.9500 .
C13 C14 1.383(8) .
C14 C15 1.394(8) .
C14 C17 1.500(8) .
C15 H15 0.9500 .
C18 C19 1.513(8) .
C19 C20 1.387(9) .
C19 C24 1.392(8) .
C20 H20 0.9500 .
C20 C21 1.378(10) .
C21 C22 1.402(10) .
C21 N2 1.455(9) .
C22 H22 0.9500 .
C22 C23 1.381(8) .
C23 C24 1.383(8) .
C23 C25 1.501(8) .
C24 H24 0.9500 .
N2 N2 1.221(13) 2_565
O1S C1S 1.221(8) .
N1S C1S 1.264(9) .
N1S C2S 1.541(16) .
N1S C3S 1.374(11) .
C1S H1S 0.9500 .
C2S H2SA 0.9800 .
C2S H2SB 0.9800 .
C2S H2SC 0.9800 .
C3S H3SA 0.9800 .
C3S H3SB 0.9800 .
C3S H3SC 0.9800 .
O2S H2S 0.9500 .
O2S C4S 1.520(17) .
N2S C4S 1.270(19) .
N2S C5S 1.74(3) .
N2S C6S 1.24(2) .
C4S H4S 0.9500 .
C5S H5SA 0.9800 .
C5S H5SB 0.9800 .
C5S H5SC 0.9800 .
C6S H6SA 0.9800 .
C6S H6SB 0.9800 .
C6S H6SC 0.9800 .
O3W O3W 1.01(2) 10_556
O3W H3WA 0.8501 .
O3W H3WB 0.8590 .
O4W H4WA 0.8500 .
O4W H4WB 0.8499 .
loop_
_geom_torsion_atom_site_label_1
_geom_torsion_atom_site_label_2
_geom_torsion_atom_site_label_3
_geom_torsion_atom_site_label_4
_geom_torsion
_geom_torsion_site_symmetry_1
_geom_torsion_site_symmetry_4
Cu1 O1 C1 O2 -2.6(8) 16_546 .
Cu1 O1 C1 C2 178.2(4) 16_546 .
Cu1 O5 C16 O6 3.1(9) . .
Cu1 O5 C16 C12 179.7(4) . .
Cu1 O8 C17 O7 0.9(8) 4_565 .
Cu1 O8 C17 C14 -177.2(4) 4_565 .
Cu1 O12 C25 O11 4.3(8) 13_556 .
Cu1 O12 C25 C23 -177.8(4) 13_556 .
Cu1 O1S C1S N1S 174.9(7) . .
Cu2 O2 C1 O1 -1.1(8) 4 .
Cu2 O2 C1 C2 178.1(4) 4 .
Cu2 O6 C16 O5 0.6(10) 13_556 .
Cu2 O6 C16 C12 -176.0(4) 13_556 .
Cu2 O7 C17 O8 0.8(8) 16_556 .
Cu2 O7 C17 C14 179.0(4) 16_556 .
Cu2 O11 C25 O12 -8.0(9) . .
Cu2 O11 C25 C23 174.0(4) . .
Cu2 O2S C4S N2S 160(3) . .
Cu3 O3 C8 O4 0.4(9) . .
Cu3 O3 C8 C6 -178.4(4) . .
Cu3 O10 C18 O9 2.8(9) . .
Cu3 O10 C18 C19 -174.9(4) . .
Cu4 O4 C8 O3 0.9(8) . .
Cu4 O4 C8 C6 179.8(4) . .
Cu4 O9 C18 O10 -2.8(9) . .
Cu4 O9 C18 C19 174.9(4) . .
O1 C1 C2 C3 12.5(8) . .
O1 C1 C2 C7 -166.9(5) . .
O2 C1 C2 C3 -166.8(5) . .
O2 C1 C2 C7 13.8(8) . .
O9 C18 C19 C20 8.2(9) . .
O9 C18 C19 C24 -171.8(6) . .
O10 C18 C19 C20 -173.9(6) . .
O10 C18 C19 C24 6.1(9) . .
N1 C10 C11 C12 175.2(6) . .
N1 C10 C15 C14 -175.0(6) . .
C1 C2 C3 C4 -179.3(5) . .
C1 C2 C7 C6 175.6(5) . .
C2 C3 C4 C5 3.5(8) . .
C2 C3 C4 C9 -175.7(6) . .
C3 C2 C7 C6 -3.9(8) . .
C3 C4 C5 C6 -3.4(8) . .
C3 C4 C9 N1 10.9(9) . .
C4 C5 C6 C7 -0.3(8) . .
C4 C5 C6 C8 179.9(5) . .
C5 C4 C9 N1 -168.4(5) . .
C5 C6 C7 C2 4.0(8) . .
C5 C6 C8 O3 167.5(5) . .
C5 C6 C8 O4 -11.4(8) . .
C7 C2 C3 C4 0.2(8) . .
C7 C6 C8 O3 -12.2(8) . .
C7 C6 C8 O4 168.8(5) . .
C8 C6 C7 C2 -176.3(5) . .
C9 N1 C10 C11 -169.5(5) . .
C9 N1 C10 C15 10.6(9) . .
C9 C4 C5 C6 175.8(5) . .
C10 N1 C9 C4 -92.2(7) . .
C10 C11 C12 C13 0.7(9) . .
C10 C11 C12 C16 -178.6(5) . .
C11 C10 C15 C14 5.1(8) . .
C11 C12 C13 C14 3.4(9) . .
C11 C12 C16 O5 -12.5(9) . .
C11 C12 C16 O6 164.4(6) . .
C12 C13 C14 C15 -3.1(9) . .
C12 C13 C14 C17 175.8(5) . .
C13 C12 C16 O5 168.2(6) . .
C13 C12 C16 O6 -14.9(9) . .
C13 C14 C15 C10 -1.1(9) . .
C13 C14 C17 O7 19.5(8) . .
C13 C14 C17 O8 -162.1(5) . .
C15 C10 C11 C12 -4.9(9) . .
C15 C14 C17 O7 -161.6(5) . .
C15 C14 C17 O8 16.8(8) . .
C16 C12 C13 C14 -177.3(5) . .
C17 C14 C15 C10 -180.0(5) . .
C18 C19 C20 C21 178.3(7) . .
C18 C19 C24 C23 178.9(6) . .
C19 C20 C21 C22 4.6(13) . .
C19 C20 C21 N2 -174.0(8) . .
C20 C19 C24 C23 -1.1(10) . .
C20 C21 C22 C23 -4.6(13) . .
C20 C21 N2 N2 123.9(7) . 2_565
C21 C22 C23 C24 1.8(11) . .
C21 C22 C23 C25 179.1(7) . .
C22 C21 N2 N2 -54.7(11) . 2_565
C22 C23 C24 C19 1.0(10) . .
C22 C23 C25 O11 171.3(6) . .
C22 C23 C25 O12 -6.9(9) . .
C24 C19 C20 C21 -1.8(11) . .
C24 C23 C25 O11 -11.4(9) . .
C24 C23 C25 O12 170.5(6) . .
C25 C23 C24 C19 -176.3(6) . .
N2 C21 C22 C23 173.9(9) . .
C2S N1S C1S O1S -16.6(15) . .
C3S N1S C1S O1S 176.8(10) . .
C5S N2S C4S O2S 19(4) . .
C6S N2S C4S O2S 150(3) . .
loop_
_refln_index_h
_refln_index_k
_refln_index_l
_refln_F_squared_meas
_refln_F_squared_sigma
_refln_scale_group_code
-1 1 0 1799 58 1
-1 1 0 1865 53 1
0 -2 0 142518 832 1
0 -2 0 146987 832 1
2 0 0 147382 921 1
-2 2 0 11104 474 1
-2 -2 0 10994 473 1
-2 -2 0 11911 473 1
2 -2 0 11142 524 1
2 2 0 11601 473 1
2 -2 0 11768 474 1
2 2 0 11133 525 1
1 -3 0 99 923 1
3 1 0 118 1022 1
3 -1 0 29921 1144 1
-1 -3 0 31713 1033 1
3 -3 0 16998 376 1
3 3 0 17550 340 1
-3 3 0 17937 376 1
-3 -3 0 16947 339 1
-4 -2 0 1412 724 1
4 2 0 1769 725 1
-2 4 0 1324 726 1
-2 4 0 1241 802 1
0 4 0 1262 38 1
-4 0 0 1162 38 1
4 0 0 1225 38 1
-4 2 0 29861 299 1
-2 -4 0 29850 299 1
4 -2 0 30483 299 1
2 4 0 29624 299 1
-2 -4 0 29757 299 1
-2 -4 0 29720 298 1
4 4 0 1650 47 1
-4 4 0 1506 48 1
4 -4 0 1600 48 1
4 -4 0 1507 52 1
-4 -4 0 1714 47 1
-3 5 0 1338 218 1
5 3 0 1291 217 1
-5 -3 0 1296 216 1
-1 5 0 182 5 1
-5 1 0 2225 123 1
-5 1 0 2331 123 1
1 5 0 2296 123 1
-1 -5 0 2265 124 1
-5 5 0 1791 74 1
5 5 0 1808 67 1
5 -5 0 1809 67 1
-5 -5 0 1905 67 1
-5 5 0 1785 67 1
-4 6 0 341 60 1
6 4 0 357 54 1
-6 -4 0 435 54 1
-4 6 0 303 54 1
4 -6 0 367 54 1
6 2 0 29483 2032 1
-2 6 0 29184 2033 1
-6 -2 0 26475 2028 1
0 -6 0 72 2 1
6 0 0 80 2 1
0 6 0 81 2 1
-2 -6 0 3325 15 1
6 -2 0 3259 15 1
-6 2 0 3326 16 1
-4 -6 0 1831 161 1
-6 4 0 1870 161 1
-6 6 0 3275 166 1
6 6 0 3580 166 1
-6 -6 0 3563 166 1
6 -6 0 3386 166 1
7 5 0 2655 122 1
5 -7 0 2553 122 1
-5 7 0 2523 134 1
-5 7 0 2382 122 1
-7 -5 0 2380 121 1
3 -7 0 1490 119 1
-3 7 0 1439 132 1
-3 7 0 1524 120 1
-7 -3 0 1540 119 1
-7 -1 0 156 164 1
7 1 0 165 164 1
-7 -1 0 167 164 1
-7 -1 0 208 164 1
1 -7 0 215 165 1
-1 7 0 254 164 1
-1 -7 0 2822 326 1
-1 -7 0 2786 326 1
-7 1 0 2693 326 1
1 7 0 2914 326 1
-7 1 0 2377 360 1
-1 -7 0 2874 325 1
3 7 0 2867 198 1
-3 -7 0 2746 198 1
-3 -7 0 2832 198 1
-3 -7 0 2958 198 1
-7 3 0 2630 198 1
-7 5 0 3809 206 1
5 7 0 3762 186 1
-7 7 0 1887 23 1
7 7 0 2058 23 1
7 -7 0 1902 23 1
-7 7 0 1928 25 1
-7 -7 0 2189 23 1
-6 8 0 548 23 1
8 6 0 570 21 1
-6 8 0 551 21 1
-8 -6 0 576 21 1
-8 -4 0 69 23 1
-4 8 0 71 24 1
8 4 0 66 24 1
-4 8 0 86 26 1
2 -8 0 1960 4 1
-2 8 0 1936 4 1
-2 8 0 1951 4 1
-8 -2 0 1798 4 1
-8 0 0 4703 209 1
0 -8 0 4672 209 1
0 8 0 4277 209 1
8 0 0 4512 209 1
0 -8 0 4400 209 1
-8 0 0 4313 208 1
-8 2 0 3223 223 1
-2 -8 0 3323 201 1
-2 -8 0 3440 201 1
-8 2 0 3236 201 1
-2 -8 0 3340 201 1
2 8 0 3278 201 1
-4 -8 0 13 2 1
8 -4 0 20 2 1
-8 6 0 9967 508 1
8 -6 0 10181 460 1
-6 -8 0 10334 458 1
6 8 0 10243 458 1
-8 6 0 10180 460 1
-8 8 0 291 9 1
8 8 0 310 9 1
8 -8 0 311 9 1
-8 8 0 282 9 1
-8 -8 0 275 8 1
-9 -7 0 1542 50 1
-7 9 0 1487 50 1
9 7 0 1553 50 1
7 -9 0 1496 50 1
-7 9 0 1581 55 1
5 -9 0 443 92 1
9 5 0 462 92 1
-5 9 0 464 101 1
-5 9 0 512 92 1
-9 -5 0 502 91 1
-3 9 0 471 58 1
-9 -3 0 452 53 1
3 -9 0 524 53 1
-3 9 0 500 53 1
9 1 0 550 2 1
1 -9 0 583 2 1
-9 -1 0 516 2 1
1 9 0 5786 136 1
-1 -9 0 5645 136 1
-1 -9 0 5921 136 1
-1 -9 0 5928 136 1
9 -1 0 5761 136 1
-3 -9 0 4363 136 1
-9 3 0 4151 137 1
3 9 0 4540 137 1
-9 3 0 4524 152 1
-3 -9 0 4379 136 1
5 9 0 6857 231 1
-9 5 0 7022 232 1
-5 -9 0 7344 230 1
-7 -9 0 3538 188 1
7 9 0 3991 188 1
-9 7 0 3843 188 1
9 -9 0 4171 105 1
-9 -9 0 4098 104 1
9 9 0 4000 105 1
-8 10 0 2812 118 1
10 8 0 2703 107 1
-6 10 0 1086 53 1
6 -10 0 1141 48 1
-10 -6 0 1068 48 1
10 6 0 1084 48 1
-6 10 0 1101 48 1
4 -10 0 1396 61 1
-10 -4 0 1497 61 1
-4 10 0 1480 62 1
10 4 0 1491 62 1
-4 10 0 1501 68 1
10 2 0 634 68 1
-10 -2 0 699 67 1
2 -10 0 753 68 1
-2 10 0 676 68 1
-2 10 0 773 75 1
-10 0 0 2758 10 1
0 -10 0 2820 11 1
-10 0 0 2777 10 1
10 -2 0 11239 285 1
-10 2 0 11302 318 1
-2 -10 0 10579 285 1
-2 -10 0 11031 285 1
2 10 0 10960 285 1
-10 2 0 10846 286 1
-2 -10 0 10851 285 1
-4 -10 0 1378 68 1
10 -4 0 1316 69 1
-10 4 0 1282 76 1
-10 4 0 1259 68 1
6 10 0 5689 178 1
-10 6 0 5631 197 1
-10 6 0 5630 178 1
10 -6 0 5671 178 1
8 10 0 519 54 1
10 -8 0 464 54 1
-10 8 0 530 54 1
-10 10 0 250 3 1
10 -10 0 260 3 1
-10 10 0 235 3 1
-9 11 0 6311 272 1
-9 11 0 6594 302 1
9 -11 0 6397 272 1
-11 -9 0 6932 272 1
-7 11 0 6861 268 1
-7 11 0 6796 296 1
7 -11 0 7186 268 1
-11 -7 0 6828 267 1
11 7 0 6599 268 1
11 5 0 161 41 1
-11 -5 0 142 40 1
5 -11 0 152 41 1
-5 11 0 142 41 1
-5 11 0 155 45 1
-3 11 0 2126 49 1
3 -11 0 2020 49 1
-3 11 0 2041 53 1
-1 11 0 995 67 1
-11 -1 0 975 66 1
-1 11 0 931 73 1
1 11 0 746 71 1
-11 1 0 806 70 1
-1 -11 0 797 70 1
-11 1 0 756 78 1
11 -3 0 3947 115 1
-11 3 0 3833 114 1
-3 -11 0 3975 114 1
3 11 0 3889 115 1
-5 -11 0 24 12 1
-11 5 0 21 12 1
-11 5 0 22 14 1
5 11 0 16 12 1
11 -5 0 27 12 1
-11 7 0 599 18 1
11 -7 0 630 19 1
-11 7 0 616 20 1
-11 9 0 2750 115 1
11 -9 0 3060 104 1
-11 9 0 2990 115 1
11 -11 0 4646 161 1
-11 11 0 4252 179 1
-11 11 0 4603 178 1
-11 11 0 4355 161 1
-10 12 0 314 15 1
-10 12 0 300 16 1
-10 12 0 319 14 1
8 -12 0 13981 510 1
-8 12 0 14897 564 1
-8 12 0 14536 565 1
-8 12 0 14677 512 1
-12 -8 0 14745 509 1
-6 12 0 328 15 1
6 -12 0 308 14 1
-6 12 0 329 14 1
-4 12 0 2871 188 1
-4 12 0 2664 171 1
-2 12 0 135 2 1
12 0 0 316 24 1
-12 0 0 307 23 1
0 -12 0 406 23 1
0 12 0 387 23 1
2 12 0 254 32 1
-12 2 0 247 31 1
-2 -12 0 226 31 1
-2 -12 0 249 31 1
4 12 0 1747 38 1
-12 4 0 1736 42 1
-12 4 0 1728 38 1
12 -6 0 2644 96 1
6 12 0 2725 96 1
-12 6 0 2511 107 1
-12 6 0 2584 96 1
-12 8 0 2826 82 1
12 -8 0 2829 75 1
-12 8 0 2914 83 1
-12 10 0 1509 54 1
-12 10 0 1527 60 1
-12 10 0 1643 59 1
-12 12 0 5158 170 1
12 -12 0 4688 172 1
-11 13 0 5489 208 1
11 -13 0 5452 210 1
-11 13 0 5444 230 1
-9 13 0 3 8 1
-9 13 0 4 7 1
9 -13 0 4 10 1
9 -13 0 3 7 1
-7 13 0 3985 182 1
-7 13 0 4455 201 1
7 -13 0 4457 182 1
-7 13 0 4474 200 1
-5 13 0 4395 165 1
5 -13 0 4890 149 1
-5 13 0 4604 149 1
-3 13 0 271 12 1
-3 13 0 279 13 1
3 -13 0 272 12 1
13 1 0 3756 144 1
-1 13 0 3955 144 1
1 -13 0 3751 143 1
-1 13 0 3743 159 1
-13 1 0 1001 36 1
1 13 0 996 37 1
13 -1 0 1066 37 1
-1 -13 0 997 36 1
-13 3 0 182 7 1
13 -3 0 175 5 1
3 13 0 180 5 1
-13 3 0 169 4 1
-13 3 0 164 5 1
-13 5 0 1253 84 1
5 13 0 1237 84 1
-13 7 0 200 21 1
7 13 0 242 18 1
-13 9 0 828 63 1
-13 9 0 847 70 1
-13 11 0 318 15 1
13 -13 0 162 19 1
-13 13 0 165 19 1
-13 13 0 179 22 1
-12 14 0 992 42 1
12 -14 0 961 42 1
-12 14 0 988 46 1
12 -14 0 1053 43 1
-10 14 0 874 27 1
10 -14 0 822 27 1
-8 14 0 3303 98 1
8 -14 0 3408 99 1
-8 14 0 3202 108 1
8 -14 0 3153 98 1
-14 -6 0 200 25 1
6 -14 0 230 21 1
6 -14 0 205 22 1
-6 14 0 207 24 1
-4 14 0 169 4 1
-4 14 0 176 3 1
14 4 0 198 5 1
-2 14 0 3437 91 1
-2 14 0 3581 100 1
2 -14 0 3385 90 1
0 14 0 1201 72 1
0 14 0 1214 79 1
0 -14 0 1208 71 1
14 -2 0 1866 32 1
-14 4 0 2046 37 1
-14 4 0 2053 43 1
14 -4 0 2035 38 1
4 14 0 2098 38 1
14 -6 0 2280 102 1
6 14 0 2350 102 1
-14 8 0 6804 285 1
-14 10 0 15638 621 1
-10 -14 0 16832 567 1
-14 10 0 17030 562 1
-14 12 0 2667 88 1
14 -12 0 2545 88 1
-14 12 0 2580 98 1
-12 -14 0 2529 90 1
-14 14 0 776 42 1
-14 14 0 842 38 1
14 -14 0 803 39 1
14 -14 0 820 38 1
-13 15 0 321 20 1
13 -15 0 322 19 1
-15 -13 0 275 21 1
13 -15 0 331 18 1
-13 15 0 307 18 1
11 -15 0 2366 94 1
-11 15 0 2341 104 1
11 -15 0 2375 95 1
-15 -11 0 2452 105 1
9 -15 0 4737 182 1
-9 15 0 4973 200 1
-9 15 0 4855 181 1
-15 -9 0 5013 201 1
9 -15 0 4602 180 1
-7 15 0 7961 356 1
-7 15 0 8191 394 1
7 -15 0 7709 356 1
-5 15 0 4572 221 1
5 -15 0 4609 223 1
3 -15 0 6006 192 1
3 -15 0 5837 190 1
15 3 0 5741 190 1
-3 15 0 5882 190 1
-15 -1 0 7248 351 1
-1 15 0 7039 350 1
-1 15 0 6916 317 1
15 1 0 6728 317 1
-15 1 0 2458 99 1
-1 -15 0 2672 88 1
15 -1 0 2425 89 1
-1 -15 0 2524 91 1
3 15 0 65 8 1
15 -3 0 70 9 1
-3 -15 0 68 10 1
-15 3 0 67 10 1
-5 -15 0 2311 87 1
5 15 0 2307 85 1
15 -5 0 2438 85 1
-15 5 0 2276 84 1
-15 7 0 1726 29 1
7 15 0 1652 29 1
-9 -15 0 1501 77 1
15 -9 0 1385 75 1
-15 9 0 1440 74 1
15 -11 0 1453 52 1
-15 11 0 1434 58 1
-15 11 0 1356 52 1
-11 -15 0 1298 54 1
-15 13 0 3279 137 1
-15 13 0 3424 123 1
-15 15 0 23 2 1
15 -15 0 39 2 1
-15 15 0 39 2 1
15 -15 0 23 4 1
-14 16 0 1153 40 1
-16 -14 0 1205 45 1
14 -16 0 1244 40 1
14 -16 0 1162 40 1
-14 16 0 1230 44 1
-16 -12 0 131 10 1
-12 16 0 118 7 1
12 -16 0 109 7 1
-12 16 0 124 8 1
12 -16 0 137 9 1
10 -16 0 1036 42 1
-10 16 0 1022 41 1
-10 16 0 1020 45 1
-16 -8 0 5366 234 1
-8 16 0 5027 211 1
8 -16 0 4986 211 1
8 -16 0 5325 213 1
6 -16 0 14472 564 1
6 -16 0 14487 560 1
-6 16 0 13982 559 1
4 -16 0 12681 475 1
-4 16 0 12472 471 1
-16 -4 0 13532 522 1
4 -16 0 12630 471 1
2 -16 0 475 38 1
-16 -2 0 512 43 1
-2 16 0 527 39 1
2 -16 0 481 39 1
-16 0 0 623 43 1
0 16 0 657 41 1
0 16 0 592 38 1
16 0 0 588 38 1
0 -16 0 639 39 1
16 -2 0 3226 172 1
2 16 0 3237 172 1
-4 -16 0 8734 397 1
-16 4 0 8737 435 1
-16 6 0 2521 108 1
6 16 0 2689 97 1
-6 -16 0 2666 99 1
-16 6 0 2679 96 1
-8 -16 0 1371 62 1
-16 8 0 1503 60 1
16 -10 0 990 42 1
-10 -16 0 961 43 1
-16 10 0 1015 41 1
-16 10 0 1025 47 1
16 -12 0 13 5 1
-12 -16 0 18 4 1
-16 14 0 65 6 1
16 -14 0 70 7 1
16 -16 0 304 16 1
-16 -16 0 333 17 1
16 -16 0 289 13 1
-16 16 0 283 13 1
-15 17 0 268 11 1
-17 -15 0 258 14 1
15 -17 0 293 13 1
-15 17 0 286 12 1
15 -17 0 283 11 1
-13 17 0 1 2 1
13 -17 0 5 2 1
13 -17 0 5 3 1
-13 17 0 6 2 1
-17 -13 0 2 3 1
-11 17 0 145 10 1
-11 17 0 132 10 1
-17 -11 0 145 12 1
11 -17 0 133 9 1
-17 -9 0 3355 144 1
-9 17 0 3481 130 1
9 -17 0 3413 129 1
9 -17 0 3659 131 1
7 -17 0 4931 179 1
7 -17 0 4861 182 1
-17 -7 0 4961 200 1
-7 17 0 5138 180 1
5 -17 0 522 20 1
-5 17 0 522 21 1
5 -17 0 526 22 1
-17 -3 0 5900 249 1
3 -17 0 6325 227 1
-3 17 0 6091 225 1
3 -17 0 6034 224 1
-1 17 0 5051 176 1
1 -17 0 5056 175 1
1 -17 0 4994 178 1
-1 -17 0 8600 335 1
1 17 0 9094 332 1
1 17 0 9088 366 1
3 17 0 5 4 1
17 -3 0 1 2 1
-17 3 0 3 5 1
-3 -17 0 10 6 1
-5 -17 0 8908 351 1
17 -5 0 8254 347 1
5 17 0 8875 347 1
-17 5 0 8496 385 1
-7 -17 0 200 9 1
-17 7 0 179 8 1
17 -7 0 170 8 1
-17 9 0 1679 56 1
-17 9 0 1666 63 1
-9 -17 0 1689 58 1
-17 11 0 3455 128 1
-13 -17 0 772 34 1
-17 13 0 725 32 1
17 -13 0 719 32 1
-17 13 0 758 36 1
-15 -17 0 118 13 1
17 -15 0 104 9 1
-17 15 0 102 10 1
-17 15 0 105 9 1
-17 17 0 14 2 1
-17 17 0 12 3 1
-17 -17 0 10 4 1
17 -17 0 7 3 1
-16 18 0 867 37 1
16 -18 0 830 34 1
-16 18 0 857 34 1
-18 -16 0 912 38 1
16 -18 0 850 34 1
-14 18 0 172 10 1
14 -18 0 190 10 1
14 -18 0 190 12 1
-12 18 0 1994 70 1
-18 -12 0 1956 78 1
12 -18 0 2068 70 1
12 -18 0 2074 69 1
10 -18 0 2001 72 1
-10 18 0 1945 73 1
-18 -10 0 2075 81 1
8 -18 0 367 25 1
-8 18 0 368 26 1
-18 -8 0 363 29 1
-18 -6 0 1273 75 1
6 -18 0 1384 67 1
6 -18 0 1435 68 1
-6 18 0 1375 68 1
4 -18 0 2462 75 1
-4 18 0 2350 74 1
4 -18 0 2473 73 1
2 -18 0 2030 82 1
2 -18 0 2037 84 1
18 0 0 246 10 1
0 -18 0 256 10 1
0 18 0 240 9 1
-18 0 0 253 10 1
-2 -18 0 3250 111 1
18 -2 0 3110 110 1
-18 4 0 1442 65 1
18 -4 0 1489 59 1
-4 -18 0 1459 60 1
-18 6 0 2325 97 1
-6 -18 0 2572 89 1
18 -6 0 2449 88 1
18 -8 0 35426 1384 1
-18 8 0 37940 1534 1
-8 -18 0 37073 1397 1
-18 10 0 3307 124 1
-18 10 0 3211 139 1
-10 -18 0 3169 128 1
18 -12 0 61 6 1
-18 12 0 84 5 1
-18 12 0 68 6 1
-12 -18 0 94 9 1
18 -14 0 186 2 1
-18 14 0 150 2 1
-18 14 0 160 2 1
18 -16 0 11 3 1
-16 -18 0 12 4 1
-18 -18 0 18 3 1
-18 18 0 9 4 1
18 -18 0 6 3 1
-17 19 0 1512 52 1
17 -19 0 1557 52 1
-19 -17 0 1539 57 1
-19 -15 0 177 12 1
15 -19 0 158 8 1
15 -19 0 156 11 1
-15 19 0 148 9 1
13 -19 0 20 8 1
13 -19 0 23 5 1
-13 19 0 25 6 1
-19 -13 0 22 9 1
11 -19 0 1622 56 1
-19 -11 0 1563 63 1
-11 19 0 1531 56 1
11 -19 0 1539 57 1
9 -19 0 3949 133 1
9 -19 0 3968 135 1
-19 -9 0 3967 149 1
-9 19 0 3814 134 1
-7 19 0 2763 108 1
7 -19 0 2805 107 1
-19 -7 0 2761 120 1
7 -19 0 2712 109 1
-5 19 0 3818 160 1
-19 -5 0 3568 177 1
5 -19 0 3789 161 1
5 -19 0 3857 159 1
-3 19 0 542 30 1
3 -19 0 534 30 1
3 -19 0 578 28 1
-19 -3 0 500 33 1
1 -19 0 1324 61 1
-1 19 0 1351 60 1
-19 -1 0 1301 67 1
-1 -19 0 1803 68 1
-19 1 0 1803 75 1
1 19 0 1658 67 1
-3 -19 0 97 6 1
3 19 0 82 6 1
-19 3 0 63 6 1
19 -5 0 2789 98 1
5 19 0 2922 97 1
-19 5 0 2718 108 1
-19 7 0 864 43 1
-19 9 0 1349 76 1
-9 -19 0 1366 69 1
19 -9 0 1432 69 1
-11 -19 0 197 11 1
19 -11 0 185 9 1
-19 11 0 151 10 1
-13 -19 0 226 4 1
-19 13 0 262 2 1
19 -13 0 249 3 1
-19 15 0 41 6 1
-15 -19 0 21 11 1
19 -15 0 36 7 1
-17 -19 0 617 23 1
19 -17 0 607 21 1
-20 -18 0 26 8 1
16 -20 0 42 8 1
-16 20 0 36 7 1
-20 -16 0 39 7 1
14 -20 0 5 3 1
14 -20 0 5 2 1
-20 -14 0 12 3 1
-14 20 0 2 3 1
12 -20 0 437 21 1
12 -20 0 422 22 1
-12 20 0 403 22 1
-20 -12 0 402 24 1
10 -20 0 1137 47 1
-20 -10 0 1069 52 1
-10 20 0 1044 47 1
10 -20 0 1093 46 1
8 -20 0 103 7 1
-20 -8 0 87 8 1
-8 20 0 98 6 1
8 -20 0 100 5 1
6 -20 0 1022 36 1
-6 20 0 1054 36 1
6 -20 0 1040 35 1
-20 -6 0 993 40 1
-4 20 0 108 7 1
4 -20 0 114 7 1
-20 -4 0 99 8 1
-20 -2 0 316 12 1
-2 20 0 296 10 1
2 -20 0 293 11 1
0 -20 0 912 38 1
0 20 0 958 38 1
-20 0 0 954 42 1
2 20 0 1705 88 1
-20 2 0 1625 98 1
-2 -20 0 1623 89 1
20 -2 0 1695 89 1
20 -4 0 3336 118 1
-20 4 0 3126 130 1
-4 -20 0 3346 119 1
4 20 0 3292 117 1
-6 -20 0 1732 66 1
20 -6 0 1678 66 1
-20 6 0 1689 72 1
20 -8 0 892 41 1
-20 8 0 1029 45 1
-8 -20 0 935 41 1
-10 -20 0 735 29 1
20 -10 0 824 29 1
-20 10 0 764 31 1
-20 12 0 358 17 1
-12 -20 0 413 18 1
-20 14 0 523 28 1
20 -16 0 204 12 1
-19 21 0 38 6 1
-21 -17 0 250 15 1
15 -21 0 270 12 1
15 -21 0 276 11 1
-21 -15 0 271 12 1
-15 21 0 255 12 1
-21 -13 0 2 4 1
13 -21 0 2 3 1
-13 21 0 11 6 1
11 -21 0 51 5 1
-11 21 0 39 6 1
-21 -11 0 58 8 1
11 -21 0 39 6 1
9 -21 0 15 6 1
-9 21 0 13 6 1
-21 -9 0 12 8 1
7 -21 0 14 2 1
7 -21 0 17 2 1
-21 -7 0 4 3 1
-7 21 0 12 3 1
-5 21 0 8 3 1
5 -21 0 4 2 1
-21 -5 0 7 3 1
5 -21 0 8 2 1
-3 21 0 115 7 1
3 -21 0 113 7 1
-21 -3 0 115 8 1
-1 21 0 18 7 1
-21 1 0 1058 61 1
1 21 0 1082 55 1
-1 -21 0 1145 56 1
-3 -21 0 354 13 1
-21 3 0 304 14 1
3 21 0 350 14 1
21 -3 0 372 15 1
-21 5 0 4 8 1
21 -5 0 0 10 1
-5 -21 0 3 8 1
-21 7 0 703 34 1
-7 -21 0 658 32 1
21 -7 0 625 32 1
-9 -21 0 103 12 1
21 -9 0 92 12 1
-21 9 0 105 12 1
21 -11 0 1593 63 1
-11 -21 0 1674 63 1
-21 11 0 1617 69 1
-21 13 0 112 10 1
21 -13 0 99 11 1
-21 15 0 54 6 1
-21 17 0 1254 57 1
-18 22 0 58 6 1
-16 22 0 303 14 1
16 -22 0 306 13 1
-22 -16 0 323 15 1
-14 22 0 511 23 1
14 -22 0 550 23 1
14 -22 0 515 23 1
12 -22 0 539 24 1
-12 22 0 566 25 1
-22 -12 0 505 28 1
12 -22 0 574 25 1
-22 -10 0 634 30 1
-10 22 0 649 27 1
10 -22 0 649 27 1
10 -22 0 647 26 1
-22 -8 0 1616 69 1
-8 22 0 1649 63 1
-22 -6 0 293 16 1
6 -22 0 286 14 1
-6 22 0 283 14 1
4 -22 0 208 9 1
-22 -4 0 159 10 1
-4 22 0 201 10 1
2 -22 0 921 39 1
-22 -2 0 912 42 1
-2 22 0 868 38 1
0 -22 0 2 3 1
-22 0 0 7 3 1
0 22 0 6 4 1
-2 -22 0 620 24 1
-22 2 0 638 26 1
2 22 0 579 25 1
22 -4 0 314 28 1
-22 4 0 377 29 1
-4 -22 0 319 27 1
22 -6 0 163 11 1
-22 6 0 120 7 1
-6 -22 0 133 8 1
-8 -22 0 15 2 1
22 -10 0 82 4 1
-10 -22 0 153 3 1
-22 10 0 146 2 1
-12 -22 0 146 12 1
22 -14 0 80 10 1
-22 14 0 62 6 1
-22 16 0 0 2 1
-17 23 0 10 2 1
15 -23 0 65 6 1
-15 23 0 60 7 1
-13 23 0 206 11 1
-23 -13 0 207 10 1
-13 23 0 225 11 1
11 -23 0 107 3 1
-23 -11 0 27 2 1
11 -23 0 162 2 1
-11 23 0 122 3 1
9 -23 0 389 22 1
-23 -9 0 463 24 1
-9 23 0 392 22 1
-7 23 0 128 10 1
-23 -7 0 106 11 1
7 -23 0 114 9 1
-23 -5 0 488 25 1
-5 23 0 415 23 1
5 -23 0 436 23 1
3 -23 0 1 2 1
-23 -3 0 2 3 1
-3 23 0 1 4 1
-23 -1 0 88 8 1
1 -23 0 82 7 1
-1 23 0 88 9 1
-1 -23 0 81 8 1
-23 1 0 62 8 1
1 23 0 86 11 1
-23 3 0 28 7 1
-3 -23 0 33 7 1
-23 5 0 404 18 1
-5 -23 0 439 17 1
-7 -23 0 52 2 1
-23 7 0 21 2 1
23 -7 0 17 5 1
23 -9 0 159 13 1
-9 -23 0 191 10 1
-23 9 0 170 10 1
-23 13 0 85 6 1
-23 15 0 98 7 1
16 -24 0 137 8 1
-24 -14 0 518 24 1
14 -24 0 520 21 1
12 -24 0 602 26 1
-24 -12 0 652 29 1
-10 24 0 368 18 1
10 -24 0 363 17 1
-24 -10 0 380 19 1
8 -24 0 341 11 1
-8 24 0 304 12 1
-6 24 0 43 8 1
6 -24 0 49 7 1
-24 -6 0 32 8 1
-4 24 0 180 13 1
4 -24 0 193 12 1
-24 -4 0 217 13 1
2 -24 0 739 32 1
-2 24 0 701 32 1
-24 -2 0 764 35 1
0 -24 0 854 32 1
0 24 0 846 33 1
-24 0 0 881 35 1
-24 2 0 289 12 1
-2 -24 0 352 11 1
2 24 0 349 15 1
-24 4 0 693 36 1
-4 -24 0 770 33 1
-6 -24 0 879 35 1
-24 6 0 872 38 1
-24 8 0 1035 38 1
24 -8 0 1018 37 1
-8 -24 0 914 35 1
-10 -24 0 160 10 1
24 -10 0 160 14 1
-24 10 0 129 8 1
-24 12 0 0 1 1
-24 14 0 123 8 1
-24 16 0 3 1 1
-25 -13 0 2042 89 1
13 -25 0 2059 81 1
11 -25 0 16 2 1
-25 -11 0 19 2 1
-25 -9 0 23 5 1
9 -25 0 20 6 1
-25 -7 0 91 8 1
-7 25 0 109 10 1
-5 25 0 1 4 1
5 -25 0 1 2 1
-3 25 0 1 5 1
3 -25 0 0 2 1
1 -25 0 29 6 1
-1 25 0 37 11 1
-25 -1 0 42 7 1
1 25 0 1211 46 1
-25 1 0 1202 49 1
-1 -25 0 1316 45 1
-3 -25 0 246 13 1
-25 3 0 235 13 1
-5 -25 0 139 7 1
-25 7 0 157 9 1
-7 -25 0 172 10 1
-25 9 0 11 2 1
-11 -25 0 30 5 1
-25 11 0 47 4 1
-25 13 0 108 9 1
12 -26 0 255 12 1
-26 -12 0 230 14 1
10 -26 0 2456 100 1
-26 -10 0 2407 110 1
-26 -8 0 132 9 1
8 -26 0 142 7 1
6 -26 0 991 32 1
-6 26 0 941 34 1
-26 -4 0 82 2 1
4 -26 0 70 2 1
-4 26 0 54 5 1
2 -26 0 55 6 1
-2 26 0 51 6 1
0 -26 0 0 2 1
-26 0 0 4 2 1
0 26 0 0 6 1
-2 -26 0 268 14 1
-26 2 0 293 14 1
-26 4 0 122 8 1
-4 -26 0 139 9 1
-26 6 0 4 2 1
-8 -26 0 105 7 1
-26 8 0 95 7 1
-26 10 0 27 4 1
-10 -26 0 27 5 1
-26 12 0 85 4 1
9 -27 0 51 4 1
7 -27 0 99 7 1
-27 -7 0 94 8 1
-27 -5 0 372 19 1
5 -27 0 386 18 1
3 -27 0 116 8 1
-27 -3 0 139 9 1
-27 -1 0 242 13 1
-27 1 0 59 5 1
-27 1 0 54 7 1
-27 3 0 326 15 1
-3 -27 0 293 14 1
-5 -27 0 1843 72 1
-27 5 0 1855 79 1
-27 7 0 231 10 1
-7 -27 0 201 10 1
-27 9 0 23 3 1
-9 -27 0 19 4 1
6 -28 0 639 29 1
-28 -6 0 611 32 1
-28 -4 0 1 2 1
4 -28 0 5 1 1
2 -28 0 27 4 1
-28 -2 0 30 4 1
0 -28 0 153 10 1
-28 0 0 167 11 1
-28 2 0 73 8 1
-2 -28 0 79 6 1
-28 2 0 98 7 1
-4 -28 0 330 15 1
-28 4 0 331 17 1
-28 4 0 336 17 1
-6 -28 0 357 14 1
-28 6 0 359 15 1
-28 6 0 363 16 1
1 -29 0 298 17 1
-29 -1 0 318 19 1
-29 1 0 90 6 1
-1 -29 0 81 6 1
1 -2 -1 77920 604 1
2 1 -1 76729 669 1
-1 2 -1 77648 604 1
1 -2 -1 79277 603 1
-2 -1 -1 79956 604 1
1 -2 1 76787 604 1
-1 -2 -1 4303 22 1
-1 -2 -1 4207 22 1
1 2 -1 4275 22 1
1 2 -1 4195 25 1
-1 -2 -1 4229 22 1
-2 1 -1 4189 22 1
-2 1 -1 4149 25 1
-2 1 1 4342 22 1
1 2 1 4246 22 1
3 2 -1 8244 99 1
-2 3 -1 8589 90 1
-2 3 -1 8728 99 1
-3 -2 -1 8415 89 1
-3 -2 -1 8773 90 1
-2 3 1 8395 89 1
2 -3 1 8492 99 1
2 -3 1 8563 89 1
3 0 -1 4677 1 1
0 3 -1 4835 1 1
-3 0 1 4677 0 1
-3 0 1 4625 0 1
3 0 1 4568 1 1
-2 -3 -1 17117 155 1
2 3 -1 17106 155 1
3 -2 -1 16372 154 1
-3 2 -1 16824 155 1
-2 -3 -1 17282 155 1
-3 2 1 16641 155 1
2 3 1 17271 155 1
3 -2 1 16704 171 1
-2 -3 1 16825 154 1
3 -2 1 16817 155 1
-3 4 -1 3924 33 1
-4 -3 -1 3690 30 1
-4 -3 -1 3810 30 1
-3 4 1 3879 33 1
-3 4 1 3890 30 1
3 -4 1 3795 33 1
-4 -3 1 3792 30 1
-4 -1 -1 2233 414 1
-4 -1 -1 2336 414 1
4 1 -1 1969 414 1
1 -4 -1 2268 415 1
-1 4 -1 2184 415 1
4 1 1 1886 414 1
-1 4 1 2359 415 1
-1 -4 -1 18232 372 1
-1 -4 -1 17133 372 1
1 4 -1 17525 372 1
1 4 1 17781 372 1
4 -1 1 17126 372 1
-1 -4 1 17412 371 1
-4 1 1 17592 372 1
-1 -4 1 17449 371 1
-1 -4 1 17812 371 1
-3 -4 -1 4456 242 1
-3 -4 -1 4680 243 1
-4 3 -1 4583 269 1
-4 3 -1 4669 243 1
-4 3 1 4589 243 1
-3 -4 1 4534 242 1
4 -3 1 4417 243 1
4 -3 1 4439 268 1
4 -5 -1 200 3 1
-5 -4 -1 259 2 1
5 4 -1 190 3 1
-5 -4 1 201 3 1
2 -5 -1 5 2 1
5 2 -1 4 1 1
-5 -2 -1 1 1 1
-2 5 -1 3 1 1
-5 -2 -1 0 1 1
-5 -2 -1 0 1 1
5 2 1 1 1 1
-2 5 1 6 1 1
2 -5 1 3 1 1
-5 -2 1 6 2 1
0 -5 -1 1109 10 1
-5 0 -1 1055 10 1
0 5 -1 1196 10 1
5 0 -1 1122 10 1
-5 0 -1 1063 10 1
-5 0 1 1169 10 1
0 -5 1 1245 10 1
0 5 1 1065 10 1
5 0 1 1008 10 1
-5 0 1 1183 10 1
-5 2 -1 15811 980 1
-2 -5 -1 16632 979 1
-2 -5 -1 15838 979 1
5 -2 -1 17985 980 1
-2 -5 -1 15963 979 1
2 5 -1 16568 979 1
2 5 1 17312 980 1
5 -2 1 17512 980 1
-2 -5 1 17290 979 1
-5 2 1 18137 980 1
4 5 -1 831 80 1
-4 -5 -1 824 80 1
-4 -5 -1 773 80 1
-5 4 -1 737 80 1
-5 4 -1 813 88 1
-4 -5 1 873 80 1
-5 4 1 846 80 1
5 -4 1 781 80 1
-5 6 -1 23 4 1
5 -6 1 26 4 1
-6 -5 1 20 4 1
6 3 -1 174 31 1
-6 -3 -1 187 31 1
3 -6 -1 61 31 1
-3 6 -1 58 32 1
-3 6 -1 64 35 1
-6 -3 -1 182 31 1
6 3 1 214 31 1
-3 6 1 69 32 1
-6 -3 1 184 31 1
-3 6 1 56 35 1
3 -6 1 75 32 1
-1 6 -1 550 22 1
6 1 -1 548 22 1
1 -6 -1 509 22 1
-6 -1 -1 498 22 1
-1 6 1 495 22 1
-6 -1 1 529 24 1
1 -6 1 546 22 1
-6 1 -1 41 24 1
1 6 -1 40 24 1
6 -1 -1 45 24 1
-1 -6 1 57 24 1
-6 1 1 45 24 1
1 6 1 44 24 1
-6 1 1 40 27 1
6 -1 1 48 24 1
-6 3 -1 18715 725 1
-6 3 -1 18752 802 1
-3 -6 -1 18977 724 1
3 6 -1 18293 724 1
3 6 1 19097 725 1
-6 3 1 20021 803 1
-6 3 1 20167 725 1
-6 5 -1 125 2 1
-5 -6 -1 136 2 1
5 6 -1 135 2 1
-6 5 -1 122 2 1
6 -5 1 120 2 1
7 6 -1 1103 35 1
-6 7 -1 1323 35 1
6 -7 -1 1287 35 1
-6 7 -1 1247 38 1
-7 -6 -1 1259 35 1
7 6 1 1112 35 1
-7 -6 1 1205 35 1
-6 7 1 1285 35 1
-4 7 -1 516 71 1
-7 -4 -1 562 64 1
-4 7 -1 563 64 1
-7 -4 1 489 64 1
-4 7 1 472 71 1
7 4 1 554 64 1
-7 -2 -1 70 22 1
-7 -2 -1 67 22 1
2 -7 -1 73 23 1
-7 -2 -1 52 22 1
2 -7 -1 72 22 1
-2 7 -1 69 23 1
7 2 -1 72 22 1
-2 7 -1 75 25 1
2 -7 1 61 22 1
-2 7 1 65 25 1
7 2 1 64 22 1
-2 7 1 83 23 1
-7 -2 1 59 22 1
-7 -2 1 64 25 1
-7 0 -1 0 9 1
0 -7 -1 3 9 1
0 7 -1 3 9 1
0 7 1 3 9 1
-7 0 1 0 9 1
7 0 1 0 9 1
2 7 -1 1063 68 1
-7 2 -1 976 68 1
-7 2 -1 1075 75 1
-2 -7 -1 998 68 1
-2 -7 -1 960 68 1
-2 -7 -1 959 68 1
-2 -7 1 1036 68 1
-2 -7 1 989 68 1
7 -2 1 1072 68 1
-7 2 1 995 75 1
-7 2 1 963 68 1
2 7 1 941 68 1
-2 -7 1 935 68 1
-7 2 1 957 68 1
4 7 -1 442 6 1
-7 4 -1 536 6 1
7 -4 -1 531 6 1
-4 -7 -1 488 6 1
-4 -7 -1 490 6 1
7 -4 1 525 6 1
-7 4 1 509 7 1
-6 -7 -1 2596 78 1
-7 6 -1 2474 78 1
6 7 1 2568 78 1
-7 6 1 2580 86 1
-6 -7 1 2649 78 1
7 -6 1 2525 78 1
-7 6 1 2499 78 1
-7 8 -1 2423 88 1
-7 8 -1 2483 80 1
8 7 -1 2236 80 1
-8 -7 -1 2296 79 1
7 -8 1 2516 80 1
8 7 1 2307 80 1
-7 8 1 2232 80 1
-8 -7 1 2238 79 1
8 5 -1 554 4 1
-5 8 -1 598 4 1
-5 8 -1 616 4 1
8 5 1 572 4 1
-5 8 1 619 4 1
-5 8 1 626 4 1
5 -8 1 618 4 1
-8 -5 1 584 4 1
-3 8 -1 1563 60 1
-3 8 -1 1606 54 1
-8 -3 -1 1557 54 1
-8 -3 1 1571 54 1
8 3 1 1492 54 1
-3 8 1 1607 54 1
-3 8 1 1599 60 1
-8 -1 -1 904 59 1
1 -8 -1 883 59 1
8 1 -1 813 59 1
-8 -1 -1 870 59 1
-1 8 -1 885 59 1
-1 8 1 874 59 1
-8 -1 1 830 59 1
-8 -1 1 841 66 1
-1 -8 -1 404 46 1
-8 1 -1 340 45 1
8 -1 -1 301 46 1
-1 -8 -1 330 45 1
1 8 -1 298 46 1
-8 1 1 318 45 1
1 8 1 387 46 1
-1 -8 1 293 45 1
-3 -8 -1 4526 231 1
8 -3 -1 4798 231 1
-3 -8 -1 4921 231 1
-8 3 -1 4658 255 1
3 8 -1 4794 231 1
-3 -8 -1 4721 231 1
3 8 1 4520 231 1
-8 3 1 4922 231 1
-3 -8 1 4872 231 1
5 8 -1 692 16 1
-8 5 -1 701 16 1
-8 5 -1 699 17 1
-8 5 1 717 16 1
-8 5 1 738 17 1
-5 -8 1 673 16 1
5 8 1 692 16 1
8 -5 1 676 16 1
-8 7 -1 2741 148 1
-7 -8 -1 2647 148 1
8 -7 -1 2488 148 1
7 8 -1 2764 148 1
-8 7 -1 2620 164 1
-8 7 1 2713 164 1
-8 7 1 2632 148 1
8 -7 1 2638 148 1
7 8 1 2583 148 1
-9 -8 -1 328 15 1
9 8 -1 325 15 1
-8 9 -1 299 16 1
-8 9 -1 301 15 1
9 8 1 326 15 1
-8 9 1 309 15 1
-8 9 1 327 17 1
-9 -8 1 316 15 1
-6 9 -1 217 11 1
6 -9 -1 226 10 1
-6 9 -1 230 11 1
-9 -6 -1 264 10 1
9 6 -1 279 11 1
-6 9 1 227 11 1
-6 9 1 220 11 1
6 -9 1 238 11 1
-9 -6 1 267 10 1
9 6 1 249 10 1
-4 9 -1 2287 72 1
4 -9 -1 2367 71 1
-4 9 -1 2355 79 1
9 4 -1 2514 71 1
-9 -4 -1 2449 71 1
-4 9 1 2236 72 1
4 -9 1 2439 71 1
-9 -4 1 2513 71 1
-4 9 1 2451 79 1
9 4 1 2447 71 1
-2 9 -1 265 5 1
9 2 -1 301 5 1
-9 -2 -1 282 5 1
-2 9 -1 272 5 1
-9 -2 1 313 5 1
-9 -2 1 318 6 1
-2 9 1 301 5 1
-2 9 1 287 5 1
-9 0 -1 2217 70 1
-9 0 -1 2270 70 1
0 -9 -1 2208 71 1
0 9 -1 2074 71 1
0 -9 1 2189 71 1
0 -9 1 2173 70 1
9 0 1 2108 71 1
-2 -9 -1 480 23 1
2 9 -1 465 23 1
-9 2 -1 432 23 1
-9 2 1 448 23 1
-2 -9 1 472 23 1
9 -2 1 401 23 1
-2 -9 1 485 23 1
2 9 1 456 23 1
-9 4 -1 3844 146 1
-4 -9 -1 3788 145 1
4 9 -1 3797 145 1
-9 4 -1 3787 161 1
-4 -9 -1 3969 145 1
9 -4 -1 3709 146 1
-4 -9 -1 3635 145 1
4 9 1 3881 146 1
-9 4 1 3972 145 1
-4 -9 1 3972 145 1
-9 4 1 3803 161 1
-9 6 -1 770 38 1
6 9 -1 737 37 1
9 -6 -1 746 38 1
-6 -9 -1 718 37 1
-9 6 -1 807 41 1
-6 -9 1 801 38 1
6 9 1 722 37 1
9 -6 1 824 38 1
-9 6 1 793 38 1
8 9 -1 1001 40 1
-9 8 -1 986 44 1
-9 8 -1 991 40 1
-9 8 1 916 40 1
9 -8 1 1049 40 1
8 9 1 988 40 1
-9 8 1 962 44 1
-9 10 -1 483 10 1
-10 -9 -1 514 10 1
-9 10 -1 465 13 1
-9 10 1 525 11 1
-9 10 1 529 13 1
9 -10 1 483 10 1
-9 10 1 525 11 1
7 -10 -1 94 8 1
-7 10 -1 112 8 1
-7 10 -1 111 9 1
10 7 -1 103 9 1
-7 10 1 115 8 1
-7 10 1 114 9 1
7 -10 1 99 8 1
10 7 1 125 8 1
-10 -7 1 95 8 1
10 5 -1 1194 28 1
5 -10 -1 1152 28 1
-10 -5 -1 1125 27 1
-5 10 -1 1125 30 1
-5 10 -1 1112 28 1
10 5 1 1189 28 1
5 -10 1 1180 28 1
-5 10 1 1121 30 1
-5 10 1 1209 28 1
-10 -3 -1 847 25 1
-3 10 -1 737 27 1
-3 10 -1 770 25 1
3 -10 -1 748 25 1
-3 10 1 786 25 1
-3 10 1 772 28 1
10 3 1 822 25 1
1 -10 -1 2108 37 1
1 -10 -1 2064 36 1
-10 -1 -1 2062 36 1
10 1 -1 2111 36 1
-1 10 -1 2112 36 1
-10 -1 -1 1986 36 1
-10 -1 -1 2030 36 1
-1 10 1 2003 36 1
-10 -1 1 2092 36 1
1 -10 1 2090 36 1
1 10 -1 995 29 1
10 -1 -1 994 29 1
-10 1 -1 984 29 1
-1 -10 -1 1006 29 1
-1 -10 -1 1036 29 1
1 10 1 1028 29 1
-10 1 1 1024 32 1
-10 1 1 1050 29 1
-1 -10 1 960 29 1
-1 -10 1 1004 29 1
-3 -10 -1 461 22 1
-3 -10 -1 433 22 1
-10 3 -1 392 24 1
-10 3 -1 426 22 1
3 10 -1 407 22 1
3 10 1 438 22 1
10 -3 1 414 22 1
-10 3 1 418 22 1
10 -5 -1 2461 87 1
5 10 -1 2454 87 1
-5 -10 -1 2242 87 1
-10 5 -1 2312 87 1
-10 5 1 2257 96 1
5 10 1 2257 87 1
-10 5 1 2350 87 1
10 -5 1 2289 87 1
10 -7 -1 67 5 1
-7 -10 -1 55 5 1
-10 7 -1 84 5 1
-10 7 -1 87 5 1
7 10 -1 43 5 1
-10 7 1 69 5 1
-10 7 1 65 5 1
10 -7 1 77 5 1
-10 9 -1 100 11 1
10 -9 -1 93 9 1
-10 9 -1 87 9 1
9 10 1 101 9 1
-10 9 1 93 9 1
-10 9 1 84 11 1
-10 11 -1 33 5 1
-11 -10 -1 36 5 1
10 -11 -1 38 5 1
-10 11 1 37 5 1
-10 11 1 36 5 1
11 10 1 34 6 1
-10 11 1 38 7 1
-11 -8 -1 224 9 1
-8 11 -1 199 9 1
8 -11 -1 215 9 1
-8 11 -1 228 10 1
-8 11 1 228 10 1
8 -11 1 217 9 1
-8 11 1 206 9 1
-8 11 1 221 11 1
6 -11 -1 623 19 1
-11 -6 -1 637 19 1
-6 11 -1 668 20 1
11 6 -1 628 20 1
6 -11 1 642 19 1
-6 11 1 695 21 1
11 6 1 696 20 1
-11 -6 1 642 19 1
-6 11 1 674 20 1
-11 -4 -1 2393 121 1
4 -11 -1 2470 121 1
11 4 -1 2542 121 1
-4 11 -1 2727 122 1
-4 11 -1 2550 134 1
-4 11 1 2522 134 1
11 4 1 2651 121 1
4 -11 1 2434 121 1
-2 11 -1 73 6 1
-11 -2 -1 62 6 1
-2 11 -1 82 6 1
11 2 -1 68 6 1
-2 11 1 58 6 1
2 -11 1 75 6 1
-2 11 1 55 6 1
-11 0 -1 1651 62 1
0 -11 -1 1516 63 1
-11 0 -1 1632 62 1
0 11 -1 1614 63 1
0 -11 -1 1675 62 1
11 0 1 1748 63 1
0 11 1 1637 63 1
-11 0 1 1698 69 1
0 -11 1 1638 62 1
-11 0 1 1561 62 1
-11 2 -1 396 15 1
-2 -11 -1 441 15 1
-2 -11 -1 457 15 1
2 11 -1 430 15 1
2 11 1 429 15 1
-11 2 1 432 17 1
-11 2 1 411 15 1
-11 2 1 405 14 1
11 -4 -1 797 47 1
-11 4 -1 826 46 1
-11 4 -1 874 51 1
-4 -11 -1 795 46 1
4 11 1 816 46 1
11 -4 1 796 47 1
-11 4 1 826 51 1
-11 4 1 781 46 1
-6 -11 -1 4064 143 1
6 11 -1 4280 143 1
-11 6 -1 4024 143 1
11 -6 -1 4131 143 1
-11 6 -1 3991 158 1
-11 6 1 4022 143 1
6 11 1 4172 143 1
-8 -11 -1 1392 57 1
-11 8 -1 1277 63 1
-11 8 -1 1269 57 1
8 11 -1 1356 57 1
-11 8 1 1330 63 1
-11 8 1 1415 57 1
8 11 1 1441 57 1
-10 -11 -1 18 3 1
-11 10 -1 12 4 1
11 -10 -1 17 3 1
-11 10 1 13 4 1
11 -10 1 10 3 1
10 11 1 21 5 1
-11 10 1 11 4 1
-11 12 -1 76 5 1
11 -12 -1 95 5 1
-11 12 1 80 5 1
-11 12 1 92 6 1
11 -12 1 84 10 1
11 -12 1 90 5 1
-11 12 1 92 5 1
-12 -9 -1 1429 40 1
-9 12 -1 1329 45 1
-9 12 -1 1303 40 1
9 -12 -1 1321 40 1
-9 12 1 1327 40 1
9 -12 1 1280 40 1
-7 12 -1 1739 72 1
-12 -7 -1 1807 64 1
-7 12 -1 1751 65 1
12 7 1 1862 65 1
7 -12 1 1839 64 1
-7 12 1 1687 72 1
-7 12 1 1817 71 1
-7 12 1 1795 65 1
-12 -5 -1 2425 116 1
12 5 -1 2554 116 1
-5 12 -1 2653 117 1
5 -12 -1 2566 116 1
5 -12 1 2446 116 1
-5 12 1 2365 116 1
-5 12 1 2417 128 1
-3 12 -1 756 7 1
12 3 -1 690 7 1
-12 -3 -1 696 6 1
-3 12 -1 741 7 1
3 -12 -1 742 7 1
-3 12 1 737 7 1
-3 12 1 716 7 1
3 -12 1 735 7 1
12 3 1 702 7 1
-1 12 -1 146 18 1
1 -12 -1 156 18 1
-12 -1 -1 133 18 1
-1 12 -1 142 19 1
12 1 -1 156 18 1
1 -12 1 144 18 1
-1 12 1 159 20 1
12 -1 -1 137 8 1
1 12 -1 113 7 1
-12 1 -1 165 7 1
-12 1 -1 159 7 1
-1 -12 -1 153 7 1
-1 -12 1 140 7 1
12 -1 1 154 7 1
-1 -12 1 142 7 1
1 12 1 131 7 1
-3 -12 -1 1116 46 1
-12 3 -1 1118 47 1
-3 -12 -1 1064 47 1
-3 -12 -1 1032 47 1
3 12 -1 1063 47 1
12 -3 -1 1067 47 1
-12 3 1 1120 47 1
-12 3 1 1142 52 1
-12 3 1 1105 47 1
12 -3 1 1042 47 1
3 12 1 1067 47 1
-12 5 -1 5844 241 1
5 12 -1 5680 241 1
-12 5 -1 6010 268 1
-5 -12 -1 5951 241 1
5 12 1 5811 241 1
-12 5 1 5697 241 1
-12 5 1 6062 267 1
-7 -12 -1 1258 34 1
-12 7 -1 1305 39 1
7 12 -1 1259 35 1
-12 7 -1 1299 34 1
12 -7 -1 1240 35 1
-12 7 1 1286 34 1
-12 7 1 1258 38 1
7 12 1 1264 34 1
-12 7 1 1233 39 1
-12 9 -1 66 9 1
-12 9 -1 71 7 1
12 -9 -1 66 7 1
-9 -12 -1 89 7 1
9 12 1 91 8 1
-12 9 1 79 8 1
-12 9 1 79 7 1
12 -9 1 82 7 1
-12 9 1 65 8 1
-12 11 -1 338 18 1
-12 11 -1 308 16 1
-12 11 1 347 17 1
12 -11 1 320 16 1
-12 11 1 305 16 1
-12 13 -1 260 12 1
12 -13 -1 262 10 1
-12 13 -1 245 10 1
12 -13 -1 236 14 1
12 -13 1 243 13 1
-12 13 1 246 10 1
12 -13 1 233 10 1
10 -13 -1 1 4 1
-10 13 -1 0 2 1
10 -13 -1 1 3 1
-10 13 -1 1 2 1
10 -13 1 1 3 1
-10 13 1 1 4 1
10 -13 1 0 3 1
-10 13 1 0 2 1
8 -13 -1 140 12 1
-8 13 -1 126 14 1
-8 13 -1 121 12 1
-8 13 1 139 13 1
-13 -8 1 120 15 1
8 -13 1 139 12 1
-8 13 1 129 12 1
-6 13 -1 24 2 1
-13 -6 -1 38 7 1
-13 -6 1 45 7 1
-6 13 1 24 2 1
13 6 1 24 2 1
-6 13 1 30 3 1
13 4 -1 922 36 1
-13 -4 -1 962 40 1
-4 13 -1 929 36 1
4 -13 -1 963 35 1
-4 13 1 997 36 1
-4 13 1 1019 39 1
4 -13 1 926 35 1
-13 -2 -1 3028 86 1
2 -13 -1 2889 77 1
-2 13 -1 2945 85 1
-2 13 -1 2949 77 1
-13 -2 -1 2966 77 1
-2 13 1 2931 85 1
13 2 1 2995 77 1
-2 13 1 2944 77 1
2 -13 1 2816 77 1
-13 0 -1 15 1 1
0 13 -1 13 1 1
13 0 -1 22 2 1
13 0 1 15 1 1
-13 0 1 14 2 1
0 -13 1 13 1 1
2 13 -1 76 5 1
13 -2 -1 69 5 1
-2 -13 -1 74 5 1
-2 -13 -1 71 4 1
-13 2 -1 74 4 1
-13 2 -1 74 4 1
2 13 1 70 4 1
-13 2 1 69 6 1
-13 2 1 73 7 1
13 -4 -1 1266 61 1
-13 4 -1 1279 69 1
-4 -13 -1 1355 61 1
4 13 -1 1348 61 1
-13 4 -1 1407 61 1
4 13 1 1280 61 1
-13 4 1 1289 61 1
-13 4 1 1282 68 1
-13 4 1 1299 61 1
13 -4 1 1377 62 1
6 13 -1 722 17 1
-6 -13 -1 658 17 1
-13 6 -1 678 17 1
-13 6 1 633 16 1
6 13 1 696 17 1
13 -6 1 671 17 1
-13 8 -1 467 24 1
-13 8 -1 457 27 1
13 -8 -1 467 24 1
-8 -13 -1 480 24 1
13 -8 1 430 24 1
-13 10 -1 184 12 1
-10 -13 -1 154 16 1
-13 10 -1 171 14 1
13 -10 1 156 13 1
-13 10 1 177 12 1
-12 -13 -1 148 15 1
13 -12 -1 160 13 1
-13 12 -1 148 8 1
-13 12 1 154 8 1
13 -12 1 153 8 1
13 -12 1 148 12 1
-13 14 -1 0 4 1
13 -14 -1 0 4 1
13 -14 -1 0 4 1
13 -14 1 0 3 1
13 -14 1 0 4 1
-13 14 1 0 4 1
-11 14 -1 832 32 1
11 -14 -1 884 32 1
11 -14 -1 842 33 1
-11 14 -1 866 35 1
-11 14 1 839 32 1
11 -14 1 834 32 1
-14 -11 1 925 37 1
-9 14 -1 2 2 1
-9 14 -1 5 2 1
9 -14 -1 3 3 1
9 -14 -1 6 2 1
-14 -9 1 1 3 1
9 -14 1 5 1 1
-9 14 1 2 2 1
9 -14 1 10 2 1
-9 14 1 4 2 1
7 -14 -1 1104 48 1
-14 -7 -1 1195 55 1
-7 14 -1 1142 54 1
-7 14 -1 1170 49 1
-7 14 1 1094 48 1
7 -14 1 1086 49 1
5 -14 -1 1046 34 1
-5 14 -1 1070 34 1
5 -14 1 1062 34 1
-14 -5 1 1007 39 1
-5 14 1 1060 34 1
5 -14 1 1118 36 1
-3 14 -1 272 17 1
14 3 -1 274 17 1
3 -14 1 284 16 1
-3 14 1 273 18 1
-3 14 1 262 17 1
1 -14 -1 2667 81 1
-1 14 -1 2784 81 1
-1 14 -1 2786 89 1
-1 14 1 2762 81 1
-14 -1 1 2845 91 1
-1 14 1 2766 89 1
1 -14 1 2596 81 1
-1 -14 -1 73 3 1
1 14 -1 77 4 1
14 -1 -1 95 4 1
-14 1 -1 91 4 1
1 14 1 78 4 1
14 -1 1 90 4 1
-14 1 1 89 6 1
-1 -14 1 79 3 1
-1 -14 1 77 3 1
14 -3 -1 817 38 1
-14 3 -1 903 43 1
3 14 1 862 38 1
-14 5 -1 1384 52 1
-14 5 -1 1347 59 1
14 -5 -1 1396 53 1
5 14 -1 1343 52 1
5 14 1 1437 52 1
-14 5 1 1388 58 1
-14 5 1 1406 52 1
-14 5 1 1430 59 1
-7 -14 -1 174 8 1
-14 7 -1 171 4 1
14 -7 -1 181 4 1
-14 7 -1 188 6 1
7 14 1 198 5 1
-14 7 1 191 6 1
-14 7 1 166 6 1
-14 7 1 171 4 1
14 -7 1 172 4 1
-14 9 -1 6179 230 1
-9 -14 -1 5746 233 1
14 -9 -1 6138 230 1
-14 9 -1 5663 255 1
14 -9 1 6293 230 1
-9 -14 1 5666 233 1
-14 9 1 6045 230 1
-11 -14 -1 660 26 1
-14 11 -1 665 26 1
-14 11 -1 677 23 1
-14 11 1 718 26 1
-11 -14 1 661 26 1
-14 11 1 664 23 1
-14 13 -1 2 2 1
14 -13 -1 2 2 1
-14 13 -1 1 2 1
-13 -14 -1 0 4 1
-14 13 1 2 2 1
-14 13 1 6 2 1
14 -13 1 2 3 1
14 -15 -1 14 4 1
-14 15 -1 17 4 1
-14 15 -1 5 2 1
14 -15 -1 19 5 1
-14 15 1 7 2 1
-14 15 1 11 2 1
-15 -14 1 8 4 1
12 -15 -1 2 2 1
-12 15 -1 6 2 1
12 -15 -1 4 3 1
-12 15 -1 2 2 1
12 -15 1 4 3 1
12 -15 1 2 2 1
-12 15 1 3 2 1
-12 15 1 3 2 1
-10 15 -1 869 41 1
10 -15 -1 896 42 1
-10 15 -1 860 45 1
10 -15 -1 925 41 1
10 -15 1 847 41 1
-10 15 1 926 41 1
-15 -10 1 895 46 1
10 -15 1 807 40 1
-8 15 -1 98 5 1
-8 15 -1 124 6 1
-15 -8 -1 125 8 1
8 -15 -1 113 4 1
-8 15 1 132 6 1
-8 15 1 110 5 1
8 -15 1 141 7 1
-6 15 -1 11 8 1
6 -15 -1 8 7 1
6 -15 1 9 7 1
6 -15 1 9 8 1
-15 -6 1 5 10 1
-6 15 1 12 8 1
4 -15 -1 91 12 1
-15 -4 -1 86 13 1
4 -15 -1 94 11 1
-4 15 -1 112 11 1
-15 -4 1 90 14 1
4 -15 1 92 12 1
15 4 1 101 12 1
4 -15 1 87 10 1
-2 15 -1 59 5 1
2 -15 -1 55 5 1
-15 -2 -1 62 8 1
-2 15 1 60 5 1
-15 -2 1 68 8 1
2 -15 1 50 7 1
15 2 1 54 6 1
0 -15 -1 16 2 1
0 15 -1 20 3 1
0 15 -1 18 3 1
15 0 -1 22 4 1
0 -15 -1 12 3 1
15 0 1 14 4 1
-15 0 1 26 3 1
0 -15 1 19 2 1
0 -15 1 19 2 1
-2 -15 -1 202 7 1
-2 -15 -1 207 7 1
-2 -15 -1 209 10 1
2 15 -1 209 8 1
-15 2 -1 194 10 1
2 15 1 218 8 1
15 -2 1 193 9 1
-4 -15 -1 229 16 1
-15 4 -1 240 13 1
4 15 -1 252 14 1
15 -4 1 231 14 1
4 15 1 244 14 1
-15 4 1 233 16 1
-4 -15 1 230 16 1
6 15 -1 1468 47 1
15 -6 -1 1350 47 1
-15 6 -1 1462 47 1
-6 -15 -1 1456 49 1
-15 6 -1 1392 53 1
-6 -15 1 1429 49 1
6 15 1 1505 47 1
-15 6 1 1482 53 1
-8 -15 -1 451 21 1
-15 8 -1 456 19 1
-15 8 -1 497 22 1
15 -8 -1 478 20 1
8 15 1 438 20 1
-8 -15 1 419 21 1
-15 8 1 455 19 1
-15 10 -1 1006 41 1
-15 10 -1 980 36 1
-10 -15 -1 964 38 1
15 -10 -1 1059 37 1
-15 10 1 989 36 1
-15 10 1 966 40 1
-10 -15 1 954 38 1
-12 -15 -1 687 29 1
-15 12 -1 705 26 1
-15 12 -1 739 30 1
15 -12 -1 689 27 1
-15 12 1 741 26 1
15 -12 1 704 27 1
-15 12 1 742 30 1
-12 -15 1 682 29 1
-15 14 -1 1653 70 1
-15 14 1 1758 78 1
-15 14 1 1742 70 1
15 -14 1 1658 71 1
15 -14 1 1708 70 1
-15 16 -1 324 16 1
-16 -15 -1 322 20 1
15 -16 -1 366 19 1
15 -16 -1 383 17 1
-15 16 -1 354 18 1
-16 -15 1 342 20 1
-15 16 1 337 18 1
-15 16 1 351 16 1
15 -16 1 366 17 1
15 -16 1 358 18 1
-16 -13 -1 274 15 1
-13 16 -1 308 14 1
-13 16 -1 303 13 1
13 -16 -1 312 12 1
-13 16 1 300 12 1
-13 16 1 321 14 1
13 -16 1 299 14 1
-16 -13 1 302 16 1
13 -16 1 319 12 1
-11 16 -1 2783 111 1
11 -16 -1 2891 110 1
-16 -11 -1 2613 123 1
-11 16 -1 2793 122 1
11 -16 -1 2681 112 1
-16 -11 1 2785 123 1
11 -16 1 2754 112 1
-11 16 1 2836 122 1
-11 16 1 2686 111 1
-16 -9 -1 160 12 1
9 -16 -1 167 9 1
9 -16 -1 174 11 1
-9 16 -1 160 10 1
-9 16 1 174 11 1
9 -16 1 181 11 1
9 -16 1 180 9 1
-9 16 1 180 10 1
-7 16 -1 681 21 1
7 -16 -1 730 21 1
7 -16 -1 721 20 1
7 -16 1 699 21 1
7 -16 1 707 20 1
-5 16 -1 248 10 1
-16 -5 -1 219 12 1
5 -16 -1 227 9 1
5 -16 1 238 9 1
5 -16 1 247 11 1
3 -16 -1 350 6 1
-16 -3 -1 332 9 1
16 3 1 309 8 1
3 -16 1 332 6 1
-16 -3 1 349 10 1
3 -16 1 311 8 1
1 -16 -1 13 6 1
16 1 -1 11 3 1
1 -16 -1 12 3 1
-1 16 -1 12 3 1
1 -16 1 13 3 1
-16 -1 1 12 6 1
-1 16 1 12 3 1
16 1 1 16 5 1
-1 16 1 12 3 1
1 -16 1 13 5 1
-16 1 -1 91 7 1
16 -1 -1 106 6 1
1 16 -1 82 5 1
1 16 -1 99 5 1
-16 1 1 118 7 1
-1 -16 1 93 7 1
1 16 1 84 4 1
1 16 1 99 5 1
16 -1 1 111 6 1
-3 -16 -1 297 15 1
16 -3 -1 332 14 1
-16 3 -1 306 16 1
-16 3 1 318 16 1
16 -3 1 320 14 1
-3 -16 1 297 15 1
3 16 1 300 14 1
-16 5 -1 3350 139 1
-16 5 -1 3215 124 1
-5 -16 -1 3078 127 1
16 -5 -1 3374 126 1
-5 -16 1 3163 127 1
16 -5 1 3491 126 1
5 16 1 3275 125 1
-16 7 -1 613 29 1
16 -7 -1 542 30 1
-7 -16 -1 566 31 1
16 -7 1 562 30 1
7 16 1 553 30 1
-7 -16 1 597 31 1
-16 7 1 613 28 1
-9 -16 -1 3935 139 1
-16 9 -1 4287 152 1
-16 9 -1 4082 136 1
-9 -16 1 3984 139 1
-16 9 1 4147 136 1
-16 9 1 4069 151 1
16 -11 -1 306 12 1
-11 -16 -1 276 14 1
-16 11 -1 301 11 1
-16 11 -1 274 12 1
16 -11 1 283 11 1
-16 11 1 290 10 1
-11 -16 1 266 14 1
-16 13 -1 665 27 1
-13 -16 1 649 30 1
-16 13 1 669 27 1
16 -13 1 657 28 1
-16 13 1 719 30 1
-16 15 -1 0 2 1
-16 15 -1 1 2 1
-15 -16 1 1 4 1
-16 15 1 0 2 1
16 -15 1 0 4 1
-16 15 1 0 2 1
16 -15 1 1 2 1
-16 17 -1 50 7 1
-17 -16 -1 55 10 1
16 -17 -1 46 7 1
16 -17 -1 47 11 1
-16 17 -1 34 7 1
-16 17 1 36 7 1
16 -17 1 50 6 1
-17 -16 1 33 10 1
-17 -14 -1 428 21 1
-14 17 -1 381 20 1
14 -17 -1 395 18 1
14 -17 -1 422 19 1
-14 17 -1 385 18 1
14 -17 1 361 17 1
-14 17 1 388 18 1
-14 17 1 368 20 1
14 -17 1 379 19 1
-17 -14 1 392 21 1
12 -17 -1 236 12 1
12 -17 -1 230 14 1
-12 17 -1 215 12 1
-12 17 -1 240 14 1
-12 17 1 219 12 1
12 -17 1 218 13 1
-12 17 1 239 14 1
12 -17 1 220 12 1
-17 -12 1 221 15 1
10 -17 -1 62 6 1
10 -17 -1 69 8 1
-10 17 -1 71 7 1
-17 -10 -1 41 9 1
10 -17 1 74 7 1
-10 17 1 65 6 1
10 -17 1 72 6 1
-17 -10 1 55 9 1
-17 -8 -1 457 21 1
8 -17 -1 491 18 1
8 -17 -1 516 19 1
-8 17 1 471 18 1
8 -17 1 462 17 1
8 -17 1 478 19 1
6 -17 -1 2046 79 1
-6 17 -1 1901 78 1
6 -17 -1 2059 78 1
6 -17 1 1959 77 1
6 -17 1 1937 79 1
-6 17 1 2051 78 1
-4 17 -1 422 18 1
4 -17 -1 408 18 1
4 -17 -1 415 16 1
4 -17 1 379 16 1
4 -17 1 409 18 1
-4 17 1 421 17 1
-17 -4 1 455 20 1
-2 17 -1 106 2 1
2 -17 -1 118 1 1
2 -17 -1 86 2 1
-17 -2 1 158 2 1
2 -17 1 156 2 1
17 2 1 162 2 1
2 -17 1 156 1 1
-2 17 1 109 2 1
17 0 -1 451 18 1
0 -17 -1 482 16 1
-17 0 -1 505 20 1
0 -17 -1 459 18 1
0 17 -1 467 17 1
17 0 1 440 17 1
0 17 1 500 18 1
0 -17 1 475 18 1
-17 0 1 463 20 1
17 -2 -1 537 26 1
2 17 -1 501 28 1
2 17 -1 536 26 1
-2 -17 -1 511 27 1
-2 -17 1 526 27 1
2 17 1 542 26 1
17 -4 -1 1163 44 1
-4 -17 -1 1163 45 1
4 17 -1 1200 44 1
4 17 1 1253 44 1
-4 -17 1 1192 45 1
-6 -17 -1 3583 120 1
-17 6 -1 3729 131 1
-6 -17 1 3524 120 1
6 17 1 3583 118 1
17 -6 1 3611 118 1
-8 -17 -1 1354 55 1
-17 8 -1 1341 60 1
-17 8 -1 1494 53 1
-17 8 1 1458 60 1
-8 -17 1 1417 55 1
17 -8 1 1362 54 1
-10 -17 -1 169 11 1
-17 10 -1 175 8 1
17 -10 -1 153 10 1
-17 10 1 150 7 1
17 -10 1 174 10 1
-10 -17 1 178 12 1
-17 10 1 153 11 1
-12 -17 -1 145 11 1
-17 12 -1 136 8 1
-17 12 -1 129 7 1
17 -12 -1 129 8 1
-12 -17 1 123 11 1
17 -12 1 122 8 1
-17 12 1 136 6 1
-17 12 1 122 8 1
17 -14 -1 295 18 1
-17 14 -1 280 19 1
-17 14 -1 314 17 1
17 -14 1 320 18 1
-17 14 1 318 17 1
-17 14 1 288 19 1
-14 -17 1 302 21 1
-17 16 -1 87 8 1
-16 -17 -1 90 11 1
17 -16 -1 84 8 1
17 -16 1 86 8 1
-17 16 1 85 8 1
-16 -17 1 103 12 1
-18 -17 -1 46 9 1
-17 18 -1 41 7 1
17 -18 -1 55 7 1
-17 18 -1 43 7 1
-18 -17 1 59 10 1
17 -18 1 44 10 1
-17 18 1 33 8 1
17 -18 1 49 7 1
-15 18 -1 17 6 1
-18 -15 -1 9 4 1
15 -18 -1 29 9 1
15 -18 -1 18 5 1
-15 18 -1 8 3 1
15 -18 1 9 3 1
-15 18 1 8 3 1
-18 -15 1 14 4 1
15 -18 1 16 5 1
-13 18 -1 451 25 1
13 -18 -1 503 25 1
-18 -13 -1 461 28 1
13 -18 -1 521 26 1
-18 -13 1 530 29 1
13 -18 1 472 24 1
13 -18 1 488 25 1
-13 18 1 495 25 1
-18 -11 -1 3 3 1
-11 18 -1 3 3 1
11 -18 1 7 4 1
11 -18 1 3 2 1
-11 18 1 4 3 1
-18 -11 1 4 4 1
-9 18 -1 304 15 1
-18 -9 -1 356 17 1
9 -18 -1 314 14 1
9 -18 -1 336 15 1
-9 18 1 315 15 1
9 -18 1 314 14 1
9 -18 1 324 15 1
-18 -9 1 347 17 1
7 -18 -1 472 20 1
-7 18 -1 470 19 1
7 -18 -1 466 18 1
-18 -7 -1 430 22 1
7 -18 1 487 20 1
-7 18 1 478 19 1
7 -18 1 484 18 1
-18 -5 -1 83 2 1
-5 18 -1 95 2 1
-18 -5 1 102 3 1
5 -18 1 82 2 1
-5 18 1 75 2 1
-18 -3 -1 585 25 1
-3 18 -1 631 22 1
3 -18 -1 648 21 1
-3 18 1 640 22 1
3 -18 1 665 23 1
3 -18 1 656 21 1
1 -18 -1 150 11 1
1 -18 -1 145 8 1
-1 18 -1 143 10 1
-18 -1 -1 158 12 1
1 -18 1 155 11 1
-1 18 1 151 10 1
-18 -1 1 159 12 1
18 1 1 134 10 1
-18 1 -1 2 2 1
1 18 -1 2 2 1
-1 -18 -1 7 2 1
-1 -18 1 1 2 1
-18 1 1 7 2 1
1 18 1 7 2 1
-3 -18 -1 190 11 1
-18 3 -1 185 12 1
-3 -18 1 212 11 1
18 -3 1 166 11 1
-18 3 1 175 11 1
-18 5 -1 6 2 1
-5 -18 1 4 3 1
5 18 1 5 3 1
18 -7 -1 223 12 1
-18 7 -1 206 13 1
-7 -18 -1 210 13 1
18 -7 1 205 12 1
-7 -18 1 197 13 1
-18 7 1 208 13 1
-18 9 -1 1937 78 1
18 -9 -1 1778 71 1
-18 9 -1 1871 69 1
-9 -18 -1 1842 72 1
-18 11 -1 11 6 1
18 -11 -1 18 7 1
-11 -18 -1 17 9 1
-11 -18 1 17 9 1
-18 11 1 15 6 1
18 -11 1 13 6 1
-18 13 -1 1 2 1
-18 13 -1 0 2 1
18 -13 -1 0 3 1
-13 -18 -1 1 3 1
18 -13 1 1 3 1
-18 13 1 1 2 1
-13 -18 1 0 4 1
-15 -18 -1 11 4 1
-18 15 -1 6 2 1
18 -15 -1 7 2 1
-18 15 1 7 2 1
18 -15 1 6 2 1
-15 -18 1 3 4 1
-17 -18 -1 36 10 1
-18 17 -1 40 6 1
18 -17 -1 45 7 1
-18 17 -1 49 7 1
18 -17 1 31 6 1
-18 17 1 40 6 1
-18 17 1 49 8 1
18 -19 -1 632 25 1
-19 -18 -1 630 27 1
-18 19 -1 596 25 1
18 -19 1 596 25 1
-16 19 -1 25 7 1
-19 -16 -1 43 9 1
16 -19 -1 28 10 1
16 -19 -1 43 6 1
-16 19 1 30 7 1
16 -19 1 40 9 1
16 -19 1 41 6 1
-19 -16 1 31 10 1
14 -19 -1 412 18 1
-19 -14 -1 405 20 1
14 -19 -1 406 17 1
-14 19 -1 422 17 1
14 -19 1 426 18 1
-14 19 1 424 17 1
-19 -14 1 386 20 1
14 -19 1 399 16 1
12 -19 -1 485 19 1
12 -19 -1 504 20 1
-12 19 -1 504 20 1
-19 -12 -1 483 22 1
12 -19 1 495 20 1
-19 -12 1 466 22 1
-12 19 1 454 19 1
12 -19 1 468 19 1
-19 -10 -1 3 3 1
10 -19 -1 3 3 1
10 -19 -1 2 2 1
-10 19 -1 3 3 1
10 -19 1 1 2 1
-10 19 1 5 3 1
-19 -10 1 6 4 1
8 -19 -1 345 15 1
-8 19 -1 331 15 1
-19 -8 -1 373 17 1
8 -19 -1 346 14 1
8 -19 1 332 15 1
-19 -8 1 344 17 1
-8 19 1 336 15 1
8 -19 1 326 14 1
6 -19 -1 1 2 1
-19 -6 -1 2 3 1
6 -19 -1 0 2 1
-6 19 -1 4 2 1
-19 -6 1 0 3 1
6 -19 1 2 2 1
6 -19 1 4 2 1
-6 19 1 1 3 1
-19 -4 -1 1486 53 1
4 -19 -1 1341 46 1
-4 19 -1 1419 47 1
-19 -4 1 1507 53 1
4 -19 1 1386 46 1
-4 19 1 1439 47 1
2 -19 -1 2764 118 1
2 -19 -1 2686 115 1
-2 19 -1 2689 117 1
-19 -2 -1 2678 130 1
-19 -2 1 2964 130 1
2 -19 1 2772 118 1
-2 19 1 2649 117 1
-19 0 -1 348 19 1
0 19 -1 328 17 1
0 -19 -1 345 17 1
19 0 1 362 17 1
-19 0 1 347 19 1
0 -19 1 359 17 1
0 19 1 365 17 1
-19 2 -1 175 12 1
19 -2 -1 207 12 1
-2 -19 -1 166 11 1
2 19 -1 173 10 1
-2 -19 1 172 11 1
2 19 1 174 10 1
19 -2 1 161 11 1
-19 2 1 180 12 1
-19 4 -1 299 18 1
4 19 -1 298 16 1
19 -4 -1 330 17 1
4 19 1 308 16 1
-4 -19 1 321 17 1
-19 4 1 317 18 1
19 -4 1 296 17 1
-19 6 -1 42 7 1
-6 -19 -1 46 8 1
-19 6 1 57 7 1
-6 -19 1 59 8 1
19 -8 -1 69 8 1
-8 -19 -1 68 9 1
-19 8 1 78 8 1
-8 -19 1 52 8 1
-10 -19 -1 2971 107 1
19 -10 -1 3031 106 1
-19 10 -1 3137 117 1
-10 -19 1 2934 107 1
19 -10 1 2902 106 1
-19 12 -1 559 26 1
19 -12 -1 520 24 1
-12 -19 -1 515 25 1
-12 -19 1 549 25 1
-19 12 1 505 26 1
-19 14 -1 0 2 1
19 -14 -1 1 3 1
-19 14 -1 1 3 1
-14 -19 1 6 4 1
-19 14 1 1 2 1
19 -14 1 4 3 1
-19 16 -1 28 7 1
-16 -19 -1 49 10 1
19 -16 -1 31 7 1
19 -16 1 35 7 1
-19 16 1 29 7 1
-18 -19 -1 347 17 1
-19 18 -1 372 16 1
19 -18 -1 383 16 1
19 -18 1 364 15 1
-20 -19 -1 115 10 1
-17 20 -1 55 9 1
17 -20 -1 71 7 1
-20 -17 -1 68 7 1
17 -20 1 68 7 1
17 -20 1 72 7 1
-20 -17 1 67 8 1
-17 20 1 67 10 1
15 -20 -1 41 9 1
-20 -15 -1 49 9 1
15 -20 -1 50 6 1
-15 20 -1 34 7 1
-15 20 1 30 7 1
15 -20 1 35 6 1
15 -20 1 39 8 1
-13 20 -1 512 23 1
13 -20 -1 527 23 1
-20 -13 -1 536 27 1
13 -20 -1 537 24 1
-20 -13 1 530 27 1
13 -20 1 518 22 1
13 -20 1 525 24 1
-13 20 1 512 23 1
11 -20 -1 313 11 1
11 -20 -1 309 12 1
-20 -11 -1 283 14 1
-11 20 -1 301 12 1
11 -20 1 306 12 1
11 -20 1 309 11 1
-20 -11 1 288 14 1
-11 20 1 296 12 1
-9 20 -1 47 6 1
-20 -9 -1 55 8 1
9 -20 -1 52 7 1
9 -20 -1 43 5 1
-20 -9 1 64 8 1
-9 20 1 44 6 1
9 -20 1 37 5 1
-7 20 -1 7 3 1
-20 -7 -1 9 3 1
7 -20 1 10 2 1
-7 20 1 8 2 1
-20 -7 1 14 4 1
7 -20 1 8 2 1
5 -20 -1 180 7 1
-5 20 -1 170 9 1
5 -20 -1 195 9 1
-5 20 1 182 9 1
5 -20 1 176 7 1
5 -20 1 175 9 1
-3 20 -1 7 3 1
3 -20 -1 6 2 1
-20 -3 -1 3 3 1
3 -20 -1 3 2 1
3 -20 1 6 2 1
-20 -3 1 3 3 1
-3 20 1 7 3 1
1 -20 -1 142 10 1
-20 -1 -1 118 11 1
-1 20 -1 130 10 1
1 -20 1 133 10 1
-20 -1 1 127 11 1
-1 20 1 154 10 1
1 20 -1 169 15 1
-1 -20 -1 198 15 1
-20 1 -1 183 16 1
-1 -20 1 171 15 1
1 20 1 187 15 1
20 -1 1 184 16 1
-3 -20 -1 749 35 1
-20 3 -1 782 38 1
3 20 -1 668 35 1
20 -3 -1 727 35 1
-20 3 1 704 38 1
20 -3 1 703 35 1
-3 -20 1 721 35 1
3 20 1 727 34 1
-20 5 -1 2 2 1
-5 -20 -1 6 2 1
-5 -20 1 1 2 1
-20 5 1 6 2 1
20 -5 1 12 3 1
5 20 1 1 4 1
-20 7 -1 258 15 1
-7 -20 -1 285 15 1
20 -7 1 261 15 1
-7 -20 1 278 15 1
-20 7 1 284 15 1
-20 9 -1 194 10 1
-9 -20 -1 212 10 1
-9 -20 1 208 11 1
-20 9 1 209 10 1
-11 -20 -1 623 24 1
-20 11 -1 625 25 1
20 -11 -1 624 24 1
-11 -20 1 621 24 1
-20 11 1 612 25 1
20 -11 1 644 23 1
-20 13 -1 6 3 1
20 -13 1 22 7 1
-20 13 1 5 3 1
-13 -20 1 6 4 1
-20 15 -1 4 2 1
20 -15 -1 7 4 1
-20 15 1 3 2 1
20 -15 1 7 3 1
-20 17 -1 10 4 1
-17 -20 -1 6 3 1
20 -17 -1 7 4 1
-20 17 1 8 4 1
-20 21 -1 3 2 1
-20 21 1 11 2 1
-21 -18 -1 77 8 1
-18 21 1 60 6 1
16 -21 -1 77 7 1
16 -21 -1 73 7 1
-16 21 -1 53 9 1
-21 -16 -1 88 7 1
16 -21 1 68 6 1
-21 -16 1 72 8 1
16 -21 1 70 7 1
14 -21 -1 130 8 1
-14 21 -1 126 9 1
14 -21 -1 132 9 1
-14 21 1 112 9 1
14 -21 1 126 8 1
-21 -14 1 119 10 1
14 -21 1 132 9 1
12 -21 -1 166 10 1
-21 -12 -1 168 14 1
12 -21 -1 175 12 1
-12 21 -1 170 12 1
12 -21 1 165 10 1
-12 21 1 158 11 1
12 -21 1 148 11 1
-21 -12 1 174 14 1
10 -21 -1 13 2 1
-21 -10 -1 12 3 1
10 -21 1 27 2 1
-21 -10 1 13 3 1
-21 -8 -1 41 8 1
8 -21 -1 35 6 1
-8 21 -1 31 6 1
8 -21 -1 39 5 1
8 -21 1 20 5 1
-8 21 1 37 6 1
-21 -8 1 35 8 1
-21 -6 -1 38 8 1
-6 21 -1 33 6 1
6 -21 -1 50 5 1
6 -21 -1 47 7 1
6 -21 1 44 4 1
-6 21 1 46 6 1
-21 -6 1 48 8 1
6 -21 1 32 6 1
-4 21 -1 223 15 1
4 -21 -1 233 13 1
4 -21 -1 240 15 1
-21 -4 -1 254 17 1
-21 -4 1 214 17 1
-4 21 1 232 15 1
4 -21 1 229 15 1
-2 21 -1 367 17 1
2 -21 -1 397 17 1
2 -21 1 381 17 1
-2 21 1 386 17 1
-21 -2 1 339 19 1
-21 0 -1 558 23 1
0 21 -1 588 22 1
0 -21 -1 621 22 1
0 -21 1 629 21 1
0 21 1 589 21 1
-21 0 1 546 23 1
2 21 -1 731 28 1
-21 2 -1 682 30 1
-2 -21 -1 785 28 1
-2 -21 1 730 28 1
-21 2 1 722 30 1
2 21 1 747 28 1
21 -2 1 766 29 1
21 -4 -1 160 12 1
-4 -21 -1 157 9 1
-21 4 -1 174 10 1
4 21 1 155 10 1
-21 4 1 146 10 1
-4 -21 1 163 10 1
21 -4 1 198 12 1
-6 -21 -1 108 8 1
-21 6 -1 102 8 1
-21 6 1 94 8 1
-6 -21 1 113 9 1
21 -6 1 112 10 1
21 -8 -1 284 14 1
-21 8 -1 280 13 1
-8 -21 -1 310 13 1
-8 -21 1 301 13 1
-21 8 1 282 13 1
21 -8 1 294 13 1
-21 10 -1 181 10 1
-10 -21 -1 155 10 1
-10 -21 1 164 10 1
-21 10 1 185 10 1
-12 -21 -1 27 9 1
-21 12 -1 25 7 1
21 -12 -1 37 9 1
-12 -21 1 35 10 1
21 -12 1 39 9 1
-21 12 1 28 7 1
21 -14 -1 40 8 1
-21 14 -1 33 5 1
-21 14 1 41 6 1
21 -14 1 48 8 1
-21 16 -1 16 4 1
21 -16 1 32 8 1
-21 16 1 22 4 1
-21 20 1 3 2 1
-17 22 -1 12 2 1
-17 22 1 26 5 1
17 -22 1 19 2 1
-15 22 -1 269 15 1
15 -22 -1 282 14 1
-15 22 1 273 16 1
15 -22 1 285 14 1
-22 -15 1 274 16 1
-15 22 1 251 15 1
13 -22 -1 100 9 1
-13 22 -1 96 9 1
-22 -13 -1 103 9 1
13 -22 -1 96 8 1
13 -22 1 84 8 1
13 -22 1 95 9 1
-22 -13 1 101 9 1
-13 22 1 100 9 1
-13 22 1 102 9 1
-22 -11 -1 8 3 1
-11 22 -1 24 6 1
11 -22 -1 10 3 1
11 -22 -1 7 2 1
-11 22 1 23 6 1
-22 -11 1 13 4 1
-11 22 1 8 4 1
11 -22 1 7 2 1
11 -22 1 10 2 1
9 -22 -1 295 13 1
9 -22 -1 277 11 1
-9 22 -1 281 13 1
9 -22 1 275 13 1
-9 22 1 272 13 1
9 -22 1 260 11 1
-22 -9 1 257 15 1
-22 -7 -1 21 3 1
7 -22 -1 23 3 1
-7 22 -1 32 6 1
7 -22 -1 30 5 1
-7 22 1 17 3 1
-22 -7 1 25 3 1
7 -22 1 11 2 1
-22 -5 -1 173 10 1
-5 22 -1 170 10 1
5 -22 -1 178 9 1
-5 22 1 168 9 1
5 -22 1 165 9 1
3 -22 -1 1 2 1
-3 22 -1 1 3 1
-22 -3 -1 5 3 1
-3 22 1 0 3 1
-22 -3 1 1 3 1
3 -22 1 3 2 1
1 -22 -1 418 19 1
-1 22 -1 376 19 1
-22 -1 -1 414 21 1
-22 -1 1 412 21 1
1 -22 1 415 19 1
-1 22 1 404 19 1
1 22 -1 340 15 1
-1 -22 -1 357 14 1
-22 1 -1 363 16 1
-22 1 1 331 16 1
-1 -22 1 346 15 1
1 22 1 352 15 1
3 22 -1 274 14 1
-3 -22 -1 259 11 1
-22 3 1 231 12 1
3 22 1 263 12 1
-3 -22 1 274 11 1
22 -5 -1 179 13 1
-5 -22 -1 177 8 1
-22 5 -1 130 8 1
-5 -22 1 179 8 1
22 -7 -1 161 14 1
-22 7 -1 176 12 1
-7 -22 -1 194 12 1
-7 -22 1 212 12 1
22 -7 1 170 14 1
-22 7 1 185 12 1
22 -9 -1 1083 43 1
-22 9 -1 1050 46 1
-9 -22 -1 1109 42 1
22 -9 1 1068 42 1
-9 -22 1 1059 42 1
-22 9 1 1153 46 1
-22 11 -1 31 6 1
-11 -22 -1 48 8 1
-22 11 1 34 6 1
-11 -22 1 52 8 1
22 -13 -1 5 4 1
-13 -22 -1 7 4 1
22 -13 1 3 4 1
-22 15 -1 1 2 1
22 -15 -1 8 4 1
-22 15 1 8 1 1
-22 17 -1 384 18 1
-22 17 1 384 18 1
-23 -16 -1 58 7 1
-16 23 -1 69 6 1
16 -23 -1 65 7 1
-16 23 1 64 6 1
16 -23 1 59 6 1
-23 -14 -1 255 13 1
-14 23 -1 296 14 1
14 -23 -1 285 12 1
-14 23 1 287 14 1
14 -23 1 275 12 1
-23 -14 1 273 13 1
-23 -12 -1 38 6 1
12 -23 -1 37 7 1
12 -23 -1 23 6 1
-12 23 -1 30 7 1
-12 23 1 31 9 1
-12 23 1 25 7 1
12 -23 1 26 6 1
-23 -12 1 18 6 1
-10 23 -1 242 13 1
10 -23 -1 250 12 1
10 -23 -1 236 13 1
-10 23 1 220 12 1
10 -23 1 237 12 1
-23 -10 1 270 15 1
-23 -8 -1 474 23 1
-8 23 -1 504 21 1
8 -23 -1 487 20 1
-8 23 1 501 21 1
8 -23 1 502 20 1
-23 -8 1 488 23 1
-23 -6 -1 196 12 1
6 -23 -1 226 10 1
-6 23 -1 217 11 1
-23 -6 1 195 12 1
6 -23 1 218 10 1
-6 23 1 224 11 1
-23 -4 -1 704 30 1
4 -23 -1 700 27 1
4 -23 1 706 27 1
-23 -4 1 749 30 1
-23 -2 -1 321 16 1
-2 23 -1 270 15 1
2 -23 -1 293 14 1
-23 -2 1 336 16 1
-2 23 1 296 15 1
2 -23 1 289 14 1
0 23 -1 1 4 1
0 -23 -1 3 2 1
-23 0 -1 4 2 1
-23 0 1 2 3 1
0 23 1 11 3 1
0 -23 1 1 2 1
-2 -23 -1 15 2 1
2 23 -1 33 5 1
-23 2 1 20 3 1
2 23 1 22 4 1
-2 -23 1 23 2 1
-23 4 -1 188 10 1
-4 -23 -1 190 9 1
-4 -23 1 177 9 1
-23 4 1 205 10 1
23 -6 -1 21 6 1
-23 6 -1 15 6 1
-6 -23 -1 20 7 1
-23 6 1 20 6 1
-23 8 -1 22 6 1
-8 -23 -1 12 3 1
-23 8 1 7 2 1
-8 -23 1 13 2 1
23 -8 1 3 5 1
23 -10 -1 350 21 1
-10 -23 -1 377 19 1
-23 10 -1 372 20 1
-10 -23 1 352 19 1
23 -10 1 359 20 1
-23 10 1 346 20 1
23 -12 -1 7 5 1
-23 12 -1 8 1 1
-12 -23 1 10 3 1
-23 12 1 17 1 1
-23 14 -1 9 4 1
-23 14 1 10 4 1
-23 16 -1 123 8 1
-23 16 1 114 8 1
-24 -15 -1 11 3 1
15 -24 -1 10 2 1
-24 -15 1 11 3 1
15 -24 1 7 2 1
13 -24 -1 29 5 1
13 -24 1 25 4 1
-24 -13 1 28 6 1
-11 24 -1 117 10 1
-24 -11 -1 105 8 1
11 -24 -1 124 9 1
-11 24 1 135 9 1
11 -24 1 102 8 1
-24 -11 1 120 8 1
9 -24 -1 989 36 1
-24 -9 -1 1065 40 1
-9 24 1 981 37 1
9 -24 1 1056 37 1
-24 -9 1 1102 40 1
-7 24 -1 6 4 1
7 -24 -1 6 2 1
-24 -7 -1 1 3 1
7 -24 1 6 2 1
-24 -7 1 6 3 1
-5 24 -1 145 10 1
-24 -5 -1 145 10 1
5 -24 -1 177 9 1
-5 24 1 156 10 1
-24 -5 1 132 10 1
5 -24 1 159 9 1
3 -24 -1 105 8 1
-3 24 -1 81 10 1
-24 -3 -1 91 9 1
3 -24 1 85 8 1
-24 -3 1 112 9 1
-3 24 1 77 9 1
-24 -1 -1 229 11 1
1 -24 -1 188 10 1
-1 24 -1 205 13 1
1 -24 1 196 10 1
-1 24 1 187 12 1
-24 -1 1 224 11 1
1 24 -1 63 5 1
-24 1 -1 38 3 1
-1 -24 -1 85 2 1
-24 1 1 9 2 1
-1 -24 1 55 2 1
1 24 1 85 4 1
-24 3 -1 137 11 1
-3 -24 -1 156 10 1
-24 3 1 139 11 1
-3 -24 1 156 10 1
3 24 1 121 14 1
-5 -24 -1 327 18 1
-24 5 -1 296 19 1
-24 5 1 328 19 1
-5 -24 1 323 18 1
-7 -24 -1 85 7 1
-24 7 -1 80 6 1
-24 7 1 70 6 1
24 -7 1 60 6 1
24 -9 -1 77 14 1
-9 -24 -1 60 8 1
-9 -24 1 55 8 1
24 -9 1 82 12 1
24 -11 -1 234 18 1
-24 11 -1 220 12 1
-24 11 1 230 11 1
24 -11 1 197 15 1
-24 13 1 6 4 1
-24 15 -1 44 4 1
-24 15 1 37 4 1
14 -25 -1 16 5 1
14 -25 1 19 4 1
12 -25 -1 94 5 1
-25 -12 -1 103 6 1
12 -25 1 99 5 1
-25 -12 1 81 7 1
-25 -10 -1 295 17 1
10 -25 -1 315 16 1
-25 -10 1 271 17 1
10 -25 1 295 16 1
-25 -8 -1 48 6 1
8 -25 -1 39 6 1
8 -25 1 49 6 1
-25 -8 1 38 6 1
-8 25 1 34 8 1
-6 25 -1 127 4 1
-25 -6 -1 90 2 1
6 -25 -1 81 2 1
-6 25 1 77 4 1
-25 -6 1 81 2 1
6 -25 1 97 2 1
4 -25 -1 206 12 1
-25 -4 -1 205 14 1
-4 25 -1 178 14 1
4 -25 1 209 12 1
-4 25 1 194 13 1
-25 -2 -1 78 7 1
2 -25 -1 57 7 1
-25 -2 1 59 7 1
2 -25 1 63 7 1
-2 25 1 70 10 1
0 -25 -1 331 16 1
-25 0 -1 305 17 1
0 25 1 272 18 1
0 -25 1 299 15 1
-25 0 1 322 17 1
-25 2 -1 218 10 1
-2 -25 -1 213 9 1
2 25 1 214 14 1
-2 -25 1 214 9 1
-25 2 1 184 10 1
-4 -25 -1 20 6 1
-25 4 1 13 6 1
-4 -25 1 18 6 1
-25 6 -1 161 8 1
-6 -25 -1 178 9 1
-6 -25 1 180 9 1
-25 6 1 176 8 1
-25 8 -1 19 1 1
-8 -25 -1 13 2 1
-25 8 1 27 1 1
-8 -25 1 21 2 1
25 -8 1 19 7 1
-25 10 -1 4 1 1
-10 -25 -1 5 2 1
-10 -25 1 3 2 1
-25 10 1 11 3 1
-25 12 -1 70 5 1
-25 12 1 70 5 1
-25 14 -1 23 3 1
-25 14 1 20 3 1
-26 -11 -1 63 6 1
11 -26 -1 59 5 1
11 -26 1 51 4 1
9 -26 -1 213 11 1
-26 -9 -1 228 13 1
-26 -9 1 214 13 1
9 -26 1 202 11 1
-26 -7 -1 132 9 1
-26 -7 1 124 9 1
-26 -5 -1 50 6 1
5 -26 -1 45 6 1
-26 -5 1 50 6 1
5 -26 1 38 6 1
3 -26 -1 49 6 1
-3 26 -1 35 6 1
-26 -3 1 45 5 1
3 -26 1 41 6 1
-26 -1 -1 13 4 1
1 -26 -1 4 2 1
-1 26 -1 3 6 1
1 -26 1 6 2 1
-1 26 1 4 5 1
-26 1 -1 683 29 1
-1 -26 -1 749 27 1
1 26 1 674 29 1
-26 1 1 686 29 1
-1 -26 1 732 27 1
-26 3 -1 228 13 1
-3 -26 -1 206 13 1
-26 3 1 222 13 1
-3 -26 1 217 13 1
-5 -26 -1 101 8 1
-26 5 -1 98 6 1
-26 5 1 109 7 1
-5 -26 1 106 8 1
-26 7 -1 4 2 1
-7 -26 -1 3 2 1
-26 7 1 3 2 1
-7 -26 1 4 2 1
-9 -26 -1 3 2 1
-9 -26 1 4 2 1
-26 9 1 3 1 1
-26 11 -1 138 7 1
-26 11 1 136 8 1
-27 -10 1 18 5 1
10 -27 1 16 3 1
-27 -8 -1 355 18 1
8 -27 -1 350 17 1
-27 -8 1 347 18 1
8 -27 1 355 17 1
-27 -6 -1 417 22 1
6 -27 -1 446 20 1
6 -27 1 415 20 1
-27 -6 1 414 22 1
-27 -4 -1 41 4 1
4 -27 -1 42 4 1
4 -27 1 28 3 1
-27 -4 1 34 5 1
-27 -2 -1 112 6 1
-27 -2 1 87 6 1
-27 0 -1 89 6 1
-27 0 1 115 6 1
-27 2 -1 51 5 1
-27 2 1 50 5 1
-27 4 -1 125 8 1
-27 4 1 123 7 1
-4 -27 1 119 7 1
-6 -27 -1 273 11 1
-27 6 -1 291 12 1
-6 -27 1 273 11 1
-27 6 1 259 12 1
-27 8 -1 220 11 1
-8 -27 -1 200 10 1
-8 -27 1 226 10 1
-27 8 1 217 11 1
-27 10 -1 70 4 1
-27 10 1 61 4 1
-28 -7 -1 48 5 1
7 -28 -1 36 4 1
-28 -7 1 37 5 1
7 -28 1 34 4 1
-28 -5 -1 0 2 1
5 -28 -1 2 1 1
5 -28 1 1 1 1
-28 -5 1 0 2 1
3 -28 -1 3 1 1
-28 -3 -1 7 2 1
-28 -3 1 4 2 1
3 -28 1 5 1 1
1 -28 -1 11 3 1
1 -28 1 11 3 1
-28 -1 1 9 4 1
-28 1 -1 31 4 1
-1 -28 -1 22 4 1
-28 1 1 31 4 1
-1 -28 1 31 4 1
-28 3 -1 3 2 1
-28 3 -1 1 4 1
-28 3 1 0 1 1
-5 -28 -1 22 4 1
-28 5 -1 24 4 1
-28 5 1 28 4 1
-28 5 1 30 5 1
-5 -28 1 18 4 1
-7 -28 -1 50 5 1
-28 7 -1 58 5 1
-28 7 1 62 6 1
-7 -28 1 57 6 1
-28 7 1 61 6 1
-29 0 -1 124 8 1
0 -29 -1 104 7 1
0 -29 1 105 7 1
-29 0 1 120 8 1
0 0 -2 82397 400 1
1 -1 -2 5333 179 1
-1 -1 -2 5362 179 1
-1 -1 -2 5180 179 1
-1 1 -2 5485 179 1
1 -1 2 5598 179 1
1 -1 2 5267 179 1
-1 1 2 5139 199 1
-1 1 2 5248 179 1
0 -2 -2 3773 5 1
0 2 -2 3730 5 1
-2 0 -2 3763 5 1
0 2 -2 3710 5 1
0 -2 2 3723 5 1
0 -2 2 3716 5 1
2 0 2 3708 5 1
-2 -2 -2 36740 553 1
2 -2 -2 34979 612 1
-2 -2 -2 36245 553 1
-2 2 -2 35007 554 1
-2 -2 2 36462 613 1
2 -2 2 36119 612 1
-2 2 2 36523 553 1
-1 3 -2 3112 230 1
1 -3 -2 2895 229 1
-3 -1 -2 3092 230 1
1 -3 -2 2939 229 1
1 -3 2 2936 229 1
-1 3 2 3113 230 1
-3 1 -2 101238 1795 1
-3 -3 -2 934 184 1
3 -3 -2 1040 204 1
3 -3 -2 1017 184 1
3 -3 -2 995 184 1
-3 3 -2 1023 185 1
3 3 2 1105 185 1
-3 3 2 1004 204 1
-4 -2 -2 4912 72 1
-4 -2 -2 5167 72 1
-2 4 -2 5178 72 1
-4 -2 2 5217 79 1
-2 4 2 5183 79 1
2 -4 2 5209 72 1
-2 4 2 5282 72 1
4 2 2 4980 72 1
4 0 -2 2015 59 1
0 4 -2 1971 59 1
0 4 -2 1978 65 1
0 -4 -2 1990 59 1
0 4 2 1935 59 1
4 0 2 1914 59 1
0 -4 2 2089 59 1
-2 -4 -2 21584 576 1
2 4 -2 22251 576 1
-2 -4 -2 22209 576 1
-4 2 2 22729 639 1
4 -2 2 22783 577 1
4 -2 2 22265 638 1
-4 2 2 21894 576 1
2 4 2 22415 576 1
-4 -4 -2 50 208 1
-4 -4 -2 75 209 1
4 -4 -2 37 208 1
-4 4 -2 80 209 1
-4 4 2 53 230 1
4 -4 2 51 230 1
4 4 2 65 209 1
-4 4 2 77 209 1
4 -4 2 43 208 1
-3 5 -2 1041 1 1
-3 5 -2 1041 2 1
3 -5 -2 1063 2 1
5 3 2 1068 2 1
-3 5 2 1050 2 1
-5 -3 2 1061 2 1
-5 -3 2 1068 1 1
3 -5 2 1018 2 1
-3 5 2 1043 2 1
1 -5 -2 167 1 1
-5 -1 -2 180 1 1
-1 5 -2 146 1 1
1 -5 2 136 1 1
5 1 2 171 1 1
-5 -1 2 163 2 1
-5 1 -2 3604 333 1
-1 -5 -2 3482 333 1
5 -1 -2 3574 333 1
-1 -5 -2 3836 333 1
1 5 -2 3769 332 1
-5 1 2 3587 332 1
1 5 2 3965 334 1
-1 -5 2 3840 332 1
-1 -5 2 3771 332 1
-5 1 2 3474 369 1
5 -3 -2 10241 452 1
-3 -5 -2 9736 451 1
-3 -5 -2 9983 451 1
-5 3 -2 9871 453 1
-5 3 -2 9862 500 1
-3 -5 -2 9559 452 1
3 5 -2 9349 451 1
-5 3 2 10249 453 1
3 5 2 9763 452 1
-5 3 2 10634 501 1
-5 -5 -2 39 3 1
-5 5 -2 80 3 1
-5 -5 -2 41 3 1
5 5 2 64 3 1
-5 5 2 82 3 1
5 -5 2 57 3 1
5 -5 2 62 3 1
-4 6 -2 187 21 1
-6 -4 -2 190 19 1
-4 6 -2 214 20 1
-6 -4 -2 187 19 1
-6 -4 2 172 19 1
4 -6 2 192 20 1
-4 6 2 178 21 1
6 4 2 209 19 1
-4 6 2 188 20 1
2 -6 -2 354 76 1
-2 6 -2 401 84 1
-6 -2 -2 430 76 1
-6 -2 -2 439 76 1
2 -6 -2 416 76 1
2 -6 2 413 76 1
-2 6 2 368 84 1
6 2 2 372 76 1
-2 6 2 321 76 1
-6 -2 2 422 84 1
6 0 -2 210 11 1
0 -6 -2 189 12 1
0 6 -2 234 12 1
0 6 -2 251 13 1
0 -6 2 185 11 1
6 0 2 162 12 1
-6 0 2 156 13 1
6 -2 -2 105 25 1
2 6 -2 88 25 1
-2 -6 -2 81 25 1
-2 -6 -2 91 25 1
-6 2 2 100 28 1
2 6 2 84 25 1
-6 2 2 93 25 1
-4 -6 -2 5343 487 1
-4 -6 -2 5614 487 1
-6 4 -2 5046 539 1
6 -4 -2 4992 487 1
-6 4 -2 5265 489 1
-6 4 2 4863 540 1
-6 4 2 5667 488 1
4 6 2 5258 487 1
-6 6 -2 640 10 1
-6 -6 -2 680 9 1
-6 -6 -2 642 9 1
-6 -6 -2 687 9 1
-6 6 -2 600 9 1
6 -6 2 603 9 1
-6 6 2 625 10 1
6 6 2 635 9 1
-6 -6 2 586 9 1
-7 -5 -2 5041 268 1
-7 -5 -2 4610 267 1
-5 7 -2 5173 269 1
-7 -5 -2 4604 267 1
-5 7 -2 4759 296 1
-5 7 2 4936 297 1
5 -7 2 4711 268 1
-3 7 -2 734 12 1
3 -7 -2 697 12 1
-3 7 2 697 12 1
7 3 2 736 12 1
-3 7 2 708 13 1
3 -7 2 703 12 1
-7 -1 -2 1695 138 1
-1 7 -2 1663 137 1
-7 -1 -2 1644 137 1
1 -7 2 1636 137 1
-1 7 2 1477 137 1
-7 1 -2 1 37 1
-1 -7 -2 0 37 1
1 7 -2 1 41 1
1 7 -2 2 37 1
1 7 2 2 37 1
-7 1 2 4 37 1
3 7 -2 25086 1213 1
-3 -7 -2 25749 1213 1
-7 3 -2 25002 1214 1
-3 -7 -2 24248 1212 1
-7 3 2 24490 1213 1
-7 3 2 26447 1213 1
7 -3 2 27220 1215 1
3 7 2 25555 1213 1
-5 -7 -2 1016 9 1
-5 -7 -2 1002 9 1
5 7 -2 928 10 1
-7 5 -2 942 10 1
-7 5 2 1031 10 1
5 7 2 1002 10 1
-7 5 2 1025 11 1
7 -7 -2 7 3 1
-7 -7 -2 25 3 1
-7 7 -2 10 3 1
7 -7 2 12 3 1
-6 8 -2 5443 112 1
-8 -6 -2 5361 112 1
8 6 -2 5259 112 1
-6 8 -2 5437 124 1
-6 8 2 5290 112 1
8 6 2 5355 112 1
6 -8 2 5275 112 1
-6 8 2 5163 124 1
-8 -4 -2 767 38 1
-8 -4 -2 731 38 1
-4 8 -2 707 39 1
-8 -4 -2 733 38 1
-4 8 -2 677 42 1
8 4 2 793 38 1
-4 8 2 680 42 1
-8 -4 2 654 38 1
4 -8 2 644 38 1
-8 -2 -2 1125 86 1
-2 8 -2 1106 86 1
8 2 -2 1013 86 1
2 -8 -2 889 86 1
-2 8 -2 1091 95 1
-8 -2 -2 1070 86 1
2 -8 2 1055 86 1
-2 8 2 992 95 1
-2 8 2 936 86 1
-8 -2 2 1016 96 1
0 8 -2 432 23 1
0 -8 -2 456 21 1
0 -8 2 458 21 1
0 8 2 474 21 1
-8 2 -2 297 23 1
2 8 -2 300 23 1
-2 -8 -2 304 23 1
2 8 2 285 23 1
-8 2 2 287 23 1
-8 2 2 302 26 1
-4 -8 -2 963 31 1
-8 4 -2 950 34 1
4 8 -2 933 31 1
-8 4 2 941 31 1
-8 4 2 938 35 1
-6 -8 -2 5375 195 1
6 8 -2 5160 195 1
-8 6 -2 5618 196 1
8 -6 2 5306 196 1
-8 6 2 5071 196 1
6 8 2 5360 196 1
-8 6 2 4988 216 1
8 -8 -2 26 3 1
-8 -8 -2 32 3 1
-8 8 -2 19 3 1
8 -8 2 33 3 1
-8 8 2 18 3 1
-9 -7 -2 33 3 1
-7 9 -2 42 3 1
-7 9 -2 44 3 1
9 7 -2 37 4 1
7 -9 -2 40 3 1
-7 9 2 42 4 1
7 -9 2 45 3 1
-5 9 -2 1790 54 1
9 5 -2 1856 49 1
-9 -5 -2 1767 49 1
-5 9 2 1858 49 1
5 -9 2 1826 49 1
9 5 2 1897 49 1
-9 -3 -2 3 1 1
-9 -3 -2 4 2 1
-9 -3 -2 4 2 1
3 -9 -2 5 2 1
3 -9 -2 5 2 1
-1 9 -2 63 16 1
1 -9 -2 90 16 1
-9 -1 -2 77 16 1
-9 -1 -2 77 16 1
-9 -1 -2 77 16 1
1 -9 2 79 16 1
-1 9 2 63 16 1
-9 1 -2 1415 20 1
1 9 -2 1427 20 1
9 -1 -2 1410 20 1
-1 -9 -2 1424 20 1
-1 -9 -2 1472 20 1
-1 -9 2 1429 19 1
-1 -9 2 1436 20 1
1 9 2 1384 20 1
-9 3 -2 340 43 1
-3 -9 -2 353 43 1
3 9 2 402 43 1
9 -3 2 404 43 1
-9 3 2 413 43 1
-9 3 2 409 48 1
5 9 -2 141 4 1
-9 5 -2 149 4 1
-5 -9 -2 135 4 1
-5 -9 -2 132 3 1
-5 -9 -2 128 3 1
-9 5 2 138 3 1
9 -5 2 164 4 1
-9 5 2 135 4 1
9 -7 -2 4000 122 1
7 9 -2 4175 121 1
-9 7 -2 4360 134 1
-9 7 -2 4108 122 1
-7 -9 -2 4334 121 1
-9 7 2 4406 122 1
-9 7 2 4319 135 1
9 -7 2 3971 122 1
7 9 2 4141 122 1
-9 -9 -2 3659 169 1
-9 9 2 3826 170 1
9 9 2 3818 170 1
-10 -8 -2 691 30 1
-8 10 -2 706 30 1
8 -10 -2 676 30 1
8 -10 2 667 30 1
-8 10 2 662 30 1
10 6 -2 4523 183 1
6 -10 -2 4718 183 1
-6 10 -2 4771 201 1
-10 -6 -2 4290 182 1
-6 10 -2 4492 183 1
6 -10 2 4592 183 1
-6 10 2 4743 202 1
-10 -4 -2 911 46 1
10 4 -2 884 46 1
-4 10 -2 832 46 1
-4 10 2 914 46 1
4 -10 2 888 46 1
-4 10 2 882 51 1
2 -10 -2 3025 47 1
-10 -2 -2 3029 47 1
-2 10 -2 2904 47 1
-2 10 -2 3021 52 1
2 -10 -2 2997 47 1
-10 -2 -2 3046 47 1
-10 -2 -2 2998 47 1
-2 10 2 3067 47 1
10 2 2 2974 47 1
2 -10 2 2944 47 1
-2 10 2 3039 52 1
10 0 -2 208 1 1
0 -10 -2 202 1 1
0 -10 -2 231 1 1
-10 0 2 227 2 1
0 10 2 204 1 1
-2 -10 -2 2320 130 1
-10 2 -2 2544 130 1
-2 -10 -2 2316 129 1
10 -2 2 2531 130 1
2 10 2 2591 130 1
-10 2 2 2527 129 1
-10 2 2 2441 144 1
10 -4 -2 2459 95 1
-4 -10 -2 2291 95 1
-4 -10 -2 2243 95 1
-10 4 -2 2351 95 1
4 10 -2 2212 95 1
-4 -10 -2 2342 95 1
-10 4 2 2319 95 1
10 -4 2 2380 95 1
4 10 2 2415 95 1
6 10 -2 2074 90 1
-10 6 -2 1983 91 1
-6 -10 -2 2028 90 1
-10 6 2 1949 100 1
6 10 2 1902 90 1
-10 6 2 1931 90 1
10 -8 -2 98 2 1
10 -8 2 70 2 1
-10 8 2 95 3 1
10 -10 -2 1725 72 1
-10 10 -2 1768 80 1
-10 -10 -2 1767 71 1
-10 10 -2 1719 72 1
10 10 2 1671 72 1
-10 10 2 1746 79 1
-10 10 2 1811 72 1
9 -11 -2 62 12 1
-9 11 -2 65 12 1
-11 -9 -2 49 12 1
-9 11 2 45 14 1
9 -11 2 52 12 1
-9 11 2 60 13 1
11 9 2 58 12 1
-9 11 2 52 12 1
-7 11 -2 52 5 1
7 -11 -2 47 4 1
-11 -7 -2 41 4 1
-7 11 2 51 5 1
-7 11 2 47 4 1
-7 11 2 43 6 1
11 5 -2 251 11 1
5 -11 -2 237 10 1
-11 -5 -2 234 10 1
11 5 2 255 11 1
-5 11 2 241 10 1
-5 11 2 262 11 1
5 -11 2 247 10 1
11 3 -2 17 1 1
-11 -3 -2 5 1 1
3 -11 -2 23 1 1
3 -11 2 70 1 1
11 3 2 3 1 1
-3 11 2 18 1 1
-1 11 -2 7 1 1
1 -11 -2 14 1 1
-11 -1 -2 12 2 1
1 -11 -2 12 1 1
-1 11 2 9 2 1
1 -11 2 11 2 1
-11 -1 2 10 2 1
-11 1 -2 386 11 1
1 11 -2 418 11 1
-1 -11 -2 399 11 1
-1 -11 -2 396 11 1
-1 -11 2 415 10 1
-1 -11 2 424 10 1
-3 -11 -2 6525 284 1
-3 -11 -2 6307 284 1
11 -3 -2 6634 284 1
-3 -11 -2 6125 283 1
-11 3 -2 6334 285 1
3 11 2 6241 284 1
-11 3 2 6542 284 1
5 11 -2 9597 303 1
-11 5 -2 9763 304 1
11 -5 -2 10241 304 1
-5 -11 -2 9605 303 1
-11 5 2 9804 304 1
5 11 2 9848 304 1
-11 5 2 9570 336 1
-7 -11 -2 0 2 1
-11 7 -2 1 2 1
11 -7 2 1 2 1
7 11 2 0 1 1
-11 9 -2 85 7 1
-9 -11 -2 82 4 1
11 -9 -2 75 4 1
-11 9 2 77 4 1
-11 9 2 75 6 1
-11 9 2 90 5 1
11 -9 2 84 4 1
-11 11 -2 2698 109 1
-11 11 -2 2728 121 1
11 -11 -2 2739 109 1
11 11 2 2752 109 1
-11 11 2 2754 109 1
11 -11 2 2713 109 1
-11 11 2 2687 121 1
-10 12 -2 31 5 1
10 -12 -2 40 5 1
-12 -10 -2 27 4 1
12 10 2 28 6 1
-10 12 2 40 5 1
-10 12 2 34 6 1
-10 12 2 35 5 1
10 -12 2 41 5 1
-8 12 -2 3959 136 1
8 -12 -2 3871 135 1
-8 12 -2 3662 150 1
-12 -8 -2 3748 135 1
-8 12 2 4023 149 1
12 8 2 3896 135 1
6 -12 -2 641 23 1
-6 12 -2 678 23 1
6 -12 2 703 23 1
-6 12 2 670 23 1
-6 12 2 688 25 1
12 6 2 689 23 1
-6 12 2 702 26 1
-4 12 -2 2 3 1
4 -12 -2 3 3 1
12 4 -2 2 5 1
-12 -4 -2 1 3 1
-4 12 2 3 3 1
-4 12 2 2 3 1
4 -12 2 4 3 1
12 2 -2 4723 234 1
-12 -2 -2 4538 233 1
2 -12 -2 4437 234 1
-2 12 -2 4452 258 1
-2 12 2 4664 259 1
-2 12 2 4502 234 1
2 -12 2 4538 234 1
-12 0 -2 2460 92 1
0 -12 -2 2269 93 1
12 0 -2 2364 93 1
-12 0 -2 2316 92 1
0 12 -2 2305 93 1
-12 0 -2 2488 93 1
0 -12 -2 2291 93 1
0 -12 2 2280 93 1
0 12 2 2324 93 1
0 -12 2 2314 92 1
2 12 -2 318 16 1
-2 -12 -2 324 16 1
12 -2 -2 300 16 1
-12 2 -2 279 16 1
12 -2 2 270 16 1
-12 2 2 318 18 1
2 12 2 292 16 1
-12 4 -2 1325 52 1
4 12 -2 1341 46 1
-4 -12 -2 1380 46 1
-12 4 -2 1343 46 1
-4 -12 -2 1379 46 1
-12 4 2 1413 46 1
-12 4 2 1384 51 1
4 12 2 1374 46 1
-6 -12 -2 4 3 1
12 -6 -2 16 4 1
-12 6 -2 15 6 1
6 12 -2 4 4 1
6 12 2 4 3 1
-12 6 2 15 3 1
-12 6 2 18 6 1
-8 -12 -2 2827 83 1
-12 8 2 2752 84 1
12 -8 2 2750 84 1
-12 8 2 2772 92 1
8 12 2 2822 84 1
-12 10 -2 3476 155 1
-12 10 -2 3677 172 1
-10 -12 -2 3630 154 1
12 -10 2 3679 155 1
-12 10 2 3607 155 1
10 12 2 3570 155 1
-12 10 2 3768 172 1
-12 -12 -2 800 21 1
-12 12 -2 821 24 1
-12 12 -2 745 21 1
12 -12 -2 840 22 1
-12 12 2 798 21 1
12 -12 2 773 21 1
-12 12 2 838 23 1
-12 12 2 799 24 1
-13 -11 -2 2435 97 1
11 -13 -2 2361 98 1
11 -13 -2 2584 99 1
-11 13 -2 2501 98 1
-11 13 -2 2572 108 1
11 -13 2 2327 99 1
-11 13 2 2396 108 1
-11 13 2 2522 98 1
-9 13 -2 135 13 1
-9 13 -2 139 15 1
9 -13 -2 157 13 1
-13 -9 -2 158 13 1
-9 13 2 166 15 1
-13 -9 2 161 17 1
9 -13 2 141 13 1
-9 13 2 159 14 1
-9 13 2 145 13 1
9 -13 2 131 15 1
7 -13 -2 862 36 1
-7 13 -2 859 41 1
-13 -7 -2 854 36 1
-7 13 -2 889 37 1
13 7 2 891 37 1
7 -13 2 957 36 1
-13 -7 2 840 42 1
-7 13 2 852 41 1
-5 13 -2 688 25 1
5 -13 -2 683 25 1
-13 -5 -2 627 24 1
-5 13 2 694 25 1
-13 -5 2 676 29 1
-5 13 2 669 27 1
-13 -3 -2 789 22 1
3 -13 -2 721 22 1
13 3 -2 708 23 1
-13 -3 -2 728 26 1
-3 13 2 790 25 1
3 -13 2 746 22 1
13 3 2 774 23 1
-3 13 2 751 23 1
-13 -3 2 698 26 1
-1 13 -2 1620 69 1
-13 -1 -2 1593 62 1
-1 13 2 1630 69 1
1 -13 2 1534 62 1
-1 13 2 1562 63 1
-13 1 -2 7188 327 1
1 13 -2 7507 328 1
-13 1 -2 7361 328 1
-1 -13 -2 7479 328 1
1 13 2 7334 328 1
13 -1 2 7609 328 1
-3 -13 -2 245 3 1
-13 3 -2 250 3 1
3 13 -2 249 4 1
-3 -13 -2 253 4 1
13 -3 -2 251 4 1
-13 3 2 270 5 1
-13 5 -2 2621 127 1
5 13 -2 2509 127 1
-5 -13 -2 2445 127 1
-13 5 2 2604 142 1
5 13 2 2404 127 1
-13 5 2 2653 141 1
-13 5 2 2631 127 1
13 -7 -2 4920 221 1
-13 7 -2 4672 220 1
-13 7 2 4975 220 1
13 -7 2 4662 221 1
-13 7 2 4764 244 1
-13 7 2 5009 244 1
7 13 2 4913 220 1
-9 -13 -2 900 25 1
-13 9 -2 866 22 1
13 -9 -2 895 22 1
-13 9 2 865 24 1
-13 9 2 888 24 1
9 13 2 841 22 1
13 -9 2 839 22 1
-13 9 2 915 21 1
-11 -13 -2 9 4 1
-13 11 -2 11 3 1
-11 -13 -2 19 3 1
-13 11 -2 16 4 1
13 -11 2 17 4 1
-13 11 2 17 3 1
-13 11 2 11 2 1
13 -11 2 21 4 1
-13 13 -2 549 29 1
13 -13 -2 557 26 1
13 -13 -2 520 28 1
-13 13 -2 512 26 1
-13 13 2 518 28 1
-13 13 2 500 26 1
13 -13 2 476 26 1
13 -13 2 501 27 1
-12 14 -2 187 14 1
12 -14 -2 175 12 1
-12 14 -2 168 12 1
12 -14 -2 175 15 1
12 -14 2 178 12 1
12 -14 2 191 14 1
-12 14 2 192 14 1
-12 14 2 188 12 1
-14 -12 2 209 16 1
-10 14 -2 415 16 1
-10 14 -2 440 18 1
10 -14 -2 400 18 1
10 -14 -2 409 16 1
-10 14 2 420 16 1
-10 14 2 393 18 1
-8 14 -2 2109 90 1
8 -14 -2 2184 83 1
-8 14 -2 2032 82 1
8 -14 -2 2176 81 1
-8 14 2 2114 90 1
-8 14 2 2200 90 1
8 -14 2 2058 83 1
-8 14 2 2121 82 1
8 -14 2 2188 81 1
-14 -8 2 2160 91 1
6 -14 -2 46 5 1
-6 14 -2 51 5 1
6 -14 -2 54 8 1
-14 -6 -2 61 8 1
-14 -6 2 48 9 1
6 -14 2 59 5 1
6 -14 2 53 7 1
-6 14 2 54 6 1
14 6 2 63 6 1
4 -14 -2 12 3 1
-4 14 -2 13 3 1
-14 -4 -2 10 6 1
14 4 2 16 4 1
-4 14 2 12 3 1
-4 14 2 12 3 1
-2 14 -2 2755 89 1
-14 -2 -2 2627 89 1
2 -14 -2 2728 89 1
-2 14 2 2685 89 1
-14 -2 2 2990 100 1
2 -14 2 2735 89 1
-2 14 2 2816 98 1
0 14 -2 666 17 1
0 -14 -2 622 16 1
14 0 -2 605 17 1
0 14 -2 612 17 1
-14 0 -2 548 16 1
0 -14 2 612 16 1
0 14 2 575 16 1
0 -14 2 614 16 1
0 14 2 642 18 1
14 -2 -2 266 7 1
-2 -14 -2 247 5 1
2 14 -2 278 6 1
-14 2 -2 212 8 1
-14 2 2 267 8 1
2 14 2 269 6 1
-14 2 2 271 8 1
14 -2 2 229 6 1
14 -4 -2 783 23 1
-14 4 -2 730 23 1
4 14 -2 741 23 1
4 14 2 758 23 1
-14 6 -2 204 8 1
14 -6 -2 227 8 1
-14 6 -2 215 10 1
6 14 -2 225 8 1
-14 6 2 219 9 1
6 14 2 246 8 1
-14 6 2 234 7 1
14 -8 -2 505 22 1
-14 8 -2 506 22 1
14 -8 2 485 22 1
-14 8 2 493 24 1
-14 8 2 503 25 1
8 14 2 554 22 1
-14 8 2 548 21 1
-10 -14 -2 1626 62 1
-14 10 -2 1720 67 1
14 -10 -2 1674 61 1
-14 10 -2 1615 60 1
-14 10 2 1612 67 1
-14 10 2 1650 67 1
-14 10 2 1668 60 1
-10 -14 2 1578 63 1
-14 12 -2 1499 53 1
-12 -14 -2 1503 55 1
-14 12 -2 1613 59 1
14 -12 -2 1512 53 1
-14 12 2 1494 53 1
-14 12 2 1520 59 1
14 -14 -2 253 18 1
-14 14 -2 251 17 1
-14 14 -2 246 15 1
14 -14 -2 222 15 1
-14 14 2 231 14 1
-14 14 2 219 16 1
-14 -14 2 259 19 1
14 -14 2 219 16 1
14 -14 2 256 15 1
-13 15 -2 972 34 1
13 -15 -2 1030 34 1
-13 15 -2 1028 37 1
13 -15 -2 1008 35 1
13 -15 2 1062 34 1
-13 15 2 1025 34 1
-13 15 2 965 37 1
13 -15 2 1071 34 1
-15 -13 2 976 39 1
-11 15 -2 376 13 1
-11 15 -2 424 15 1
11 -15 -2 406 15 1
11 -15 2 408 13 1
-15 -11 2 414 17 1
11 -15 2 394 14 1
-11 15 2 434 15 1
-11 15 2 402 13 1
9 -15 -2 35 3 1
-9 15 -2 25 3 1
9 -15 -2 32 2 1
-9 15 -2 22 2 1
-15 -9 -2 17 3 1
-9 15 2 38 2 1
-15 -9 2 25 3 1
-9 15 2 35 2 1
9 -15 2 20 2 1
9 -15 2 20 2 1
7 -15 -2 497 31 1
-7 15 -2 532 31 1
-7 15 -2 564 34 1
7 -15 -2 484 30 1
7 -15 2 503 31 1
7 -15 2 493 30 1
-15 -5 -2 1666 65 1
5 -15 -2 1726 59 1
5 -15 -2 1699 58 1
-15 -5 2 1645 65 1
-5 15 2 1786 58 1
5 -15 2 1612 59 1
-5 15 2 1720 64 1
5 -15 2 1708 58 1
15 5 2 1636 58 1
3 -15 -2 1467 43 1
-3 15 -2 1561 43 1
3 -15 2 1454 43 1
-3 15 2 1589 47 1
15 3 2 1556 44 1
3 -15 2 1514 44 1
-1 15 -2 1781 74 1
1 -15 -2 1655 74 1
15 1 -2 1767 74 1
1 -15 -2 1645 75 1
-15 -1 -2 1515 83 1
15 1 2 1716 74 1
1 -15 2 1686 73 1
-1 15 2 1707 74 1
-15 -1 2 1719 83 1
-15 1 -2 3712 116 1
15 -1 -2 3791 117 1
-1 -15 -2 3689 119 1
-1 -15 2 3748 119 1
15 -1 2 3772 117 1
1 15 2 3906 117 1
-15 3 -2 52 6 1
-15 3 -2 52 2 1
-3 -15 -2 70 7 1
3 15 -2 56 4 1
15 -3 -2 59 4 1
-3 -15 2 43 7 1
15 -3 2 44 4 1
3 15 2 55 3 1
-15 5 -2 534 25 1
-15 5 -2 494 29 1
-5 -15 -2 528 27 1
15 -5 -2 527 26 1
5 15 -2 514 25 1
15 -5 2 548 26 1
5 15 2 551 25 1
-5 -15 2 489 27 1
-15 5 2 527 28 1
15 -7 -2 15017 545 1
-7 -15 -2 14796 551 1
-15 7 -2 16011 604 1
-15 7 -2 15367 546 1
-15 7 2 15733 545 1
7 15 2 15899 545 1
-15 9 -2 1172 59 1
15 -9 -2 1072 59 1
9 15 2 1120 59 1
-15 9 2 1167 58 1
-15 11 -2 74 5 1
-11 -15 -2 56 9 1
-15 11 -2 51 7 1
15 -11 -2 62 6 1
-15 11 2 73 7 1
-11 -15 2 65 11 1
-15 11 2 59 5 1
15 -11 2 57 6 1
-13 -15 -2 1734 63 1
15 -13 -2 1860 62 1
-15 13 -2 1697 68 1
-15 13 -2 1737 61 1
15 -13 2 1765 62 1
-15 13 2 1804 61 1
-15 15 -2 1568 71 1
-15 15 -2 1644 64 1
15 -15 -2 1586 64 1
-15 -15 2 1585 72 1
-15 15 2 1616 71 1
15 -15 2 1543 65 1
-15 15 2 1636 64 1
-16 -14 -2 298 16 1
14 -16 -2 320 13 1
-14 16 -2 320 14 1
14 -16 -2 336 16 1
-14 16 -2 303 13 1
-14 16 2 280 12 1
-14 16 2 307 14 1
-16 -14 2 294 17 1
14 -16 2 308 13 1
14 -16 2 294 14 1
-12 16 -2 930 36 1
12 -16 -2 933 33 1
12 -16 -2 957 34 1
-16 -12 -2 925 37 1
-12 16 -2 866 33 1
-12 16 2 922 36 1
-12 16 2 897 33 1
12 -16 2 929 33 1
-16 -12 2 906 37 1
-16 -10 -2 808 42 1
-10 16 -2 783 37 1
-10 16 -2 798 41 1
10 -16 -2 760 36 1
-10 16 2 786 41 1
-16 -10 2 818 42 1
10 -16 2 769 36 1
10 -16 2 731 37 1
-10 16 2 776 37 1
8 -16 -2 1255 38 1
8 -16 -2 1314 40 1
-8 16 -2 1315 39 1
-8 16 2 1270 39 1
-16 -8 2 1348 44 1
8 -16 2 1276 39 1
8 -16 2 1245 38 1
6 -16 -2 7680 325 1
6 -16 -2 7939 321 1
-16 -6 -2 7995 357 1
6 -16 2 7814 325 1
6 -16 2 8133 321 1
4 -16 -2 4823 223 1
4 -16 -2 4671 220 1
-16 -4 -2 5128 245 1
-4 16 2 4680 221 1
4 -16 2 4742 223 1
16 4 2 5056 221 1
4 -16 2 5017 220 1
-2 16 -2 135 4 1
2 -16 -2 146 7 1
2 -16 -2 141 4 1
16 2 2 149 5 1
-2 16 2 137 5 1
2 -16 2 127 6 1
2 -16 2 135 4 1
0 -16 -2 636 20 1
16 0 -2 673 21 1
0 -16 -2 655 22 1
-16 0 -2 652 23 1
0 16 -2 651 21 1
0 16 2 623 20 1
16 0 2 644 21 1
0 -16 2 628 21 1
2 16 -2 2300 93 1
16 -2 -2 2342 93 1
-2 -16 -2 2156 94 1
-2 -16 -2 2356 92 1
2 16 2 2234 93 1
-16 2 2 2314 104 1
-2 -16 2 2163 94 1
-4 -16 -2 374 26 1
4 16 -2 355 25 1
-16 4 -2 362 24 1
4 16 2 365 25 1
-16 4 2 353 28 1
16 -6 -2 40 4 1
-16 6 -2 38 5 1
-6 -16 -2 23 3 1
6 16 2 31 2 1
16 -6 2 34 3 1
16 -8 -2 376 15 1
-16 8 -2 400 16 1
-8 -16 -2 441 16 1
-16 8 -2 386 14 1
-8 -16 2 394 16 1
8 16 2 429 14 1
-16 8 2 416 16 1
-16 8 2 403 13 1
-16 10 -2 1167 45 1
-10 -16 -2 1076 47 1
16 -10 2 1205 46 1
-10 -16 2 1113 47 1
-16 10 2 1166 45 1
-16 12 -2 3 2 1
16 -12 -2 10 2 1
-16 12 -2 5 2 1
-12 -16 -2 4 4 1
-12 -16 2 6 4 1
16 -12 2 4 3 1
-16 12 2 3 2 1
-16 14 -2 128 6 1
16 -14 -2 136 7 1
-16 14 -2 144 7 1
-16 14 2 137 6 1
-16 14 2 142 7 1
-14 -16 2 141 12 1
16 -14 2 142 7 1
16 -14 2 131 11 1
-16 -16 -2 65 9 1
-16 16 -2 60 7 1
16 -16 -2 44 6 1
-16 16 -2 45 6 1
16 -16 2 54 9 1
-16 16 2 56 7 1
16 -16 2 50 6 1
-16 -16 2 71 12 1
-16 16 2 51 6 1
-17 -15 -2 20 4 1
-15 17 -2 37 6 1
15 -17 -2 32 5 1
-15 17 -2 23 5 1
15 -17 -2 44 10 1
-15 17 2 17 3 1
-17 -15 2 26 5 1
15 -17 2 42 8 1
-17 -13 -2 71 11 1
13 -17 -2 87 11 1
-13 17 -2 81 8 1
-13 17 -2 85 9 1
13 -17 -2 74 7 1
13 -17 2 78 9 1
-13 17 2 74 8 1
-13 17 2 69 9 1
-11 17 -2 145 8 1
11 -17 -2 145 7 1
-11 17 -2 144 9 1
-17 -11 -2 152 11 1
11 -17 2 162 9 1
11 -17 2 149 7 1
-17 -11 2 131 11 1
-11 17 2 142 8 1
9 -17 -2 200 11 1
-17 -9 -2 174 11 1
9 -17 -2 192 8 1
-9 17 -2 180 9 1
9 -17 2 193 8 1
-9 17 2 185 9 1
-17 -9 2 213 12 1
9 -17 2 177 9 1
7 -17 -2 184 10 1
7 -17 -2 179 8 1
-7 17 -2 190 9 1
-7 17 2 167 9 1
-17 -7 2 161 12 1
7 -17 2 180 8 1
7 -17 2 180 9 1
5 -17 -2 21 3 1
-5 17 -2 20 2 1
5 -17 -2 23 3 1
-5 17 2 26 2 1
5 -17 2 23 2 1
5 -17 2 19 2 1
-17 -5 2 25 3 1
3 -17 -2 45 3 1
3 -17 -2 48 6 1
-17 -3 -2 45 6 1
-3 17 -2 39 5 1
3 -17 2 47 5 1
-3 17 2 48 5 1
17 3 2 37 6 1
3 -17 2 44 3 1
-17 -3 2 43 7 1
-17 -1 -2 453 13 1
1 -17 -2 435 10 1
1 -17 -2 419 12 1
-1 17 -2 399 11 1
17 1 2 423 11 1
-1 17 2 415 11 1
1 -17 2 413 12 1
-17 -1 2 405 13 1
-17 1 -2 1372 55 1
-1 -17 -2 1353 48 1
-1 -17 -2 1337 50 1
17 -1 -2 1426 50 1
1 17 -2 1390 49 1
-17 1 2 1393 55 1
-1 -17 2 1352 50 1
1 17 2 1322 49 1
-17 3 -2 44 7 1
-3 -17 -2 51 7 1
17 -3 -2 42 6 1
-17 3 2 47 6 1
17 -3 2 39 5 1
3 17 2 57 4 1
-5 -17 -2 1590 66 1
-17 5 -2 1579 63 1
-17 5 -2 1475 71 1
5 17 2 1532 64 1
-17 5 2 1663 72 1
17 -5 2 1464 64 1
-5 -17 2 1526 65 1
-7 -17 -2 386 21 1
-17 7 -2 422 19 1
-17 7 -2 388 22 1
-7 -17 2 363 21 1
7 17 2 376 20 1
-9 -17 -2 1771 62 1
-17 9 -2 1721 67 1
-17 9 -2 1770 60 1
17 -9 2 1777 61 1
-9 -17 2 1737 62 1
-17 9 2 1778 67 1
-17 11 -2 7382 321 1
-17 11 -2 7144 289 1
17 -11 -2 7452 290 1
-11 -17 2 7205 293 1
-17 11 2 7642 321 1
-17 11 2 7187 289 1
-17 13 -2 887 39 1
-13 -17 -2 892 37 1
-17 13 -2 904 35 1
-17 13 2 980 39 1
17 -13 2 895 35 1
-13 -17 2 937 37 1
-17 13 2 894 34 1
17 -15 -2 10 6 1
-17 15 -2 17 5 1
-17 15 -2 14 6 1
17 -15 2 16 6 1
-15 -17 2 18 11 1
-17 15 2 18 5 1
-17 15 2 15 6 1
-17 -17 -2 28 9 1
-17 17 -2 34 7 1
17 -17 -2 26 6 1
-17 17 -2 26 6 1
17 -17 2 23 6 1
-17 17 2 32 7 1
-17 17 2 28 6 1
17 -17 2 36 10 1
16 -18 -2 269 13 1
-16 18 -2 270 14 1
-16 18 -2 242 13 1
-18 -16 -2 269 16 1
-16 18 2 240 13 1
16 -18 2 268 13 1
-18 -16 2 244 17 1
16 -18 2 268 14 1
14 -18 -2 26 5 1
-18 -14 -2 38 8 1
14 -18 -2 48 9 1
-14 18 -2 23 6 1
-14 18 -2 29 6 1
14 -18 2 31 7 1
-18 -14 2 36 9 1
-14 18 2 22 5 1
-12 18 -2 555 24 1
12 -18 -2 527 24 1
-18 -12 -2 546 27 1
12 -18 2 560 24 1
-12 18 2 536 24 1
10 -18 -2 4 2 1
-10 18 -2 7 2 1
-18 -10 -2 6 3 1
-10 18 2 6 5 1
10 -18 2 6 2 1
-18 -10 2 5 3 1
10 -18 2 6 2 1
-18 -8 -2 1873 81 1
8 -18 -2 2007 72 1
-8 18 -2 1895 73 1
-18 -8 2 1919 81 1
8 -18 2 1908 72 1
-8 18 2 1995 73 1
-18 -6 -2 11 7 1
6 -18 -2 7 4 1
-6 18 -2 5 6 1
6 -18 2 5 5 1
6 -18 2 4 4 1
4 -18 -2 12 2 1
4 -18 2 7 3 1
-4 18 2 14 2 1
2 -18 -2 2003 60 1
-18 -2 -2 2050 66 1
-2 18 -2 1925 59 1
2 -18 -2 1950 58 1
-18 -2 2 2041 66 1
2 -18 2 1913 60 1
18 2 2 1981 59 1
-2 18 2 1938 59 1
0 -18 -2 83 7 1
-18 0 -2 76 8 1
0 -18 -2 83 4 1
0 18 -2 70 7 1
0 18 2 81 6 1
0 -18 2 84 7 1
18 0 2 79 7 1
-18 0 2 85 8 1
18 -2 -2 2356 82 1
-2 -18 -2 2250 83 1
-18 2 -2 2288 91 1
2 18 2 2200 90 1
18 -2 2 2297 82 1
2 18 2 2244 82 1
-2 -18 2 2323 83 1
-18 2 2 2418 91 1
4 18 -2 45 3 1
18 -4 -2 66 3 1
-18 4 -2 30 2 1
-18 4 2 45 2 1
4 18 2 26 2 1
-4 -18 2 75 2 1
18 -4 2 25 2 1
18 -6 -2 134 12 1
-18 6 -2 113 12 1
-6 -18 -2 112 12 1
18 -6 2 116 12 1
6 18 2 102 11 1
-6 -18 2 109 12 1
-18 6 2 135 12 1
-18 8 -2 384 17 1
-18 8 -2 364 21 1
18 -8 -2 347 19 1
-8 -18 2 362 20 1
18 -8 2 391 19 1
-10 -18 -2 126 11 1
-18 10 -2 153 10 1
-18 10 -2 149 8 1
18 -10 2 157 10 1
-18 10 2 143 10 1
-10 -18 2 128 12 1
-12 -18 -2 628 25 1
-18 12 -2 583 22 1
-18 12 -2 604 26 1
18 -12 -2 599 24 1
-12 -18 2 578 25 1
18 -12 2 637 24 1
-18 12 2 641 26 1
-18 14 -2 147 13 1
18 -14 -2 159 12 1
-18 14 -2 157 11 1
-18 14 2 179 13 1
18 -14 2 146 12 1
18 -16 -2 177 13 1
-18 16 -2 168 12 1
-18 16 -2 152 13 1
-16 -18 -2 172 15 1
18 -16 2 177 13 1
-18 16 2 168 13 1
-18 18 -2 49 8 1
-18 -18 -2 56 7 1
18 -18 -2 69 7 1
18 -18 2 60 6 1
-17 19 -2 28 7 1
-19 -17 -2 33 7 1
17 -19 -2 36 6 1
17 -19 2 51 9 1
17 -19 2 44 6 1
15 -19 -2 807 32 1
-15 19 -2 796 31 1
-19 -15 -2 809 35 1
15 -19 -2 766 31 1
15 -19 2 850 31 1
-19 -15 2 858 36 1
-15 19 2 790 31 1
15 -19 2 816 32 1
13 -19 -2 862 41 1
-19 -13 -2 822 45 1
-13 19 -2 849 41 1
13 -19 2 879 40 1
-19 -13 2 889 45 1
-13 19 2 786 40 1
13 -19 2 813 40 1
-11 19 -2 139 8 1
-19 -11 -2 117 10 1
11 -19 -2 131 7 1
11 -19 -2 124 9 1
-19 -11 2 119 11 1
11 -19 2 130 7 1
11 -19 2 124 8 1
-11 19 2 131 8 1
-19 -9 -2 132 11 1
9 -19 -2 138 10 1
9 -19 -2 138 8 1
-9 19 -2 123 9 1
9 -19 2 139 8 1
-19 -9 2 134 12 1
-9 19 2 134 9 1
9 -19 2 139 10 1
-7 19 -2 2023 80 1
7 -19 -2 2026 81 1
7 -19 -2 2029 79 1
7 -19 2 2113 81 1
-19 -7 2 2040 89 1
-7 19 2 2010 80 1
7 -19 2 2028 79 1
-5 19 -2 3705 153 1
5 -19 -2 3850 152 1
5 -19 -2 3698 155 1
5 -19 2 3877 152 1
-5 19 2 3766 153 1
-19 -3 -2 335 18 1
3 -19 -2 378 14 1
3 -19 -2 372 17 1
-3 19 -2 360 16 1
-3 19 2 382 16 1
-19 -3 2 373 18 1
-1 19 -2 341 19 1
1 -19 -2 344 17 1
1 -19 -2 339 19 1
-19 -1 -2 344 21 1
1 -19 2 367 20 1
-19 -1 2 375 22 1
-1 19 2 362 19 1
19 1 2 358 20 1
-1 -19 -2 314 11 1
-19 1 -2 316 12 1
1 19 -2 312 11 1
19 -1 2 347 12 1
1 19 2 319 11 1
-1 -19 2 311 11 1
-3 -19 -2 274 17 1
3 19 -2 262 16 1
19 -3 -2 256 17 1
19 -3 2 276 17 1
3 19 2 296 16 1
-19 3 2 263 18 1
19 -5 -2 4686 155 1
-19 5 -2 4740 171 1
-5 -19 -2 4805 157 1
5 19 2 4899 155 1
-19 5 2 4897 171 1
-19 7 -2 13 6 1
-19 7 2 22 6 1
7 19 2 6 4 1
-9 -19 -2 1658 56 1
19 -9 -2 1751 56 1
-19 9 -2 1696 61 1
-9 -19 2 1658 56 1
19 -9 2 1581 55 1
-19 9 2 1686 61 1
-19 11 -2 48 7 1
19 -11 -2 41 10 1
-19 11 -2 53 10 1
-11 -19 -2 50 11 1
-19 11 2 60 10 1
-11 -19 2 68 11 1
19 -11 2 52 9 1
-19 13 -2 52 6 1
-19 13 -2 56 6 1
19 -13 -2 40 7 1
-19 13 2 45 6 1
-13 -19 2 55 11 1
19 -13 2 69 7 1
-19 15 -2 176 9 1
19 -15 -2 162 10 1
-19 15 -2 190 10 1
-15 -19 -2 173 12 1
19 -15 2 185 9 1
-19 15 2 168 9 1
-17 -19 -2 579 24 1
-19 17 -2 552 22 1
19 -17 -2 577 23 1
19 -17 2 567 22 1
-19 -19 -2 48 7 1
-20 -18 -2 57 7 1
-20 -16 -2 227 11 1
16 -20 -2 211 10 1
-16 20 -2 210 11 1
16 -20 2 221 10 1
16 -20 2 231 11 1
14 -20 -2 1 3 1
-20 -14 -2 5 3 1
-14 20 -2 4 3 1
14 -20 -2 11 5 1
14 -20 2 2 2 1
-14 20 2 0 3 1
-20 -14 2 2 4 1
-12 20 -2 122 7 1
-20 -12 -2 106 9 1
12 -20 -2 127 8 1
12 -20 -2 116 6 1
12 -20 2 120 8 1
-12 20 2 131 7 1
-20 -12 2 106 10 1
10 -20 -2 171 13 1
10 -20 -2 158 11 1
-20 -10 -2 153 14 1
-10 20 -2 159 13 1
-10 20 2 156 12 1
10 -20 2 157 12 1
-20 -10 2 167 15 1
10 -20 2 177 11 1
8 -20 -2 921 35 1
8 -20 -2 952 36 1
-8 20 -2 984 36 1
8 -20 2 931 36 1
8 -20 2 948 35 1
-8 20 2 886 36 1
-6 20 -2 8 6 1
6 -20 -2 6 4 1
6 -20 -2 12 7 1
-20 -6 -2 6 7 1
-20 -6 2 10 8 1
-6 20 2 4 6 1
6 -20 2 7 4 1
6 -20 2 7 6 1
4 -20 -2 60 7 1
-4 20 -2 66 7 1
-20 -4 -2 66 8 1
4 -20 -2 48 5 1
-20 -4 2 53 8 1
-4 20 2 54 6 1
4 -20 2 62 7 1
-2 20 -2 1931 88 1
2 -20 -2 2025 89 1
2 -20 -2 2024 87 1
-2 20 2 2051 88 1
2 -20 2 1902 89 1
0 -20 -2 881 40 1
-20 0 -2 957 44 1
0 20 -2 882 39 1
0 -20 2 952 40 1
0 20 2 899 39 1
-20 2 -2 98 9 1
2 20 -2 72 9 1
-2 -20 -2 99 9 1
2 20 2 79 8 1
-20 2 2 78 9 1
-2 -20 2 76 8 1
20 -2 2 76 10 1
-4 -20 -2 1045 35 1
-4 -20 2 1088 35 1
20 -4 2 1048 35 1
4 20 2 980 34 1
-6 -20 -2 589 33 1
-20 6 -2 628 35 1
20 -6 -2 577 33 1
-20 6 2 623 35 1
20 -6 2 637 32 1
-6 -20 2 641 33 1
6 20 2 563 32 1
-20 8 -2 512 23 1
20 -8 -2 501 22 1
-8 -20 -2 497 22 1
-20 8 2 473 23 1
-8 -20 2 482 22 1
-20 10 -2 1443 59 1
20 -10 -2 1394 54 1
-10 -20 -2 1400 55 1
20 -10 2 1331 54 1
-10 -20 2 1386 54 1
-20 10 2 1376 59 1
-20 12 -2 46 6 1
-12 -20 -2 47 9 1
-20 12 2 52 6 1
20 -12 2 60 8 1
-12 -20 2 60 9 1
20 -14 -2 354 19 1
-20 14 2 379 21 1
20 -14 2 355 19 1
-20 16 -2 22 4 1
20 -16 -2 21 8 1
20 -16 2 30 7 1
-18 -20 -2 185 10 1
-20 20 2 582 35 1
-21 -19 -2 11 3 1
-21 -17 -2 725 35 1
-17 21 2 732 35 1
17 -21 2 699 31 1
-21 -15 -2 114 9 1
15 -21 -2 148 8 1
15 -21 -2 133 10 1
-21 -15 2 104 10 1
15 -21 2 139 9 1
-15 21 2 146 9 1
13 -21 -2 122 10 1
13 -21 -2 130 9 1
-13 21 -2 149 10 1
-21 -13 -2 140 11 1
-21 -13 2 174 12 1
-13 21 2 133 9 1
13 -21 2 136 9 1
13 -21 2 145 8 1
-21 -11 -2 465 24 1
11 -21 -2 460 21 1
-11 21 -2 447 21 1
11 -21 -2 443 20 1
11 -21 2 433 21 1
-11 21 2 446 21 1
11 -21 2 454 20 1
-21 -11 2 480 24 1
9 -21 -2 479 18 1
9 -21 -2 480 20 1
-9 21 -2 466 20 1
-21 -9 -2 470 22 1
9 -21 2 465 19 1
9 -21 2 479 18 1
-21 -9 2 458 22 1
-9 21 2 450 23 1
-9 21 2 464 19 1
-7 21 -2 0 3 1
7 -21 -2 3 2 1
-21 -7 -2 0 3 1
7 -21 -2 1 2 1
7 -21 2 0 2 1
7 -21 2 1 2 1
-7 21 2 0 2 1
-21 -7 2 4 3 1
-21 -5 -2 70 13 1
5 -21 -2 73 9 1
5 -21 -2 85 11 1
-5 21 -2 63 11 1
5 -21 2 80 11 1
-21 -5 2 81 13 1
-5 21 2 72 11 1
3 -21 -2 2300 93 1
-3 21 -2 2414 95 1
3 -21 -2 2419 96 1
-21 -3 2 2375 105 1
-3 21 2 2417 95 1
3 -21 2 2392 96 1
-21 -1 -2 351 18 1
1 -21 -2 375 17 1
-1 21 -2 353 17 1
1 -21 2 362 16 1
-1 21 2 361 16 1
1 21 -2 1804 85 1
-1 -21 -2 1950 85 1
-1 -21 2 1887 85 1
1 21 2 1910 84 1
-21 3 -2 603 29 1
-3 -21 -2 559 27 1
-3 -21 2 613 27 1
-21 3 2 658 29 1
3 21 2 579 26 1
21 -5 -2 481 25 1
-21 5 -2 486 25 1
-5 -21 -2 468 23 1
5 21 2 452 23 1
21 -5 2 486 24 1
-5 -21 2 506 23 1
-7 -21 -2 13 9 1
21 -7 -2 19 11 1
-7 -21 2 9 8 1
-21 7 2 16 8 1
21 -9 -2 928 60 1
-9 -21 -2 1039 61 1
-21 9 -2 1017 66 1
-21 9 2 947 66 1
-9 -21 2 1030 61 1
21 -9 2 932 60 1
-21 11 -2 1003 33 1
21 -11 -2 1004 31 1
-11 -21 -2 1064 32 1
-11 -21 2 1058 32 1
21 -11 2 923 31 1
-21 13 -2 305 17 1
21 -13 -2 337 18 1
-21 13 2 310 18 1
21 -13 2 304 17 1
-13 -21 2 292 18 1
21 -15 -2 285 14 1
-15 -21 -2 276 14 1
-21 15 -2 308 13 1
21 -15 2 287 13 1
-21 15 2 311 13 1
-17 -21 -2 26 8 1
-21 17 -2 28 4 1
-21 17 2 39 4 1
-21 19 2 57 5 1
-22 -18 -2 38 7 1
-18 22 2 34 5 1
-22 -16 -2 59 7 1
-16 22 2 43 6 1
16 -22 2 43 6 1
-22 -14 -2 64 6 1
-14 22 -2 66 8 1
14 -22 -2 71 7 1
-14 22 2 48 6 1
-14 22 2 70 8 1
14 -22 2 54 8 1
-22 -14 2 50 8 1
14 -22 2 49 7 1
12 -22 -2 44 7 1
-12 22 -2 45 7 1
12 -22 -2 31 6 1
-22 -12 -2 44 8 1
12 -22 2 40 7 1
12 -22 2 45 6 1
-12 22 2 37 7 1
-10 22 -2 100 7 1
-22 -10 -2 116 8 1
10 -22 -2 126 6 1
10 -22 -2 109 7 1
-22 -10 2 106 9 1
-10 22 2 117 7 1
10 -22 2 92 6 1
-10 22 2 99 12 1
10 -22 2 98 7 1
8 -22 -2 6 5 1
-8 22 -2 9 7 1
8 -22 -2 8 6 1
8 -22 2 8 6 1
-22 -8 2 19 8 1
6 -22 -2 368 16 1
-22 -6 -2 347 18 1
-6 22 -2 343 16 1
6 -22 -2 340 14 1
6 -22 2 329 15 1
-6 22 2 318 15 1
4 -22 -2 14 2 1
-4 22 -2 1 3 1
-22 -4 -2 73 3 1
4 -22 2 1 2 1
-22 -4 2 49 3 1
-4 22 2 33 3 1
-22 -2 -2 23 2 1
-2 22 -2 13 3 1
2 -22 -2 16 2 1
-22 -2 2 10 2 1
2 -22 2 16 2 1
-2 22 2 16 3 1
-22 0 -2 11 3 1
0 22 -2 8 4 1
0 -22 -2 24 6 1
0 22 2 11 3 1
0 -22 2 9 3 1
2 22 -2 459 19 1
-2 -22 -2 454 17 1
-22 2 2 432 19 1
2 22 2 434 17 1
-2 -22 2 473 17 1
22 -2 2 413 19 1
-4 -22 -2 3 3 1
-22 4 2 4 3 1
4 22 2 5 4 1
-4 -22 2 7 6 1
-6 -22 -2 141 9 1
-22 6 -2 120 8 1
22 -6 -2 108 13 1
22 -6 2 125 10 1
-6 -22 2 122 9 1
-22 6 2 132 8 1
-22 8 -2 41 7 1
-8 -22 2 55 7 1
-22 8 2 61 7 1
22 -10 -2 706 32 1
-22 10 -2 788 34 1
-10 -22 -2 824 32 1
-22 10 2 756 34 1
22 -10 2 711 31 1
-10 -22 2 836 31 1
22 -12 -2 266 17 1
-12 -22 -2 320 16 1
-22 12 -2 301 16 1
-12 -22 2 321 16 1
-22 12 2 298 16 1
22 -12 2 324 16 1
22 -14 -2 14 4 1
-22 14 -2 11 2 1
-22 14 2 18 2 1
22 -14 2 6 4 1
-22 16 -2 572 24 1
-22 16 2 604 24 1
-22 18 2 337 18 1
-17 23 -2 49 6 1
-23 -17 -2 46 7 1
17 -23 2 37 7 1
-17 23 2 54 6 1
-23 -15 -2 49 6 1
15 -23 -2 42 6 1
-15 23 -2 40 6 1
15 -23 2 49 5 1
-15 23 2 36 6 1
13 -23 -2 10 3 1
-13 23 -2 6 4 1
-23 -13 -2 11 2 1
-13 23 -2 6 3 1
-23 -13 2 14 3 1
-13 23 2 10 4 1
-13 23 2 8 3 1
11 -23 -2 870 38 1
-23 -11 -2 862 42 1
11 -23 -2 840 37 1
-11 23 -2 777 38 1
11 -23 2 838 38 1
-23 -11 2 889 42 1
-11 23 2 825 38 1
-23 -9 -2 339 20 1
9 -23 -2 340 18 1
9 -23 -2 342 17 1
-9 23 -2 363 19 1
9 -23 2 353 18 1
-23 -9 2 335 20 1
-9 23 2 326 18 1
7 -23 -2 115 8 1
-23 -7 -2 95 9 1
-7 23 -2 108 9 1
7 -23 2 106 7 1
-7 23 2 113 8 1
-23 -7 2 82 9 1
-23 -5 -2 363 17 1
-5 23 -2 381 16 1
-5 23 2 396 15 1
5 -23 2 377 15 1
-23 -5 2 363 17 1
3 -23 -2 1676 61 1
-23 -3 -2 1718 67 1
-23 -3 2 1595 67 1
3 -23 2 1652 61 1
1 -23 -2 46 7 1
-23 -1 -2 61 8 1
-1 23 -2 27 9 1
-1 23 2 50 8 1
1 -23 2 36 8 1
-23 -1 2 37 8 1
1 23 -2 650 24 1
-1 -23 -2 624 22 1
-1 -23 2 671 22 1
-23 1 2 590 24 1
1 23 2 618 23 1
-23 3 -2 206 12 1
-3 -23 -2 196 11 1
-23 3 2 179 12 1
-3 -23 2 195 11 1
3 23 2 210 13 1
23 -3 2 224 15 1
-5 -23 -2 38 3 1
-23 5 -2 38 3 1
-23 5 2 38 3 1
23 -5 2 33 5 1
-5 -23 2 39 2 1
-7 -23 -2 2 2 1
23 -7 -2 3 6 1
-7 -23 2 2 2 1
-23 7 2 4 3 1
23 -7 2 2 4 1
-9 -23 -2 13 2 1
-23 9 -2 23 2 1
23 -9 -2 12 6 1
-9 -23 2 18 2 1
23 -9 2 8 4 1
-23 9 2 13 2 1
-11 -23 -2 23 8 1
-11 -23 2 22 8 1
23 -11 2 26 9 1
-23 13 -2 22 4 1
-23 13 2 24 4 1
-23 15 -2 210 12 1
-23 15 2 240 12 1
-23 17 -2 33 4 1
-23 17 2 31 4 1
-24 -16 -2 188 10 1
16 -24 2 178 9 1
14 -24 -2 1 2 1
-24 -14 -2 1 2 1
-24 -14 2 0 3 1
14 -24 2 1 2 1
12 -24 -2 22 2 1
12 -24 2 26 2 1
-24 -10 -2 292 18 1
-10 24 -2 259 18 1
10 -24 -2 295 17 1
10 -24 2 287 17 1
-10 24 2 262 17 1
-24 -10 2 302 18 1
-8 24 2 2 3 1
-24 -6 -2 0 3 1
6 -24 -2 0 2 1
-6 24 -2 0 4 1
-24 -6 2 0 3 1
-6 24 2 1 3 1
-24 -4 -2 5 3 1
4 -24 -2 4 2 1
-4 24 -2 4 4 1
-4 24 2 1 3 1
4 -24 2 1 2 1
-24 -4 2 8 3 1
2 -24 -2 256 12 1
-2 24 -2 226 14 1
-24 -2 -2 285 13 1
2 -24 2 248 12 1
-24 -2 2 279 13 1
-2 24 2 219 12 1
0 -24 -2 326 15 1
-24 0 -2 306 16 1
0 -24 2 338 15 1
-24 0 2 331 16 1
0 24 2 329 16 1
-24 2 -2 57 2 1
-2 -24 -2 34 2 1
-2 -24 2 63 2 1
-24 2 2 82 2 1
2 24 2 18 5 1
-24 4 -2 5 3 1
-4 -24 -2 12 3 1
-4 -24 2 13 3 1
24 -4 2 13 8 1
-24 4 2 11 6 1
4 24 2 11 6 1
-6 -24 -2 214 12 1
-24 6 2 237 13 1
24 -6 2 208 16 1
-6 -24 2 202 12 1
-24 8 -2 437 21 1
-8 -24 -2 486 20 1
-8 -24 2 506 20 1
24 -8 2 427 22 1
-24 8 2 445 21 1
24 -10 -2 23 7 1
24 -10 2 15 5 1
-24 10 2 18 4 1
-10 -24 2 11 3 1
-24 12 -2 1 1 1
-24 12 2 1 1 1
-24 14 -2 148 8 1
-24 14 2 149 8 1
-24 16 -2 172 10 1
-24 16 2 179 10 1
-24 16 2 195 11 1
13 -25 -2 80 6 1
-25 -13 -2 109 7 1
13 -25 2 78 6 1
11 -25 -2 0 2 1
-25 -11 -2 0 2 1
11 -25 2 1 1 1
-25 -9 -2 30 6 1
-25 -9 2 27 6 1
9 -25 2 39 6 1
-7 25 -2 1471 66 1
-25 -7 -2 1609 72 1
7 -25 -2 1637 66 1
-25 -7 2 1558 72 1
-7 25 2 1483 66 1
7 -25 2 1631 66 1
-5 25 -2 315 17 1
5 -25 -2 317 15 1
-25 -5 2 329 16 1
-5 25 2 332 16 1
5 -25 2 311 15 1
3 -25 -2 14 2 1
-3 25 -2 8 5 1
-25 -3 -2 4 3 1
-25 -3 2 1 3 1
3 -25 2 6 2 1
-3 25 2 14 4 1
-1 25 -2 653 29 1
1 -25 -2 713 27 1
-25 -1 -2 702 30 1
-25 -1 2 722 30 1
1 -25 2 713 27 1
-25 1 -2 0 2 1
-1 -25 -2 1 2 1
-1 -25 2 0 2 1
-25 1 2 3 2 1
1 25 2 2 5 1
-3 -25 -2 530 19 1
-25 3 -2 494 21 1
-25 3 2 483 21 1
3 25 2 465 22 1
-3 -25 2 533 19 1
-5 -25 -2 69 8 1
-5 -25 2 69 8 1
-25 7 -2 1 1 1
-7 -25 -2 1 2 1
-7 -25 2 2 2 1
25 -7 2 0 7 1
-25 7 2 0 1 1
-25 9 -2 41 5 1
-25 9 2 40 5 1
-25 11 -2 362 18 1
-11 -25 2 388 17 1
-25 11 2 387 19 1
-25 13 -2 76 7 1
-25 13 2 72 7 1
12 -26 -2 0 1 1
-26 -12 -2 1 2 1
12 -26 2 2 1 1
-26 -12 2 2 3 1
-26 -10 -2 101 6 1
10 -26 -2 79 5 1
-26 -10 2 96 6 1
10 -26 2 75 5 1
-26 -8 -2 1 2 1
-26 -8 2 2 2 1
6 -26 -2 83 8 1
-26 -6 -2 79 8 1
6 -26 2 87 8 1
-26 -6 2 83 8 1
-6 26 2 93 11 1
-4 26 -2 140 15 1
-26 -4 -2 143 11 1
4 -26 -2 141 11 1
4 -26 2 144 11 1
-26 -4 2 138 11 1
-4 26 2 120 13 1
2 -26 -2 497 20 1
-26 -2 -2 504 22 1
-26 -2 2 531 22 1
2 -26 2 512 20 1
-2 26 2 462 22 1
-26 0 -2 130 8 1
0 -26 -2 120 9 1
0 -26 2 113 9 1
0 26 2 108 13 1
-26 0 2 135 9 1
-26 0 2 130 8 1
-2 -26 -2 384 15 1
-26 2 -2 356 16 1
-2 -26 2 382 15 1
-26 2 2 371 16 1
-26 2 2 376 16 1
-26 4 -2 71 7 1
-4 -26 -2 68 8 1
-4 -26 2 82 8 1
-26 4 2 61 7 1
-26 6 -2 34 4 1
-26 6 2 31 4 1
-26 8 -2 52 5 1
-8 -26 -2 42 5 1
-8 -26 2 54 5 1
-26 8 2 41 5 1
-26 10 -2 245 13 1
-10 -26 2 233 12 1
-26 10 2 242 13 1
-26 12 2 4 1 1
-26 12 2 2 2 1
9 -27 -2 252 12 1
-27 -9 -2 266 13 1
9 -27 2 241 11 1
-27 -9 2 255 13 1
7 -27 -2 58 5 1
-27 -7 -2 73 6 1
7 -27 2 63 5 1
-27 -7 2 69 6 1
5 -27 -2 37 4 1
5 -27 2 39 4 1
-27 -3 -2 49 5 1
3 -27 -2 44 4 1
-27 -3 2 47 5 1
-27 1 2 31 4 1
-27 1 2 27 3 1
-3 -27 -2 2 1 1
-27 3 -2 1 2 1
-27 3 2 1 2 1
-3 -27 2 0 1 1
-27 3 2 0 2 1
-5 -27 -2 65 4 1
-27 5 2 51 5 1
-5 -27 2 58 5 1
-7 -27 -2 169 10 1
-27 7 -2 155 11 1
-7 -27 2 186 10 1
-27 7 2 138 11 1
-27 7 2 148 11 1
-27 9 -2 91 6 1
-9 -27 -2 98 6 1
-9 -27 2 92 6 1
-27 9 2 106 6 1
-27 9 2 95 7 1
6 -28 -2 9 1 1
-28 -6 2 2 2 1
6 -28 2 2 1 1
-28 -4 -2 288 14 1
4 -28 -2 286 13 1
-28 -4 2 284 14 1
4 -28 2 264 13 1
-28 -2 -2 2 2 1
2 -28 -2 6 1 1
2 -28 2 3 1 1
-28 -2 2 3 2 1
-28 0 -2 39 4 1
0 -28 -2 35 4 1
-28 0 2 27 4 1
0 -28 2 30 4 1
-28 2 -2 512 28 1
-2 -28 -2 543 25 1
-28 2 -2 557 28 1
-28 2 2 521 28 1
-28 2 2 544 28 1
-2 -28 2 519 25 1
-28 4 -2 73 7 1
-4 -28 -2 70 6 1
-28 4 2 79 7 1
-28 4 2 73 8 1
-4 -28 2 65 6 1
-6 -28 -2 53 6 1
-28 6 -2 55 6 1
-6 -28 2 49 6 1
-28 6 2 61 7 1
-28 6 2 59 6 1
1 0 -3 38668 391 1
0 1 -3 38550 391 1
-1 0 -3 37961 391 1
0 -1 3 38264 391 1
2 1 -3 22466 948 1
-2 -1 -3 23160 857 1
-2 -1 -3 22630 856 1
-1 2 -3 23055 856 1
1 -2 3 23108 856 1
2 -3 -3 37591 452 1
-3 -2 -3 37246 453 1
-2 3 -3 38322 453 1
2 -3 -3 38692 453 1
2 -3 3 37859 500 1
-2 3 3 38064 502 1
0 -3 -3 9972 16 1
0 3 -3 9778 16 1
0 -3 -3 9874 16 1
-3 0 -3 9763 16 1
0 -3 3 9892 17 1
0 -3 3 9979 16 1
0 -3 3 9887 16 1
3 0 3 9876 16 1
-3 2 -3 46323 920 1
3 -2 -3 44199 918 1
3 -2 -3 47114 919 1
-2 -3 -3 47683 919 1
-2 -3 3 44221 1017 1
3 -2 3 46172 1017 1
2 3 3 46064 920 1
-3 2 3 44931 919 1
-3 2 3 45314 919 1
-4 -3 -3 1166 4 1
-3 4 3 1168 5 1
3 -4 3 1185 4 1
4 3 3 1160 4 1
-4 -3 3 1149 5 1
-4 -1 -3 9682 253 1
-1 4 -3 9081 252 1
1 -4 -3 9383 253 1
1 -4 3 9135 252 1
4 1 3 9219 253 1
1 -4 3 9277 253 1
-1 -4 -3 11616 156 1
1 4 -3 11139 156 1
4 -1 -3 11359 156 1
-1 -4 -3 11427 156 1
-4 1 -3 11504 156 1
1 4 -3 11478 173 1
1 4 3 11540 157 1
-4 1 3 11849 174 1
4 -1 3 11346 157 1
-1 -4 3 11505 173 1
-3 -4 -3 1459 3 1
-3 -4 -3 1454 3 1
-4 3 -3 1436 3 1
4 -3 -3 1431 3 1
4 -3 3 1432 3 1
-4 3 3 1453 3 1
-3 -4 3 1365 4 1
4 -5 -3 4590 489 1
-5 -4 -3 4571 489 1
-5 -4 -3 5046 490 1
-4 5 3 4674 542 1
-4 5 3 4489 490 1
-5 -2 -3 153 1 1
-5 -2 -3 156 2 1
-2 5 -3 150 2 1
-5 -2 3 139 2 1
5 2 3 170 2 1
2 -5 3 138 2 1
-2 5 3 132 2 1
5 0 -3 31 9 1
0 5 -3 57 10 1
0 -5 -3 30 10 1
-5 0 -3 36 10 1
0 5 -3 51 10 1
0 -5 -3 34 10 1
0 5 3 38 10 1
0 -5 3 53 9 1
5 0 3 41 10 1
0 -5 3 53 9 1
2 5 -3 3258 32 1
-5 2 -3 3348 32 1
-2 -5 -3 3395 32 1
2 5 -3 3309 35 1
-2 -5 -3 3437 32 1
-5 2 3 3360 32 1
-4 -5 -3 265 19 1
-5 4 -3 288 19 1
4 5 3 284 19 1
5 -4 3 237 19 1
5 -4 3 264 21 1
-6 -5 -3 994 109 1
-6 -5 -3 1067 109 1
-5 6 -3 1107 109 1
5 -6 -3 988 109 1
6 5 3 1060 109 1
5 -6 3 1011 121 1
-5 6 3 1096 109 1
3 -6 -3 102 16 1
-6 -3 -3 137 16 1
-6 -3 -3 136 16 1
-6 -3 3 172 18 1
-3 6 3 115 17 1
-6 -1 -3 73 51 1
1 -6 -3 96 51 1
1 -6 -3 118 51 1
-1 6 -3 77 51 1
1 -6 3 84 51 1
-6 -1 3 91 56 1
1 -6 3 95 51 1
-1 6 3 123 51 1
1 6 -3 4 4 1
-1 -6 -3 5 3 1
6 -1 -3 2 3 1
-6 3 -3 12144 583 1
-3 -6 -3 12012 582 1
6 -3 -3 12362 582 1
-6 3 3 11725 581 1
3 6 3 12856 582 1
-6 3 3 11419 581 1
6 -3 3 12331 582 1
-6 3 3 11230 644 1
-6 5 -3 33 16 1
-6 5 3 37 17 1
-6 7 3 119 1 1
7 6 3 104 2 1
6 -7 3 162 1 1
-7 -4 -3 1477 78 1
-7 -4 -3 1420 78 1
4 -7 -3 1570 79 1
4 -7 -3 1555 79 1
-4 7 3 1441 87 1
4 -7 3 1476 78 1
7 4 3 1588 79 1
-7 -2 -3 110 7 1
-2 7 -3 92 7 1
2 -7 -3 80 7 1
2 -7 -3 87 7 1
-7 -2 -3 107 6 1
2 -7 3 96 7 1
-7 -2 3 99 8 1
-2 7 3 81 7 1
0 7 -3 2276 374 1
0 -7 -3 2628 338 1
0 -7 -3 2314 338 1
7 0 -3 2413 337 1
0 7 -3 2512 339 1
0 7 3 2715 339 1
0 -7 3 2353 338 1
0 -7 3 2536 338 1
7 -2 -3 423 77 1
2 7 -3 508 76 1
-2 -7 -3 375 77 1
-2 -7 -3 421 76 1
-7 2 -3 327 77 1
-7 2 3 406 76 1
-7 2 3 439 76 1
7 -4 -3 15 20 1
-4 -7 -3 15 20 1
-4 -7 -3 16 20 1
-7 4 -3 29 20 1
4 7 -3 29 20 1
-4 -7 -3 14 20 1
-7 4 3 19 20 1
4 7 3 21 20 1
-6 -7 -3 447 5 1
-6 -7 -3 438 5 1
-6 -7 -3 455 6 1
-7 6 -3 427 6 1
-7 6 3 421 6 1
-7 6 3 423 6 1
-8 -7 -3 1675 65 1
-7 8 -3 1658 65 1
-7 8 3 1690 65 1
8 7 3 1647 65 1
-7 8 3 1604 72 1
-5 8 -3 936 38 1
-8 -5 -3 941 37 1
-8 -5 -3 880 37 1
5 -8 -3 1027 38 1
-8 -5 -3 871 38 1
-5 8 3 984 38 1
5 -8 3 992 38 1
3 -8 -3 182 2 1
-8 -3 -3 304 1 1
3 -8 3 194 1 1
8 3 3 316 2 1
-3 8 3 184 1 1
-8 -3 3 192 2 1
-3 8 3 180 1 1
8 1 -3 7780 448 1
-8 -1 -3 8154 449 1
1 -8 -3 7969 450 1
-1 8 -3 7550 496 1
1 -8 3 8084 449 1
-1 8 3 8390 450 1
8 1 3 7931 448 1
1 -8 3 7707 448 1
-1 -8 3 114 2 1
-8 3 -3 442 20 1
-3 -8 -3 437 20 1
-3 -8 -3 412 19 1
3 8 -3 434 20 1
-8 3 3 417 19 1
-8 3 3 450 22 1
3 8 3 391 20 1
8 -3 3 424 20 1
-5 -8 -3 2242 113 1
-5 -8 -3 2200 114 1
5 8 -3 2109 114 1
-5 -8 -3 2324 114 1
-8 5 3 2074 126 1
5 8 3 2408 114 1
-8 5 3 2263 114 1
-8 7 -3 62 12 1
-7 -8 -3 58 11 1
7 8 3 57 12 1
-8 7 3 57 12 1
8 -7 3 59 12 1
-9 -8 -3 6205 238 1
8 -9 -3 6375 239 1
-8 9 -3 5937 239 1
-8 9 3 6047 239 1
-6 9 -3 131 3 1
9 6 3 87 3 1
6 -9 3 133 3 1
-6 9 3 159 3 1
-9 -4 -3 1712 46 1
-9 -4 -3 1716 46 1
4 -9 -3 1604 47 1
-9 -4 -3 1704 46 1
4 -9 3 1714 47 1
9 4 3 1637 47 1
-4 9 3 1654 51 1
2 -9 -3 2122 26 1
-9 -2 -3 2121 25 1
-9 -2 -3 2123 26 1
-2 9 -3 2071 26 1
9 2 -3 2206 26 1
2 -9 -3 2174 26 1
2 -9 3 2133 26 1
-2 9 3 2098 26 1
-2 9 3 2084 28 1
9 2 3 2224 26 1
0 -9 -3 290 24 1
0 9 -3 313 24 1
0 -9 -3 302 23 1
9 0 -3 307 23 1
0 9 -3 301 26 1
-9 0 -3 314 23 1
0 9 3 309 24 1
0 -9 3 323 23 1
9 0 3 308 24 1
0 -9 3 329 23 1
-2 -9 -3 2 1 1
-4 -9 -3 23106 828 1
-4 -9 -3 24146 829 1
-9 4 -3 24431 832 1
9 -4 3 22310 830 1
-9 4 3 23786 829 1
4 9 3 23415 829 1
6 9 -3 72 6 1
-6 -9 -3 56 5 1
-6 -9 -3 58 5 1
9 -6 -3 71 6 1
-6 -9 -3 57 5 1
-9 6 3 54 6 1
6 9 3 70 5 1
9 -6 3 77 6 1
-9 8 -3 2567 90 1
9 -8 -3 2375 90 1
-8 -9 -3 2410 90 1
9 -8 3 2616 90 1
8 9 3 2394 90 1
-9 8 3 2535 90 1
-9 8 3 2624 100 1
-9 10 -3 535 39 1
-9 10 -3 506 43 1
-9 10 3 546 38 1
-9 10 3 510 43 1
9 -10 3 535 38 1
10 9 3 519 38 1
-7 10 -3 1271 92 1
7 -10 -3 1294 92 1
-10 -7 -3 1398 91 1
-7 10 3 1388 92 1
5 -10 -3 564 15 1
-5 10 -3 559 15 1
-5 10 3 556 15 1
5 -10 3 564 14 1
-5 10 3 588 16 1
10 3 -3 1067 33 1
-3 10 -3 1072 34 1
-10 -3 -3 1216 33 1
-10 -3 -3 1164 33 1
3 -10 -3 1060 33 1
3 -10 -3 1050 34 1
-3 10 3 1110 37 1
3 -10 3 1052 33 1
-10 -1 -3 2539 125 1
1 -10 -3 2572 126 1
10 1 -3 2522 126 1
1 -10 -3 2412 126 1
-1 10 -3 2465 138 1
-10 -1 -3 2440 125 1
-1 10 -3 2301 138 1
-1 10 -3 2280 126 1
-10 -1 3 2453 139 1
1 -10 3 2422 125 1
-1 10 3 2350 126 1
10 1 3 2561 126 1
-1 -10 -3 873 17 1
10 -1 -3 893 17 1
-1 -10 -3 862 17 1
-10 1 -3 812 17 1
-10 1 3 869 19 1
1 10 3 896 17 1
-10 3 -3 1480 42 1
-3 -10 -3 1474 42 1
10 -3 -3 1461 42 1
-3 -10 -3 1507 42 1
-10 3 3 1488 41 1
-10 3 3 1416 46 1
3 10 3 1519 42 1
-10 3 3 1489 41 1
-5 -10 -3 13617 443 1
-10 5 -3 13695 446 1
10 -5 -3 14382 444 1
-5 -10 -3 13603 444 1
5 10 -3 13874 443 1
-5 -10 -3 12978 443 1
10 -5 3 14342 445 1
5 10 3 13924 444 1
-10 5 3 14132 445 1
10 -7 -3 0 1 1
-7 -10 -3 2 2 1
-10 7 -3 1 2 1
-10 7 3 1 2 1
-10 7 3 1 2 1
10 -7 3 1 2 1
-9 -10 -3 8208 405 1
-10 9 -3 8172 407 1
10 -9 -3 7719 405 1
-10 9 3 7710 448 1
-10 9 3 8661 408 1
10 -9 3 8418 406 1
-10 9 3 8756 449 1
9 10 3 8690 405 1
-10 11 -3 1650 61 1
-10 11 -3 1710 55 1
-11 -10 -3 1735 54 1
10 -11 -3 1756 55 1
10 -11 3 1670 55 1
-10 11 3 1730 60 1
-10 11 3 1668 61 1
-10 11 3 1629 55 1
-8 11 -3 2164 104 1
-11 -8 -3 2226 93 1
8 -11 -3 2081 93 1
-8 11 3 2255 94 1
-8 11 3 2082 103 1
-8 11 3 2118 104 1
8 -11 3 2216 94 1
-11 -6 -3 4251 174 1
6 -11 -3 4510 175 1
-6 11 -3 4615 175 1
6 -11 3 4607 174 1
11 6 3 4535 175 1
-6 11 3 4343 193 1
-11 -4 -3 178 31 1
4 -11 -3 178 31 1
-4 11 -3 150 31 1
4 -11 3 145 31 1
-4 11 3 162 31 1
-4 11 3 187 34 1
11 4 3 199 31 1
-2 11 -3 2191 76 1
-11 -2 -3 2312 75 1
11 2 -3 2227 76 1
2 -11 -3 2097 76 1
-11 -2 -3 2388 75 1
-11 -2 -3 2329 75 1
2 -11 -3 2070 76 1
-2 11 3 2216 84 1
-2 11 3 2090 76 1
11 2 3 2206 76 1
2 -11 3 2143 75 1
-11 0 -3 1753 94 1
0 11 -3 1762 94 1
0 -11 -3 1873 94 1
0 -11 -3 1941 94 1
-11 0 3 1913 105 1
0 -11 3 1851 94 1
0 11 3 1837 94 1
0 -11 3 1878 94 1
11 0 3 1953 95 1
-2 -11 -3 4310 116 1
-2 -11 -3 4479 117 1
-11 2 -3 4334 117 1
11 -2 3 4567 117 1
2 11 3 4296 117 1
-11 2 3 4240 129 1
-4 -11 -3 2474 58 1
4 11 -3 2555 58 1
-11 4 -3 2413 58 1
11 -4 -3 2401 59 1
-4 -11 -3 2441 58 1
-4 -11 -3 2534 58 1
-11 4 3 2448 58 1
4 11 3 2439 58 1
-11 4 3 2452 58 1
11 -4 3 2344 59 1
6 11 -3 186 6 1
11 -6 -3 174 6 1
-6 -11 -3 184 6 1
11 -6 3 196 6 1
6 11 3 172 6 1
-11 8 -3 6440 247 1
-11 8 -3 6616 273 1
-11 8 3 6934 246 1
11 -8 3 7093 247 1
-11 8 3 6871 273 1
-11 10 -3 460 39 1
-10 -11 -3 475 34 1
-11 10 3 463 38 1
-11 10 3 429 35 1
10 11 3 468 35 1
-12 -11 -3 48 4 1
11 -12 -3 47 5 1
-11 12 -3 40 5 1
-11 12 3 44 4 1
-11 12 3 33 6 1
-11 12 3 47 5 1
-12 -9 -3 1977 80 1
-9 12 -3 1893 80 1
-9 12 -3 1844 89 1
-9 12 3 2101 88 1
-12 -9 3 1893 90 1
-9 12 3 1937 80 1
9 -12 3 2027 80 1
-7 12 -3 4 7 1
-12 -7 -3 17 6 1
-7 12 -3 5 9 1
7 -12 -3 15 6 1
12 7 3 23 7 1
-7 12 3 11 8 1
-7 12 3 8 6 1
7 -12 3 16 6 1
5 -12 -3 1730 72 1
-12 -5 -3 1746 71 1
12 5 3 1717 72 1
5 -12 3 1781 72 1
-5 12 3 1891 79 1
-5 12 3 1743 72 1
-5 12 3 1846 80 1
-3 12 -3 2311 145 1
3 -12 -3 2244 145 1
-12 -3 -3 2434 144 1
3 -12 3 2234 144 1
-3 12 3 2374 145 1
1 -12 -3 137 14 1
-12 -1 -3 129 13 1
12 1 -3 133 14 1
-12 -1 -3 125 13 1
-1 12 -3 155 14 1
1 -12 3 162 13 1
-1 12 3 132 14 1
-12 -1 3 142 15 1
12 1 3 126 14 1
-1 -12 -3 5139 197 1
1 12 -3 5088 197 1
-1 -12 -3 4883 197 1
-12 1 -3 5170 197 1
12 -1 3 4957 197 1
1 12 3 5040 197 1
-12 3 -3 53 1 1
-3 -12 -3 48 1 1
-12 3 -3 53 2 1
12 -3 -3 49 1 1
-3 -12 -3 62 1 1
-12 3 3 54 1 1
12 -3 3 58 1 1
3 12 3 62 1 1
-12 5 -3 122 3 1
-5 -12 -3 140 3 1
-12 5 -3 109 6 1
-12 5 3 132 4 1
-12 5 3 129 3 1
-12 7 -3 2524 126 1
-7 -12 -3 2787 113 1
-12 7 -3 2727 114 1
-12 7 3 2553 126 1
12 -7 3 2541 114 1
-12 7 3 2697 113 1
7 12 3 2671 114 1
-12 9 -3 1264 88 1
12 -9 -3 1225 79 1
-12 9 -3 1234 79 1
-12 9 3 1154 79 1
9 12 3 1281 79 1
-11 -12 -3 1316 45 1
-12 11 -3 1380 51 1
-12 11 3 1302 50 1
12 -11 3 1278 47 1
-12 11 3 1342 46 1
11 12 3 1281 46 1
-12 13 -3 2397 86 1
-13 -12 -3 2393 86 1
12 -13 -3 2359 86 1
-12 13 -3 2384 95 1
-12 13 3 2255 95 1
-13 -12 3 2347 96 1
-12 13 3 2299 86 1
-12 13 3 2260 95 1
12 -13 3 2243 87 1
-13 -10 -3 1089 41 1
-10 13 -3 1141 42 1
-10 13 -3 1084 46 1
10 -13 -3 1066 43 1
-10 13 3 1162 46 1
-10 13 3 1074 41 1
10 -13 3 1045 42 1
10 -13 3 1059 41 1
-8 13 -3 2 2 1
-13 -8 -3 6 3 1
8 -13 -3 5 3 1
-8 13 -3 1 2 1
8 -13 3 2 3 1
13 8 3 6 2 1
-8 13 3 7 5 1
-13 -8 3 13 9 1
8 -13 3 3 3 1
-8 13 3 1 2 1
-6 13 -3 110 7 1
-6 13 -3 86 10 1
-13 -6 -3 110 7 1
-6 13 3 99 7 1
-6 13 3 102 8 1
-4 13 -3 780 21 1
4 -13 -3 798 20 1
-13 -4 3 774 25 1
-4 13 3 800 21 1
4 -13 3 817 20 1
-4 13 3 853 23 1
13 4 3 842 21 1
-13 -2 -3 269 3 1
-2 13 -3 255 3 1
2 -13 -3 233 2 1
13 2 -3 300 4 1
2 -13 3 252 2 1
-2 13 3 219 3 1
13 2 3 282 3 1
-13 0 -3 769 22 1
0 -13 -3 779 22 1
-13 0 -3 754 21 1
0 13 -3 715 22 1
0 13 -3 731 23 1
0 -13 -3 738 21 1
0 13 3 732 22 1
13 0 3 811 22 1
-13 0 3 687 25 1
0 -13 3 732 21 1
0 -13 3 740 21 1
-13 2 -3 12010 578 1
13 -2 -3 13158 522 1
-2 -13 -3 13210 522 1
-2 -13 -3 12962 522 1
2 13 3 12486 522 1
13 -4 -3 238 6 1
4 13 -3 214 6 1
-4 -13 -3 195 6 1
-13 4 -3 181 5 1
-13 4 -3 176 8 1
-4 -13 -3 203 5 1
4 13 3 200 6 1
-13 4 3 244 7 1
13 -4 3 196 6 1
-13 4 3 251 8 1
-13 6 -3 104 7 1
-6 -13 -3 97 5 1
6 13 3 105 5 1
-13 6 3 105 5 1
-8 -13 -3 5 3 1
-13 8 3 5 5 1
-13 8 3 5 3 1
-13 8 3 3 5 1
8 13 3 8 4 1
-13 10 -3 5516 241 1
13 -10 -3 5463 241 1
-10 -13 -3 5554 241 1
-13 10 3 5421 241 1
10 13 3 5747 241 1
-12 -13 -3 5019 198 1
-13 12 -3 5159 216 1
-13 12 -3 4974 195 1
13 -12 -3 4941 195 1
13 -12 3 5040 195 1
13 -12 3 4841 197 1
-13 12 3 5246 215 1
-13 14 -3 3 2 1
-13 14 -3 3 2 1
13 -14 -3 7 4 1
-13 14 3 3 2 1
13 -14 3 1 2 1
13 -14 3 0 3 1
11 -14 -3 450 12 1
-11 14 -3 398 13 1
-11 14 -3 405 14 1
11 -14 3 400 14 1
-11 14 3 399 12 1
11 -14 3 406 12 1
-9 14 -3 144 14 1
-9 14 -3 145 13 1
9 -14 3 150 14 1
-9 14 3 154 13 1
-9 14 3 150 14 1
-14 -9 3 164 16 1
-9 14 3 133 12 1
7 -14 -3 9209 325 1
-7 14 -3 8885 326 1
7 -14 -3 9304 329 1
-14 -7 -3 9224 325 1
-7 14 -3 8900 360 1
-7 14 3 9797 360 1
7 -14 3 8823 329 1
-7 14 3 9329 361 1
-14 -5 -3 4802 169 1
5 -14 -3 5010 170 1
-5 14 -3 4758 170 1
5 -14 3 4868 172 1
-14 -5 3 4561 189 1
5 -14 3 4676 170 1
-3 14 -3 57 4 1
-14 -3 -3 47 6 1
-14 -3 3 59 8 1
14 3 3 33 4 1
-3 14 3 42 4 1
3 -14 3 70 3 1
1 -14 -3 2336 82 1
-14 -1 -3 2277 81 1
-14 -1 -3 2199 91 1
-1 14 3 2338 90 1
1 -14 3 2278 81 1
-1 14 3 2227 82 1
14 1 3 2187 82 1
14 -1 -3 549 31 1
-14 1 -3 657 30 1
-1 -14 -3 534 30 1
-14 1 -3 636 35 1
1 14 -3 566 30 1
-14 1 -3 631 30 1
14 -1 3 663 31 1
-14 1 3 575 34 1
1 14 3 582 30 1
3 14 -3 2315 126 1
14 -3 -3 2172 126 1
-3 -14 -3 2190 126 1
-3 -14 -3 2339 126 1
-14 3 -3 2041 126 1
3 14 3 2212 126 1
-14 3 3 2363 140 1
-14 3 3 2280 140 1
5 14 -3 514 19 1
-5 -14 -3 489 21 1
-14 5 -3 503 19 1
14 -5 -3 516 19 1
-5 -14 -3 480 19 1
14 -5 3 519 19 1
5 14 3 505 19 1
-7 -14 -3 785 24 1
14 -7 -3 754 25 1
-14 7 -3 761 24 1
-14 7 3 818 28 1
7 14 3 804 25 1
-14 7 3 737 27 1
14 -9 -3 3343 142 1
-9 -14 -3 3270 141 1
-9 -14 -3 3047 144 1
-14 9 -3 3410 142 1
-14 9 -3 3247 157 1
9 14 3 3370 142 1
-14 9 3 3425 157 1
-9 -14 3 3059 144 1
-14 9 3 3177 157 1
-14 9 3 3443 141 1
-14 11 -3 95 6 1
14 -11 -3 94 6 1
-11 -14 -3 96 10 1
-11 -14 -3 88 5 1
-14 11 3 87 5 1
14 -11 3 71 11 1
-14 11 3 90 7 1
14 -11 3 98 6 1
-14 13 -3 649 21 1
14 -13 3 676 21 1
14 -13 3 627 22 1
-14 13 3 681 23 1
-14 13 3 652 20 1
14 -15 -3 28 2 1
-14 15 -3 34 2 1
14 -15 -3 48 4 1
-14 15 -3 50 2 1
14 -15 3 35 2 1
-14 15 3 27 2 1
-15 -14 3 28 4 1
14 -15 3 35 3 1
-14 15 3 33 2 1
12 -15 -3 282 17 1
12 -15 -3 286 14 1
-12 15 -3 305 16 1
-12 15 -3 280 14 1
12 -15 3 283 14 1
-12 15 3 278 14 1
-12 15 3 310 16 1
12 -15 3 297 15 1
-15 -12 3 287 18 1
10 -15 -3 2669 116 1
-10 15 -3 2676 129 1
10 -15 -3 2686 118 1
-10 15 -3 2665 117 1
-10 15 3 2707 129 1
-10 15 3 2812 117 1
-15 -10 3 2844 130 1
10 -15 3 2642 118 1
10 -15 3 2775 116 1
-8 15 -3 3335 107 1
-15 -8 -3 3306 119 1
-8 15 -3 3387 118 1
8 -15 -3 3519 107 1
8 -15 -3 3327 108 1
-8 15 3 3234 107 1
8 -15 3 3447 106 1
-15 -8 3 3451 119 1
-8 15 3 3313 118 1
-6 15 -3 5291 171 1
-15 -6 -3 5395 190 1
6 -15 -3 5043 173 1
6 -15 -3 4984 171 1
15 6 3 5025 171 1
6 -15 3 5002 173 1
6 -15 3 5398 170 1
-6 15 3 5321 188 1
-4 15 -3 4459 195 1
4 -15 -3 4245 197 1
-15 -4 -3 4586 216 1
4 -15 -3 4464 194 1
15 4 3 4151 194 1
4 -15 3 4262 197 1
4 -15 3 4419 194 1
-4 15 3 4262 194 1
-4 15 3 4562 215 1
-15 -2 -3 267 17 1
-2 15 -3 277 14 1
2 -15 -3 307 13 1
2 -15 -3 302 15 1
2 -15 3 262 15 1
-2 15 3 304 15 1
-2 15 3 290 14 1
-15 0 -3 2193 69 1
15 0 -3 2186 70 1
-15 0 -3 2156 78 1
0 -15 -3 2035 69 1
0 -15 -3 2049 71 1
0 15 3 2187 70 1
15 0 3 2112 70 1
0 15 3 2070 77 1
0 -15 3 2090 71 1
15 -2 -3 1143 55 1
-2 -15 -3 1005 56 1
-15 2 -3 1094 54 1
2 15 -3 1057 55 1
15 -2 3 1070 55 1
2 15 3 1038 55 1
-15 2 3 1140 62 1
-15 4 -3 239 7 1
4 15 -3 222 8 1
15 -4 -3 251 9 1
-4 -15 -3 244 10 1
-15 4 -3 239 10 1
-4 -15 3 228 11 1
4 15 3 226 8 1
-15 4 3 235 10 1
15 -6 -3 2839 92 1
-15 6 -3 3027 92 1
-6 -15 -3 2915 92 1
-15 6 -3 2966 103 1
-6 -15 -3 2978 94 1
-6 -15 3 2816 94 1
-15 6 3 2897 102 1
15 -8 -3 320 14 1
-15 8 -3 285 13 1
-8 -15 -3 331 15 1
-15 8 3 303 12 1
-8 -15 3 319 16 1
-15 8 3 307 15 1
8 15 3 329 13 1
15 -8 3 284 14 1
-15 10 -3 357 19 1
15 -10 -3 422 19 1
-10 -15 -3 388 21 1
-15 10 3 379 21 1
-15 10 3 391 18 1
15 -10 3 395 19 1
-15 10 3 416 21 1
10 15 3 358 19 1
-10 -15 3 356 22 1
15 -12 -3 30 5 1
-15 12 -3 40 5 1
-15 12 -3 39 6 1
-12 -15 -3 59 10 1
-15 12 3 37 5 1
-15 12 3 29 6 1
15 -12 3 49 6 1
15 -12 3 46 10 1
-15 14 -3 1640 62 1
15 -14 -3 1570 56 1
-15 14 -3 1657 56 1
-15 14 3 1635 56 1
-14 -15 3 1618 63 1
15 -14 3 1646 56 1
-15 14 3 1603 62 1
-15 16 -3 2 2 1
15 -16 -3 1 3 1
-15 16 -3 2 2 1
15 -16 3 2 3 1
15 -16 3 1 2 1
-15 16 3 8 2 1
-15 16 3 8 2 1
-16 -15 3 0 4 1
13 -16 -3 286 10 1
-13 16 -3 271 10 1
13 -16 3 281 10 1
13 -16 3 279 11 1
-13 16 3 259 9 1
-16 -13 3 290 14 1
-13 16 3 269 11 1
-11 16 -3 264 16 1
-16 -11 -3 252 17 1
11 -16 -3 267 16 1
-11 16 -3 253 15 1
11 -16 -3 276 14 1
-16 -11 3 236 18 1
11 -16 3 280 14 1
11 -16 3 260 15 1
-11 16 3 284 14 1
9 -16 -3 685 25 1
9 -16 -3 727 27 1
-9 16 -3 748 29 1
-9 16 -3 714 26 1
9 -16 3 699 25 1
-9 16 3 695 25 1
-16 -9 3 759 30 1
9 -16 3 723 26 1
7 -16 -3 82 5 1
-7 16 -3 85 6 1
-7 16 3 87 5 1
7 -16 3 85 6 1
7 -16 3 72 4 1
-5 16 -3 78 7 1
-16 -5 -3 92 8 1
5 -16 -3 89 6 1
5 -16 -3 68 8 1
-5 16 3 94 7 1
-5 16 3 83 6 1
5 -16 3 105 7 1
-16 -5 3 85 9 1
5 -16 3 86 5 1
16 5 3 89 7 1
3 -16 -3 3645 129 1
-3 16 -3 4103 127 1
-16 -3 -3 3910 141 1
-3 16 3 3720 127 1
-3 16 3 3851 140 1
3 -16 3 3817 126 1
3 -16 3 3707 128 1
1 -16 -3 754 30 1
-1 16 -3 732 29 1
1 -16 -3 750 28 1
16 1 3 723 29 1
-1 16 3 763 31 1
1 -16 3 718 30 1
-16 -1 3 737 33 1
-1 -16 -3 307 18 1
-1 -16 -3 302 20 1
16 -1 -3 330 20 1
1 16 3 315 19 1
-1 -16 3 302 20 1
-16 3 -3 3933 159 1
16 -3 -3 4325 144 1
-16 3 -3 4211 142 1
-3 -16 -3 4291 142 1
-3 -16 -3 4028 145 1
3 16 -3 4145 143 1
3 16 3 4043 143 1
-3 -16 3 4102 145 1
16 -3 3 4167 144 1
-5 -16 -3 6614 243 1
16 -5 -3 6991 240 1
-16 5 -3 6418 239 1
-5 -16 3 6545 243 1
16 -5 3 6290 240 1
5 16 3 6683 240 1
-16 5 3 7006 266 1
-7 -16 -3 8481 373 1
16 -7 -3 8878 369 1
-16 7 -3 8743 368 1
-16 7 3 8407 408 1
7 16 3 8855 369 1
-7 -16 3 8823 373 1
-16 9 -3 2804 122 1
16 -9 -3 2859 123 1
-9 -16 -3 2810 124 1
-16 9 3 2763 136 1
-9 -16 3 2740 124 1
16 -9 3 2897 123 1
9 16 3 2690 122 1
-16 11 -3 5717 215 1
-16 11 -3 5882 239 1
-16 11 3 6054 239 1
16 -11 3 5917 216 1
-16 11 3 6048 215 1
-16 13 -3 463 23 1
-16 13 -3 445 26 1
-16 13 3 463 23 1
-16 13 3 473 26 1
16 -15 -3 29 6 1
-16 15 -3 35 7 1
-16 15 -3 35 6 1
16 -15 3 38 7 1
-16 15 3 45 7 1
-16 15 3 33 6 1
-15 -16 3 43 13 1
16 -15 3 49 9 1
-16 17 -3 157 11 1
16 -17 -3 146 10 1
-16 17 -3 162 10 1
-17 -16 -3 159 12 1
-16 17 3 170 10 1
16 -17 3 147 11 1
16 -17 3 171 9 1
-16 17 3 150 10 1
14 -17 -3 1473 56 1
-14 17 -3 1429 62 1
-14 17 -3 1430 57 1
14 -17 -3 1370 57 1
-17 -14 -3 1458 63 1
-17 -14 3 1483 63 1
-14 17 3 1399 62 1
14 -17 3 1460 57 1
-14 17 3 1406 56 1
14 -17 3 1453 56 1
-12 17 -3 1 2 1
-12 17 -3 3 3 1
-17 -12 -3 1 3 1
12 -17 -3 4 3 1
12 -17 -3 0 2 1
12 -17 3 3 2 1
-17 -12 3 3 4 1
12 -17 3 1 2 1
-12 17 3 1 2 1
10 -17 -3 2669 102 1
-10 17 -3 2718 102 1
10 -17 -3 2602 103 1
-10 17 3 2886 102 1
10 -17 3 2739 101 1
-17 -10 3 2753 113 1
-17 -8 -3 926 36 1
8 -17 -3 974 31 1
8 -17 -3 959 32 1
-8 17 -3 920 32 1
8 -17 3 944 32 1
8 -17 3 910 31 1
-17 -8 3 1035 36 1
-8 17 3 979 31 1
6 -17 -3 3299 109 1
-17 -6 -3 3111 121 1
-6 17 -3 3239 109 1
6 -17 3 3217 110 1
6 -17 3 3208 108 1
-6 17 3 3257 109 1
-17 -6 3 3072 121 1
-4 17 -3 1994 61 1
4 -17 -3 2031 62 1
4 -17 -3 1928 60 1
17 4 3 2014 61 1
-4 17 3 2053 61 1
4 -17 3 2021 62 1
4 -17 3 1953 60 1
-17 -4 3 1953 68 1
2 -17 -3 689 28 1
2 -17 -3 693 30 1
-2 17 3 683 31 1
-2 17 3 675 29 1
17 2 3 696 29 1
2 -17 3 694 30 1
-17 -2 3 682 33 1
0 -17 -3 3052 119 1
0 -17 -3 3005 121 1
-17 0 3 2881 133 1
17 0 3 3156 120 1
0 17 3 3014 120 1
0 -17 3 2983 121 1
-2 -17 -3 2462 112 1
-17 2 -3 2413 123 1
2 17 -3 2563 111 1
17 -2 -3 2495 111 1
-2 -17 -3 2420 109 1
2 17 3 2455 110 1
-2 -17 3 2421 112 1
-17 2 3 2534 123 1
-17 4 -3 1069 44 1
4 17 -3 1058 46 1
-4 -17 -3 1020 46 1
17 -4 3 1063 45 1
-4 -17 3 1012 46 1
-17 6 -3 1635 75 1
-6 -17 -3 1721 77 1
17 -6 -3 1635 76 1
-17 6 3 1605 84 1
-6 -17 3 1714 77 1
-17 8 -3 466 29 1
-8 -17 -3 479 31 1
17 -8 -3 489 30 1
-8 -17 3 453 31 1
8 17 3 461 30 1
17 -8 3 444 30 1
-17 10 -3 3716 172 1
17 -10 -3 3708 155 1
-10 -17 -3 3833 158 1
-17 10 -3 4008 155 1
-17 10 3 3845 172 1
-10 -17 3 3793 157 1
-12 -17 -3 94 9 1
-17 12 -3 83 5 1
17 -12 -3 86 7 1
-17 12 -3 100 7 1
-17 12 3 85 4 1
-17 12 3 76 7 1
17 -12 3 101 6 1
17 -14 -3 5 3 1
-17 14 -3 9 2 1
-17 14 -3 5 2 1
17 -14 3 15 3 1
-17 14 3 17 2 1
17 -14 3 6 2 1
-17 14 3 3 2 1
-17 16 -3 75 8 1
-17 16 -3 67 7 1
17 -16 -3 84 8 1
-16 -17 -3 65 10 1
-17 16 3 75 8 1
17 -16 3 82 7 1
17 -16 3 79 10 1
17 -18 -3 72 7 1
-17 18 -3 74 7 1
-17 18 -3 77 7 1
-18 -17 -3 73 9 1
-17 18 3 51 8 1
17 -18 3 82 6 1
17 -18 3 76 9 1
15 -18 -3 151 9 1
-15 18 -3 165 9 1
15 -18 -3 151 13 1
-15 18 -3 159 10 1
-18 -15 -3 172 12 1
-15 18 3 148 9 1
-18 -15 3 161 14 1
15 -18 3 169 10 1
15 -18 3 178 9 1
13 -18 -3 10 3 1
-18 -13 -3 6 3 1
13 -18 -3 24 2 1
-18 -13 3 28 4 1
-13 18 3 12 2 1
13 -18 3 9 2 1
13 -18 3 22 2 1
11 -18 -3 105 7 1
-18 -11 -3 97 10 1
11 -18 -3 100 10 1
-11 18 -3 97 8 1
-11 18 3 97 8 1
11 -18 3 104 7 1
11 -18 3 110 9 1
9 -18 -3 2802 104 1
9 -18 -3 2972 106 1
-18 -9 -3 2841 117 1
-9 18 -3 2834 105 1
-9 18 3 2856 105 1
9 -18 3 2972 106 1
9 -18 3 2898 104 1
7 -18 -3 1405 63 1
-7 18 -3 1361 64 1
7 -18 -3 1449 65 1
7 -18 3 1369 63 1
-7 18 3 1430 64 1
-18 -7 3 1412 72 1
5 -18 -3 533 17 1
-5 18 -3 543 16 1
5 -18 -3 491 15 1
-18 -5 -3 485 18 1
5 -18 3 507 15 1
5 -18 3 500 16 1
-5 18 3 516 16 1
-18 -5 3 514 19 1
3 -18 -3 1247 52 1
3 -18 -3 1335 54 1
-18 -3 3 1296 59 1
3 -18 3 1299 54 1
-3 18 3 1228 53 1
18 3 3 1251 53 1
1 -18 -3 2582 103 1
1 -18 -3 2556 100 1
-1 18 -3 2434 101 1
-1 18 3 2415 101 1
1 -18 3 2623 103 1
18 1 3 2378 101 1
-18 -1 3 2694 113 1
-1 -18 -3 2180 65 1
-18 1 -3 2112 74 1
-1 -18 -3 2263 68 1
1 18 3 2171 67 1
18 -1 3 2291 67 1
1 18 3 2256 73 1
-1 -18 3 2310 68 1
3 18 -3 999 27 1
-18 3 -3 976 30 1
-3 -18 -3 1084 28 1
-3 -18 3 1019 28 1
3 18 3 1017 27 1
18 -3 3 1031 28 1
18 -5 -3 405 17 1
-18 5 -3 372 18 1
-5 -18 -3 408 17 1
-18 5 3 419 18 1
18 -5 3 372 16 1
5 18 3 403 16 1
-5 -18 3 390 17 1
-18 7 -3 501 19 1
18 -7 -3 559 22 1
-7 -18 -3 520 22 1
18 -7 3 497 21 1
-18 7 3 508 23 1
-7 -18 3 512 22 1
7 18 3 514 21 1
-18 9 -3 1454 63 1
-18 9 -3 1468 71 1
-9 -18 -3 1547 66 1
18 -9 -3 1502 65 1
-18 9 3 1549 72 1
-18 11 -3 554 21 1
18 -11 -3 575 22 1
-11 -18 -3 546 23 1
-18 11 -3 543 24 1
18 -11 3 572 22 1
-11 -18 3 527 23 1
-18 11 3 510 24 1
18 -13 -3 5 3 1
-18 13 -3 2 2 1
-18 13 -3 3 2 1
18 -13 3 2 2 1
-13 -18 3 6 5 1
-18 13 3 0 2 1
-18 15 -3 38 6 1
18 -15 -3 17 7 1
-18 15 -3 39 6 1
-18 15 3 29 6 1
18 -15 3 26 6 1
18 -17 -3 0 3 1
-17 -18 -3 1 3 1
-18 17 -3 6 3 1
-18 17 -3 6 2 1
18 -17 3 0 4 1
-18 17 3 5 2 1
18 -17 3 1 3 1
-18 19 -3 55 9 1
-19 -18 -3 56 7 1
18 -19 -3 57 8 1
18 -19 3 52 8 1
18 -19 3 70 7 1
16 -19 -3 234 9 1
-19 -16 -3 246 11 1
-16 19 -3 231 9 1
16 -19 3 242 8 1
-16 19 3 214 10 1
16 -19 3 258 10 1
-14 19 -3 344 18 1
14 -19 -3 392 17 1
-19 -14 -3 372 20 1
14 -19 -3 363 19 1
-19 -14 3 317 21 1
14 -19 3 370 17 1
14 -19 3 388 18 1
-14 19 3 360 17 1
12 -19 -3 32 5 1
-12 19 -3 26 6 1
12 -19 -3 30 8 1
-12 19 3 30 5 1
12 -19 3 30 5 1
10 -19 -3 1947 69 1
-10 19 -3 1929 68 1
10 -19 -3 1860 67 1
-10 19 3 1860 68 1
10 -19 3 1913 67 1
-19 -10 3 1814 76 1
8 -19 -3 81 6 1
8 -19 -3 95 8 1
-8 19 -3 83 8 1
-19 -8 -3 70 9 1
8 -19 3 69 7 1
8 -19 3 82 6 1
-8 19 3 92 7 1
-19 -8 3 88 10 1
-19 -6 -3 2 3 1
6 -19 -3 1 3 1
6 -19 3 2 2 1
-6 19 3 3 5 1
-19 -6 3 3 4 1
4 -19 -3 587 26 1
-19 -4 -3 503 30 1
-4 19 -3 570 27 1
4 -19 3 597 28 1
-19 -4 3 513 30 1
-4 19 3 613 27 1
-2 19 -3 285 10 1
2 -19 -3 270 8 1
2 -19 -3 272 11 1
-2 19 3 279 10 1
-19 -2 3 300 12 1
0 19 -3 1068 42 1
0 -19 -3 1060 43 1
0 -19 -3 1082 40 1
0 -19 3 1132 43 1
19 0 3 1073 42 1
-19 0 3 1146 47 1
0 19 3 1082 42 1
-2 -19 -3 276 9 1
2 19 -3 266 9 1
-19 2 -3 279 9 1
2 19 3 246 8 1
-19 2 3 251 9 1
-2 -19 3 270 8 1
19 -4 -3 697 23 1
4 19 3 676 22 1
19 -4 3 681 23 1
-19 4 3 644 24 1
-19 6 -3 9503 405 1
-6 -19 -3 9899 370 1
19 -6 3 9715 366 1
-6 -19 3 10038 370 1
6 19 3 9546 366 1
19 -8 -3 603 33 1
-8 -19 -3 673 34 1
-19 8 -3 668 36 1
-8 -19 3 678 34 1
-19 8 3 626 36 1
19 -8 3 638 33 1
-10 -19 -3 426 19 1
-19 10 -3 401 20 1
19 -10 -3 447 19 1
-19 10 -3 399 16 1
19 -10 3 377 18 1
-19 10 3 431 20 1
-10 -19 3 400 19 1
-12 -19 -3 220 12 1
-19 12 -3 209 10 1
19 -12 -3 177 10 1
-19 12 -3 234 8 1
-12 -19 3 184 13 1
-19 12 3 202 10 1
19 -12 3 214 10 1
-19 14 -3 130 11 1
19 -14 -3 143 12 1
-19 14 -3 128 10 1
-19 14 3 131 11 1
19 -14 3 147 11 1
-19 16 -3 703 31 1
-19 16 -3 702 34 1
-16 -19 -3 686 35 1
19 -16 -3 684 32 1
19 -16 3 714 31 1
-19 16 3 764 35 1
-18 -19 -3 4 3 1
-19 18 -3 4 2 1
-19 18 -3 4 4 1
19 -18 -3 2 3 1
19 -18 3 12 3 1
-20 -19 -3 10 3 1
-19 20 3 14 2 1
-17 20 -3 189 12 1
17 -20 -3 190 11 1
17 -20 3 187 10 1
-17 20 3 213 11 1
17 -20 3 193 10 1
15 -20 -3 21 9 1
-20 -15 -3 17 8 1
15 -20 -3 18 5 1
15 -20 3 17 7 1
-15 20 3 15 7 1
13 -20 -3 124 6 1
13 -20 -3 95 9 1
-13 20 -3 123 7 1
-20 -13 -3 114 9 1
13 -20 3 121 8 1
13 -20 3 122 6 1
-13 20 3 98 7 1
-20 -13 3 128 11 1
-20 -11 -3 576 24 1
11 -20 -3 560 20 1
11 -20 -3 540 21 1
-11 20 -3 546 21 1
-11 20 3 531 21 1
11 -20 3 557 20 1
11 -20 3 529 21 1
9 -20 -3 348 20 1
9 -20 -3 362 22 1
-9 20 -3 332 22 1
-20 -9 -3 386 25 1
9 -20 3 343 20 1
-9 20 3 341 21 1
9 -20 3 346 21 1
-20 -9 3 350 25 1
-7 20 -3 391 18 1
7 -20 -3 402 16 1
7 -20 -3 378 17 1
-20 -7 -3 412 20 1
7 -20 3 390 17 1
7 -20 3 386 15 1
-7 20 3 391 17 1
5 -20 -3 3253 118 1
-5 20 -3 3418 117 1
5 -20 -3 3351 116 1
5 -20 3 3357 118 1
-20 -5 3 3165 130 1
-5 20 3 3365 117 1
-20 -3 -3 714 34 1
-3 20 -3 688 30 1
3 -20 -3 696 29 1
3 -20 -3 752 31 1
3 -20 3 692 30 1
-3 20 3 665 30 1
-20 -3 3 708 34 1
1 -20 -3 91 4 1
-20 -1 -3 88 8 1
-1 20 -3 89 7 1
1 -20 -3 85 7 1
20 1 3 74 9 1
-20 -1 3 69 8 1
-1 20 3 85 6 1
1 -20 3 101 7 1
-20 1 -3 110 9 1
-1 -20 -3 101 8 1
1 20 -3 88 9 1
1 20 3 108 8 1
-20 1 3 83 8 1
-1 -20 3 95 8 1
20 -1 3 75 9 1
-3 -20 -3 2391 89 1
-3 -20 3 2415 88 1
3 20 3 2384 87 1
20 -3 3 2281 88 1
-5 -20 -3 30 7 1
20 -5 -3 24 10 1
5 20 3 30 8 1
-5 -20 3 20 8 1
-20 5 3 19 7 1
20 -5 3 28 9 1
-7 -20 -3 3330 134 1
-20 7 -3 3166 147 1
-20 7 3 3152 147 1
7 20 3 3019 132 1
20 -7 3 3133 133 1
-7 -20 3 3284 134 1
-9 -20 -3 3016 123 1
-20 9 -3 2898 135 1
-20 9 3 3119 135 1
-9 -20 3 3046 123 1
20 -9 3 2958 122 1
-11 -20 -3 30 9 1
-20 11 -3 27 7 1
-20 11 3 28 6 1
-11 -20 3 35 9 1
20 -13 -3 635 28 1
-20 13 -3 693 30 1
-20 13 3 732 30 1
20 -13 3 715 28 1
-13 -20 3 660 29 1
-20 15 -3 30 6 1
20 -15 -3 33 8 1
-20 15 3 23 6 1
20 -15 3 44 6 1
-20 17 -3 473 18 1
20 -17 -3 432 18 1
-17 -20 -3 477 19 1
-20 17 3 470 19 1
20 -17 3 450 18 1
-19 -20 -3 162 11 1
-20 19 3 182 10 1
-21 -18 -3 105 7 1
-18 21 3 94 7 1
-16 21 -3 287 16 1
16 -21 -3 298 15 1
-21 -16 -3 327 16 1
16 -21 3 338 15 1
-14 21 -3 5 3 1
14 -21 -3 10 3 1
14 -21 3 11 3 1
-21 -14 3 18 3 1
-14 21 3 9 3 1
-21 -12 -3 148 10 1
12 -21 -3 135 9 1
12 -21 -3 156 7 1
-12 21 -3 147 8 1
12 -21 3 129 8 1
-21 -12 3 189 11 1
-12 21 3 161 10 1
-12 21 3 140 8 1
12 -21 3 130 7 1
10 -21 -3 22 2 1
10 -21 -3 11 2 1
-21 -10 -3 5 3 1
-10 21 3 9 4 1
-21 -10 3 6 3 1
-10 21 3 9 3 1
10 -21 3 21 2 1
-8 21 -3 1257 51 1
8 -21 -3 1346 51 1
8 -21 -3 1296 49 1
-21 -8 -3 1204 56 1
-21 -8 3 1336 56 1
8 -21 3 1253 51 1
8 -21 3 1228 48 1
-8 21 3 1270 50 1
-6 21 -3 763 42 1
6 -21 -3 754 42 1
-21 -6 -3 677 46 1
6 -21 -3 699 40 1
6 -21 3 746 42 1
-6 21 3 696 41 1
-21 -6 3 653 46 1
-4 21 -3 139 11 1
4 -21 -3 134 8 1
4 -21 -3 135 10 1
-21 -4 -3 120 11 1
-4 21 3 124 10 1
4 -21 3 129 10 1
-21 -4 3 148 12 1
-21 -2 -3 58 7 1
2 -21 -3 39 2 1
-2 21 -3 37 4 1
2 -21 3 35 3 1
-2 21 3 41 3 1
-21 -2 3 49 3 1
0 21 -3 120 11 1
0 -21 -3 142 10 1
-21 0 -3 161 12 1
21 0 3 134 13 1
0 21 3 155 10 1
0 -21 3 123 10 1
-21 0 3 137 11 1
2 21 -3 3 4 1
21 -2 3 0 4 1
2 21 3 2 3 1
-2 -21 3 4 2 1
-21 2 3 0 3 1
-4 -21 -3 115 10 1
-21 4 -3 105 10 1
4 21 3 104 10 1
21 -4 3 119 11 1
-21 4 3 110 10 1
-4 -21 3 114 10 1
-6 -21 -3 602 24 1
21 -6 -3 626 25 1
21 -6 3 591 23 1
-21 6 3 592 25 1
6 21 3 599 24 1
-6 -21 3 632 24 1
-8 -21 -3 300 17 1
21 -8 -3 294 18 1
-21 8 -3 271 17 1
-8 -21 3 267 17 1
21 -8 3 312 17 1
-21 8 3 303 18 1
-21 10 -3 743 43 1
-10 -21 -3 795 40 1
-21 10 3 778 43 1
-10 -21 3 792 40 1
21 -12 -3 70 10 1
-21 12 -3 58 7 1
-12 -21 -3 71 9 1
21 -12 3 62 8 1
-21 12 3 55 7 1
-12 -21 3 66 10 1
-21 14 -3 1 2 1
21 -14 -3 1 4 1
-21 14 3 1 2 1
21 -14 3 4 3 1
21 -16 -3 106 12 1
-16 -21 -3 82 11 1
-21 16 -3 102 9 1
-21 16 3 100 9 1
21 -16 3 82 10 1
-18 -21 -3 2 3 1
-21 18 3 4 2 1
-17 22 3 17 5 1
17 -22 3 16 5 1
15 -22 -3 607 28 1
15 -22 -3 656 28 1
-22 -15 -3 667 31 1
-15 22 3 671 31 1
15 -22 3 652 27 1
13 -22 -3 303 14 1
-13 22 -3 322 14 1
-22 -13 -3 309 15 1
13 -22 -3 293 13 1
-13 22 3 273 14 1
13 -22 3 316 14 1
13 -22 3 289 13 1
-13 22 3 315 15 1
-11 22 -3 170 12 1
11 -22 3 174 12 1
-11 22 3 177 12 1
-22 -11 3 182 14 1
-11 22 3 186 15 1
11 -22 3 172 11 1
-9 22 -3 78 7 1
9 -22 -3 73 5 1
9 -22 -3 59 6 1
-22 -9 -3 67 8 1
-9 22 3 80 6 1
9 -22 3 72 6 1
7 -22 -3 6 3 1
-22 -7 -3 16 7 1
7 -22 3 5 2 1
-22 -7 3 7 3 1
-22 -5 -3 37 8 1
-5 22 -3 43 8 1
5 -22 -3 39 6 1
5 -22 -3 49 8 1
-5 22 3 40 7 1
5 -22 3 43 7 1
-22 -5 3 32 9 1
3 -22 -3 449 18 1
-3 22 -3 443 18 1
-22 -3 -3 428 20 1
3 -22 3 467 18 1
-22 -3 3 398 20 1
-3 22 3 422 18 1
1 -22 -3 1866 79 1
-22 -1 -3 1849 87 1
1 -22 3 1852 79 1
-1 22 3 1838 78 1
1 22 -3 121 12 1
-1 -22 -3 130 9 1
22 -1 3 113 12 1
-1 -22 3 124 9 1
-22 1 3 119 10 1
1 22 3 112 10 1
-3 -22 -3 46 7 1
-22 3 -3 34 7 1
22 -3 3 49 9 1
3 22 3 47 8 1
-3 -22 3 62 7 1
-5 -22 -3 589 30 1
-5 -22 3 569 29 1
22 -5 3 534 30 1
5 22 3 586 30 1
-7 -22 -3 19 7 1
22 -7 3 12 10 1
-22 7 3 21 7 1
-9 -22 -3 51 7 1
-22 9 -3 24 3 1
22 -9 -3 34 5 1
22 -9 3 29 4 1
-9 -22 3 28 3 1
22 -11 -3 2 5 1
-11 -22 -3 6 3 1
-22 11 -3 5 3 1
-11 -22 3 8 3 1
-22 11 3 11 6 1
22 -13 -3 152 14 1
-22 13 -3 154 11 1
22 -13 3 148 12 1
-15 -22 -3 151 11 1
-22 15 -3 182 9 1
-22 15 3 186 9 1
22 -15 3 185 11 1
-22 17 -3 25 4 1
-22 17 3 28 4 1
-23 -16 -3 5 2 1
-16 23 -3 4 2 1
16 -23 3 4 2 1
-23 -14 -3 202 11 1
14 -23 -3 172 10 1
14 -23 3 163 9 1
-14 23 3 194 11 1
-12 23 -3 6 3 1
-23 -12 -3 7 2 1
12 -23 -3 5 3 1
-23 -12 3 7 3 1
12 -23 3 5 2 1
-12 23 3 6 3 1
10 -23 -3 218 9 1
10 -23 -3 211 10 1
-10 23 -3 234 11 1
-10 23 3 201 10 1
10 -23 3 220 10 1
8 -23 -3 320 14 1
8 -23 -3 316 13 1
-8 23 -3 282 15 1
-23 -8 -3 343 16 1
8 -23 3 306 14 1
-8 23 3 333 14 1
-6 23 -3 20 4 1
-23 -6 -3 11 3 1
6 -23 3 12 2 1
-6 23 3 10 3 1
-23 -6 3 17 3 1
-4 23 -3 32 9 1
4 -23 -3 30 7 1
-23 -4 -3 27 8 1
-4 23 3 26 7 1
4 -23 3 25 6 1
-23 -4 3 32 8 1
-23 -2 -3 407 19 1
-2 23 -3 376 18 1
2 -23 -3 359 17 1
2 -23 3 379 17 1
-23 -2 3 370 19 1
0 23 -3 287 20 1
0 -23 -3 325 19 1
-23 0 3 313 20 1
0 23 3 288 19 1
0 -23 3 335 19 1
-2 -23 -3 76 8 1
-23 2 -3 58 8 1
-2 -23 3 77 8 1
-23 2 3 65 8 1
2 23 3 88 10 1
-23 4 -3 177 13 1
-4 -23 -3 192 12 1
-23 4 3 198 13 1
-4 -23 3 180 12 1
-6 -23 3 105 8 1
-23 6 3 87 8 1
23 -6 3 81 11 1
-8 -23 -3 201 11 1
-23 8 -3 170 10 1
-23 8 3 212 10 1
-8 -23 3 186 10 1
23 -10 -3 3 6 1
-10 -23 -3 13 3 1
-23 10 -3 5 2 1
-23 10 3 6 2 1
-10 -23 3 27 3 1
23 -10 3 3 4 1
23 -12 -3 255 17 1
-23 12 -3 284 12 1
23 -12 3 244 13 1
-23 14 -3 368 19 1
-14 -23 -3 344 19 1
-23 14 3 351 18 1
-23 16 -3 107 6 1
-23 16 3 110 6 1
-24 -15 -3 247 13 1
15 -24 -3 225 12 1
15 -24 3 242 12 1
13 -24 -3 253 11 1
-24 -13 -3 268 13 1
13 -24 3 243 11 1
-24 -13 3 252 13 1
-11 24 -3 773 36 1
-24 -11 -3 785 39 1
11 -24 3 851 36 1
-24 -11 3 809 39 1
-11 24 3 794 36 1
9 -24 -3 16 2 1
-24 -9 -3 43 5 1
-9 24 -3 15 4 1
-24 -9 3 92 3 1
9 -24 3 13 2 1
-9 24 3 28 4 1
-7 24 -3 330 16 1
7 -24 -3 339 15 1
-24 -7 -3 351 17 1
-24 -7 3 309 17 1
-7 24 3 366 15 1
7 -24 3 346 15 1
-5 24 -3 20 4 1
-24 -5 -3 12 3 1
5 -24 -3 13 2 1
5 -24 3 18 2 1
-24 -5 3 13 3 1
-5 24 3 14 3 1
-3 24 -3 6 4 1
-24 -3 -3 2 3 1
3 -24 -3 15 2 1
3 -24 3 6 2 1
-3 24 3 18 3 1
-24 -3 3 6 3 1
-1 24 -3 436 20 1
1 -24 -3 453 18 1
-24 -1 -3 446 20 1
-24 -1 3 423 20 1
-24 -1 3 387 21 1
-1 24 3 416 19 1
1 -24 3 430 18 1
-24 1 -3 47 7 1
-24 1 3 55 7 1
1 24 3 78 9 1
-1 -24 3 69 6 1
-24 3 -3 319 18 1
-3 -24 -3 304 17 1
-3 -24 3 310 17 1
-24 3 3 356 18 1
3 24 3 289 18 1
24 -3 3 307 21 1
-24 5 -3 4 3 1
-24 5 3 16 6 1
-5 -24 3 7 3 1
-7 -24 -3 1 3 1
24 -7 3 0 5 1
-7 -24 3 4 2 1
-24 7 3 2 2 1
-9 -24 -3 5 2 1
-24 9 -3 1 2 1
-24 9 3 1 1 1
-9 -24 3 2 2 1
24 -9 3 4 5 1
-24 11 -3 87 7 1
24 -11 3 106 11 1
-24 11 3 92 7 1
-11 -24 3 98 8 1
-24 13 -3 15 4 1
-24 13 3 18 4 1
-24 15 -3 237 14 1
-24 15 3 218 14 1
-24 15 3 221 14 1
14 -25 -3 58 6 1
-25 -14 -3 56 6 1
14 -25 3 49 5 1
-25 -12 -3 537 24 1
12 -25 -3 502 22 1
-25 -12 3 552 24 1
12 -25 3 532 22 1
-25 -10 -3 85 7 1
10 -25 -3 79 6 1
10 -25 3 92 6 1
-25 -10 3 93 7 1
-25 -8 -3 384 20 1
8 -25 -3 376 19 1
-8 25 3 345 19 1
-25 -8 3 402 20 1
8 -25 3 357 19 1
-6 25 -3 27 10 1
-25 -6 -3 29 6 1
6 -25 -3 34 7 1
-25 -6 3 29 6 1
-6 25 3 46 8 1
6 -25 3 33 6 1
-4 25 -3 359 22 1
4 -25 -3 371 21 1
-4 25 3 358 21 1
4 -25 3 386 21 1
2 -25 -3 72 8 1
-25 -2 -3 68 9 1
-2 25 -3 55 13 1
-25 -2 3 68 8 1
-2 25 3 76 10 1
2 -25 3 64 7 1
-25 0 -3 3 2 1
0 -25 -3 2 2 1
-25 0 3 2 3 1
-25 0 3 2 2 1
0 25 3 2 4 1
-2 -25 -3 253 14 1
-25 2 -3 253 15 1
-2 -25 3 250 14 1
-25 2 3 258 15 1
-4 -25 -3 214 12 1
-25 4 -3 232 13 1
-4 -25 3 211 12 1
4 25 3 181 16 1
-25 6 -3 2 1 1
-6 -25 -3 54 2 1
-25 6 3 9 2 1
25 -6 3 2 6 1
-6 -25 3 86 2 1
-25 8 -3 119 11 1
-8 -25 -3 99 11 1
25 -8 3 125 16 1
-8 -25 3 104 11 1
-25 8 3 110 11 1
-25 10 -3 4 1 1
-10 -25 -3 5 2 1
-25 10 3 2 1 1
-10 -25 3 2 2 1
-25 12 -3 113 7 1
-25 12 3 122 7 1
-25 14 -3 84 5 1
-25 14 3 87 6 1
-25 14 3 76 5 1
11 -26 -3 130 6 1
-26 -11 -3 132 8 1
11 -26 3 121 6 1
-26 -11 3 136 8 1
-26 -9 -3 98 7 1
9 -26 3 72 6 1
-26 -7 -3 19 2 1
7 -26 -3 18 1 1
-26 -7 3 18 2 1
5 -26 -3 1 2 1
-26 -5 -3 8 2 1
-5 26 3 16 4 1
5 -26 3 9 2 1
-26 -5 3 20 5 1
3 -26 -3 985 42 1
-26 -3 3 952 45 1
-3 26 3 911 42 1
3 -26 3 997 42 1
1 -26 -3 232 12 1
-26 -1 -3 228 12 1
-1 26 3 214 14 1
-26 -1 3 212 11 1
1 -26 3 219 11 1
-1 -26 -3 33 6 1
-26 1 -3 37 5 1
-1 -26 3 26 6 1
-26 1 3 40 5 1
-26 3 -3 5 2 1
-3 -26 -3 2 2 1
-26 3 3 0 2 1
-3 -26 3 0 2 1
-26 3 3 0 2 1
-5 -26 -3 863 40 1
-5 -26 3 908 40 1
-26 7 -3 546 26 1
-7 -26 -3 558 24 1
-7 -26 3 569 24 1
-26 7 3 605 26 1
-9 -26 -3 6 2 1
-26 9 -3 5 3 1
-9 -26 3 5 2 1
-26 9 3 5 3 1
-26 11 -3 26 4 1
-26 11 3 22 4 1
-27 -10 -3 90 7 1
10 -27 -3 94 6 1
-27 -10 3 92 8 1
10 -27 3 88 6 1
-27 -8 -3 227 11 1
8 -27 -3 230 10 1
-27 -8 3 227 11 1
8 -27 3 203 10 1
-27 -6 -3 90 6 1
6 -27 -3 92 6 1
6 -27 3 93 6 1
-27 -6 3 87 7 1
-27 -4 -3 191 8 1
4 -27 -3 151 7 1
-27 -4 3 169 8 1
4 -27 3 161 7 1
2 -27 -3 264 14 1
-27 -2 3 269 15 1
2 -27 3 263 14 1
-27 0 -3 67 6 1
-27 0 3 69 6 1
-2 -27 -3 22 4 1
-27 2 -3 36 4 1
-2 -27 3 24 4 1
-27 2 3 25 4 1
-27 2 3 26 6 1
-4 -27 -3 16 4 1
-27 4 -3 20 4 1
-27 4 3 11 2 1
-27 4 3 12 2 1
-4 -27 3 7 2 1
-6 -27 -3 7 1 1
-27 6 -3 6 2 1
-6 -27 3 6 1 1
-27 6 3 9 2 1
-27 6 3 8 2 1
-8 -27 -3 17 2 1
-27 8 -3 12 2 1
-27 8 3 23 4 1
-8 -27 3 15 2 1
-27 10 -3 174 9 1
-27 10 3 176 10 1
-10 -27 3 191 9 1
-27 10 3 170 9 1
7 -28 -3 81 4 1
-28 -7 -3 95 5 1
7 -28 3 76 4 1
5 -28 -3 472 23 1
-28 -5 -3 509 26 1
-28 -5 3 497 25 1
5 -28 3 485 23 1
-28 -3 -3 35 5 1
-28 -3 3 27 5 1
3 -28 3 30 4 1
1 -28 -3 0 1 1
-28 -1 -3 0 2 1
1 -28 3 0 1 1
-28 -1 3 0 2 1
-1 -28 -3 27 4 1
-1 -28 3 30 4 1
-28 1 3 27 4 1
-28 3 -3 449 25 1
-3 -28 -3 452 23 1
-3 -28 3 454 23 1
-28 3 3 411 26 1
-28 3 3 457 25 1
-5 -28 -3 93 6 1
-28 5 -3 103 6 1
-5 -28 3 97 6 1
-28 5 3 94 7 1
-28 5 3 93 6 1
-7 -28 -3 3 1 1
-28 7 -3 4 1 1
-28 7 3 2 2 1
-7 -28 3 4 1 1
-28 7 3 3 1 1
0 0 4 448 245 1
0 0 4 474 272 1
1 -1 -4 667 7 1
-1 -1 -4 705 8 1
1 -1 -4 674 8 1
-1 -1 4 673 8 1
-1 1 4 661 7 1
2 0 -4 10975 192 1
0 2 -4 10591 173 1
-2 0 -4 10253 173 1
0 -2 -4 10794 174 1
0 -2 -4 10320 174 1
2 0 4 10997 174 1
0 -2 4 10854 192 1
0 -2 4 10750 173 1
0 -2 4 10571 173 1
-2 -2 -4 18626 219 1
-2 2 -4 18407 219 1
2 -2 -4 18401 219 1
2 -2 -4 18433 219 1
2 2 -4 17985 242 1
-2 2 4 18173 219 1
-2 2 4 18196 219 1
2 2 4 17898 219 1
2 -2 4 18775 219 1
-3 -1 -4 20861 166 1
1 -3 -4 21463 166 1
1 -3 -4 21641 166 1
-1 3 -4 20782 166 1
-1 3 4 21556 185 1
1 -3 4 21245 184 1
1 -3 4 21366 166 1
3 1 4 21860 167 1
1 3 -4 24332 543 1
-1 -3 -4 24839 491 1
-3 1 -4 24210 491 1
-1 -3 -4 24436 490 1
3 -1 -4 23110 489 1
3 -1 -4 22693 490 1
-1 -3 4 23526 542 1
3 -1 4 23040 491 1
-3 1 4 24160 489 1
1 3 4 22981 490 1
3 -3 -4 19742 504 1
-3 -3 -4 20651 505 1
3 -3 -4 20196 504 1
-3 3 -4 19874 505 1
-3 -3 -4 18981 504 1
-3 -3 4 20086 559 1
3 -3 4 20137 505 1
3 -3 4 20202 557 1
3 3 4 20284 505 1
-3 3 4 19212 504 1
-2 4 -4 3498 220 1
2 -4 -4 3399 219 1
-4 -2 -4 3319 219 1
2 -4 -4 3173 219 1
-4 -2 -4 3384 220 1
-2 4 4 3307 219 1
0 -4 -4 35279 999 1
0 -4 -4 34570 1000 1
-4 0 -4 36601 1000 1
0 4 -4 36619 1105 1
4 0 4 36398 1001 1
2 4 -4 55590 2019 1
-2 -4 -4 54577 1823 1
4 -2 -4 57650 1822 1
4 -2 4 53285 2019 1
2 4 4 55091 1825 1
-4 -4 -4 733 16 1
4 -4 -4 834 16 1
-4 -4 -4 745 16 1
-4 4 -4 799 16 1
-4 -4 4 741 18 1
-4 4 4 799 18 1
4 -4 4 789 18 1
3 -5 -4 572 213 1
-5 -3 -4 714 212 1
3 -5 -4 709 213 1
-3 5 4 527 235 1
-3 5 4 642 213 1
5 3 4 566 212 1
-5 -3 4 661 236 1
-1 5 -4 1757 84 1
1 -5 -4 1600 84 1
-5 -1 -4 1741 84 1
1 -5 4 1658 84 1
-1 5 4 1694 84 1
5 -1 -4 856 30 1
-1 -5 -4 804 31 1
1 5 -4 878 34 1
1 5 -4 856 31 1
5 -1 -4 886 31 1
-5 1 -4 869 31 1
1 5 4 898 31 1
-5 3 -4 84 4 1
-3 -5 -4 59 4 1
-3 -5 -4 66 4 1
5 -3 4 89 4 1
-5 3 4 99 4 1
-5 3 4 89 5 1
-5 5 -4 12305 391 1
5 -5 -4 12796 389 1
5 -5 -4 12311 390 1
-5 -5 -4 12089 389 1
-5 -5 -4 12248 390 1
-5 -5 4 11991 431 1
-5 5 4 12799 390 1
5 -5 4 12563 391 1
5 -5 4 12303 430 1
-6 -4 -4 306 6 1
-4 6 -4 378 6 1
-4 6 4 394 7 1
-4 6 4 408 6 1
-6 -4 4 399 7 1
2 -6 -4 2400 252 1
-6 -2 -4 2731 253 1
2 -6 -4 2479 252 1
-6 -2 -4 2553 251 1
2 -6 4 2501 252 1
-2 6 4 2586 279 1
-2 6 4 2308 252 1
0 6 -4 46 22 1
0 6 -4 54 24 1
6 0 -4 36 21 1
0 -6 -4 31 22 1
6 0 4 40 22 1
0 6 4 27 22 1
-6 0 4 35 24 1
0 -6 4 42 21 1
0 -6 4 43 21 1
-2 -6 -4 5297 196 1
-2 -6 -4 5133 197 1
-6 2 -4 5472 197 1
2 6 -4 5145 196 1
-6 2 4 5365 196 1
2 6 4 5153 196 1
-4 -6 -4 4381 183 1
-6 4 -4 4160 183 1
-6 4 4 4060 183 1
-6 4 4 4055 202 1
6 -4 4 3942 183 1
-6 -6 -4 566 4 1
6 -6 -4 729 5 1
-6 -6 -4 574 5 1
-6 -6 -4 560 4 1
-6 6 4 738 4 1
-6 6 4 781 5 1
6 -6 4 833 5 1
-5 7 -4 1753 36 1
5 -7 -4 1664 35 1
5 -7 -4 1598 35 1
-7 -5 -4 1564 35 1
-7 -5 4 1687 39 1
-5 7 4 1675 39 1
7 5 4 1531 35 1
-5 7 4 1634 35 1
-7 -3 -4 860 59 1
-3 7 -4 755 59 1
-3 7 4 841 59 1
-3 7 4 823 65 1
-7 -3 4 751 65 1
3 -7 4 835 59 1
-7 -1 -4 6 1 1
-1 7 -4 0 1 1
-1 7 4 6 1 1
1 -7 4 5 1 1
7 1 4 4 1 1
7 -1 -4 11089 515 1
1 7 -4 11013 570 1
-7 1 -4 11856 517 1
-1 -7 -4 11159 515 1
1 7 -4 11349 515 1
-1 -7 -4 12367 516 1
-7 1 4 12537 572 1
1 7 4 11546 516 1
7 -3 -4 9972 537 1
3 7 -4 10267 536 1
-3 -7 -4 10561 537 1
-7 3 -4 10711 537 1
-3 -7 -4 10308 537 1
7 -3 4 10497 538 1
-7 3 4 10955 537 1
3 7 4 10745 538 1
-7 3 4 11095 537 1
-5 -7 -4 10072 334 1
-5 -7 -4 9741 333 1
-7 5 -4 9508 334 1
7 -5 -4 9992 333 1
-7 5 4 10212 369 1
7 -5 4 10191 334 1
-7 5 4 9169 334 1
-7 -7 -4 232 8 1
7 -7 -4 234 9 1
-7 -7 -4 234 9 1
-7 -7 -4 242 9 1
-7 7 -4 229 9 1
-7 7 4 243 9 1
7 7 4 213 9 1
-7 7 4 263 10 1
7 -7 4 216 10 1
-8 -6 -4 147 4 1
-8 -6 -4 156 4 1
-6 8 -4 153 5 1
-8 -6 -4 155 4 1
-6 8 4 133 4 1
-6 8 4 142 5 1
4 -8 -4 835 7 1
-8 -4 -4 838 7 1
-4 8 4 781 8 1
8 4 4 787 7 1
-8 -2 -4 2180 98 1
-2 8 -4 2398 98 1
2 -8 -4 2332 98 1
-8 -2 -4 2316 98 1
8 2 4 2194 98 1
-2 8 4 2385 109 1
-2 8 4 2503 98 1
2 -8 4 2348 98 1
-8 0 -4 4422 194 1
0 -8 -4 4560 193 1
8 0 -4 4168 193 1
0 8 -4 4446 193 1
0 -8 -4 4503 194 1
0 8 -4 4235 214 1
8 0 4 4246 193 1
0 -8 4 4458 193 1
0 -8 4 4296 193 1
0 8 4 4480 193 1
2 8 -4 3130 157 1
-2 -8 -4 3235 157 1
-8 2 -4 3258 157 1
2 8 4 3440 157 1
8 -2 4 3424 157 1
-8 2 4 3425 174 1
-4 -8 -4 2968 59 1
-8 4 -4 2811 59 1
-4 -8 -4 2810 59 1
8 -4 4 2782 59 1
-6 -8 -4 131 24 1
8 -6 -4 150 25 1
-6 -8 -4 141 25 1
-8 6 4 144 27 1
6 8 4 135 25 1
-8 6 4 134 25 1
-8 -8 -4 691 20 1
-8 8 4 696 20 1
-8 8 4 743 22 1
8 -8 4 698 20 1
8 8 4 715 20 1
-9 -7 -4 11871 382 1
-9 -7 -4 12157 382 1
7 -9 -4 12738 383 1
-9 -7 -4 11374 382 1
-7 9 4 12633 426 1
-7 9 4 11614 383 1
7 -9 4 11538 383 1
9 7 4 12003 383 1
-5 9 -4 796 22 1
-9 -5 -4 812 21 1
-9 -5 -4 792 21 1
-5 9 4 776 24 1
5 -9 4 838 22 1
-5 9 4 777 22 1
9 5 4 831 22 1
-3 9 -4 260 2 1
-9 -3 -4 290 2 1
-9 -3 -4 278 2 1
3 -9 -4 247 2 1
-3 9 4 252 2 1
-9 -3 4 260 2 1
3 -9 4 253 2 1
-3 9 4 235 2 1
9 3 4 270 2 1
1 -9 -4 199 12 1
-1 9 -4 174 13 1
-9 -1 -4 175 12 1
-9 -1 -4 168 12 1
9 1 -4 169 12 1
1 -9 4 169 12 1
1 -9 4 175 12 1
-1 9 4 199 12 1
-9 1 -4 2733 111 1
1 9 -4 2786 111 1
-1 -9 -4 2772 111 1
-1 -9 -4 2682 111 1
1 9 4 2807 111 1
-3 -9 -4 3974 112 1
-9 3 -4 4147 112 1
-3 -9 -4 4036 112 1
9 -3 -4 4155 112 1
3 9 -4 3867 112 1
3 9 4 4185 112 1
-9 3 4 4233 112 1
9 -3 4 3994 112 1
-9 3 4 4178 112 1
-5 -9 -4 15303 494 1
-9 5 -4 15082 496 1
-5 -9 -4 14767 493 1
9 -5 -4 14888 493 1
5 9 -4 14205 492 1
9 -5 4 15182 495 1
-9 5 4 14609 494 1
5 9 4 15020 494 1
-7 -9 -4 1423 62 1
-7 -9 -4 1515 63 1
-9 7 -4 1390 63 1
-7 -9 -4 1470 63 1
-9 7 4 1420 63 1
-9 7 4 1365 70 1
7 9 4 1512 63 1
-9 9 -4 1844 81 1
-9 -9 -4 1939 81 1
9 -9 4 1823 81 1
9 9 4 1858 81 1
-9 9 4 1850 81 1
-10 -8 -4 3325 142 1
-8 10 -4 3486 143 1
8 -10 -4 3271 143 1
-8 10 4 3137 158 1
10 8 4 3400 143 1
-8 10 4 3415 143 1
-8 10 4 3264 158 1
8 -10 4 3143 143 1
-10 -6 -4 1014 40 1
-6 10 -4 997 41 1
-6 10 4 968 45 1
-6 10 4 978 40 1
6 -10 4 1006 40 1
4 -10 -4 1809 58 1
-10 -4 -4 1704 58 1
-4 10 -4 1775 58 1
-10 -4 -4 1768 57 1
4 -10 -4 1783 58 1
-10 -4 -4 1682 57 1
4 -10 4 1829 58 1
-4 10 4 1734 64 1
-4 10 4 1773 58 1
2 -10 -4 1389 58 1
-10 -2 -4 1398 58 1
-2 10 -4 1453 59 1
10 2 -4 1367 58 1
2 -10 -4 1383 58 1
-2 10 4 1360 65 1
2 -10 4 1488 58 1
2 -10 4 1404 58 1
0 -10 -4 505 16 1
0 -10 -4 482 16 1
0 10 -4 435 18 1
0 10 -4 451 16 1
-10 0 -4 492 16 1
0 -10 4 468 16 1
10 0 4 491 16 1
0 10 4 466 16 1
0 -10 4 489 16 1
-2 -10 -4 35 1 1
-10 2 4 28 2 1
2 10 4 43 1 1
-10 4 -4 2094 58 1
-4 -10 -4 2128 58 1
-4 -10 -4 2208 58 1
4 10 -4 2151 58 1
-10 4 4 2150 58 1
-10 4 4 2127 58 1
4 10 4 2159 58 1
-6 -10 -4 1794 68 1
-10 6 -4 1854 69 1
-6 -10 -4 1782 68 1
10 -6 -4 1866 69 1
6 10 4 1741 68 1
-10 6 4 1735 68 1
10 -8 -4 14337 533 1
-10 8 -4 13339 534 1
-8 -10 -4 14173 533 1
-10 8 4 13839 533 1
8 10 4 13056 531 1
10 -10 -4 943 32 1
-10 10 -4 934 33 1
-10 -10 -4 918 32 1
-10 10 -4 944 37 1
10 10 4 984 33 1
-10 10 4 1005 36 1
-9 11 -4 468 14 1
-9 11 -4 485 17 1
11 9 4 467 14 1
-9 11 4 514 16 1
-7 11 -4 1598 52 1
-11 -7 -4 1613 51 1
7 -11 -4 1640 51 1
11 7 4 1662 51 1
-7 11 4 1702 57 1
-7 11 4 1731 51 1
7 -11 4 1694 51 1
-7 11 4 1673 57 1
5 -11 -4 641 29 1
-11 -5 -4 656 29 1
5 -11 4 612 29 1
-5 11 4 628 29 1
11 5 4 617 29 1
-11 -3 -4 768 18 1
-11 -3 -4 744 17 1
-3 11 -4 821 18 1
3 -11 -4 784 18 1
-11 -3 -4 737 18 1
-3 11 4 793 20 1
3 -11 4 870 18 1
11 3 4 779 18 1
1 -11 -4 7575 338 1
1 -11 -4 7131 338 1
-11 -1 -4 7429 339 1
-1 11 -4 7483 338 1
-11 -1 -4 7391 338 1
-1 11 4 7408 374 1
11 1 4 7102 338 1
1 -11 4 7181 338 1
-1 11 4 7834 339 1
1 -11 4 7056 338 1
-1 -11 -4 884 25 1
-11 1 -4 921 25 1
-1 -11 -4 851 25 1
-11 1 4 932 28 1
1 11 4 879 25 1
-3 -11 -4 1244 44 1
11 -3 -4 1215 44 1
-3 -11 -4 1186 43 1
3 11 -4 1191 44 1
-11 3 -4 1159 44 1
3 11 4 1164 44 1
-11 3 4 1228 49 1
11 -3 4 1205 44 1
-5 -11 -4 3213 125 1
-11 5 -4 3331 125 1
5 11 -4 3184 125 1
-5 -11 -4 3434 125 1
-11 5 4 3346 139 1
5 11 4 3367 125 1
-11 5 4 3311 125 1
-11 5 4 3457 125 1
11 -7 -4 569 34 1
-11 7 -4 573 34 1
-7 -11 -4 588 34 1
7 11 4 570 34 1
-11 9 -4 128 8 1
-9 -11 -4 100 5 1
11 -9 -4 118 5 1
-11 9 4 92 7 1
9 11 4 111 5 1
-11 11 -4 1380 80 1
-11 -11 -4 1324 80 1
-11 11 -4 1339 89 1
11 11 4 1408 80 1
-11 11 4 1256 88 1
-11 11 4 1297 80 1
-10 12 -4 193 9 1
-12 -10 -4 210 8 1
-10 12 -4 184 10 1
10 -12 4 186 11 1
-10 12 4 185 10 1
10 -12 4 203 9 1
-10 12 4 205 9 1
-12 -10 4 190 14 1
12 10 4 221 9 1
-10 12 4 184 9 1
8 -12 -4 895 30 1
-8 12 -4 911 34 1
-12 -8 -4 968 30 1
8 -12 4 897 30 1
-8 12 4 1005 31 1
-8 12 4 947 34 1
12 8 4 984 31 1
-8 12 4 923 33 1
-6 12 -4 2059 49 1
-12 -6 -4 2048 49 1
6 -12 -4 2175 49 1
6 -12 4 2105 49 1
-6 12 4 1988 55 1
-6 12 4 2018 54 1
12 6 4 2075 49 1
4 -12 -4 3937 189 1
-4 12 -4 4083 189 1
-12 -4 -4 3821 188 1
12 4 4 3890 189 1
4 -12 4 4030 189 1
-4 12 4 3770 189 1
-4 12 4 4196 209 1
2 -12 -4 1052 36 1
-12 -2 -4 1094 35 1
-12 -2 -4 1085 35 1
-2 12 -4 1027 36 1
2 -12 -4 1034 36 1
-12 -2 -4 1041 35 1
-2 12 4 1125 39 1
-2 12 4 1050 36 1
2 -12 4 1025 35 1
-12 0 -4 2265 146 1
-12 0 -4 2238 146 1
0 -12 -4 2260 146 1
0 12 -4 2352 146 1
12 0 4 2068 146 1
0 12 4 2374 146 1
-2 -12 -4 45 2 1
2 12 -4 59 3 1
-2 -12 -4 41 2 1
2 12 4 39 2 1
-4 -12 -4 371 15 1
12 -4 -4 461 16 1
-12 4 -4 373 15 1
-4 -12 -4 379 16 1
4 12 -4 442 16 1
-12 4 -4 355 18 1
4 12 4 416 16 1
-12 4 4 414 18 1
-12 6 -4 2827 96 1
-6 -12 -4 2939 85 1
12 -6 -4 2753 86 1
-6 -12 -4 2909 85 1
-12 6 -4 2741 86 1
12 -6 4 2773 86 1
-12 6 4 2826 85 1
-12 6 4 2731 95 1
6 12 4 2952 86 1
-12 8 -4 139 6 1
8 12 4 138 7 1
-12 8 4 134 5 1
-12 8 4 119 7 1
12 -8 4 148 6 1
-10 -12 -4 87 3 1
-12 10 -4 88 2 1
-10 -12 -4 97 3 1
-12 10 4 74 2 1
12 -10 4 85 2 1
-12 10 4 74 1 1
10 12 4 98 2 1
-12 10 4 82 2 1
-12 12 -4 91 9 1
-12 12 -4 82 7 1
12 -12 -4 82 7 1
-12 -12 -4 76 7 1
-12 -12 -4 76 12 1
-12 12 4 80 7 1
12 -12 4 95 10 1
12 12 4 84 8 1
-12 -12 4 74 14 1
-12 12 4 86 8 1
12 -12 4 91 8 1
-11 13 -4 156 10 1
-11 13 -4 151 9 1
11 -13 -4 174 9 1
11 -13 -4 169 14 1
-13 -11 -4 154 8 1
13 11 4 154 9 1
-11 13 4 152 8 1
11 -13 4 171 9 1
11 -13 4 158 10 1
-11 13 4 157 10 1
-13 -11 4 171 15 1
-11 13 4 173 10 1
-13 -9 -4 374 17 1
-9 13 -4 357 20 1
-9 13 -4 338 18 1
-9 13 4 361 18 1
9 -13 4 368 17 1
-9 13 4 338 20 1
13 9 4 352 18 1
9 -13 4 349 19 1
-9 13 4 359 19 1
-7 13 -4 25 8 1
-13 -7 -4 41 4 1
-7 13 -4 28 5 1
7 -13 -4 38 5 1
7 -13 4 33 7 1
-7 13 4 32 6 1
-7 13 4 32 5 1
7 -13 4 33 5 1
-13 -5 -4 3975 154 1
-5 13 -4 4059 155 1
13 5 4 4282 155 1
-5 13 4 4239 171 1
-13 -5 4 4124 173 1
5 -13 4 4210 155 1
-5 13 4 4190 155 1
3 -13 -4 3923 137 1
-3 13 -4 3914 137 1
-13 -3 -4 4239 136 1
-13 -3 4 4143 152 1
-3 13 4 4044 151 1
-3 13 4 4230 137 1
3 -13 4 3973 136 1
13 3 4 4202 137 1
-1 13 -4 198 30 1
-13 -1 -4 156 30 1
1 -13 -4 174 30 1
13 1 -4 162 30 1
1 -13 -4 169 30 1
-13 -1 -4 178 30 1
-13 -1 4 175 34 1
-1 13 4 181 33 1
-1 13 4 184 30 1
13 1 4 161 30 1
1 -13 4 190 29 1
-1 -13 -4 173 1 1
-13 1 -4 150 2 1
13 -1 -4 179 2 1
-1 -13 -4 141 2 1
-13 1 -4 143 1 1
-13 1 4 224 2 1
-13 1 4 183 2 1
13 -1 4 139 1 1
-3 -13 -4 9091 348 1
3 13 -4 9241 349 1
13 -3 -4 9125 349 1
-13 3 -4 9919 350 1
-3 -13 -4 9515 349 1
3 13 4 9502 349 1
-13 5 -4 2087 67 1
-13 5 -4 2180 75 1
-5 -13 -4 2201 67 1
-5 -13 -4 2130 66 1
-13 5 4 2143 74 1
13 -5 4 2203 67 1
5 13 4 2140 67 1
-13 5 4 2256 75 1
-7 -13 -4 564 31 1
-13 7 -4 539 31 1
13 -7 -4 591 31 1
-13 7 4 575 30 1
-13 7 4 588 35 1
7 13 4 585 31 1
13 -9 -4 569 19 1
-13 9 -4 607 19 1
-13 9 -4 569 21 1
-9 -13 -4 613 19 1
13 -9 4 618 19 1
-13 9 4 621 18 1
-13 11 -4 78 2 1
-11 -13 -4 49 4 1
-11 -13 -4 49 2 1
-13 11 -4 38 2 1
-13 11 4 58 1 1
13 -11 4 55 3 1
-13 11 4 82 3 1
-13 11 4 82 2 1
11 13 4 60 2 1
-13 13 -4 592 25 1
13 -13 -4 620 25 1
-13 13 -4 616 27 1
-13 -13 -4 615 24 1
-13 13 4 566 27 1
-13 13 4 588 24 1
13 -13 4 548 25 1
-13 13 4 598 27 1
-13 -13 4 535 30 1
13 -13 4 571 25 1
-12 14 -4 1621 75 1
-12 14 -4 1780 83 1
-14 -12 -4 1706 74 1
12 -14 -4 1702 75 1
-14 -12 4 1746 84 1
-12 14 4 1746 75 1
12 -14 4 1755 75 1
12 -14 4 1639 76 1
10 -14 -4 182 12 1
10 -14 -4 175 8 1
-10 14 -4 156 9 1
-10 14 -4 176 8 1
-10 14 4 188 8 1
14 10 4 165 8 1
10 -14 4 178 7 1
-14 -10 4 173 13 1
10 -14 4 167 9 1
-8 14 -4 412 14 1
-14 -8 -4 411 13 1
-8 14 -4 396 16 1
8 -14 -4 382 14 1
8 -14 -4 434 16 1
-8 14 4 433 15 1
-14 -8 4 376 18 1
8 -14 4 396 14 1
-8 14 4 416 16 1
-8 14 4 386 14 1
8 -14 4 403 15 1
14 8 4 396 14 1
-6 14 -4 765 28 1
6 -14 -4 806 24 1
6 -14 -4 820 26 1
-6 14 -4 832 25 1
-14 -6 -4 826 24 1
-6 14 4 833 25 1
6 -14 4 815 24 1
6 -14 4 796 25 1
-14 -4 -4 500 55 1
-14 -4 -4 520 48 1
-4 14 -4 562 49 1
-4 14 4 552 49 1
14 4 4 577 49 1
-4 14 4 563 53 1
-14 -4 4 563 55 1
-14 -2 -4 2102 90 1
-2 14 -4 2036 91 1
-2 14 4 2137 91 1
-14 -2 4 1940 101 1
-2 14 4 2018 100 1
2 -14 4 2115 90 1
-14 0 -4 2475 89 1
0 -14 -4 2702 90 1
14 0 -4 2625 90 1
-14 0 -4 2555 89 1
0 14 -4 2604 90 1
0 14 4 2582 90 1
14 0 4 2695 90 1
0 14 4 2597 99 1
-14 2 -4 280 8 1
-2 -14 -4 345 8 1
-2 -14 -4 330 8 1
2 14 4 340 8 1
14 -2 4 265 8 1
-14 2 4 338 10 1
-4 -14 -4 180 7 1
-4 -14 -4 193 10 1
-4 -14 -4 193 6 1
14 -4 4 203 8 1
4 14 4 165 7 1
-14 4 4 185 9 1
-14 6 -4 10225 443 1
14 -6 -4 9645 400 1
-14 6 -4 9293 400 1
-6 -14 -4 9543 400 1
6 14 4 9356 400 1
-14 6 4 9967 443 1
14 -6 4 10519 401 1
-14 8 -4 528 18 1
-8 -14 -4 515 20 1
-8 -14 -4 489 18 1
14 -8 -4 499 18 1
8 14 4 530 18 1
-14 8 4 518 18 1
14 -8 4 521 19 1
-14 10 -4 465 24 1
-10 -14 -4 442 25 1
14 -10 -4 418 24 1
-14 10 -4 469 27 1
-10 -14 -4 464 23 1
-14 10 4 413 26 1
-14 10 4 455 23 1
14 -10 4 449 24 1
14 -12 -4 632 26 1
-12 -14 -4 630 25 1
-14 12 -4 617 29 1
-12 -14 -4 613 28 1
-14 12 -4 604 26 1
-14 12 4 596 28 1
14 -12 4 579 26 1
-14 12 4 628 29 1
-14 12 4 626 25 1
14 -12 4 588 27 1
-14 14 -4 180 10 1
14 -14 -4 202 10 1
-14 14 -4 184 11 1
-14 14 4 178 11 1
14 -14 4 209 11 1
-14 14 4 190 9 1
13 -15 -4 734 35 1
13 -15 -4 745 33 1
-13 15 -4 764 36 1
-13 15 -4 744 33 1
-15 -13 4 737 38 1
-13 15 4 701 32 1
13 -15 4 724 32 1
-13 15 4 725 36 1
-11 15 -4 273 16 1
11 -15 -4 270 14 1
-11 15 -4 273 14 1
11 -15 -4 274 16 1
11 -15 4 290 15 1
-11 15 4 277 14 1
-11 15 4 276 16 1
11 -15 4 299 14 1
9 -15 -4 2731 117 1
9 -15 -4 2902 115 1
-9 15 -4 2840 115 1
-9 15 -4 2944 127 1
9 -15 4 2856 116 1
-9 15 4 2713 115 1
9 -15 4 2973 115 1
-9 15 4 3061 127 1
-15 -9 4 3042 128 1
-15 -7 -4 745 38 1
-7 15 -4 715 34 1
7 -15 -4 745 33 1
-7 15 -4 781 37 1
7 -15 -4 802 35 1
-15 -7 4 766 38 1
7 -15 4 731 33 1
-7 15 4 771 36 1
-7 15 4 788 34 1
7 -15 4 711 34 1
-15 -5 -4 1528 77 1
5 -15 -4 1562 70 1
-5 15 -4 1657 69 1
5 -15 -4 1656 69 1
5 -15 4 1545 70 1
5 -15 4 1644 68 1
-5 15 4 1569 69 1
-15 -5 4 1593 77 1
-5 15 4 1760 76 1
-15 -3 -4 200 12 1
-15 -3 -4 199 9 1
-3 15 -4 197 9 1
3 -15 -4 178 11 1
3 -15 -4 201 9 1
-3 15 4 184 10 1
-3 15 4 208 10 1
-1 15 -4 14 1 1
1 -15 -4 27 2 1
-15 -1 -4 27 3 1
1 -15 -4 27 1 1
1 -15 4 21 2 1
-15 -1 4 21 2 1
-1 15 4 25 1 1
15 1 4 23 2 1
-1 15 4 25 3 1
-1 -15 -4 50 5 1
-1 -15 -4 47 5 1
-15 1 -4 54 5 1
-1 -15 -4 51 8 1
1 15 -4 40 6 1
-15 1 -4 61 6 1
15 -1 -4 29 7 1
-15 1 -4 55 8 1
-15 1 4 38 8 1
1 15 4 54 5 1
-1 -15 4 44 8 1
15 -1 4 49 6 1
-15 3 -4 322 7 1
-15 3 -4 293 10 1
15 -3 -4 316 8 1
3 15 -4 298 8 1
-3 -15 -4 264 7 1
-3 -15 -4 271 9 1
-15 3 4 280 10 1
-15 3 4 286 9 1
15 -3 4 321 8 1
3 15 4 279 7 1
-5 -15 -4 1966 51 1
-5 -15 -4 1878 53 1
-15 5 -4 1831 57 1
15 -5 -4 1813 51 1
-15 5 -4 1877 51 1
-15 5 4 1858 57 1
-5 -15 4 1852 53 1
-15 5 4 1801 57 1
5 15 4 1955 51 1
-7 -15 -4 1999 107 1
-15 7 -4 2021 105 1
-7 -15 -4 2083 105 1
-15 7 -4 2022 117 1
-7 -15 4 1971 107 1
-15 7 4 2121 117 1
7 15 4 2085 106 1
15 -7 4 2076 106 1
15 -9 -4 253 20 1
-9 -15 -4 234 21 1
-15 9 -4 262 20 1
-9 -15 -4 258 20 1
-15 9 4 252 22 1
-15 9 4 226 22 1
-15 9 4 260 19 1
9 15 4 247 20 1
15 -9 4 260 20 1
-9 -15 4 221 22 1
-15 11 -4 1966 60 1
-15 11 -4 1896 66 1
-11 -15 -4 1971 62 1
-11 -15 -4 1992 60 1
15 -11 4 1998 60 1
15 -11 4 1996 61 1
-15 11 4 2048 66 1
-15 11 4 1995 59 1
15 -13 -4 340 11 1
-15 13 -4 315 12 1
-15 13 -4 315 11 1
15 -13 4 309 11 1
15 -13 4 309 13 1
15 -15 -4 610 30 1
-15 15 -4 653 33 1
-15 15 -4 623 30 1
15 -15 4 621 30 1
-15 15 4 646 29 1
-15 15 4 595 33 1
15 -15 4 617 30 1
-14 16 -4 2 3 1
-14 16 -4 3 3 1
-16 -14 4 3 5 1
14 -16 4 3 3 1
-14 16 4 2 3 1
-14 16 4 4 5 1
14 -16 4 1 5 1
12 -16 -4 6 5 1
12 -16 -4 3 4 1
-12 16 -4 5 5 1
-16 -12 4 4 5 1
12 -16 4 8 4 1
-12 16 4 3 6 1
12 -16 4 8 6 1
-12 16 4 5 4 1
-10 16 -4 474 19 1
-10 16 -4 502 21 1
10 -16 -4 505 18 1
-16 -10 -4 490 22 1
10 -16 -4 509 20 1
10 -16 4 501 19 1
-10 16 4 500 19 1
-16 -8 -4 550 25 1
8 -16 -4 591 22 1
-8 16 -4 537 22 1
8 -16 -4 623 23 1
-8 16 4 540 22 1
-16 -8 4 599 26 1
8 -16 4 562 21 1
8 -16 4 604 23 1
6 -16 -4 3992 171 1
-6 16 -4 3985 172 1
6 -16 4 4304 171 1
6 -16 4 4007 174 1
-6 16 4 4154 189 1
-6 16 4 3978 172 1
-16 -6 4 4143 191 1
4 -16 -4 1176 45 1
4 -16 -4 1193 47 1
16 4 4 1232 46 1
-4 16 4 1240 46 1
4 -16 4 1195 45 1
-4 16 4 1215 50 1
4 -16 4 1225 46 1
-2 16 -4 170 6 1
-16 -2 -4 137 8 1
2 -16 -4 179 5 1
-2 16 4 174 6 1
2 -16 4 198 7 1
-2 16 4 173 6 1
-16 -2 4 167 9 1
16 2 4 166 6 1
-16 0 -4 0 2 1
0 16 -4 30 2 1
0 -16 -4 14 3 1
-16 0 -4 3 4 1
0 -16 -4 8 6 1
0 -16 4 40 2 1
16 0 4 1 2 1
-16 0 4 35 3 1
-2 -16 -4 305 22 1
-16 2 -4 343 22 1
-16 2 -4 357 22 1
-16 2 -4 359 26 1
-2 -16 -4 331 24 1
2 16 -4 364 23 1
16 -2 -4 354 23 1
2 16 4 319 23 1
-2 -16 4 313 24 1
-16 2 4 351 26 1
-16 4 -4 11 1 1
-16 4 -4 11 2 1
16 -4 -4 13 2 1
-4 -16 -4 13 2 1
16 -4 4 11 2 1
4 16 4 11 2 1
-16 4 4 9 3 1
-4 -16 4 11 3 1
-16 6 -4 52 6 1
-16 6 -4 52 4 1
-6 -16 -4 31 6 1
-6 -16 -4 55 4 1
-6 -16 4 28 8 1
-16 6 4 38 6 1
16 -6 4 48 5 1
-16 8 -4 2213 85 1
16 -8 -4 2188 86 1
-8 -16 -4 2073 87 1
-8 -16 4 2178 87 1
8 16 4 2244 86 1
16 -10 -4 72 6 1
-16 10 -4 79 7 1
-16 10 -4 85 5 1
-10 -16 -4 52 8 1
-16 10 4 85 7 1
10 16 4 52 8 1
-16 10 4 93 8 1
16 -10 4 80 6 1
-10 -16 4 53 11 1
16 -12 -4 1616 71 1
-16 12 -4 1681 70 1
-16 12 -4 1658 78 1
16 -12 4 1705 71 1
-16 12 4 1562 78 1
16 -12 4 1585 71 1
-16 14 -4 15 2 1
16 -14 -4 20 2 1
-16 14 -4 19 2 1
-16 14 4 13 2 1
16 -14 4 17 2 1
16 -14 4 12 3 1
-16 14 4 11 2 1
16 -16 -4 319 14 1
-16 16 -4 301 14 1
-16 16 -4 323 15 1
16 -16 4 333 14 1
-16 16 4 306 13 1
16 -16 4 317 15 1
-16 16 4 324 15 1
-15 17 -4 4 3 1
15 -17 -4 9 6 1
-15 17 -4 4 3 1
-17 -15 -4 1 3 1
-15 17 4 7 5 1
-13 17 -4 2144 76 1
13 -17 -4 2095 77 1
-13 17 -4 2209 84 1
13 -17 -4 2122 76 1
-17 -13 -4 2097 85 1
-13 17 4 2146 76 1
13 -17 4 2188 77 1
-17 -13 4 2177 85 1
11 -17 -4 555 24 1
-11 17 -4 609 27 1
-11 17 -4 552 24 1
-11 17 4 524 24 1
11 -17 4 556 23 1
9 -17 -4 2193 94 1
-17 -9 -4 2277 105 1
9 -17 -4 2159 96 1
-9 17 -4 2166 95 1
9 -17 4 2195 94 1
9 -17 4 2149 96 1
-9 17 4 2161 95 1
-17 -9 4 2284 105 1
7 -17 -4 199 10 1
-17 -7 -4 171 10 1
7 -17 -4 192 8 1
-7 17 -4 182 9 1
7 -17 4 212 9 1
7 -17 4 193 7 1
-7 17 4 169 8 1
5 -17 -4 157 11 1
5 -17 -4 188 9 1
-5 17 -4 176 11 1
-17 -5 -4 158 12 1
-17 -5 4 153 13 1
17 5 4 177 11 1
-5 17 4 183 10 1
5 -17 4 184 9 1
5 -17 4 190 11 1
3 -17 -4 1221 69 1
-3 17 -4 1259 70 1
3 -17 -4 1192 71 1
3 -17 4 1280 71 1
-3 17 4 1303 70 1
17 3 4 1302 70 1
-3 17 4 1298 77 1
-1 17 -4 386 12 1
1 -17 -4 359 12 1
1 -17 -4 363 14 1
-17 -1 -4 368 15 1
-1 17 4 384 12 1
17 1 4 385 13 1
-17 -1 4 397 15 1
1 -17 4 387 13 1
-1 17 4 388 13 1
-1 -17 -4 20 3 1
-1 -17 -4 21 6 1
1 17 -4 17 3 1
17 -1 4 24 4 1
1 17 4 17 4 1
1 17 4 18 5 1
-17 3 -4 97 5 1
-17 3 -4 101 6 1
17 -3 -4 110 7 1
-3 -17 -4 118 8 1
3 17 -4 87 7 1
-3 -17 4 83 8 1
17 -3 4 97 7 1
3 17 4 96 6 1
-5 -17 -4 1098 47 1
17 -5 -4 1120 46 1
-17 5 -4 1033 45 1
-17 5 4 1111 51 1
-5 -17 4 1065 47 1
17 -5 4 1082 46 1
5 17 4 1040 45 1
-17 7 -4 1535 63 1
-17 7 -4 1625 57 1
-7 -17 -4 1596 59 1
17 -7 -4 1645 58 1
-17 7 4 1572 64 1
7 17 4 1541 57 1
-7 -17 4 1502 58 1
-17 9 -4 187 10 1
-9 -17 -4 192 12 1
17 -9 -4 216 11 1
-17 9 -4 193 12 1
17 -9 4 195 11 1
9 17 4 194 12 1
-9 -17 4 176 13 1
-17 9 4 191 12 1
-11 -17 -4 1003 34 1
-17 11 -4 948 36 1
-17 11 -4 917 32 1
17 -11 4 939 33 1
-17 11 4 900 36 1
-11 -17 4 913 34 1
-17 13 -4 230 13 1
-17 13 -4 244 14 1
17 -13 -4 207 13 1
17 -13 4 229 13 1
17 -13 4 211 15 1
-17 13 4 234 14 1
-17 15 -4 118 10 1
-17 15 -4 102 11 1
17 -15 4 135 12 1
-17 15 4 134 12 1
-17 -17 -4 219 15 1
17 -17 -4 196 13 1
-17 17 -4 210 12 1
-17 17 -4 208 14 1
-17 17 4 185 13 1
17 -17 4 199 12 1
17 -17 4 203 13 1
-16 18 -4 84 8 1
16 -18 -4 82 8 1
-18 -16 -4 79 10 1
-16 18 -4 89 8 1
-16 18 4 77 8 1
16 -18 4 99 7 1
16 -18 4 84 9 1
-14 18 -4 817 33 1
14 -18 -4 825 34 1
-14 18 -4 861 36 1
14 -18 -4 783 32 1
14 -18 4 867 33 1
-14 18 4 821 32 1
14 -18 4 795 32 1
-18 -14 4 760 37 1
12 -18 -4 744 29 1
-12 18 -4 696 29 1
12 -18 4 710 29 1
-12 18 4 722 29 1
12 -18 4 709 28 1
-18 -12 4 700 33 1
-10 18 -4 3422 144 1
10 -18 -4 3471 145 1
10 -18 -4 3423 143 1
-10 18 4 3625 143 1
-18 -10 4 3358 159 1
10 -18 4 3597 145 1
10 -18 4 3560 142 1
-18 -8 -4 509 18 1
8 -18 -4 486 15 1
-8 18 -4 461 16 1
-18 -8 4 488 19 1
-8 18 4 501 16 1
8 -18 4 472 14 1
8 -18 4 484 16 1
6 -18 -4 1103 50 1
-6 18 -4 1120 51 1
6 -18 -4 1162 51 1
-18 -6 -4 1157 57 1
-6 18 4 1180 58 1
6 -18 4 1152 51 1
-6 18 4 1089 50 1
-18 -6 4 1133 56 1
6 -18 4 1158 49 1
4 -18 -4 1142 49 1
-4 18 -4 1092 50 1
-18 -4 -4 1160 56 1
4 -18 -4 1174 51 1
4 -18 4 1137 50 1
-4 18 4 1140 50 1
4 -18 4 1123 48 1
-18 -4 4 1247 56 1
2 -18 -4 8 3 1
-2 18 -4 10 3 1
2 -18 4 10 2 1
0 18 -4 1427 48 1
0 -18 -4 1375 47 1
0 -18 -4 1385 49 1
0 -18 4 1430 49 1
18 0 4 1421 48 1
0 18 4 1461 52 1
0 18 4 1322 48 1
-2 -18 -4 146 6 1
-2 -18 -4 123 3 1
2 18 -4 106 6 1
-18 2 -4 126 6 1
18 -2 4 137 6 1
2 18 4 134 6 1
-2 -18 4 133 7 1
2 18 4 123 5 1
-18 2 4 140 6 1
-18 4 -4 727 29 1
-4 -18 -4 692 27 1
4 18 4 691 26 1
-18 4 4 767 29 1
-4 -18 4 746 27 1
18 -4 4 740 26 1
18 -6 -4 2 3 1
-18 6 -4 8 1 1
-18 6 -4 8 2 1
-18 6 4 0 2 1
6 18 4 1 3 1
-6 -18 4 2 3 1
18 -6 4 6 3 1
-18 8 -4 1928 75 1
-8 -18 -4 1919 77 1
18 -8 -4 1798 76 1
-18 8 4 1914 84 1
8 18 4 1884 76 1
-8 -18 4 1875 77 1
-18 10 -4 921 37 1
-10 -18 -4 884 39 1
-18 10 -4 835 41 1
-10 -18 4 929 39 1
18 -10 4 945 38 1
-18 10 4 907 42 1
18 -12 -4 996 41 1
-18 12 -4 1097 45 1
-18 12 -4 1018 40 1
-12 -18 -4 1068 42 1
-18 12 4 1041 45 1
18 -12 4 1030 41 1
-12 -18 4 1026 43 1
-18 14 -4 1 2 1
18 -14 -4 0 3 1
-18 14 -4 2 2 1
18 -14 4 0 4 1
-18 14 4 0 3 1
18 -14 4 1 3 1
-18 16 -4 268 20 1
18 -16 -4 285 18 1
-18 16 -4 243 18 1
-16 -18 -4 259 21 1
18 -16 4 229 19 1
18 -16 4 250 18 1
-18 16 4 280 20 1
18 -18 -4 1 3 1
-18 18 -4 6 2 1
-18 18 -4 6 3 1
-18 -18 -4 2 2 1
18 -18 4 0 3 1
18 -18 4 1 3 1
-19 -17 -4 15 6 1
17 -19 -4 23 6 1
17 -19 4 22 6 1
17 -19 4 16 7 1
15 -19 -4 262 16 1
-15 19 -4 243 13 1
15 -19 -4 276 13 1
-19 -15 -4 284 16 1
15 -19 4 250 12 1
-15 19 4 253 13 1
15 -19 4 241 13 1
13 -19 -4 286 15 1
-19 -13 -4 253 15 1
11 -19 -4 239 14 1
-11 19 -4 251 14 1
11 -19 -4 230 13 1
-19 -11 -4 251 16 1
11 -19 4 221 13 1
-11 19 4 252 13 1
11 -19 4 238 12 1
-9 19 -4 251 13 1
-19 -9 -4 275 15 1
9 -19 -4 251 14 1
9 -19 -4 263 12 1
-9 19 4 261 13 1
9 -19 4 255 12 1
9 -19 4 255 13 1
-19 -9 4 283 16 1
-7 19 -4 1239 57 1
7 -19 -4 1271 57 1
7 -19 -4 1180 56 1
-19 -7 -4 1234 63 1
-19 -7 4 1097 63 1
7 -19 4 1211 57 1
7 -19 4 1247 55 1
-7 19 4 1160 64 1
-7 19 4 1211 56 1
-5 19 -4 451 22 1
5 -19 -4 488 22 1
-19 -5 -4 516 24 1
5 -19 4 441 21 1
3 -19 -4 742 25 1
-19 -3 -4 718 30 1
-3 19 -4 731 27 1
19 3 4 740 27 1
-3 19 4 764 26 1
-19 -3 4 745 30 1
-19 -1 -4 192 12 1
-1 19 -4 176 11 1
1 -19 -4 201 9 1
19 1 4 155 12 1
-19 -1 4 168 12 1
-1 19 4 188 10 1
-19 1 -4 662 28 1
1 19 -4 743 26 1
-1 -19 -4 703 27 1
1 19 4 726 25 1
19 -1 4 660 26 1
-1 -19 4 735 26 1
3 19 4 416 21 1
-3 -19 4 416 21 1
3 19 4 436 19 1
19 -3 4 452 20 1
-19 3 4 456 22 1
-5 -19 -4 574 32 1
-19 5 -4 587 34 1
5 19 4 642 31 1
-19 5 4 637 35 1
19 -5 4 612 32 1
-19 7 -4 207 8 1
19 -7 -4 176 11 1
-19 7 -4 211 11 1
-7 -19 -4 200 11 1
-7 -19 4 219 11 1
-19 7 4 223 11 1
19 -7 4 201 11 1
7 19 4 174 11 1
-9 -19 -4 1962 49 1
19 -9 -4 1878 48 1
-19 9 -4 1997 46 1
-19 9 -4 1957 53 1
19 -9 4 1838 48 1
-9 -19 4 1883 48 1
-19 9 4 1813 52 1
-19 11 -4 17 2 1
-11 -19 -4 40 3 1
19 -11 -4 21 3 1
-19 11 -4 14 3 1
-19 11 4 16 2 1
-11 -19 4 30 3 1
19 -11 4 23 3 1
-19 13 -4 131 8 1
-19 13 4 136 8 1
19 -15 -4 284 15 1
-19 15 -4 240 15 1
-19 15 -4 240 14 1
19 -15 4 268 14 1
-19 15 4 268 15 1
-19 17 -4 82 7 1
-17 -19 -4 68 8 1
19 -17 -4 72 9 1
-19 17 4 88 7 1
19 -17 4 76 7 1
-19 -19 -4 27 6 1
-19 19 4 36 5 1
-18 20 4 44 4 1
18 -20 4 31 2 1
16 -20 -4 5 3 1
-20 -16 -4 7 2 1
-16 20 -4 2 3 1
-16 20 4 5 4 1
16 -20 4 1 2 1
-16 20 4 0 2 1
14 -20 -4 90 8 1
-14 20 -4 86 9 1
14 -20 -4 83 11 1
-14 20 4 85 8 1
14 -20 4 82 7 1
14 -20 4 77 9 1
-14 20 4 97 10 1
-20 -12 -4 810 32 1
12 -20 -4 748 29 1
12 -20 -4 716 28 1
-12 20 -4 767 29 1
-12 20 4 798 33 1
-12 20 4 721 28 1
12 -20 4 764 29 1
-10 20 -4 1 3 1
-20 -10 -4 10 3 1
10 -20 -4 3 3 1
10 -20 -4 5 2 1
10 -20 4 2 2 1
-10 20 4 3 2 1
10 -20 4 14 2 1
-20 -10 4 7 4 1
-10 20 4 13 3 1
8 -20 -4 83 9 1
8 -20 -4 66 7 1
-8 20 -4 75 8 1
-20 -8 -4 95 10 1
-8 20 4 79 12 1
-8 20 4 71 7 1
8 -20 4 76 6 1
-20 -8 4 93 10 1
6 -20 -4 62 4 1
6 -20 -4 42 6 1
-20 -6 -4 65 7 1
-6 20 -4 55 7 1
-20 -6 4 70 8 1
-6 20 4 46 5 1
-20 -4 -4 2660 116 1
4 -20 -4 2551 103 1
4 -20 -4 2647 105 1
-4 20 -4 2474 104 1
-20 -4 4 2523 115 1
-4 20 4 2385 104 1
4 -20 4 2549 105 1
2 -20 -4 22 3 1
-20 -2 -4 26 6 1
2 -20 -4 29 4 1
-2 20 -4 45 7 1
-20 -2 4 31 7 1
2 -20 4 28 6 1
-20 0 -4 782 42 1
0 -20 -4 773 38 1
0 20 -4 735 38 1
0 -20 4 769 38 1
-20 0 4 782 42 1
0 20 4 716 37 1
-2 -20 -4 344 15 1
-20 2 -4 335 16 1
2 20 4 308 14 1
20 -2 4 288 15 1
-20 2 4 292 15 1
-2 -20 4 323 15 1
-20 4 -4 2076 88 1
-4 -20 4 2279 81 1
4 20 4 2125 80 1
-6 -20 -4 695 36 1
-20 6 -4 703 38 1
20 -6 -4 687 36 1
6 20 4 689 35 1
20 -6 4 683 35 1
-6 -20 4 706 35 1
-8 -20 -4 444 17 1
20 -8 -4 388 18 1
-20 8 -4 376 17 1
8 20 4 376 17 1
20 -8 4 375 16 1
-8 -20 4 403 17 1
-20 8 4 415 18 1
20 -10 -4 3 4 1
-20 10 -4 2 3 1
-10 -20 4 2 3 1
-20 10 4 2 3 1
-20 12 -4 100 9 1
20 -12 -4 75 10 1
-12 -20 -4 97 10 1
20 -12 4 111 9 1
-12 -20 4 97 12 1
-20 12 4 80 8 1
-20 14 -4 4 3 1
-20 14 4 15 6 1
-16 -20 -4 57 6 1
20 -16 -4 64 8 1
-20 16 -4 44 4 1
20 -16 4 48 6 1
-20 16 4 53 5 1
-20 18 4 56 6 1
-20 -20 -4 230 13 1
-20 20 4 243 13 1
-19 21 4 28 4 1
-21 -17 -4 116 9 1
-17 21 4 124 8 1
17 -21 4 128 8 1
15 -21 -4 1020 42 1
-15 21 -4 999 42 1
15 -21 4 1017 42 1
-15 21 4 937 42 1
13 -21 -4 802 34 1
13 -21 -4 827 35 1
-21 -13 -4 763 39 1
-13 21 -4 783 35 1
-13 21 4 832 35 1
-13 21 4 785 39 1
13 -21 4 850 35 1
13 -21 4 802 34 1
11 -21 -4 6 3 1
-11 21 -4 5 3 1
11 -21 -4 5 2 1
-21 -11 -4 3 3 1
-11 21 4 4 3 1
11 -21 4 5 2 1
-11 21 4 4 2 1
11 -21 4 7 2 1
-21 -11 4 10 4 1
9 -21 -4 137 8 1
-21 -9 -4 143 9 1
9 -21 -4 140 7 1
-9 21 -4 152 9 1
-21 -9 4 125 10 1
9 -21 4 123 8 1
-9 21 4 126 12 1
-9 21 4 130 8 1
7 -21 -4 390 15 1
-7 21 -4 396 16 1
-21 -7 4 357 18 1
7 -21 4 424 16 1
-7 21 4 392 16 1
-21 -5 -4 1730 71 1
5 -21 -4 1790 63 1
5 -21 -4 1809 65 1
-5 21 -4 1866 65 1
5 -21 4 1854 65 1
-21 -5 4 1771 71 1
-5 21 4 1726 64 1
3 -21 -4 300 16 1
-3 21 -4 296 16 1
3 -21 -4 302 14 1
3 -21 4 310 16 1
-21 -3 4 274 17 1
-3 21 4 326 15 1
1 -21 -4 695 34 1
-1 21 -4 631 34 1
1 -21 4 668 34 1
-1 21 4 698 33 1
-21 -1 4 657 37 1
21 1 4 708 34 1
1 21 -4 199 14 1
-1 -21 -4 224 12 1
-21 1 -4 222 13 1
-1 -21 4 204 12 1
21 -1 4 218 14 1
1 21 4 230 12 1
-21 1 4 195 13 1
-21 3 -4 282 19 1
-3 -21 -4 304 18 1
21 -3 4 284 18 1
-3 -21 4 293 18 1
-21 3 4 289 19 1
3 21 4 288 17 1
-5 -21 -4 197 12 1
-5 -21 4 193 12 1
5 21 4 169 12 1
-21 5 4 183 13 1
21 -7 -4 81 13 1
-7 -21 -4 97 9 1
-7 -21 4 80 9 1
-21 7 4 87 9 1
7 21 4 77 11 1
21 -9 -4 261 13 1
-9 -21 -4 235 10 1
-21 9 -4 259 10 1
-9 -21 4 239 10 1
21 -9 4 270 10 1
-21 9 4 267 10 1
-21 11 -4 21 6 1
-21 11 4 36 6 1
-21 13 -4 365 20 1
21 -13 -4 323 20 1
21 -13 4 339 19 1
-21 13 4 353 20 1
-21 15 -4 98 8 1
21 -15 -4 88 11 1
21 -15 4 88 9 1
-21 15 4 85 8 1
-17 -21 -4 63 7 1
-21 17 -4 55 5 1
-19 -21 -4 21 7 1
-21 19 4 15 5 1
-22 -18 -4 137 9 1
-18 22 4 139 8 1
-22 -16 -4 1 2 1
-16 22 4 1 2 1
-14 22 -4 38 8 1
14 -22 -4 29 6 1
-22 -14 -4 47 6 1
14 -22 -4 35 6 1
-14 22 4 28 6 1
14 -22 4 33 6 1
-14 22 4 27 8 1
-12 22 -4 1782 73 1
12 -22 -4 1841 73 1
12 -22 -4 1872 72 1
-22 -12 4 1936 80 1
12 -22 4 1856 73 1
-12 22 4 1872 73 1
-10 22 -4 144 9 1
10 -22 -4 129 7 1
10 -22 -4 145 8 1
-22 -10 -4 136 9 1
-22 -10 4 165 10 1
-10 22 4 122 7 1
10 -22 4 124 7 1
-10 22 4 126 12 1
-22 -8 -4 4 3 1
8 -22 -4 7 2 1
-8 22 -4 15 3 1
8 -22 -4 6 2 1
-22 -8 4 3 3 1
8 -22 4 5 2 1
-8 22 4 10 2 1
-22 -6 -4 427 21 1
-6 22 -4 438 20 1
6 -22 -4 447 19 1
6 -22 -4 403 17 1
6 -22 4 420 19 1
-22 -6 4 469 21 1
-6 22 4 386 19 1
-4 22 -4 68 9 1
4 -22 -4 84 5 1
4 -22 -4 89 7 1
4 -22 4 68 7 1
-22 -4 4 86 8 1
-2 22 -4 25 4 1
2 -22 -4 20 2 1
-22 -2 -4 26 3 1
-22 -2 4 18 3 1
2 -22 4 29 2 1
-22 -2 4 18 4 1
-2 22 4 19 3 1
-22 0 -4 616 27 1
0 22 -4 626 25 1
0 -22 -4 621 24 1
22 0 4 573 25 1
0 -22 4 626 24 1
-22 0 4 612 26 1
0 22 4 590 24 1
-2 -22 -4 38 2 1
-22 2 -4 16 3 1
2 22 4 24 3 1
22 -2 4 12 4 1
-2 -22 4 12 3 1
-22 2 4 19 3 1
-22 4 -4 8 3 1
-22 4 4 8 3 1
-4 -22 4 4 3 1
4 22 4 4 4 1
-22 6 -4 317 15 1
-6 -22 -4 339 14 1
-22 6 4 324 15 1
6 22 4 311 15 1
-6 -22 4 352 14 1
22 -6 4 352 15 1
-22 8 -4 847 38 1
-8 -22 -4 933 36 1
22 -8 -4 958 37 1
-8 -22 4 912 36 1
-22 8 4 905 39 1
22 -8 4 860 36 1
-10 -22 -4 2046 84 1
22 -10 -4 1994 84 1
-22 10 -4 2079 91 1
22 -10 4 2099 83 1
-10 -22 4 2113 84 1
-22 10 4 2040 91 1
-22 12 -4 135 9 1
22 -12 4 150 10 1
-12 -22 4 162 12 1
-22 12 4 122 9 1
22 -14 -4 50 11 1
-22 14 -4 41 4 1
-22 14 4 46 4 1
-22 16 -4 10 2 1
-22 16 4 10 2 1
-18 -22 -4 118 9 1
-22 18 4 120 8 1
-23 -17 -4 0 2 1
-17 23 -4 0 2 1
-17 23 4 2 2 1
17 -23 4 0 2 1
15 -23 -4 10 7 1
-15 23 4 11 6 1
13 -23 -4 244 11 1
-23 -13 -4 266 11 1
13 -23 -4 268 10 1
-13 23 -4 222 12 1
-13 23 4 231 12 1
-23 -11 -4 174 14 1
-11 23 -4 144 14 1
11 -23 -4 158 12 1
11 -23 -4 161 13 1
11 -23 4 172 13 1
-11 23 4 147 13 1
9 -23 -4 260 14 1
9 -23 -4 250 16 1
-9 23 -4 242 16 1
-23 -9 4 263 18 1
-9 23 4 266 16 1
9 -23 4 269 15 1
7 -23 -4 285 12 1
7 -23 -4 285 14 1
-23 -7 -4 287 16 1
-7 23 -4 306 15 1
-23 -7 4 286 16 1
7 -23 4 301 14 1
-7 23 4 280 14 1
-23 -5 -4 56 9 1
5 -23 -4 67 8 1
-5 23 -4 59 10 1
-23 -5 4 72 9 1
-5 23 4 46 7 1
5 -23 4 50 7 1
3 -23 -4 240 14 1
-23 -3 -4 284 15 1
3 -23 4 259 14 1
-23 -3 4 286 15 1
-1 23 -4 216 15 1
-23 -1 -4 233 14 1
1 -23 -4 239 13 1
1 -23 4 234 12 1
-23 -1 4 250 14 1
-23 1 -4 1656 75 1
-1 -23 -4 1621 69 1
-23 1 4 1483 75 1
23 -1 4 1546 69 1
-1 -23 4 1546 68 1
-3 -23 -4 1253 57 1
-23 3 -4 1361 62 1
-23 3 4 1368 62 1
-3 -23 4 1230 57 1
-5 -23 -4 20 7 1
-23 5 -4 9 6 1
-23 5 4 21 7 1
23 -5 4 14 10 1
-5 -23 4 13 7 1
5 23 4 17 9 1
-23 7 -4 1249 52 1
-7 -23 -4 1339 48 1
23 -7 4 1245 48 1
-7 -23 4 1346 48 1
-9 -23 -4 12 7 1
23 -9 -4 5 7 1
23 -9 4 19 9 1
-23 9 4 14 6 1
23 -11 -4 88 14 1
-11 -23 -4 124 9 1
-23 11 -4 102 7 1
-11 -23 4 113 10 1
23 -11 4 124 10 1
-23 13 -4 806 33 1
23 -13 4 824 32 1
-23 13 4 806 33 1
-23 15 -4 25 4 1
-23 15 4 20 4 1
-23 15 4 14 4 1
-23 17 -4 118 9 1
-23 17 4 125 9 1
-24 -16 -4 141 10 1
16 -24 4 130 8 1
-24 -12 -4 97 7 1
12 -24 -4 89 6 1
-24 -12 4 107 9 1
12 -24 4 94 6 1
-10 24 -4 93 9 1
10 -24 -4 106 9 1
10 -24 -4 120 8 1
-24 -10 -4 122 7 1
-10 24 4 101 8 1
10 -24 4 115 7 1
-24 -10 4 118 8 1
-8 24 -4 120 10 1
8 -24 -4 72 7 1
-8 24 4 88 8 1
8 -24 4 100 7 1
-24 -8 4 101 8 1
-24 -6 -4 1225 57 1
-6 24 -4 1161 52 1
6 -24 -4 1169 52 1
6 -24 4 1197 52 1
-6 24 4 1179 51 1
-24 -6 4 1215 57 1
-24 -4 -4 184 10 1
-4 24 -4 164 12 1
4 -24 -4 154 9 1
-24 -4 4 177 10 1
-4 24 4 156 10 1
4 -24 4 182 9 1
-2 24 -4 23 6 1
-24 -2 -4 29 7 1
2 -24 -4 34 6 1
2 -24 4 24 6 1
-24 -2 4 36 7 1
-24 0 -4 151 10 1
0 -24 -4 181 9 1
0 24 4 186 11 1
0 -24 4 167 9 1
-24 0 4 171 11 1
-2 -24 -4 46 6 1
-24 2 -4 32 3 1
24 -2 4 76 13 1
2 24 4 40 4 1
-2 -24 4 51 6 1
-24 2 4 54 6 1
-24 4 -4 230 10 1
-4 -24 -4 252 10 1
-24 4 4 250 10 1
24 -4 4 228 14 1
-4 -24 4 229 10 1
4 24 4 252 13 1
-24 6 -4 137 9 1
-6 -24 -4 169 9 1
-6 -24 4 145 9 1
-24 6 4 163 10 1
24 -6 4 177 13 1
-8 -24 -4 0 2 1
-8 -24 4 3 2 1
24 -8 4 0 5 1
-24 10 -4 141 7 1
-10 -24 -4 169 9 1
24 -10 4 161 11 1
-24 10 4 151 8 1
-24 12 -4 97 7 1
-12 -24 4 78 8 1
-24 12 4 97 7 1
-24 14 -4 63 5 1
-14 -24 -4 54 8 1
-24 14 4 61 6 1
-24 14 4 63 5 1
-24 16 -4 20 4 1
-24 16 4 22 4 1
13 -25 -4 44 5 1
13 -25 4 39 4 1
11 -25 -4 240 10 1
-25 -11 -4 244 12 1
-25 -11 4 228 12 1
11 -25 4 248 10 1
-25 -9 -4 747 34 1
9 -25 4 751 31 1
-25 -7 -4 191 12 1
-7 25 -4 231 14 1
7 -25 -4 222 12 1
7 -25 4 226 11 1
-25 -7 4 206 12 1
-7 25 4 204 12 1
-5 25 -4 26 5 1
-25 -5 -4 37 5 1
-5 25 4 50 7 1
-25 -5 4 41 5 1
3 -25 -4 51 6 1
-3 25 -4 37 6 1
-25 -3 -4 49 7 1
3 -25 4 51 6 1
-3 25 4 52 8 1
-25 -1 -4 12 3 1
1 -25 -4 4 2 1
-25 -1 4 0 3 1
1 -25 4 5 2 1
-1 25 4 4 4 1
-1 -25 -4 13 6 1
-25 1 -4 10 3 1
-25 1 4 22 6 1
1 25 4 26 9 1
-25 1 4 17 6 1
-1 -25 4 6 3 1
-3 -25 -4 147 7 1
-25 3 -4 105 7 1
3 25 4 165 12 1
-25 3 4 118 6 1
-3 -25 4 128 7 1
-25 3 4 127 8 1
25 -5 4 22 14 1
-25 7 -4 21 2 1
-7 -25 -4 19 2 1
-25 7 4 18 2 1
25 -7 4 38 6 1
-7 -25 4 20 2 1
-25 9 -4 1089 47 1
-25 9 4 1121 47 1
-9 -25 4 1064 43 1
-25 11 -4 359 13 1
-25 11 4 411 14 1
-11 -25 4 373 13 1
-25 13 -4 125 9 1
-25 13 4 111 9 1
-25 13 4 123 9 1
-26 -12 -4 22 2 1
12 -26 -4 20 2 1
-26 -10 -4 745 36 1
10 -26 -4 736 32 1
-26 -10 4 744 35 1
10 -26 4 780 32 1
-26 -8 -4 424 21 1
8 -26 -4 341 18 1
-26 -8 4 381 20 1
8 -26 4 358 18 1
-26 -6 -4 9 2 1
-26 -6 4 8 2 1
-26 -4 -4 17 2 1
4 -26 -4 7 2 1
-26 -4 4 26 2 1
4 -26 4 9 2 1
-4 26 4 8 4 1
-26 -2 -4 741 35 1
2 -26 -4 708 32 1
2 -26 4 737 32 1
-26 -2 4 796 35 1
-2 26 4 676 33 1
0 -26 -4 126 8 1
-26 0 -4 140 7 1
-26 0 4 129 8 1
-26 0 4 116 9 1
0 -26 4 136 8 1
0 26 4 98 12 1
-2 -26 -4 1 2 1
-26 2 -4 5 2 1
-26 2 4 4 2 1
-2 -26 4 2 2 1
2 26 4 8 6 1
-26 2 4 4 2 1
-4 -26 -4 304 14 1
-26 4 4 304 14 1
-26 4 4 314 14 1
-4 -26 4 263 14 1
-26 6 -4 90 6 1
-26 6 4 90 6 1
-6 -26 4 98 6 1
-26 6 4 93 6 1
-26 8 -4 208 13 1
-8 -26 -4 211 12 1
-26 8 4 214 13 1
-26 8 4 188 13 1
-8 -26 4 208 12 1
-26 10 -4 39 4 1
-26 10 4 40 4 1
-26 10 4 30 5 1
-10 -26 4 33 5 1
-26 12 -4 397 19 1
-26 12 4 375 19 1
-26 12 4 365 20 1
-27 -9 -4 96 5 1
9 -27 -4 109 5 1
9 -27 4 104 5 1
-27 -9 4 98 7 1
-27 -7 -4 6 2 1
7 -27 -4 30 1 1
7 -27 4 24 1 1
5 -27 -4 5 1 1
-27 -5 -4 12 2 1
5 -27 4 28 1 1
-27 -5 4 24 2 1
-27 -3 -4 33 4 1
3 -27 -4 26 4 1
-27 -3 4 24 5 1
-27 -1 -4 278 13 1
1 -27 -4 245 12 1
-27 -1 4 261 13 1
1 -27 4 246 12 1
-27 1 -4 43 5 1
-1 -27 4 44 5 1
-27 1 4 40 5 1
-27 1 4 50 7 1
-3 -27 -4 47 4 1
-3 -27 4 36 4 1
-27 3 4 33 4 1
-27 3 4 36 6 1
-27 5 -4 149 8 1
-5 -27 -4 148 7 1
-5 -27 4 138 7 1
-27 5 4 152 8 1
-27 5 4 144 8 1
-7 -27 -4 355 19 1
-27 7 -4 358 20 1
-27 7 4 355 20 1
-27 7 4 392 21 1
-7 -27 4 359 18 1
-27 9 -4 122 7 1
-9 -27 4 122 7 1
-27 9 4 116 7 1
6 -28 -4 2 1 1
-28 -6 -4 1 4 1
-28 -6 4 5 2 1
4 -28 4 4 1 1
-28 -4 4 2 2 1
-28 -2 -4 41 4 1
2 -28 -4 35 4 1
-28 -2 4 32 5 1
2 -28 4 30 4 1
0 -28 -4 79 6 1
-28 0 -4 77 6 1
-28 0 4 81 6 1
-28 2 -4 230 14 1
-2 -28 -4 215 13 1
-28 2 4 204 15 1
-28 2 4 231 14 1
-2 -28 4 196 13 1
-4 -28 -4 181 10 1
-28 4 -4 150 11 1
-28 4 4 182 11 1
-4 -28 4 164 10 1
-28 4 4 174 11 1
-6 -28 -4 65 5 1
-28 6 -4 77 5 1
-28 6 4 78 5 1
-6 -28 4 68 5 1
-28 6 4 80 6 1
0 -1 -5 2150 351 1
-1 0 -5 2377 351 1
0 1 -5 2462 351 1
1 0 -5 2146 351 1
0 -1 5 2407 351 1
-1 0 5 2379 351 1
0 -1 5 2215 351 1
0 -1 5 2162 389 1
-1 0 5 2287 350 1
1 -2 -5 17002 208 1
1 -2 -5 17235 209 1
-1 2 -5 17249 209 1
1 -2 5 16997 231 1
-1 -2 -5 1973 129 1
-2 1 -5 2058 129 1
2 -1 -5 1993 129 1
1 2 -5 2122 143 1
-2 1 5 1999 129 1
-2 1 5 2133 129 1
-1 -2 5 2074 143 1
-3 -2 -5 8130 260 1
2 -3 -5 8393 261 1
-2 3 -5 8786 262 1
2 -3 -5 7818 261 1
-3 -2 -5 8040 261 1
2 -3 5 8406 261 1
-2 3 5 8381 261 1
-3 -2 5 8641 290 1
3 2 5 8694 263 1
0 3 -5 14795 461 1
0 3 -5 14376 510 1
-3 0 -5 15777 463 1
3 0 -5 14061 461 1
0 -3 -5 15680 462 1
0 -3 5 14861 511 1
-2 -3 -5 1717 7 1
-3 2 -5 1720 7 1
-2 -3 -5 1737 7 1
3 -2 -5 1722 6 1
3 -2 5 1731 7 1
-3 2 5 1722 6 1
-3 2 5 1738 7 1
2 3 5 1678 7 1
-4 -3 -5 144 9 1
-3 4 5 121 9 1
3 -4 5 121 9 1
3 -4 5 119 10 1
1 4 -5 3211 45 1
4 -1 -5 3116 41 1
4 -1 -5 3021 41 1
-4 1 -5 3206 41 1
1 4 -5 3261 41 1
-1 -4 -5 3183 41 1
-1 -4 -5 3173 41 1
1 4 5 3058 41 1
-1 -4 5 3221 45 1
4 -1 5 3263 41 1
-4 1 5 3206 45 1
4 -3 -5 5136 109 1
-3 -4 -5 5142 109 1
-3 -4 -5 5358 109 1
-4 3 -5 4794 109 1
4 -3 -5 4882 109 1
4 -3 5 4802 109 1
-3 -4 5 5222 120 1
-4 3 5 4891 109 1
4 -3 5 4910 120 1
-4 3 5 4804 109 1
4 -5 -5 132 28 1
-4 5 -5 143 28 1
4 -5 -5 171 28 1
4 -5 5 153 30 1
-5 -4 5 162 31 1
-5 -2 -5 1233 112 1
-5 -2 -5 1163 112 1
2 -5 -5 1264 112 1
5 2 5 1202 112 1
-2 5 5 1262 112 1
2 -5 5 1187 112 1
0 5 -5 5461 181 1
-5 0 -5 5687 164 1
0 -5 -5 5344 163 1
0 -5 5 5473 181 1
-5 0 5 5355 181 1
-5 2 -5 16100 680 1
-2 -5 -5 15898 679 1
5 -2 -5 15420 678 1
-5 2 5 16207 678 1
-5 2 5 16423 678 1
-2 -5 5 15267 751 1
5 -4 -5 37 3 1
-5 4 -5 46 3 1
-4 -5 -5 46 3 1
-5 4 5 43 3 1
5 -4 5 40 3 1
5 -6 -5 36 9 1
-6 -5 5 36 10 1
5 -6 5 33 9 1
-5 6 5 38 9 1
6 5 5 38 9 1
-6 -3 -5 303 58 1
3 -6 -5 310 58 1
-6 -3 -5 329 58 1
-3 6 -5 280 59 1
-3 6 5 260 58 1
6 3 5 294 58 1
-6 -3 5 263 65 1
1 -6 -5 316 23 1
-1 6 -5 307 23 1
-6 -1 -5 340 23 1
1 -6 5 312 22 1
-6 1 -5 3214 335 1
1 6 -5 3338 370 1
1 6 -5 3282 334 1
-1 -6 -5 3748 336 1
6 -1 -5 3468 333 1
6 -1 -5 3471 334 1
-1 -6 -5 3462 336 1
1 6 5 3967 336 1
6 -1 5 3479 335 1
6 -3 -5 537 35 1
-3 -6 -5 541 35 1
-3 -6 -5 491 35 1
-3 -6 5 519 39 1
-6 3 5 572 35 1
-6 3 5 579 35 1
3 6 5 545 35 1
-5 -6 -5 5893 324 1
-6 5 -5 5955 324 1
-5 -6 -5 5714 324 1
6 -5 5 5631 323 1
-6 5 5 6177 325 1
-5 -6 5 5316 358 1
6 -5 5 5721 357 1
6 -7 -5 2590 71 1
-6 7 -5 2581 71 1
-7 -6 -5 2813 70 1
-7 -6 5 2751 78 1
6 -7 5 2592 71 1
-6 7 5 2572 78 1
-6 7 5 2722 71 1
7 6 5 2639 70 1
-4 7 -5 3560 115 1
4 -7 -5 3652 115 1
4 -7 -5 3345 115 1
-4 7 5 3532 115 1
7 4 5 3409 115 1
4 -7 5 3541 115 1
-4 7 5 3446 127 1
2 -7 -5 1668 54 1
-7 -2 -5 1679 54 1
2 -7 -5 1606 54 1
-7 -2 -5 1627 54 1
7 2 5 1595 54 1
2 -7 5 1543 54 1
2 -7 5 1684 54 1
-2 7 5 1529 54 1
-2 7 5 1588 60 1
-7 -2 5 1603 60 1
7 0 -5 524 31 1
-7 0 -5 544 31 1
0 7 -5 555 31 1
0 7 -5 550 34 1
0 -7 -5 575 31 1
0 -7 -5 596 31 1
7 0 5 549 31 1
0 7 5 561 31 1
-7 2 -5 117 27 1
-2 -7 -5 224 27 1
7 -2 -5 196 27 1
2 7 -5 190 27 1
-2 -7 -5 206 27 1
2 7 5 223 27 1
-4 -7 -5 2553 82 1
-7 4 -5 2509 83 1
-4 -7 -5 2494 82 1
-7 4 5 2509 91 1
-7 4 5 2686 82 1
4 7 5 2619 83 1
-6 -7 -5 2011 85 1
-7 6 -5 2099 85 1
-6 -7 -5 2209 85 1
7 -6 -5 2139 85 1
-7 6 5 2224 94 1
-7 6 5 2201 85 1
-8 -7 -5 19803 654 1
-8 -7 -5 20047 653 1
-8 -7 -5 21184 656 1
-7 8 -5 21265 657 1
-7 8 5 21376 725 1
-7 8 5 19383 656 1
8 7 5 20069 654 1
5 -8 -5 200 23 1
-8 -5 -5 304 23 1
-8 -5 -5 320 22 1
-5 8 -5 246 23 1
5 -8 5 232 23 1
8 5 5 268 23 1
-5 8 5 210 23 1
-5 8 5 223 25 1
-3 8 -5 549 57 1
-8 -3 -5 575 56 1
3 -8 -5 551 57 1
3 -8 -5 567 57 1
3 -8 5 561 56 1
-8 -1 -5 1513 47 1
-1 8 -5 1573 48 1
1 -8 -5 1611 48 1
1 -8 -5 1600 48 1
1 -8 5 1606 47 1
-1 8 5 1537 48 1
1 -8 5 1579 47 1
-1 -8 -5 5310 103 1
-8 1 -5 5190 103 1
8 -1 -5 5154 103 1
1 8 -5 5083 114 1
1 8 -5 5487 103 1
-1 -8 -5 5252 103 1
1 8 5 5396 103 1
-8 1 5 5077 114 1
8 -1 5 5278 103 1
-3 -8 -5 4876 235 1
-3 -8 -5 4781 236 1
8 -3 -5 4997 235 1
-8 3 -5 5037 236 1
3 8 -5 5037 235 1
3 8 5 4976 235 1
8 -3 5 4905 235 1
-8 3 5 4940 260 1
-8 3 5 5172 235 1
-8 3 5 5134 235 1
-5 -8 -5 1369 92 1
-5 -8 -5 1366 92 1
-8 5 -5 1288 92 1
5 8 5 1383 92 1
-8 5 5 1252 92 1
-7 -8 -5 318 16 1
8 -7 -5 339 16 1
-8 7 -5 324 16 1
-7 -8 -5 335 16 1
8 -7 5 345 16 1
7 8 5 320 16 1
8 -9 -5 925 29 1
-8 9 -5 871 29 1
-9 -8 -5 886 29 1
-8 9 5 902 29 1
8 -9 5 940 29 1
-6 9 -5 1122 34 1
-9 -6 -5 951 34 1
-9 -6 -5 1003 33 1
6 -9 -5 1086 34 1
6 -9 5 1103 34 1
-6 9 5 1101 34 1
9 6 5 1008 34 1
-9 -4 -5 3460 68 1
-9 -4 -5 3472 68 1
4 -9 -5 3775 68 1
-4 9 -5 3676 68 1
9 4 5 3396 68 1
4 -9 5 3702 68 1
-4 9 5 3671 68 1
-9 -2 -5 5 6 1
-2 9 -5 8 6 1
-9 -2 -5 6 6 1
2 -9 -5 11 6 1
2 -9 -5 11 6 1
-2 9 5 8 6 1
2 -9 5 10 6 1
-2 9 5 7 6 1
-9 0 -5 1442 61 1
0 -9 -5 1600 61 1
9 0 -5 1474 61 1
0 -9 -5 1562 61 1
0 9 -5 1559 61 1
0 9 5 1680 61 1
-9 0 5 1531 68 1
-9 2 -5 552 20 1
-2 -9 -5 534 20 1
2 9 -5 530 19 1
-2 -9 -5 575 19 1
2 9 5 560 20 1
4 9 -5 9591 468 1
-4 -9 -5 9429 469 1
-9 4 -5 9662 471 1
-4 -9 -5 9500 470 1
4 9 5 9942 470 1
9 -4 5 9284 469 1
-9 4 5 9349 469 1
-9 4 5 9505 469 1
-9 4 5 9379 521 1
-6 -9 -5 6660 205 1
-6 -9 -5 6303 205 1
9 -6 -5 6540 206 1
-9 6 -5 6616 206 1
9 -6 5 6560 206 1
-9 6 5 6839 228 1
6 9 5 6518 206 1
-9 6 5 6490 205 1
-8 -9 -5 3768 151 1
-8 -9 -5 3833 151 1
-8 -9 -5 3770 151 1
-9 8 5 3718 152 1
8 9 5 3976 152 1
9 -8 5 3620 152 1
-10 -9 -5 289 13 1
9 -10 -5 286 13 1
-9 10 -5 276 13 1
-9 10 -5 281 16 1
10 9 5 286 13 1
-9 10 5 291 13 1
-9 10 5 303 14 1
9 -10 5 257 13 1
-10 -7 -5 663 34 1
-7 10 -5 574 35 1
-10 -7 -5 613 34 1
-10 -7 -5 608 34 1
7 -10 5 597 34 1
-7 10 5 608 35 1
-7 10 5 603 38 1
10 7 5 671 35 1
-10 -5 -5 97 9 1
-5 10 -5 105 10 1
-10 -5 -5 112 10 1
5 -10 -5 109 10 1
5 -10 -5 94 10 1
-10 -5 -5 105 10 1
5 -10 5 99 10 1
-10 -5 5 134 11 1
10 5 5 102 10 1
-5 10 5 103 11 1
-10 -3 -5 1372 50 1
-10 -3 -5 1398 50 1
3 -10 -5 1330 50 1
3 -10 -5 1367 50 1
-3 10 -5 1375 50 1
-3 10 5 1310 50 1
3 -10 5 1409 50 1
10 3 5 1453 50 1
-10 -3 5 1312 56 1
1 -10 -5 1582 93 1
10 1 -5 1626 93 1
-1 10 -5 1661 93 1
-10 -1 -5 1571 93 1
1 -10 -5 1616 93 1
-10 -1 -5 1462 93 1
1 -10 5 1604 93 1
-1 10 5 1741 93 1
1 -10 5 1555 93 1
-1 10 5 1641 103 1
-1 -10 -5 1285 75 1
-10 1 -5 1114 75 1
1 10 -5 1216 75 1
-1 -10 -5 1238 75 1
1 10 5 1313 75 1
-10 3 -5 875 40 1
3 10 -5 929 40 1
-3 -10 -5 974 40 1
-10 3 5 960 44 1
10 -3 5 924 40 1
3 10 5 949 40 1
-5 -10 -5 4144 82 1
5 10 -5 3978 82 1
10 -5 -5 3898 82 1
-10 5 -5 4329 82 1
-5 -10 -5 4179 82 1
-10 5 5 4160 82 1
5 10 5 4176 82 1
10 -5 5 4080 82 1
-10 5 5 3964 82 1
-7 -10 -5 3238 118 1
-7 -10 -5 3312 119 1
-10 7 -5 3128 119 1
7 10 5 3486 119 1
-10 7 5 3353 119 1
-9 -10 -5 1271 29 1
-10 9 -5 1209 30 1
-10 9 -5 1273 33 1
-10 9 5 1236 29 1
10 -9 5 1320 30 1
9 10 5 1375 29 1
-11 -10 -5 572 19 1
-10 11 -5 522 22 1
-10 11 -5 518 20 1
10 -11 -5 522 19 1
-10 11 5 544 22 1
11 10 5 579 19 1
10 -11 5 551 19 1
-10 11 5 522 19 1
8 -11 -5 2706 104 1
-11 -8 -5 2638 103 1
-8 11 -5 2500 104 1
11 8 5 2532 104 1
-8 11 5 2801 115 1
-8 11 5 2714 104 1
8 -11 5 2591 104 1
-8 11 5 2514 115 1
-11 -6 -5 2204 88 1
-11 -6 -5 2028 87 1
-11 -6 -5 2130 87 1
-6 11 -5 2049 88 1
6 -11 -5 2045 88 1
-6 11 5 1968 98 1
11 6 5 2154 88 1
-6 11 5 2088 97 1
-4 11 -5 1857 116 1
-11 -4 -5 1987 116 1
4 -11 -5 2001 116 1
-11 -4 -5 2002 116 1
-4 11 5 2030 128 1
4 -11 5 1969 116 1
11 4 5 2107 116 1
-4 11 5 1934 116 1
-11 -2 -5 543 16 1
-11 -2 -5 565 16 1
2 -11 -5 509 16 1
2 -11 -5 508 17 1
-2 11 -5 562 17 1
-2 11 5 537 17 1
2 -11 5 566 16 1
2 -11 5 534 16 1
-11 0 -5 18584 643 1
0 11 -5 18852 642 1
0 -11 -5 19737 644 1
0 -11 -5 18443 643 1
11 0 -5 18983 640 1
-11 0 5 19789 713 1
0 11 5 17925 642 1
11 0 5 20136 643 1
-2 -11 -5 6132 301 1
-11 2 -5 6367 301 1
-2 -11 -5 5894 300 1
2 11 -5 6564 301 1
11 -2 5 6486 301 1
2 11 5 6661 301 1
-11 4 -5 221 12 1
-4 -11 -5 223 12 1
11 -4 -5 212 13 1
-4 -11 -5 208 12 1
4 11 -5 229 13 1
11 -4 5 205 13 1
-11 4 5 221 14 1
4 11 5 210 12 1
-6 -11 -5 231 9 1
-11 6 -5 269 9 1
11 -6 -5 258 9 1
-11 6 5 255 10 1
-11 6 5 257 9 1
11 -6 5 272 9 1
-11 6 5 256 9 1
11 -8 -5 1612 45 1
-11 8 -5 1643 45 1
-11 8 -5 1721 51 1
8 11 5 1653 45 1
11 -8 5 1601 45 1
-11 8 5 1656 45 1
-11 10 -5 2 4 1
11 -10 -5 6 3 1
11 -10 5 3 4 1
-11 10 5 6 4 1
-11 10 5 3 3 1
10 11 5 8 4 1
-11 10 5 6 5 1
11 -12 -5 295 9 1
-12 -11 -5 302 8 1
-11 12 -5 313 11 1
-11 12 5 314 10 1
11 -12 5 305 9 1
12 11 5 306 9 1
11 -12 5 316 11 1
-11 12 5 291 9 1
-9 12 -5 1738 45 1
-9 12 5 1674 50 1
-9 12 5 1689 45 1
-12 -9 5 1764 52 1
9 -12 5 1776 45 1
9 -12 5 1725 46 1
-9 12 5 1629 50 1
7 -12 -5 1176 44 1
-7 12 -5 1201 44 1
-12 -7 -5 1242 43 1
12 7 5 1225 44 1
-7 12 5 1113 49 1
-7 12 5 1181 48 1
-5 12 -5 258 8 1
-12 -5 -5 245 7 1
5 -12 -5 254 7 1
-5 12 5 258 8 1
5 -12 5 278 7 1
12 5 5 283 8 1
-3 12 -5 1597 68 1
-12 -3 -5 1545 67 1
3 -12 -5 1509 67 1
3 -12 -5 1613 67 1
-12 -3 -5 1591 67 1
-12 -3 -5 1490 67 1
3 -12 5 1557 67 1
12 3 5 1405 67 1
-3 12 5 1498 67 1
-3 12 5 1558 74 1
-12 -1 -5 556 31 1
-1 12 -5 576 31 1
1 -12 -5 522 31 1
-12 -1 -5 553 31 1
1 -12 5 562 30 1
-1 12 5 557 31 1
1 -12 5 555 30 1
-1 -12 -5 4168 107 1
-12 1 -5 4148 107 1
-1 -12 -5 4220 107 1
1 12 5 4242 107 1
12 -1 5 4017 107 1
-3 -12 -5 5317 223 1
-3 -12 -5 5447 223 1
3 12 -5 5493 223 1
-12 3 -5 5425 223 1
12 -3 5 5138 224 1
-5 -12 -5 6 2 1
-12 5 -5 5 3 1
-5 -12 -5 5 3 1
12 -5 -5 11 4 1
-12 5 5 9 5 1
-12 5 5 14 6 1
12 -5 5 5 3 1
-7 -12 -5 3049 110 1
-7 -12 -5 3060 111 1
-7 -12 -5 3043 110 1
-12 7 5 3132 123 1
-12 7 5 3177 123 1
7 12 5 3143 111 1
-12 7 5 3126 110 1
-12 9 -5 235 11 1
12 -9 -5 238 9 1
-12 9 5 253 11 1
9 12 5 252 9 1
-12 9 5 236 9 1
-12 9 5 240 11 1
-12 11 -5 133 2 1
-11 -12 -5 158 1 1
-12 11 -5 128 2 1
12 -11 -5 145 2 1
-11 -12 -5 205 3 1
11 12 5 136 2 1
-12 11 5 131 3 1
12 -11 5 108 3 1
-12 11 5 151 2 1
-12 11 5 145 1 1
12 -11 5 150 2 1
-12 13 -5 172 7 1
-12 13 -5 186 9 1
-13 -12 -5 166 7 1
12 -13 -5 177 7 1
13 12 5 170 8 1
-12 13 5 170 8 1
-12 13 5 197 9 1
-12 13 5 189 7 1
12 -13 5 205 9 1
12 -13 5 195 7 1
-10 13 -5 1255 36 1
10 -13 -5 1289 36 1
-13 -10 -5 1297 35 1
-10 13 -5 1302 40 1
10 -13 5 1217 37 1
-10 13 5 1278 40 1
-10 13 5 1193 36 1
-10 13 5 1256 40 1
13 10 5 1274 36 1
10 -13 5 1209 36 1
-8 13 -5 62 7 1
-8 13 -5 73 4 1
-13 -8 -5 80 4 1
8 -13 5 86 4 1
-8 13 5 78 4 1
8 -13 5 95 6 1
-8 13 5 73 5 1
13 8 5 82 4 1
-8 13 5 71 4 1
-6 13 -5 172 1 1
-13 -6 -5 161 1 1
13 6 5 161 1 1
6 -13 5 165 2 1
6 -13 5 165 1 1
-13 -6 5 144 4 1
-6 13 5 188 1 1
-4 13 -5 1523 64 1
-13 -4 -5 1400 63 1
4 -13 -5 1533 63 1
13 4 5 1458 63 1
-4 13 5 1507 63 1
-13 -4 5 1538 72 1
4 -13 5 1401 63 1
-4 13 5 1591 70 1
-13 -2 -5 39 2 1
-13 -2 -5 36 1 1
-13 -2 5 46 3 1
-13 -2 5 44 2 1
2 -13 5 34 3 1
-13 0 -5 658 27 1
-13 0 -5 710 31 1
0 13 -5 740 27 1
0 -13 -5 678 27 1
-13 0 -5 673 27 1
0 -13 -5 678 27 1
-13 0 5 711 31 1
13 0 5 690 27 1
0 13 5 687 27 1
-13 2 -5 123 6 1
-2 -13 -5 108 6 1
-2 -13 -5 117 6 1
-13 2 -5 132 9 1
-13 2 5 111 9 1
2 13 5 103 6 1
-13 2 5 104 8 1
-4 -13 -5 196 11 1
-4 -13 -5 203 11 1
13 -4 -5 230 12 1
4 13 -5 208 12 1
-13 4 -5 180 11 1
13 -4 5 195 11 1
-13 4 5 218 13 1
4 13 5 203 11 1
-6 -13 -5 4903 183 1
-6 -13 -5 4733 182 1
-13 6 -5 4725 183 1
13 -6 5 5005 183 1
-13 6 5 4994 203 1
6 13 5 5006 183 1
13 -8 -5 3314 129 1
-8 -13 -5 3311 129 1
-13 8 -5 3300 143 1
-13 8 -5 3242 129 1
8 13 5 3305 129 1
13 -8 5 3241 129 1
-13 8 5 3128 143 1
-10 -13 -5 1442 63 1
-13 10 -5 1503 61 1
-10 -13 -5 1514 61 1
-13 10 -5 1562 68 1
13 -10 5 1440 62 1
13 -10 5 1610 61 1
-13 10 5 1564 61 1
10 13 5 1535 61 1
-13 12 -5 1149 42 1
-12 -13 -5 1230 41 1
-13 12 5 1218 42 1
13 -12 5 1203 43 1
13 -12 5 1180 42 1
-13 12 5 1267 46 1
12 13 5 1282 42 1
-14 -13 -5 1172 45 1
13 -14 -5 1118 46 1
-13 14 -5 1115 46 1
-13 14 -5 1076 50 1
-13 14 5 1055 50 1
-13 14 5 1061 45 1
13 -14 5 1097 45 1
13 -14 5 1006 46 1
-11 14 -5 324 18 1
11 -14 -5 325 16 1
11 -14 -5 312 19 1
-14 -11 -5 361 16 1
-11 14 -5 332 17 1
-14 -11 5 339 21 1
11 -14 5 355 17 1
-11 14 5 313 16 1
14 11 5 303 17 1
-11 14 5 328 18 1
11 -14 5 327 16 1
9 -14 -5 218 12 1
-14 -9 -5 230 7 1
-9 14 -5 213 10 1
-9 14 5 229 9 1
14 9 5 212 8 1
-9 14 5 224 8 1
9 -14 5 208 9 1
-9 14 5 220 9 1
-14 -9 5 226 13 1
9 -14 5 215 8 1
7 -14 -5 182 4 1
-14 -7 -5 181 4 1
-7 14 -5 203 4 1
7 -14 -5 160 4 1
-7 14 5 154 4 1
-14 -7 5 205 4 1
-7 14 5 163 4 1
7 -14 5 190 6 1
-5 14 -5 2654 112 1
5 -14 -5 2469 111 1
-14 -5 -5 2517 124 1
5 -14 -5 2684 113 1
-14 -5 -5 2700 111 1
5 -14 5 2492 113 1
5 -14 5 2629 111 1
-5 14 5 2732 123 1
-5 14 5 2623 111 1
14 5 5 2525 111 1
-3 14 -5 5046 208 1
-14 -3 -5 4981 207 1
-14 -3 -5 4785 231 1
3 -14 5 4859 207 1
14 3 5 5032 208 1
-14 -1 -5 4474 137 1
1 -14 -5 4730 138 1
-14 -1 -5 4487 137 1
-1 14 -5 4625 138 1
-14 -1 5 4393 153 1
-1 14 5 4651 138 1
-1 14 5 4597 152 1
-14 -1 5 4314 153 1
-1 -14 -5 1108 39 1
1 14 -5 1232 39 1
-14 1 -5 1024 44 1
-14 1 -5 1072 39 1
-14 1 -5 1027 39 1
1 14 5 1185 39 1
-14 1 5 1203 44 1
-3 -14 -5 1234 51 1
-3 -14 -5 1257 50 1
-14 3 -5 1322 57 1
3 14 -5 1195 51 1
3 14 5 1312 51 1
14 -3 5 1334 51 1
-14 5 -5 1901 65 1
-5 -14 -5 1908 66 1
-5 -14 -5 1875 65 1
-5 -14 -5 1784 67 1
14 -5 5 1837 66 1
5 14 5 1813 66 1
-7 -14 -5 12 4 1
-14 7 -5 10 5 1
-14 7 -5 12 7 1
-7 -14 -5 6 8 1
14 -7 -5 12 5 1
7 14 5 6 4 1
-14 7 5 9 6 1
-14 7 5 14 6 1
14 -9 -5 4854 207 1
-14 9 -5 5095 229 1
-14 9 -5 5050 207 1
-9 -14 -5 4889 206 1
-9 -14 -5 4641 209 1
-14 9 5 5008 206 1
-14 9 5 5028 229 1
14 -9 5 4684 209 1
-14 11 -5 38 5 1
14 -11 -5 39 5 1
-14 11 -5 62 7 1
-11 -14 -5 60 9 1
11 14 5 51 6 1
-14 11 5 41 4 1
-14 11 5 56 6 1
14 -11 5 44 5 1
-14 11 5 35 7 1
14 -11 5 31 8 1
-13 -14 -5 847 27 1
-14 13 -5 825 30 1
14 -13 -5 821 27 1
-14 13 -5 824 28 1
-14 13 5 779 30 1
14 -13 5 793 28 1
-14 13 5 865 27 1
-14 13 5 830 31 1
14 -13 5 795 27 1
-14 15 -5 818 34 1
14 -15 -5 824 31 1
-14 15 -5 785 31 1
-14 15 5 804 30 1
14 -15 5 814 31 1
14 -15 5 775 30 1
-14 15 5 831 34 1
12 -15 -5 122 7 1
-12 15 -5 109 8 1
12 -15 -5 122 12 1
-12 15 -5 134 9 1
12 -15 5 109 9 1
-12 15 5 130 7 1
-12 15 5 129 8 1
12 -15 5 114 7 1
-10 15 -5 1593 77 1
-10 15 -5 1611 85 1
10 -15 -5 1567 78 1
10 -15 5 1665 78 1
10 -15 5 1553 77 1
-15 -10 5 1549 86 1
-10 15 5 1616 85 1
-10 15 5 1542 77 1
15 10 5 1643 77 1
-10 15 5 1532 85 1
8 -15 -5 715 23 1
-15 -8 -5 797 23 1
8 -15 -5 717 24 1
-8 15 -5 739 23 1
-8 15 -5 747 26 1
-8 15 5 727 23 1
8 -15 5 754 22 1
8 -15 5 801 24 1
-8 15 5 759 32 1
15 8 5 845 23 1
-15 -6 -5 53 7 1
6 -15 -5 30 8 1
-6 15 -5 28 6 1
6 -15 -5 26 5 1
6 -15 5 24 4 1
-15 -6 5 42 9 1
-6 15 5 29 6 1
6 -15 5 31 7 1
-6 15 5 18 5 1
-4 15 -5 191 3 1
4 -15 -5 226 7 1
-15 -4 -5 246 6 1
4 -15 -5 218 3 1
-15 -4 -5 261 3 1
4 -15 5 199 3 1
-4 15 5 223 4 1
15 4 5 243 4 1
-4 15 5 237 4 1
-15 -4 5 234 4 1
-2 15 -5 55 7 1
-15 -2 -5 55 7 1
-15 -2 -5 55 9 1
2 -15 -5 38 9 1
-2 15 5 49 7 1
-15 -2 5 35 10 1
2 -15 5 42 8 1
15 2 5 63 7 1
-2 15 5 51 7 1
-15 0 -5 1069 54 1
0 -15 -5 1016 55 1
-15 0 -5 1058 53 1
0 -15 -5 1015 54 1
0 15 -5 1115 54 1
0 -15 -5 1062 54 1
15 0 5 1089 54 1
0 -15 5 1009 55 1
-15 0 5 1105 61 1
0 15 5 1055 54 1
-2 -15 -5 1099 52 1
15 -2 -5 1209 53 1
-2 -15 -5 1078 54 1
-2 -15 -5 1112 53 1
2 15 -5 1165 53 1
-15 2 -5 1084 52 1
-2 -15 5 1106 54 1
15 -2 5 1176 53 1
2 15 5 1141 53 1
-4 -15 -5 173 4 1
-15 4 -5 159 4 1
-15 4 -5 169 7 1
-4 -15 -5 180 7 1
4 15 5 162 4 1
-4 -15 5 163 8 1
-15 4 5 166 7 1
15 -4 5 156 5 1
-15 4 5 169 6 1
-6 -15 -5 294 9 1
15 -6 -5 295 9 1
-6 -15 -5 287 11 1
-15 6 -5 256 9 1
-15 6 5 295 11 1
15 -6 5 275 10 1
-15 6 5 301 11 1
-6 -15 5 273 12 1
-15 8 -5 846 32 1
-8 -15 -5 759 30 1
-8 -15 -5 795 28 1
-15 8 5 758 32 1
15 -8 5 764 29 1
8 15 5 785 28 1
-8 -15 5 748 30 1
15 -10 -5 1509 57 1
-10 -15 -5 1702 56 1
-10 -15 -5 1678 58 1
-15 10 -5 1614 57 1
-10 -15 5 1537 58 1
-15 10 5 1608 63 1
-15 10 5 1611 55 1
-15 12 -5 269 12 1
15 -12 -5 274 12 1
-15 12 -5 297 14 1
-12 -15 -5 288 14 1
-15 12 5 253 14 1
-15 12 5 280 11 1
15 -12 5 267 12 1
15 -12 5 275 14 1
-15 12 5 267 13 1
-15 14 -5 620 32 1
-15 14 -5 586 29 1
15 -14 -5 602 29 1
15 -14 5 564 30 1
-15 14 5 566 32 1
15 -14 5 606 29 1
-15 14 5 601 28 1
-15 16 -5 405 24 1
15 -16 -5 367 21 1
-15 16 -5 399 22 1
15 -16 5 421 21 1
-15 16 5 394 21 1
15 -16 5 375 22 1
-15 16 5 417 24 1
-13 16 -5 183 14 1
-13 16 -5 166 12 1
13 -16 -5 181 12 1
13 -16 5 189 13 1
-16 -13 5 159 17 1
-13 16 5 182 12 1
13 -16 5 176 12 1
-13 16 5 195 14 1
11 -16 -5 171 9 1
11 -16 -5 168 12 1
-11 16 -5 151 9 1
-11 16 -5 131 10 1
11 -16 5 145 8 1
-16 -11 5 157 13 1
-11 16 5 166 9 1
-11 16 5 145 10 1
-16 -9 -5 12 7 1
-9 16 -5 13 5 1
-9 16 -5 19 7 1
9 -16 -5 27 9 1
-9 16 5 18 4 1
-16 -9 5 23 10 1
9 -16 5 21 4 1
9 -16 5 20 6 1
-16 -7 -5 62 8 1
7 -16 -5 65 5 1
-7 16 -5 59 6 1
7 -16 -5 73 8 1
7 -16 5 67 6 1
16 7 5 57 6 1
-16 -7 5 39 9 1
7 -16 5 60 4 1
-7 16 5 70 5 1
5 -16 -5 189 9 1
-5 16 -5 196 10 1
-16 -5 -5 182 11 1
5 -16 -5 164 11 1
5 -16 5 186 10 1
16 5 5 199 10 1
-5 16 5 172 9 1
5 -16 5 191 8 1
3 -16 -5 597 28 1
-3 16 -5 600 27 1
-16 -3 -5 668 31 1
-16 -3 5 607 31 1
-3 16 5 588 27 1
3 -16 5 585 28 1
1 -16 -5 8 3 1
-1 16 -5 7 4 1
-16 -1 -5 2 4 1
-16 -1 -5 2 6 1
1 -16 -5 5 3 1
1 -16 5 3 5 1
-16 -1 5 7 3 1
16 1 5 4 4 1
-1 16 5 6 4 1
-1 16 5 3 4 1
1 16 -5 78 11 1
-16 1 -5 68 9 1
-16 1 -5 68 13 1
-16 1 -5 77 10 1
-1 -16 -5 84 12 1
-1 -16 -5 67 10 1
-1 -16 -5 71 10 1
-1 -16 5 68 12 1
-16 1 5 59 12 1
1 16 5 67 11 1
-3 -16 -5 255 12 1
-3 -16 -5 248 11 1
-16 3 -5 253 14 1
-16 3 -5 232 11 1
16 -3 -5 244 13 1
-3 -16 -5 236 14 1
-16 3 5 210 14 1
-16 3 5 242 14 1
-3 -16 5 233 14 1
-5 -16 -5 4693 189 1
-16 5 -5 4659 186 1
-5 -16 -5 4711 186 1
16 -5 -5 4906 186 1
-16 5 -5 4675 206 1
-5 -16 5 4528 188 1
-16 5 5 4927 206 1
-16 7 -5 1850 77 1
-7 -16 -5 1801 71 1
-16 7 -5 1976 69 1
16 -7 5 1929 70 1
-7 -16 5 1848 71 1
-16 9 -5 638 24 1
16 -9 -5 699 22 1
-9 -16 -5 658 21 1
-9 -16 -5 650 23 1
-16 9 -5 670 21 1
16 -9 5 630 23 1
-16 9 5 673 24 1
-9 -16 5 630 23 1
16 -9 5 712 21 1
9 16 5 662 21 1
-16 9 5 618 23 1
-11 -16 -5 1415 46 1
-16 11 -5 1387 44 1
16 -11 -5 1415 45 1
-16 11 -5 1404 49 1
-11 -16 5 1361 47 1
16 -11 5 1396 45 1
-16 11 5 1291 49 1
-16 11 5 1340 49 1
16 -11 5 1322 45 1
11 16 5 1320 45 1
-16 13 -5 2375 102 1
16 -13 -5 2463 103 1
-16 13 -5 2352 113 1
-16 13 5 2421 101 1
-16 13 5 2573 113 1
16 -13 5 2429 103 1
16 -13 5 2331 102 1
16 -15 -5 163 10 1
-16 15 -5 181 9 1
-16 15 -5 170 10 1
-16 15 5 194 10 1
16 -15 5 166 11 1
16 -15 5 191 9 1
-16 15 5 191 9 1
-16 17 -5 347 17 1
-16 17 -5 316 16 1
16 -17 -5 305 16 1
-17 -16 -5 340 18 1
16 -17 5 346 15 1
16 -17 5 357 16 1
-16 17 5 325 15 1
-16 17 5 343 17 1
-17 -14 -5 1370 59 1
-14 17 -5 1358 53 1
-14 17 -5 1384 58 1
14 -17 -5 1388 53 1
-14 17 5 1376 52 1
14 -17 5 1405 53 1
14 -17 5 1343 52 1
-12 17 -5 496 27 1
-12 17 -5 518 29 1
-17 -12 -5 555 30 1
12 -17 -5 470 26 1
12 -17 -5 509 28 1
-12 17 5 470 26 1
12 -17 5 503 25 1
12 -17 5 509 26 1
-17 -12 5 520 31 1
10 -17 -5 250 11 1
-10 17 -5 240 12 1
10 -17 -5 266 14 1
-17 -10 -5 234 14 1
10 -17 5 252 11 1
-17 -10 5 237 15 1
-10 17 5 229 12 1
10 -17 5 257 12 1
8 -17 -5 627 20 1
-17 -8 -5 609 22 1
-8 17 -5 636 19 1
8 -17 -5 613 19 1
-8 17 5 625 19 1
8 -17 5 661 19 1
-17 -8 5 604 22 1
6 -17 -5 2484 106 1
6 -17 -5 2470 104 1
-6 17 -5 2632 105 1
17 6 5 2450 105 1
-6 17 5 2645 105 1
6 -17 5 2537 103 1
6 -17 5 2635 106 1
-17 -6 5 2466 116 1
4 -17 -5 1184 35 1
-4 17 -5 1211 36 1
4 -17 -5 1262 37 1
-17 -4 -5 1229 40 1
4 -17 5 1230 34 1
4 -17 5 1231 36 1
-4 17 5 1211 39 1
-17 -4 5 1193 40 1
-4 17 5 1250 36 1
-17 -2 -5 126 10 1
2 -17 -5 160 10 1
2 -17 -5 170 7 1
-2 17 5 159 8 1
2 -17 5 158 9 1
17 2 5 144 8 1
-2 17 5 164 9 1
0 17 -5 1307 49 1
0 -17 -5 1284 50 1
0 -17 -5 1309 48 1
0 17 5 1328 54 1
0 -17 5 1260 50 1
0 17 5 1231 49 1
-17 0 5 1287 55 1
-2 -17 -5 667 31 1
-17 2 -5 643 31 1
-17 2 -5 613 32 1
-2 -17 -5 622 33 1
2 17 5 657 35 1
17 -2 5 605 33 1
-17 2 5 684 36 1
2 17 5 650 32 1
-17 2 5 657 36 1
-2 -17 5 637 33 1
-4 -17 -5 3765 167 1
-17 4 -5 3936 164 1
-17 4 -5 3821 183 1
-17 4 5 3842 183 1
-17 4 5 3901 183 1
-4 -17 5 3693 167 1
4 17 5 3916 165 1
-6 -17 -5 174 2 1
-17 6 -5 182 2 1
17 -6 -5 204 3 1
6 17 5 184 2 1
17 -6 5 168 2 1
-6 -17 5 234 3 1
-17 6 5 190 3 1
-17 6 5 224 2 1
17 -8 -5 1084 47 1
-8 -17 -5 940 47 1
-17 8 -5 1012 51 1
-17 8 -5 1106 46 1
-17 8 5 936 51 1
8 17 5 983 46 1
-8 -17 5 973 47 1
-17 8 5 945 51 1
-17 10 -5 501 20 1
-17 10 -5 499 17 1
-10 -17 -5 432 19 1
-10 -17 5 437 20 1
-17 10 5 489 21 1
17 -10 5 457 20 1
10 17 5 481 19 1
-17 10 5 486 20 1
17 -10 5 445 18 1
-17 12 -5 420 22 1
-12 -17 -5 419 21 1
-17 12 -5 428 19 1
17 -12 5 454 21 1
-17 12 5 424 22 1
17 -14 -5 510 25 1
-17 14 -5 479 27 1
-17 14 -5 464 24 1
17 -14 5 513 25 1
-17 14 5 483 27 1
17 -16 -5 130 9 1
-17 16 -5 149 8 1
-17 16 -5 155 9 1
17 -16 5 153 10 1
-17 16 5 152 9 1
17 -16 5 147 8 1
-17 18 -5 56 7 1
17 -18 -5 57 8 1
-18 -17 -5 58 9 1
-17 18 -5 63 7 1
17 -18 5 66 6 1
17 -18 5 57 8 1
15 -18 -5 82 7 1
-15 18 -5 106 8 1
-15 18 -5 89 7 1
-18 -15 -5 118 10 1
-15 18 5 89 7 1
15 -18 5 108 8 1
15 -18 5 119 6 1
-13 18 -5 14 3 1
-18 -13 -5 11 3 1
13 -18 -5 2 3 1
13 -18 -5 8 2 1
13 -18 5 11 2 1
-13 18 5 9 2 1
-18 -13 5 16 5 1
-11 18 -5 209 14 1
11 -18 -5 233 13 1
11 -18 -5 206 15 1
-11 18 5 219 13 1
11 -18 5 212 13 1
11 -18 5 212 12 1
9 -18 -5 507 19 1
9 -18 -5 516 21 1
-9 18 -5 501 20 1
9 -18 5 490 18 1
7 -18 -5 29 2 1
-7 18 -5 22 3 1
7 -18 -5 28 3 1
-18 -7 -5 22 3 1
-7 18 5 25 4 1
-18 -7 5 33 3 1
7 -18 5 25 2 1
-7 18 5 28 2 1
5 -18 -5 1174 31 1
5 -18 -5 1217 33 1
-5 18 -5 1126 32 1
-18 -5 -5 1127 36 1
18 5 5 1099 32 1
5 -18 5 1158 30 1
-5 18 5 1154 32 1
5 -18 5 1181 32 1
-18 -5 5 1215 36 1
3 -18 -5 2629 109 1
3 -18 -5 2753 111 1
-3 18 -5 2698 110 1
-3 18 5 2588 110 1
3 -18 5 2596 111 1
-18 -3 5 2588 122 1
18 3 5 2584 110 1
1 -18 -5 307 15 1
-1 18 -5 279 14 1
1 -18 -5 294 13 1
-1 18 5 292 14 1
-1 18 5 288 15 1
1 -18 5 307 14 1
-1 -18 -5 185 14 1
-18 1 -5 148 14 1
-1 -18 -5 165 11 1
1 18 -5 157 13 1
1 18 5 173 14 1
-1 -18 5 173 13 1
18 -1 5 138 13 1
1 18 5 163 12 1
-3 -18 -5 2109 73 1
18 -3 5 2045 72 1
3 18 5 2073 72 1
-18 5 -5 1322 61 1
-18 5 -5 1412 54 1
-5 -18 -5 1487 56 1
18 -5 -5 1416 56 1
5 18 5 1423 55 1
-5 -18 5 1403 56 1
-18 5 5 1455 61 1
-18 7 -5 0 2 1
-18 7 -5 1 2 1
18 -7 -5 3 3 1
-18 7 5 3 2 1
-7 -18 5 5 3 1
18 -7 5 0 3 1
-18 9 -5 1110 52 1
-9 -18 -5 1094 54 1
-18 9 5 1119 59 1
9 18 5 1069 53 1
-18 11 -5 58 7 1
-18 11 -5 62 5 1
-11 -18 -5 71 9 1
-11 -18 5 52 10 1
-18 11 5 53 6 1
18 -11 5 67 7 1
-18 13 -5 199 9 1
18 -13 -5 169 11 1
-18 13 -5 203 10 1
-18 13 5 163 10 1
18 -13 5 185 10 1
18 -13 5 173 12 1
-18 15 -5 112 8 1
18 -15 -5 130 9 1
-18 15 -5 115 9 1
18 -15 5 139 11 1
18 -15 5 118 8 1
-18 15 5 128 9 1
-17 -18 -5 233 14 1
-18 17 -5 250 13 1
18 -17 -5 259 13 1
18 -17 5 244 13 1
18 -17 5 242 11 1
-18 17 5 242 12 1
18 -19 -5 518 19 1
18 -19 5 455 18 1
-18 19 5 513 21 1
18 -19 5 493 18 1
-19 -16 -5 3 3 1
16 -19 -5 2 3 1
-16 19 -5 1 3 1
16 -19 5 1 2 1
16 -19 5 2 2 1
-16 19 5 3 3 1
-16 19 5 2 4 1
-19 -14 -5 521 25 1
-14 19 -5 469 22 1
14 -19 -5 490 21 1
14 -19 -5 476 23 1
-14 19 5 457 21 1
14 -19 5 492 21 1
14 -19 5 475 20 1
12 -19 -5 90 6 1
-12 19 -5 77 7 1
-19 -12 -5 95 9 1
12 -19 -5 101 9 1
-19 -12 5 88 12 1
12 -19 5 80 6 1
12 -19 5 71 7 1
-12 19 5 80 7 1
-10 19 -5 472 24 1
-19 -10 -5 514 27 1
10 -19 -5 499 25 1
10 -19 -5 489 23 1
-10 19 5 479 24 1
10 -19 5 472 24 1
10 -19 5 457 22 1
-10 19 5 531 27 1
8 -19 -5 53 7 1
-8 19 -5 50 6 1
-19 -8 -5 43 7 1
8 -19 -5 40 4 1
-8 19 5 55 10 1
8 -19 5 31 6 1
8 -19 5 38 4 1
-19 -8 5 57 9 1
-8 19 5 39 5 1
6 -19 -5 28 4 1
-19 -6 -5 25 7 1
6 -19 -5 24 7 1
-6 19 -5 26 6 1
-19 -6 5 30 9 1
-6 19 5 37 5 1
6 -19 5 21 5 1
4 -19 -5 731 31 1
4 -19 -5 799 33 1
-4 19 -5 686 32 1
-19 -4 -5 699 36 1
19 4 5 724 33 1
4 -19 5 764 32 1
-19 -4 5 788 36 1
-4 19 5 742 32 1
-2 19 -5 148 13 1
2 -19 -5 139 11 1
-19 -2 -5 163 14 1
19 2 5 161 13 1
-2 19 5 138 12 1
-19 0 -5 1148 62 1
0 -19 -5 1147 54 1
0 19 -5 1127 56 1
19 0 5 1042 55 1
0 19 5 1043 55 1
-19 0 5 1082 61 1
-2 -19 -5 829 44 1
-19 2 -5 824 48 1
2 19 5 867 47 1
19 -2 5 775 43 1
2 19 5 863 43 1
-4 -19 -5 10 2 1
4 19 5 4 5 1
19 -4 5 18 3 1
-19 6 -5 91 4 1
-6 -19 -5 106 8 1
19 -6 5 95 7 1
6 19 5 102 7 1
-19 6 5 92 7 1
-6 -19 5 99 8 1
-8 -19 -5 386 14 1
-19 8 -5 415 15 1
-19 8 -5 399 12 1
19 -8 -5 414 15 1
-19 8 5 361 15 1
8 19 5 397 14 1
-8 -19 5 392 15 1
19 -8 5 362 14 1
19 -10 -5 353 17 1
-19 10 -5 365 17 1
-10 -19 -5 346 16 1
-19 10 -5 360 14 1
19 -10 5 339 15 1
-19 10 5 343 17 1
-10 -19 5 339 17 1
19 -12 -5 3229 124 1
-12 -19 -5 3100 125 1
-19 12 -5 3253 122 1
-19 12 -5 3107 136 1
19 -12 5 3024 123 1
-12 -19 5 3001 125 1
-19 12 5 3072 136 1
-19 14 -5 5 2 1
19 -14 -5 4 4 1
-19 14 -5 1 2 1
19 -14 5 3 2 1
-19 14 5 4 2 1
19 -16 -5 64 8 1
-19 16 -5 53 7 1
-19 16 -5 65 7 1
-19 16 5 50 6 1
19 -16 5 55 6 1
19 -16 5 79 10 1
-19 18 -5 2 2 1
19 -18 -5 7 4 1
-19 18 -5 2 4 1
-18 -19 -5 6 2 1
-19 18 5 2 2 1
19 -18 5 4 3 1
19 -18 5 6 3 1
-20 -19 -5 7 2 1
-19 20 5 9 4 1
-20 -17 -5 70 6 1
-17 20 -5 83 9 1
17 -20 5 56 6 1
-17 20 5 68 6 1
17 -20 5 78 7 1
15 -20 -5 846 29 1
-15 20 -5 795 30 1
-15 20 5 796 29 1
15 -20 5 769 28 1
15 -20 5 832 29 1
13 -20 -5 505 24 1
-13 20 -5 498 23 1
-13 20 5 487 26 1
13 -20 5 513 22 1
-13 20 5 474 22 1
13 -20 5 512 23 1
-11 20 -5 818 34 1
-20 -11 -5 851 37 1
11 -20 -5 917 33 1
11 -20 5 907 33 1
11 -20 5 872 32 1
-11 20 5 911 37 1
-20 -11 5 855 37 1
9 -20 -5 26 3 1
-20 -9 -5 26 3 1
-9 20 -5 29 3 1
-9 20 5 40 2 1
-9 20 5 23 4 1
-20 -9 5 35 4 1
9 -20 5 31 2 1
7 -20 -5 1343 52 1
7 -20 -5 1343 51 1
-7 20 -5 1324 52 1
7 -20 5 1386 52 1
-7 20 5 1271 52 1
5 -20 -5 168 5 1
-20 -5 -5 181 8 1
-5 20 -5 180 8 1
5 -20 5 168 7 1
-20 -5 5 197 9 1
-5 20 5 161 6 1
-3 20 -5 6 3 1
3 -20 -5 12 2 1
-20 -3 -5 3 3 1
3 -20 -5 6 2 1
20 3 5 3 4 1
3 -20 5 6 2 1
-3 20 5 8 2 1
-20 -1 -5 208 18 1
1 -20 -5 213 14 1
-1 20 -5 174 17 1
1 -20 -5 207 16 1
-1 20 5 193 16 1
-20 -1 5 182 18 1
1 -20 5 195 16 1
-1 -20 -5 25 3 1
-20 1 -5 18 2 1
1 20 -5 26 4 1
1 20 5 14 2 1
-20 1 5 10 3 1
-1 -20 5 14 2 1
20 -1 5 6 3 1
-20 3 -5 2219 105 1
3 20 5 2172 95 1
20 -3 5 2243 95 1
-3 -20 5 2275 96 1
-20 5 -5 90 8 1
-5 -20 -5 101 8 1
-5 -20 5 89 8 1
-20 5 5 91 8 1
5 20 5 100 9 1
5 20 5 123 8 1
20 -5 5 116 8 1
20 -7 -5 685 29 1
-20 7 -5 734 31 1
-7 -20 -5 794 29 1
20 -7 5 705 28 1
7 20 5 737 28 1
-7 -20 5 766 29 1
-9 -20 -5 1 7 1
-20 9 -5 0 6 1
20 -9 -5 0 9 1
-20 9 5 4 6 1
20 -9 5 0 6 1
20 -11 -5 32 4 1
-20 11 -5 7 2 1
-11 -20 -5 16 3 1
-20 11 -5 7 2 1
-20 11 5 7 2 1
-11 -20 5 19 3 1
20 -13 -5 258 17 1
-20 13 -5 298 16 1
20 -13 5 303 15 1
-20 13 5 257 16 1
-20 15 -5 53 7 1
-20 15 -5 46 8 1
-20 15 5 65 7 1
20 -15 5 73 7 1
20 -17 -5 41 4 1
-20 17 -5 42 4 1
20 -17 5 57 7 1
-19 -20 -5 136 8 1
-20 19 5 135 8 1
-21 -18 -5 87 7 1
18 -21 5 90 7 1
-18 21 5 95 7 1
-16 21 -5 0 4 1
-16 21 5 0 2 1
-14 21 -5 179 10 1
14 -21 -5 194 10 1
-21 -14 -5 180 11 1
14 -21 -5 188 12 1
14 -21 5 187 10 1
14 -21 5 194 10 1
-14 21 5 196 10 1
-14 21 5 189 10 1
12 -21 -5 300 15 1
-12 21 -5 278 16 1
-21 -12 -5 334 18 1
12 -21 -5 312 16 1
12 -21 5 300 14 1
-12 21 5 291 15 1
12 -21 5 321 16 1
-12 21 5 324 18 1
10 -21 -5 615 20 1
10 -21 -5 635 21 1
-10 21 -5 579 21 1
10 -21 5 594 21 1
-10 21 5 618 24 1
-21 -10 5 589 24 1
-10 21 5 591 21 1
-8 21 -5 59 9 1
8 -21 -5 66 7 1
-21 -8 -5 66 10 1
8 -21 -5 62 9 1
8 -21 5 59 8 1
-8 21 5 54 8 1
-21 -8 5 82 11 1
6 -21 -5 76 2 1
-21 -6 -5 110 3 1
-6 21 -5 114 3 1
6 -21 5 114 2 1
-6 21 5 119 2 1
-21 -6 5 129 3 1
4 -21 -5 804 34 1
4 -21 -5 759 36 1
-21 -4 -5 742 39 1
-4 21 -5 762 36 1
4 -21 5 815 36 1
-4 21 5 758 35 1
-21 -4 5 745 39 1
2 -21 -5 202 9 1
-21 -2 -5 214 12 1
2 -21 -5 200 11 1
-2 21 -5 203 12 1
-21 -2 5 185 13 1
21 2 5 209 13 1
-2 21 5 202 11 1
-21 -2 5 204 12 1
2 -21 5 216 11 1
0 21 -5 466 26 1
-21 0 -5 515 28 1
0 -21 -5 470 26 1
0 -21 5 475 26 1
-21 0 5 445 28 1
0 21 5 477 25 1
21 0 5 523 26 1
-21 2 -5 273 14 1
-2 -21 -5 334 13 1
-2 -21 5 314 13 1
2 21 5 318 13 1
-4 -21 -5 65 7 1
4 21 5 55 7 1
-4 -21 5 62 7 1
-21 4 5 60 7 1
-6 -21 -5 10 7 1
-21 6 5 6 6 1
6 21 5 8 8 1
21 -6 5 14 7 1
21 -8 -5 31 5 1
-8 -21 -5 30 3 1
-21 8 -5 18 2 1
21 -8 5 18 3 1
8 21 5 20 4 1
-8 -21 5 31 3 1
-21 8 5 29 2 1
-21 10 -5 24 3 1
-10 -21 -5 22 3 1
21 -10 -5 7 5 1
-21 10 5 25 3 1
21 -10 5 40 6 1
-10 -21 5 15 3 1
21 -12 -5 127 12 1
-21 12 -5 136 9 1
-21 12 5 120 9 1
-12 -21 5 129 12 1
21 -12 5 134 9 1
21 -14 -5 3 4 1
21 -14 5 1 3 1
-16 -21 -5 24 6 1
-21 16 -5 21 4 1
-21 16 5 14 3 1
-18 -21 -5 1086 48 1
-21 18 5 994 49 1
-22 -17 -5 52 6 1
-17 22 5 48 5 1
-22 -15 -5 37 5 1
-15 22 5 41 6 1
13 -22 -5 340 13 1
13 -22 -5 352 14 1
-22 -13 -5 317 14 1
-13 22 -5 349 14 1
-13 22 5 364 14 1
13 -22 5 359 13 1
11 -22 -5 234 12 1
-11 22 -5 249 14 1
11 -22 -5 231 14 1
11 -22 5 240 13 1
-11 22 5 225 13 1
9 -22 -5 189 10 1
9 -22 -5 191 8 1
-22 -9 -5 188 11 1
-9 22 -5 197 11 1
9 -22 5 206 9 1
-9 22 5 188 9 1
-22 -9 5 190 12 1
7 -22 -5 60 5 1
-22 -7 -5 51 8 1
7 -22 -5 77 7 1
7 -22 5 51 7 1
-22 -7 5 68 9 1
-7 22 5 72 6 1
5 -22 -5 468 17 1
5 -22 -5 475 15 1
-5 22 -5 471 18 1
-22 -5 5 458 19 1
-5 22 5 449 17 1
5 -22 5 464 17 1
-22 -3 -5 38 7 1
3 -22 -5 40 7 1
3 -22 -5 40 5 1
-3 22 -5 37 9 1
-3 22 5 38 6 1
-22 -3 5 54 8 1
3 -22 5 28 6 1
-22 -1 -5 1911 85 1
-1 22 -5 1884 77 1
1 -22 -5 2081 77 1
22 1 5 1851 77 1
1 -22 5 2011 77 1
-22 -1 5 1940 86 1
-22 -1 5 2016 85 1
-1 22 5 2096 76 1
-22 1 -5 983 41 1
-1 -22 5 989 37 1
1 22 5 924 37 1
-22 1 5 869 41 1
22 -1 5 897 38 1
-22 3 -5 198 9 1
-3 -22 -5 236 9 1
-3 -22 5 207 9 1
22 -3 5 193 10 1
-22 3 5 202 9 1
3 22 5 223 9 1
-5 -22 -5 85 9 1
-22 5 -5 68 9 1
22 -5 5 86 10 1
5 22 5 73 10 1
-5 -22 5 80 9 1
-22 5 5 72 9 1
-7 -22 -5 1098 49 1
-7 -22 5 1061 48 1
-22 9 -5 66 3 1
-9 -22 -5 65 3 1
-22 9 5 95 6 1
-9 -22 5 68 3 1
-22 11 -5 27 6 1
22 -11 -5 19 6 1
-11 -22 -5 24 7 1
-22 11 5 25 6 1
-11 -22 5 29 9 1
22 -13 -5 11 6 1
-22 13 -5 18 4 1
22 -13 5 19 7 1
-22 13 5 19 4 1
-15 -22 -5 7 6 1
-22 15 5 9 4 1
-22 17 -5 4 2 1
-17 -22 -5 8 3 1
-22 17 5 3 2 1
16 -23 5 51 5 1
-16 23 5 50 6 1
-14 23 5 59 7 1
14 -23 5 53 5 1
-12 23 -5 18 4 1
-12 23 5 27 8 1
-12 23 5 20 4 1
10 -23 -5 158 9 1
-10 23 -5 155 10 1
10 -23 -5 175 8 1
10 -23 5 159 8 1
-23 -10 5 148 9 1
-10 23 5 158 9 1
-23 -8 -5 612 31 1
8 -23 -5 563 28 1
8 -23 -5 561 26 1
-8 23 -5 617 29 1
-8 23 5 584 28 1
8 -23 5 580 28 1
-23 -8 5 631 31 1
6 -23 -5 380 16 1
-6 23 -5 379 19 1
-23 -6 -5 407 20 1
6 -23 -5 386 18 1
-23 -6 5 415 20 1
6 -23 5 401 17 1
-6 23 5 360 17 1
4 -23 -5 91 8 1
-4 23 -5 73 10 1
-23 -4 -5 114 9 1
-23 -4 5 91 9 1
4 -23 5 91 7 1
-23 -2 -5 31 4 1
2 -23 -5 29 3 1
-2 23 5 33 3 1
-23 0 -5 95 10 1
0 -23 -5 107 9 1
-23 0 5 112 11 1
0 -23 5 78 9 1
-23 0 5 112 10 1
-2 -23 -5 246 10 1
-23 2 -5 175 10 1
-23 2 5 203 11 1
-2 -23 5 202 10 1
-4 -23 -5 7 6 1
-23 4 5 2 3 1
23 -4 5 2 4 1
-4 -23 5 9 6 1
4 23 5 2 4 1
-23 6 -5 20 6 1
-6 -23 -5 29 7 1
23 -6 5 30 9 1
6 23 5 34 10 1
-6 -23 5 23 7 1
-23 6 5 43 7 1
-23 8 -5 430 23 1
-8 -23 -5 452 22 1
-23 8 5 476 23 1
23 -8 5 402 22 1
-8 -23 5 462 22 1
-23 10 -5 23 7 1
-10 -23 -5 33 8 1
-23 10 5 34 7 1
23 -10 5 29 9 1
-10 -23 5 29 8 1
-23 12 -5 29 1 1
23 -12 -5 7 7 1
-23 12 5 18 1 1
-12 -23 5 18 3 1
-23 14 -5 203 12 1
-14 -23 -5 201 12 1
-23 14 5 215 12 1
-23 14 5 194 12 1
-23 16 -5 255 15 1
-16 -23 -5 259 15 1
-23 16 5 273 15 1
-24 -15 -5 8 2 1
15 -24 5 13 4 1
-24 -13 -5 329 18 1
13 -24 -5 368 17 1
13 -24 5 355 17 1
-11 24 -5 107 10 1
11 -24 -5 103 6 1
-24 -11 -5 113 7 1
-11 24 5 103 8 1
9 -24 -5 223 13 1
-24 -9 -5 215 14 1
-9 24 -5 207 15 1
9 -24 -5 213 13 1
9 -24 5 214 13 1
-24 -9 5 257 14 1
-9 24 5 222 13 1
7 -24 -5 42 6 1
-7 24 -5 83 10 1
-24 -7 5 61 7 1
-7 24 5 36 6 1
7 -24 5 71 6 1
5 -24 -5 895 37 1
-5 24 -5 821 38 1
-24 -5 -5 845 41 1
-5 24 5 868 37 1
5 -24 5 868 37 1
-24 -5 5 854 40 1
-3 24 -5 2 5 1
3 -24 -5 5 2 1
-24 -3 -5 8 3 1
-3 24 5 4 3 1
3 -24 5 6 2 1
-24 -3 5 8 3 1
-24 -1 -5 232 12 1
1 -24 -5 237 12 1
1 -24 5 220 11 1
-24 -1 5 230 14 1
-24 -1 5 213 12 1
-1 24 5 213 12 1
-24 1 -5 120 8 1
-1 -24 -5 131 8 1
-24 1 5 159 8 1
-24 1 5 136 9 1
1 24 5 112 9 1
24 -1 5 126 14 1
-1 -24 5 127 8 1
-3 -24 -5 25 6 1
3 24 5 31 10 1
24 -3 5 19 6 1
-3 -24 5 19 6 1
-24 3 5 27 7 1
-5 -24 -5 79 7 1
-24 5 -5 81 7 1
-24 5 5 91 7 1
5 24 5 99 11 1
-5 -24 5 79 7 1
24 -5 5 104 12 1
-7 -24 -5 83 8 1
-7 -24 5 66 8 1
24 -7 5 73 11 1
-24 7 5 93 8 1
-24 9 -5 54 2 1
-9 -24 -5 4 2 1
-9 -24 5 6 2 1
24 -9 5 44 5 1
-24 11 -5 317 14 1
-24 11 5 284 14 1
24 -11 5 290 17 1
-11 -24 5 331 13 1
-24 13 -5 39 5 1
-24 13 5 49 6 1
-24 13 5 53 6 1
-15 -24 -5 104 8 1
-24 15 -5 103 6 1
-24 15 5 115 6 1
-24 15 5 112 6 1
14 -25 -5 463 18 1
-25 -14 -5 495 20 1
14 -25 5 486 18 1
-25 -12 -5 11 2 1
12 -25 -5 15 2 1
-25 -10 -5 0 2 1
10 -25 -5 22 2 1
10 -25 5 32 1 1
-25 -10 5 5 3 1
-25 -8 -5 159 10 1
8 -25 -5 150 10 1
-8 25 -5 158 12 1
-8 25 5 158 11 1
8 -25 5 153 9 1
-25 -8 5 170 10 1
6 -25 -5 80 7 1
-6 25 -5 78 12 1
-25 -6 -5 95 7 1
-25 -6 5 94 7 1
6 -25 5 95 7 1
-6 25 5 88 8 1
-4 25 -5 388 19 1
4 -25 -5 423 16 1
-25 -4 5 390 17 1
-4 25 5 378 17 1
4 -25 5 411 16 1
2 -25 -5 678 32 1
-25 -2 -5 718 36 1
-2 25 5 663 32 1
2 -25 5 674 32 1
-25 0 -5 61 7 1
0 25 5 43 5 1
-25 0 5 63 7 1
-2 -25 -5 5 3 1
-2 -25 5 15 6 1
2 25 5 9 5 1
-25 2 5 21 6 1
-4 -25 -5 26 2 1
25 -4 5 37 7 1
-4 -25 5 29 2 1
4 25 5 26 5 1
-25 4 5 26 2 1
-6 -25 -5 9 3 1
-25 6 -5 20 4 1
-6 -25 5 19 6 1
-25 6 5 8 2 1
25 -6 5 18 6 1
-8 -25 -5 4 2 1
-25 8 -5 2 1 1
-25 8 5 2 2 1
-25 8 5 2 2 1
-25 10 -5 125 8 1
-25 10 5 115 9 1
-25 10 5 118 8 1
-10 -25 5 126 8 1
-25 12 -5 547 21 1
-25 12 5 567 22 1
-25 14 -5 0 1 1
-25 14 5 2 2 1
-25 14 5 2 1 1
11 -26 -5 17 4 1
-26 -11 -5 22 5 1
9 -26 -5 410 17 1
-26 -9 -5 409 18 1
9 -26 5 389 16 1
-26 -9 5 373 18 1
7 -26 -5 4 1 1
-26 -7 -5 10 2 1
-26 -7 5 18 2 1
7 -26 5 18 1 1
-26 -5 -5 135 8 1
5 -26 -5 122 8 1
-26 -5 5 123 8 1
5 -26 5 132 8 1
-5 26 5 143 10 1
-26 -3 -5 0 2 1
3 -26 -5 1 2 1
-26 -3 5 0 2 1
-3 26 5 0 4 1
3 -26 5 0 2 1
-26 -1 -5 33 5 1
1 -26 -5 35 6 1
-1 26 5 25 5 1
-26 -1 5 35 5 1
1 -26 5 37 5 1
-1 -26 -5 217 13 1
-26 1 -5 208 14 1
-26 1 5 227 14 1
-26 1 5 217 14 1
-1 -26 5 245 13 1
1 26 5 227 16 1
-3 -26 -5 24 6 1
-26 3 -5 25 4 1
-26 3 5 19 5 1
-3 -26 5 23 6 1
-26 3 5 17 6 1
-26 5 -5 28 4 1
-26 5 5 30 5 1
-26 5 5 35 4 1
-26 7 -5 37 1 1
-26 7 5 17 2 1
-26 7 5 34 1 1
-7 -26 5 35 1 1
-26 9 -5 132 10 1
-26 9 5 135 10 1
-9 -26 5 155 9 1
-26 9 5 118 10 1
-26 11 -5 293 15 1
-26 11 5 264 15 1
-26 11 5 294 16 1
-27 -8 -5 144 9 1
8 -27 -5 137 8 1
-27 -8 5 128 9 1
8 -27 5 143 8 1
-27 -6 -5 1268 56 1
6 -27 -5 1254 51 1
-27 -6 5 1333 56 1
6 -27 5 1274 51 1
4 -27 -5 160 8 1
-27 -4 -5 168 9 1
-27 -4 5 178 9 1
4 -27 5 176 8 1
2 -27 -5 78 5 1
2 -27 5 73 5 1
-27 -2 5 80 6 1
-27 0 -5 19 4 1
0 -27 -5 23 4 1
-27 0 5 20 5 1
0 -27 5 27 4 1
-27 2 -5 68 4 1
-2 -27 -5 60 4 1
-27 2 5 52 5 1
-2 -27 5 52 4 1
-27 4 -5 508 25 1
-4 -27 -5 498 23 1
-27 4 5 485 25 1
-4 -27 5 489 23 1
-27 6 -5 98 7 1
-6 -27 -5 82 7 1
-6 -27 5 94 7 1
-27 6 5 99 7 1
-27 6 5 102 8 1
-27 8 -5 83 6 1
-27 8 5 101 6 1
-27 8 5 95 7 1
-8 -27 5 86 6 1
5 -28 -5 71 5 1
-28 -5 -5 76 5 1
5 -28 5 73 5 1
-28 -5 5 75 6 1
-28 -3 -5 73 6 1
3 -28 -5 55 5 1
-28 -3 5 72 6 1
3 -28 5 63 5 1
-28 -1 -5 37 4 1
1 -28 -5 27 3 1
-28 -1 5 38 4 1
1 -28 5 37 3 1
-1 -28 -5 16 4 1
-28 1 -5 23 4 1
-28 1 5 18 4 1
-28 3 -5 26 4 1
-3 -28 -5 20 4 1
-28 3 5 30 4 1
-28 3 5 21 6 1
-3 -28 5 21 4 1
-28 5 -5 280 16 1
-5 -28 -5 272 15 1
-5 -28 5 267 15 1
-28 5 5 285 16 1
-28 5 5 289 16 1
0 0 -6 5848 968 1
0 0 6 7303 1072 1
-1 -1 -6 7945 43 1
-1 -1 -6 7985 43 1
1 1 -6 7812 42 1
-1 1 -6 7973 43 1
1 -1 -6 7924 43 1
1 -1 -6 7901 43 1
1 -1 6 7867 43 1
1 -1 6 8050 42 1
2 0 -6 1429 83 1
0 -2 -6 1466 83 1
2 0 -6 1321 83 1
0 2 6 1319 83 1
-2 -2 -6 4784 120 1
2 -2 -6 4544 120 1
-2 2 -6 4542 120 1
2 -2 -6 4558 120 1
2 -2 6 4637 120 1
-2 2 6 4687 120 1
-1 3 -6 5420 202 1
1 -3 -6 5191 202 1
-3 -1 -6 5102 202 1
1 -3 6 5327 202 1
-3 -1 6 5269 224 1
1 -3 6 5161 223 1
3 1 6 5266 203 1
1 3 -6 128 16 1
-3 1 -6 128 14 1
3 -1 -6 155 14 1
-1 -3 6 129 16 1
3 -1 6 143 14 1
3 -3 -6 4875 99 1
-3 -3 -6 4831 99 1
-3 3 6 4882 99 1
-3 3 6 4735 99 1
-2 4 -6 21857 1231 1
-4 -2 -6 22177 1230 1
2 -4 -6 20783 1229 1
-4 -2 -6 21480 1232 1
2 -4 6 22703 1230 1
-2 4 6 22783 1231 1
-2 4 6 21476 1363 1
0 -4 -6 20 2 1
4 0 -6 13 1 1
0 4 -6 16 1 1
-4 0 6 13 3 1
0 4 6 25 2 1
-2 -4 -6 5217 75 1
-2 -4 -6 5128 75 1
-4 2 -6 4913 75 1
4 -2 -6 4929 75 1
-4 2 6 5126 75 1
4 -2 6 5142 75 1
-2 -4 6 5069 83 1
-4 2 6 5125 75 1
4 -4 -6 10700 496 1
-4 -4 -6 10441 496 1
-4 -4 -6 11101 497 1
-4 4 6 10733 551 1
-4 4 6 11108 497 1
4 -4 6 10783 497 1
4 -4 6 10859 548 1
-5 -3 -6 7885 332 1
3 -5 -6 7884 332 1
3 -5 -6 8244 332 1
-5 -3 -6 8467 332 1
-3 5 6 8122 369 1
3 -5 6 8433 333 1
-5 -3 6 7987 368 1
1 -5 -6 9609 362 1
5 1 -6 10443 360 1
-1 5 -6 10330 362 1
-5 -1 -6 10522 363 1
1 -5 6 9782 361 1
1 -5 6 9923 361 1
5 1 6 10152 362 1
-1 5 6 9767 362 1
-5 -1 6 10320 402 1
1 -5 6 10254 399 1
5 -1 -6 34451 1294 1
-1 -5 -6 34817 1296 1
-1 -5 -6 34211 1297 1
1 5 -6 34778 1434 1
1 5 -6 32003 1295 1
-3 -5 -6 318 15 1
-5 3 -6 349 15 1
-5 3 6 364 15 1
-5 3 6 351 15 1
-3 -5 6 291 16 1
-5 5 -6 5484 352 1
5 -5 -6 5430 351 1
-5 -5 -6 5108 351 1
5 -5 -6 5393 350 1
5 -5 6 5170 352 1
5 5 6 4905 350 1
-5 5 6 5016 389 1
5 -5 6 4970 387 1
-5 5 6 5512 351 1
-6 -4 -6 99 10 1
-6 -4 -6 90 10 1
-4 6 6 29 11 1
6 4 6 57 10 1
2 -6 -6 535 11 1
2 -6 -6 549 11 1
-2 6 -6 516 11 1
-6 -2 -6 423 11 1
6 2 6 425 11 1
2 -6 6 516 11 1
-2 6 6 517 11 1
0 6 -6 124 48 1
0 6 -6 101 52 1
0 -6 -6 149 48 1
-6 0 -6 144 48 1
0 -6 -6 143 48 1
0 6 6 151 48 1
6 0 6 131 48 1
-2 -6 -6 10299 591 1
6 -2 -6 10079 590 1
-6 2 -6 10991 593 1
-2 -6 -6 10132 591 1
6 -2 -6 10104 589 1
6 -2 6 10471 592 1
2 6 6 10408 592 1
-2 -6 6 10586 654 1
-6 2 6 10005 654 1
-4 -6 -6 2599 119 1
-4 -6 -6 2430 119 1
-6 4 -6 2567 119 1
6 -4 -6 2667 119 1
6 -4 -6 2733 119 1
4 6 6 2520 119 1
6 -4 6 2398 119 1
-6 4 6 2593 132 1
-4 -6 6 2474 132 1
-6 4 6 2621 119 1
-6 6 -6 6482 232 1
6 -6 -6 6589 232 1
6 -6 -6 5979 231 1
-6 -6 -6 6117 231 1
-6 -6 -6 6381 231 1
-6 6 6 6297 232 1
6 -6 6 6200 256 1
-6 -6 6 6367 256 1
6 6 6 6446 232 1
-6 6 6 6325 257 1
6 -6 6 6243 232 1
-7 -5 -6 62 2 1
-5 7 -6 83 2 1
-5 7 6 80 2 1
5 -7 6 75 2 1
-5 7 6 88 2 1
-7 -3 -6 2510 36 1
3 -7 -6 2511 36 1
-7 -3 -6 2461 36 1
3 -7 -6 2449 36 1
3 -7 6 2470 36 1
7 3 6 2520 37 1
-3 7 6 2440 40 1
-3 7 6 2570 37 1
-7 -1 -6 1784 104 1
1 -7 -6 1695 104 1
-1 7 -6 1708 104 1
1 -7 -6 1799 104 1
1 -7 6 1788 103 1
1 -7 6 1780 103 1
-7 1 -6 5160 310 1
1 7 -6 4549 309 1
-1 -7 -6 5049 310 1
1 7 -6 4951 342 1
1 7 6 5218 310 1
-7 3 -6 13500 289 1
-3 -7 -6 13891 290 1
7 -3 -6 13757 288 1
3 7 6 13042 289 1
-7 3 6 13863 321 1
-7 5 -6 145 22 1
-5 -7 -6 183 21 1
-5 -7 -6 173 22 1
7 -5 -6 138 22 1
-7 5 6 165 21 1
5 7 6 156 22 1
-7 5 6 148 24 1
-7 -7 -6 12216 600 1
-7 -7 -6 11485 599 1
7 -7 -6 12320 601 1
-7 7 6 11583 666 1
7 -7 6 11974 662 1
-7 7 6 11548 601 1
7 -7 6 11129 600 1
-6 8 -6 274 3 1
-8 -6 -6 255 3 1
-8 -6 -6 247 3 1
6 -8 -6 284 3 1
6 -8 6 278 3 1
-6 8 6 257 3 1
-6 8 6 257 3 1
-8 -4 -6 848 17 1
-8 -4 -6 879 17 1
-4 8 -6 815 17 1
-4 8 6 839 19 1
-4 8 6 808 17 1
2 -8 -6 65 7 1
-8 -2 -6 9 7 1
2 -8 -6 59 7 1
-8 -2 -6 8 7 1
-2 8 -6 29 7 1
-2 8 6 57 7 1
-2 8 6 61 8 1
8 2 6 7 7 1
2 -8 6 27 7 1
-8 0 -6 2801 70 1
8 0 -6 2878 70 1
0 -8 -6 2988 70 1
0 -8 -6 3086 70 1
0 8 -6 2905 77 1
0 8 -6 2837 70 1
0 8 6 3058 70 1
8 -2 -6 447 57 1
-2 -8 -6 472 57 1
2 8 -6 443 56 1
-8 2 -6 431 57 1
-2 -8 -6 466 57 1
2 8 6 455 57 1
-4 -8 -6 8003 326 1
-8 4 -6 8101 326 1
-4 -8 -6 7733 325 1
-8 4 6 8544 325 1
4 8 6 8053 325 1
-8 4 6 8310 326 1
8 -6 -6 12379 495 1
-8 6 -6 12765 497 1
-6 -8 -6 12117 493 1
-6 -8 -6 11981 495 1
-8 6 6 12543 494 1
8 -6 6 12598 496 1
6 8 6 12166 494 1
-8 6 6 13053 550 1
-8 6 6 11836 495 1
-8 -8 -6 1470 59 1
-8 -8 -6 1449 60 1
-8 8 -6 1430 60 1
8 8 6 1481 60 1
-8 8 6 1405 60 1
-8 8 6 1420 66 1
-9 -7 -6 989 18 1
-7 9 -6 988 19 1
-9 -7 -6 1017 18 1
9 7 6 1062 19 1
-7 9 6 964 19 1
-9 -5 -6 64 3 1
5 -9 -6 59 3 1
5 -9 -6 65 3 1
9 5 6 62 3 1
-5 9 6 58 3 1
-5 9 6 56 3 1
5 -9 6 67 3 1
-9 -5 6 37 3 1
-9 -3 -6 3421 184 1
-9 -3 -6 3392 184 1
-3 9 -6 3154 184 1
3 -9 -6 3027 184 1
3 -9 -6 3165 184 1
9 3 6 3032 184 1
3 -9 6 3233 184 1
-3 9 6 3056 184 1
-9 -1 -6 114 2 1
-9 -1 6 118 3 1
9 1 6 125 2 1
-1 -9 -6 86 2 1
1 9 -6 94 3 1
9 -1 -6 71 3 1
1 9 -6 97 3 1
-9 1 -6 51 2 1
1 9 6 97 2 1
-3 -9 -6 1321 91 1
9 -3 -6 1218 91 1
-3 -9 -6 1329 91 1
-9 3 -6 1196 91 1
3 9 6 1347 91 1
-5 -9 -6 6318 194 1
-5 -9 -6 6067 194 1
-9 5 -6 6321 194 1
-9 5 6 6458 215 1
5 9 6 6185 194 1
-9 5 6 6114 194 1
-9 5 6 6247 194 1
-9 7 -6 5481 212 1
-7 -9 -6 5700 212 1
-7 -9 -6 5450 211 1
9 -7 -6 5555 212 1
9 -7 6 5437 212 1
-9 7 6 5576 212 1
7 9 6 5765 212 1
-9 -9 -6 0 1 1
9 -9 -6 0 1 1
-9 -9 -6 2 3 1
9 9 6 0 1 1
-9 9 6 0 1 1
-9 9 6 0 2 1
-9 9 6 0 1 1
9 -9 6 1 1 1
-8 10 -6 28 3 1
-10 -8 -6 31 3 1
8 -10 -6 28 3 1
-8 10 6 26 5 1
8 -10 6 31 3 1
10 8 6 29 3 1
-8 10 6 29 4 1
-8 10 6 29 3 1
-10 -6 -6 2100 112 1
-10 -6 -6 2192 113 1
-6 10 -6 2349 113 1
6 -10 -6 2125 113 1
10 6 6 2014 113 1
-6 10 6 2147 113 1
4 -10 -6 268 11 1
4 -10 -6 252 11 1
-4 10 -6 252 11 1
-10 -4 -6 285 11 1
-10 -4 -6 270 11 1
4 -10 6 250 11 1
-4 10 6 241 12 1
10 4 6 278 11 1
-10 -2 -6 1617 25 1
2 -10 -6 1482 25 1
-2 10 -6 1484 25 1
2 -10 -6 1473 25 1
-2 10 6 1502 25 1
-10 -2 6 1437 28 1
2 -10 6 1497 25 1
2 -10 6 1597 25 1
0 -10 -6 2414 70 1
-10 0 -6 2518 70 1
0 -10 -6 2541 70 1
0 10 -6 2388 70 1
0 10 6 2566 70 1
10 0 6 2389 70 1
-10 2 -6 18006 737 1
-2 -10 -6 18162 736 1
2 10 -6 18372 734 1
10 -2 -6 18456 735 1
2 10 6 17164 737 1
10 -2 6 17515 736 1
4 10 -6 1963 52 1
-4 -10 -6 1976 53 1
-4 -10 -6 2003 52 1
-6 -10 -6 5229 199 1
-10 6 -6 5307 199 1
10 -6 -6 4996 199 1
-6 -10 -6 5157 199 1
-10 6 6 5437 199 1
-10 6 6 5430 199 1
10 -6 6 5300 199 1
-10 8 -6 791 27 1
-8 -10 -6 800 26 1
8 10 6 783 26 1
-10 8 6 768 26 1
10 -8 6 786 27 1
-10 10 -6 41 7 1
-10 -10 -6 23 4 1
10 10 6 26 4 1
-10 10 6 25 4 1
-10 10 6 31 5 1
-10 10 6 26 5 1
10 -10 6 39 4 1
-9 11 -6 2419 112 1
9 -11 -6 2310 101 1
-9 11 6 2488 101 1
-9 11 6 2287 112 1
9 -11 6 2336 101 1
11 9 6 2472 101 1
-11 -7 -6 1448 56 1
-7 11 -6 1455 57 1
-11 -7 -6 1388 56 1
7 -11 -6 1418 57 1
-7 11 6 1478 57 1
-7 11 6 1464 64 1
7 -11 6 1556 57 1
5 -11 -6 30 4 1
-11 -5 -6 29 3 1
-5 11 -6 24 4 1
-5 11 6 24 4 1
-11 -5 6 34 5 1
-5 11 6 24 4 1
-11 -3 -6 1051 37 1
3 -11 -6 1053 37 1
-11 -3 -6 1078 37 1
-3 11 -6 1012 37 1
3 -11 6 1059 37 1
-11 -3 6 1024 42 1
11 3 6 1061 37 1
-1 11 -6 2020 118 1
1 -11 -6 2090 118 1
1 -11 -6 2148 118 1
-11 -1 -6 1990 118 1
-11 -1 -6 2089 118 1
-1 11 6 2084 118 1
-1 11 6 2191 131 1
1 11 -6 5359 169 1
-11 1 -6 4958 168 1
-1 -11 -6 4774 168 1
1 11 -6 5186 186 1
-1 -11 -6 4988 168 1
11 -1 -6 4873 168 1
1 11 6 5230 169 1
11 -1 6 4965 169 1
-11 3 -6 15088 588 1
3 11 -6 15922 587 1
-3 -11 -6 16078 589 1
-3 -11 -6 15797 588 1
11 -3 6 15274 588 1
3 11 6 15708 589 1
11 -5 -6 33481 1494 1
-5 -11 -6 35288 1493 1
-11 5 -6 32186 1495 1
-5 -11 -6 33507 1493 1
11 -5 6 34458 1496 1
-7 -11 -6 82 4 1
11 -7 -6 91 5 1
-11 7 -6 76 4 1
-11 7 6 98 6 1
-11 7 6 92 4 1
-11 7 6 77 6 1
11 -7 6 83 4 1
7 11 6 76 4 1
-9 -11 -6 796 39 1
-11 9 -6 833 40 1
-11 9 6 838 44 1
9 11 6 818 40 1
11 -9 6 824 40 1
-11 9 6 776 44 1
-11 -11 -6 133 7 1
-11 11 -6 154 10 1
-11 11 -6 151 8 1
11 -11 -6 138 8 1
-11 11 6 133 8 1
-11 11 6 128 8 1
11 -11 6 169 10 1
-11 11 6 130 7 1
11 11 6 156 8 1
-12 -10 -6 2655 80 1
10 -12 -6 2599 80 1
-10 12 -6 2492 89 1
-10 12 -6 2538 81 1
-10 12 6 2461 89 1
-10 12 6 2536 80 1
10 -12 6 2450 81 1
-10 12 6 2484 89 1
-8 12 -6 160 3 1
-8 12 -6 174 1 1
-12 -8 -6 139 2 1
-8 12 6 152 2 1
8 -12 6 161 2 1
12 8 6 160 1 1
-8 12 6 157 2 1
-12 -6 -6 18 2 1
6 -12 -6 15 2 1
-12 -6 -6 13 1 1
-6 12 -6 7 1 1
-12 -6 -6 16 1 1
-6 12 6 10 2 1
-6 12 6 14 2 1
6 -12 6 16 2 1
12 6 6 10 1 1
-6 12 6 14 2 1
4 -12 -6 437 29 1
-4 12 -6 431 29 1
-12 -4 -6 450 29 1
-4 12 6 465 32 1
12 4 6 438 29 1
-4 12 6 415 29 1
4 -12 6 409 29 1
2 -12 -6 951 41 1
2 -12 -6 963 41 1
-2 12 -6 991 41 1
-12 -2 -6 1054 41 1
-12 -2 -6 1036 41 1
12 2 6 1010 41 1
-2 12 6 1048 45 1
2 -12 6 983 41 1
2 -12 6 1021 40 1
0 -12 -6 61 5 1
-12 0 -6 47 7 1
-12 0 -6 49 4 1
12 0 -6 95 6 1
-12 0 -6 49 5 1
0 -12 -6 57 4 1
-12 0 6 97 6 1
12 0 6 42 5 1
0 12 6 42 5 1
12 -2 -6 7115 300 1
2 12 -6 7272 300 1
-12 2 -6 6476 300 1
-2 -12 -6 6870 299 1
-2 -12 -6 6686 300 1
2 12 6 6800 300 1
12 -2 6 7288 300 1
-12 4 -6 396 12 1
-12 4 -6 408 14 1
-4 -12 -6 419 12 1
-4 -12 -6 427 11 1
12 -4 6 420 12 1
-12 4 6 419 13 1
4 12 6 410 12 1
-12 6 -6 7694 291 1
-6 -12 -6 7629 262 1
-12 6 -6 7735 263 1
-6 -12 -6 7957 263 1
6 12 6 7556 263 1
-8 -12 -6 17 4 1
-12 8 -6 19 6 1
-8 -12 -6 19 5 1
12 -8 -6 26 6 1
-12 8 -6 21 8 1
-8 -12 -6 16 5 1
8 12 6 22 5 1
-12 8 6 21 7 1
-12 8 6 23 5 1
-12 10 -6 20 4 1
-12 10 -6 31 7 1
-10 -12 -6 26 9 1
-10 -12 -6 16 4 1
-12 10 6 21 5 1
-12 10 6 25 5 1
10 12 6 18 4 1
12 -10 6 18 4 1
12 -10 6 20 8 1
-12 10 6 21 4 1
-12 12 -6 2374 80 1
-12 -12 -6 2328 79 1
-12 12 -6 2408 88 1
12 -12 6 2390 81 1
12 12 6 2428 80 1
-12 12 6 2352 79 1
11 -13 -6 606 24 1
-11 13 -6 595 24 1
-13 -11 -6 595 23 1
-11 13 -6 634 27 1
-11 13 6 600 24 1
13 11 6 599 24 1
-11 13 6 608 26 1
11 -13 6 579 24 1
-9 13 -6 43 2 1
9 -13 -6 44 2 1
-9 13 -6 35 3 1
-9 13 6 34 3 1
13 9 6 29 2 1
-9 13 6 57 1 1
-9 13 6 44 2 1
9 -13 6 37 2 1
7 -13 -6 936 54 1
-13 -7 -6 976 54 1
-7 13 -6 899 60 1
-7 13 -6 1021 54 1
7 -13 6 937 54 1
7 -13 6 937 55 1
-7 13 6 974 54 1
-7 13 6 1049 60 1
-5 13 -6 9602 337 1
-13 -5 -6 9618 336 1
-5 13 6 9620 373 1
5 -13 6 8969 341 1
13 5 6 9715 337 1
5 -13 6 9004 336 1
3 -13 -6 307 14 1
-13 -3 -6 299 14 1
-3 13 -6 332 14 1
-3 13 6 309 15 1
-3 13 6 318 14 1
-13 -3 6 313 16 1
13 3 6 316 14 1
3 -13 6 317 13 1
-1 13 -6 1006 44 1
-13 -1 -6 1040 50 1
-13 -1 -6 1175 44 1
1 -13 -6 1031 44 1
-13 -1 6 1080 50 1
-1 13 6 1100 49 1
-1 13 6 1091 44 1
13 1 6 1165 44 1
-13 1 -6 58 2 1
-1 -13 -6 74 2 1
-13 1 -6 53 5 1
13 -1 6 55 3 1
1 13 6 64 2 1
-13 1 6 62 7 1
-13 1 6 65 4 1
-3 -13 -6 373 18 1
-3 -13 -6 354 17 1
13 -3 -6 346 18 1
-13 3 -6 427 21 1
-13 3 -6 412 17 1
-13 3 6 349 20 1
-13 3 6 367 20 1
3 13 6 378 17 1
-5 -13 -6 304 15 1
-13 5 -6 268 15 1
13 -5 -6 288 15 1
-13 5 -6 281 18 1
5 13 6 301 15 1
-13 5 6 261 17 1
13 -5 6 257 15 1
-13 5 6 288 17 1
-13 7 -6 2429 114 1
-13 7 -6 2470 126 1
-7 -13 -6 2383 113 1
13 -7 -6 2502 114 1
-7 -13 -6 2304 116 1
7 13 6 2373 114 1
13 -7 6 2450 114 1
-13 7 6 2484 126 1
-9 -13 -6 1331 56 1
-13 9 -6 1431 60 1
13 -9 -6 1409 54 1
-9 -13 -6 1415 54 1
-13 9 -6 1295 54 1
-13 9 6 1386 53 1
-11 -13 -6 581 32 1
-13 11 -6 581 31 1
-13 11 -6 641 34 1
-11 -13 -6 579 30 1
13 -11 6 574 31 1
-13 11 6 638 34 1
-13 11 6 582 34 1
-13 11 6 622 30 1
13 -11 6 614 31 1
11 13 6 607 31 1
-13 13 -6 515 24 1
-13 -13 -6 529 23 1
-13 13 -6 499 27 1
13 -13 6 552 24 1
-13 13 6 543 27 1
-13 13 6 498 23 1
13 -13 6 571 25 1
13 13 6 532 25 1
12 -14 -6 128 7 1
-12 14 -6 135 9 1
-12 14 -6 121 7 1
-14 -12 -6 148 7 1
-12 14 6 122 9 1
-12 14 6 121 8 1
12 -14 6 125 8 1
12 -14 6 133 7 1
14 12 6 155 9 1
-12 14 6 128 6 1
10 -14 -6 57 5 1
-10 14 -6 58 7 1
10 -14 -6 66 4 1
-10 14 -6 54 5 1
10 -14 6 57 4 1
14 10 6 71 5 1
-10 14 6 68 6 1
-10 14 6 67 5 1
-14 -10 6 82 12 1
-10 14 6 67 4 1
-8 14 -6 189 6 1
8 -14 -6 178 5 1
8 -14 -6 180 10 1
8 -14 6 168 4 1
-14 -8 6 187 11 1
-8 14 6 191 6 1
8 -14 6 162 7 1
-8 14 6 170 5 1
6 -14 -6 1 3 1
-14 -6 -6 2 3 1
6 -14 -6 5 3 1
-6 14 -6 1 9 1
6 -14 6 11 3 1
6 -14 6 7 2 1
-6 14 6 2 4 1
-14 -6 6 10 4 1
-14 -4 -6 62 2 1
-4 14 -6 40 3 1
-14 -4 -6 54 2 1
-4 14 6 104 4 1
14 4 6 56 2 1
-4 14 6 68 2 1
-14 -4 6 54 3 1
-4 14 6 64 2 1
2 -14 -6 248 12 1
-14 -2 -6 238 12 1
2 -14 -6 241 13 1
-14 -2 -6 254 12 1
-14 -2 6 229 14 1
2 -14 6 258 14 1
-14 -2 6 241 16 1
14 2 6 245 13 1
0 -14 -6 3188 181 1
0 14 -6 3516 181 1
0 -14 -6 3409 181 1
-14 0 -6 3133 181 1
0 -14 -6 3161 184 1
-14 0 -6 3063 181 1
14 0 6 3263 181 1
0 14 6 3370 181 1
-14 2 -6 1317 41 1
-2 -14 -6 1158 36 1
-2 -14 -6 1196 36 1
-2 -14 -6 1188 38 1
14 -2 -6 1149 37 1
14 -2 6 1310 37 1
-14 2 6 1174 41 1
-14 4 -6 5 2 1
-4 -14 -6 4 2 1
-14 4 -6 4 1 1
4 14 6 5 1 1
-14 4 6 3 2 1
-14 4 6 3 2 1
-14 6 -6 2138 103 1
-14 6 -6 2025 93 1
-6 -14 -6 1942 93 1
-6 -14 -6 2000 92 1
-14 6 6 1957 103 1
-14 6 6 2120 103 1
14 -6 6 2037 93 1
6 14 6 2174 93 1
-14 8 -6 1168 49 1
-8 -14 -6 1056 45 1
-14 8 -6 1132 44 1
14 -8 6 1160 44 1
-14 8 6 1076 48 1
-14 8 6 1147 49 1
8 14 6 1105 44 1
-10 -14 -6 2895 98 1
14 -10 -6 2921 99 1
-10 -14 -6 2751 101 1
-14 10 -6 2907 110 1
-14 10 -6 2981 99 1
-14 10 6 2904 109 1
14 -10 6 2808 100 1
-14 10 6 2928 98 1
14 -12 -6 1 2 1
-14 12 -6 1 2 1
-14 12 -6 1 3 1
-14 12 6 1 4 1
14 -12 6 1 3 1
12 14 6 3 3 1
14 -12 6 2 2 1
-14 12 6 1 2 1
-14 -14 -6 108 7 1
14 -14 -6 111 7 1
-14 14 -6 116 7 1
-14 14 -6 122 8 1
-14 14 6 112 8 1
14 -14 6 125 9 1
-14 14 6 115 6 1
-13 15 -6 296 12 1
-13 15 -6 287 13 1
13 -15 -6 306 12 1
-13 15 6 291 11 1
13 -15 6 272 12 1
13 -15 6 298 11 1
-13 15 6 282 13 1
11 -15 -6 1018 44 1
-11 15 -6 1010 45 1
-15 -11 -6 1003 44 1
11 -15 -6 997 46 1
-11 15 -6 1101 49 1
-11 15 6 1021 49 1
11 -15 6 1050 44 1
-11 15 6 969 44 1
11 -15 6 1086 45 1
15 11 6 1021 45 1
9 -15 -6 1 2 1
-9 15 -6 0 2 1
9 -15 -6 3 3 1
-9 15 -6 0 3 1
-9 15 6 0 2 1
9 -15 6 0 2 1
15 9 6 0 2 1
9 -15 6 0 2 1
-9 15 6 0 3 1
-15 -9 6 0 5 1
-7 15 -6 599 34 1
7 -15 -6 594 31 1
7 -15 -6 621 30 1
-7 15 -6 597 30 1
-15 -7 -6 597 29 1
-7 15 6 644 33 1
7 -15 6 609 29 1
15 7 6 598 30 1
7 -15 6 599 31 1
-15 -5 -6 634 19 1
-5 15 -6 634 20 1
5 -15 -6 644 19 1
5 -15 -6 646 21 1
5 -15 6 657 19 1
-5 15 6 649 19 1
5 -15 6 635 20 1
3 -15 -6 39 9 1
-3 15 -6 51 7 1
-15 -3 -6 46 6 1
-15 -3 -6 50 9 1
3 -15 -6 44 6 1
-3 15 6 51 7 1
3 -15 6 44 5 1
15 3 6 37 7 1
-15 -3 6 42 10 1
-3 15 6 52 7 1
3 -15 6 56 8 1
-15 -1 -6 3029 93 1
1 -15 -6 3166 93 1
-15 -1 -6 3125 93 1
-15 -1 -6 3014 104 1
1 -15 -6 2985 93 1
1 -15 -6 2974 95 1
-15 -1 6 2910 104 1
15 1 6 3055 94 1
1 -15 6 3042 95 1
-1 15 6 3080 103 1
-1 -15 -6 535 21 1
-15 1 -6 531 23 1
-15 1 -6 499 19 1
-15 1 -6 536 20 1
-1 -15 -6 522 19 1
1 15 -6 542 20 1
1 15 6 502 20 1
1 15 6 541 22 1
15 -1 6 523 20 1
-1 -15 6 504 21 1
-15 3 -6 467 29 1
-15 3 -6 448 33 1
-3 -15 -6 480 31 1
-3 -15 -6 474 29 1
-3 -15 -6 483 29 1
15 -3 6 483 29 1
-3 -15 6 520 30 1
-15 3 6 510 33 1
3 15 6 500 29 1
-15 5 -6 409 25 1
-5 -15 -6 420 27 1
-5 -15 -6 418 24 1
-5 -15 -6 447 25 1
-15 5 -6 389 29 1
5 15 6 419 25 1
15 -5 6 449 26 1
-15 5 6 457 29 1
-15 7 -6 683 25 1
-15 7 -6 671 28 1
-7 -15 -6 700 27 1
-7 -15 -6 742 25 1
-7 -15 6 707 27 1
7 15 6 700 25 1
-15 7 6 740 28 1
15 -9 -6 21 2 1
-9 -15 -6 25 3 1
-15 9 -6 27 2 1
15 -9 6 27 2 1
9 15 6 25 3 1
-15 9 6 21 2 1
-9 -15 6 26 4 1
15 -9 6 18 3 1
-15 9 6 23 3 1
-15 11 -6 934 39 1
-11 -15 -6 1012 38 1
15 -11 -6 979 39 1
-15 11 -6 991 43 1
-11 -15 -6 976 40 1
-15 11 6 894 43 1
15 -11 6 976 40 1
11 15 6 937 39 1
-15 11 6 947 43 1
-15 13 -6 507 19 1
-15 13 -6 524 21 1
15 -13 -6 519 19 1
-15 13 6 527 18 1
-15 13 6 525 22 1
-15 15 -6 2654 113 1
15 -15 -6 2654 113 1
-15 15 -6 2646 125 1
-15 15 6 2754 112 1
-15 15 6 2776 125 1
15 -15 6 2668 113 1
14 -16 -6 692 26 1
-14 16 -6 712 29 1
-14 16 -6 678 26 1
14 -16 6 685 26 1
-14 16 6 698 25 1
-14 16 6 641 29 1
14 -16 6 685 26 1
12 -16 -6 1648 66 1
-12 16 -6 1620 73 1
-12 16 -6 1550 67 1
12 -16 -6 1581 67 1
-12 16 6 1650 66 1
12 -16 6 1639 67 1
-12 16 6 1569 73 1
12 -16 6 1627 66 1
-10 16 -6 36 10 1
10 -16 -6 34 11 1
10 -16 6 30 7 1
10 -16 6 42 8 1
-16 -10 6 41 13 1
-10 16 6 39 7 1
16 10 6 44 10 1
8 -16 -6 1464 65 1
8 -16 -6 1394 66 1
-16 -8 -6 1408 73 1
-8 16 6 1432 65 1
8 -16 6 1434 64 1
8 -16 6 1469 66 1
-16 -8 6 1295 73 1
-8 16 6 1412 72 1
-16 -6 -6 14 2 1
6 -16 -6 15 2 1
-6 16 -6 13 2 1
-16 -6 6 18 4 1
-6 16 6 15 4 1
16 6 6 29 2 1
-6 16 6 19 2 1
6 -16 6 11 2 1
-6 16 6 12 3 1
4 -16 -6 20 3 1
-16 -4 -6 20 2 1
-16 -4 6 8 3 1
4 -16 6 21 2 1
-16 -2 -6 488 15 1
2 -16 -6 456 14 1
2 -16 -6 463 16 1
-2 16 -6 451 15 1
-16 -2 -6 532 18 1
-2 16 6 459 16 1
2 -16 6 469 16 1
-2 16 6 456 15 1
16 2 6 500 15 1
-16 0 -6 399 9 1
0 -16 -6 390 9 1
0 16 -6 343 10 1
0 -16 -6 393 9 1
-16 0 -6 396 8 1
0 16 6 409 10 1
-16 0 6 352 12 1
16 0 6 378 9 1
0 16 6 385 9 1
-16 0 6 310 11 1
0 -16 6 306 10 1
-2 -16 -6 432 25 1
-2 -16 -6 419 24 1
2 16 -6 475 25 1
-16 2 -6 467 25 1
-16 2 -6 447 28 1
-2 -16 -6 437 26 1
-16 2 -6 424 24 1
-16 2 6 480 28 1
2 16 6 419 25 1
-16 2 6 421 28 1
-2 -16 6 457 26 1
16 -4 -6 2064 82 1
-16 4 -6 2078 90 1
-4 -16 -6 2025 83 1
-4 -16 -6 2065 80 1
-16 4 -6 2091 81 1
-4 -16 -6 2008 82 1
-16 4 6 2024 90 1
-4 -16 6 1943 83 1
-16 4 6 2082 90 1
4 16 6 2048 81 1
16 -6 -6 27 5 1
-6 -16 -6 18 3 1
-16 6 -6 17 3 1
-16 6 6 24 5 1
-16 6 6 14 3 1
6 16 6 21 5 1
16 -6 6 17 3 1
-6 -16 6 15 3 1
-8 -16 -6 235 14 1
-16 8 -6 237 14 1
-16 8 -6 247 16 1
16 -8 -6 230 15 1
-8 -16 -6 236 16 1
-16 8 6 242 16 1
8 16 6 229 14 1
16 -8 6 237 14 1
-16 8 6 250 16 1
-8 -16 6 224 17 1
-16 10 -6 322 16 1
-10 -16 -6 360 16 1
-10 -16 -6 349 14 1
16 -10 -6 341 15 1
-16 10 -6 342 14 1
-16 10 6 369 17 1
16 -10 6 321 16 1
16 -10 6 346 15 1
10 16 6 324 15 1
-16 12 -6 10 7 1
-12 -16 -6 5 6 1
-16 12 -6 6 5 1
16 -12 -6 6 7 1
12 16 6 4 8 1
-16 12 6 6 6 1
-16 12 6 4 5 1
16 -12 6 2 5 1
16 -14 -6 15 3 1
-16 14 -6 22 6 1
-16 14 -6 18 3 1
-16 14 6 24 6 1
-16 16 -6 84 8 1
-16 16 -6 102 8 1
16 -16 -6 85 8 1
-16 16 6 92 8 1
16 -16 6 93 7 1
16 -16 6 114 8 1
-17 -15 -6 50 8 1
-15 17 -6 52 7 1
-15 17 6 64 6 1
15 -17 6 73 7 1
-13 17 -6 28 7 1
13 -17 -6 31 11 1
-17 -13 -6 27 8 1
-13 17 -6 21 6 1
13 -17 -6 24 5 1
13 -17 6 24 6 1
-13 17 6 23 5 1
13 -17 6 27 5 1
-11 17 -6 37 8 1
-11 17 -6 51 9 1
11 -17 -6 43 11 1
-17 -11 -6 50 10 1
11 -17 -6 41 7 1
11 -17 6 37 6 1
11 -17 6 35 8 1
-11 17 6 43 7 1
-17 -9 -6 2 3 1
9 -17 -6 2 2 1
9 -17 -6 2 3 1
-9 17 -6 1 3 1
-9 17 6 2 2 1
17 9 6 1 4 1
9 -17 6 1 2 1
-17 -9 6 3 4 1
7 -17 -6 2566 116 1
-7 17 -6 2619 117 1
7 -17 -6 2698 118 1
-17 -7 -6 2553 130 1
7 -17 6 2755 118 1
17 7 6 2618 117 1
7 -17 6 2508 116 1
-7 17 6 2526 132 1
-7 17 6 2722 117 1
5 -17 -6 420 16 1
-5 17 -6 432 18 1
5 -17 -6 424 18 1
5 -17 6 426 16 1
-5 17 6 449 19 1
5 -17 6 477 18 1
-17 -5 6 480 20 1
-5 17 6 429 21 1
-5 17 6 454 17 1
-3 17 -6 87 7 1
3 -17 -6 87 6 1
-17 -3 -6 99 9 1
3 -17 -6 87 8 1
-3 17 6 81 8 1
-3 17 6 85 6 1
3 -17 6 84 7 1
1 -17 -6 16 1 1
-1 17 -6 40 2 1
-17 -1 -6 14 2 1
1 -17 -6 16 2 1
-17 -1 6 37 3 1
17 1 6 14 2 1
-1 17 6 22 3 1
1 -17 6 20 2 1
-1 17 6 17 3 1
-17 1 -6 2855 100 1
1 17 -6 2867 101 1
-17 1 -6 3118 113 1
-17 1 -6 2826 101 1
-1 -17 -6 2929 103 1
-1 -17 -6 3053 100 1
17 -1 6 2964 101 1
-1 -17 6 3050 102 1
-17 1 6 3177 112 1
1 17 6 2973 112 1
-17 3 -6 1297 64 1
-3 -17 -6 1340 66 1
-17 3 -6 1272 64 1
-17 3 -6 1280 72 1
-3 -17 -6 1299 64 1
3 17 6 1307 65 1
17 -3 6 1367 65 1
-3 -17 6 1244 66 1
-17 3 6 1359 72 1
-5 -17 -6 308 9 1
-5 -17 -6 299 7 1
-17 5 -6 305 9 1
-17 5 -6 298 6 1
-17 5 6 287 9 1
5 17 6 279 8 1
-5 -17 6 294 9 1
17 -5 6 276 8 1
17 -7 -6 471 22 1
-7 -17 -6 477 21 1
-7 -17 -6 462 22 1
-17 7 -6 472 20 1
-17 7 6 487 23 1
-17 7 6 511 24 1
-7 -17 6 457 22 1
7 17 6 460 21 1
17 -7 6 482 21 1
-17 9 -6 26 2 1
-17 9 -6 31 3 1
-9 -17 -6 42 5 1
17 -9 -6 19 3 1
17 -9 6 19 3 1
9 17 6 26 3 1
17 -9 6 19 4 1
-9 -17 6 29 4 1
-17 9 6 26 4 1
-17 9 6 24 3 1
-11 -17 -6 90 9 1
-17 11 -6 87 7 1
17 -11 -6 79 8 1
-17 11 -6 79 6 1
17 -11 6 88 7 1
11 17 6 98 9 1
-17 11 6 82 10 1
-17 11 6 79 7 1
-11 -17 6 78 13 1
17 -13 -6 2077 83 1
-17 13 -6 2084 91 1
-17 13 -6 2134 82 1
17 -13 6 2121 82 1
17 -13 6 2156 83 1
-17 13 6 2026 91 1
-17 15 -6 43 6 1
17 -15 6 31 3 1
-17 15 6 52 6 1
-17 -17 -6 14 3 1
17 -17 -6 15 3 1
-17 17 -6 23 3 1
-17 17 -6 12 3 1
17 -17 6 17 3 1
17 -17 6 21 3 1
16 -18 -6 670 25 1
-16 18 -6 614 25 1
-18 -16 -6 637 29 1
-16 18 -6 657 28 1
16 -18 6 699 25 1
-16 18 6 681 29 1
16 -18 6 644 25 1
-18 -14 -6 919 47 1
14 -18 6 910 42 1
-18 -12 -6 1273 52 1
12 -18 -6 1297 47 1
-12 18 -6 1245 46 1
12 -18 -6 1187 45 1
12 -18 6 1230 45 1
12 -18 6 1275 46 1
-12 18 6 1228 46 1
-10 18 -6 376 18 1
10 -18 -6 393 17 1
-18 -10 -6 354 21 1
10 -18 -6 371 19 1
10 -18 6 356 17 1
-18 -10 6 368 22 1
10 -18 6 369 18 1
8 -18 -6 51 4 1
-18 -8 -6 50 3 1
8 -18 -6 52 3 1
-8 18 -6 46 6 1
-18 -8 6 39 4 1
-8 18 6 43 4 1
-8 18 6 50 4 1
8 -18 6 62 2 1
8 -18 6 54 3 1
-6 18 -6 2803 114 1
6 -18 -6 2906 115 1
6 -18 -6 2648 113 1
-6 18 6 2791 113 1
18 6 6 2930 114 1
6 -18 6 2796 112 1
-18 -4 -6 170 11 1
4 -18 -6 170 10 1
-4 18 -6 153 10 1
4 -18 -6 174 8 1
18 4 6 192 10 1
-18 -4 6 174 12 1
4 -18 6 166 9 1
2 -18 -6 39 9 1
-18 -2 -6 41 12 1
-2 18 -6 44 11 1
2 -18 -6 42 11 1
-2 18 6 45 10 1
-18 -2 6 42 12 1
-2 18 6 50 12 1
2 -18 6 51 11 1
18 2 6 55 11 1
0 -18 -6 79 5 1
0 -18 -6 87 7 1
-18 0 -6 61 7 1
0 -18 6 88 7 1
0 18 6 74 7 1
0 18 6 68 6 1
18 0 6 83 7 1
-18 0 6 61 8 1
-2 -18 -6 264 12 1
-2 -18 -6 251 9 1
-18 2 -6 241 12 1
2 18 6 271 12 1
2 18 6 251 11 1
-2 -18 6 232 12 1
-18 2 6 260 13 1
-4 -18 -6 338 22 1
-18 4 -6 329 20 1
-18 4 -6 354 19 1
18 -4 6 341 21 1
4 18 6 355 21 1
-4 -18 6 328 22 1
-18 6 -6 733 28 1
-6 -18 6 747 30 1
18 -6 6 777 29 1
6 18 6 696 29 1
-18 6 6 692 32 1
-8 -18 -6 2508 103 1
-18 8 -6 2585 101 1
-18 8 -6 2366 112 1
18 -8 -6 2363 102 1
-18 8 6 2578 113 1
-8 -18 6 2309 104 1
8 18 6 2481 102 1
-18 8 6 2387 113 1
-18 10 -6 464 16 1
18 -10 -6 449 18 1
-10 -18 -6 467 18 1
-18 10 -6 459 19 1
-18 10 6 427 19 1
10 18 6 458 18 1
18 -10 6 457 17 1
-10 -18 6 471 19 1
-18 12 -6 22 5 1
-18 12 -6 17 3 1
18 -12 -6 34 8 1
-18 12 6 12 3 1
18 -12 6 18 4 1
-18 14 -6 356 22 1
-18 14 6 360 22 1
18 -14 6 330 21 1
-18 16 -6 309 14 1
-18 16 -6 276 13 1
18 -16 -6 297 14 1
18 -16 6 295 14 1
18 -16 6 295 13 1
-18 16 6 314 14 1
-18 18 -6 65 8 1
-18 -18 -6 92 7 1
-18 18 -6 88 6 1
18 -18 6 93 8 1
-18 18 6 78 6 1
18 -18 6 72 7 1
17 -19 -6 160 10 1
-19 -17 -6 149 10 1
-17 19 6 136 9 1
17 -19 6 151 10 1
17 -19 6 133 9 1
-15 19 -6 503 19 1
-19 -15 -6 486 21 1
15 -19 -6 532 18 1
15 -19 6 483 17 1
-15 19 6 498 18 1
15 -19 6 468 18 1
-15 19 6 478 21 1
-13 19 -6 1327 56 1
13 -19 -6 1374 55 1
-13 19 6 1325 55 1
-13 19 6 1416 63 1
13 -19 6 1312 55 1
13 -19 6 1376 56 1
11 -19 -6 5 2 1
11 -19 -6 5 3 1
-19 -11 -6 3 3 1
-11 19 -6 10 3 1
-11 19 6 17 3 1
-19 -11 6 25 4 1
11 -19 6 12 2 1
-11 19 6 8 2 1
11 -19 6 10 2 1
9 -19 -6 1363 56 1
9 -19 -6 1295 54 1
-9 19 -6 1302 55 1
-19 -9 -6 1337 62 1
9 -19 6 1326 55 1
-9 19 6 1354 55 1
-19 -9 6 1278 61 1
9 -19 6 1297 53 1
7 -19 -6 37 2 1
-19 -7 -6 37 3 1
-7 19 -6 52 3 1
7 -19 -6 76 7 1
-7 19 6 53 4 1
-19 -7 6 38 4 1
5 -19 -6 13 2 1
-19 -5 -6 17 2 1
5 -19 -6 11 2 1
-5 19 6 10 2 1
5 -19 6 15 2 1
19 5 6 17 4 1
-19 -5 6 13 3 1
3 -19 -6 630 28 1
3 -19 -6 618 30 1
-19 -3 -6 619 33 1
-3 19 -6 663 30 1
-3 19 6 637 29 1
3 -19 6 671 29 1
19 3 6 674 30 1
-19 -3 6 699 33 1
-1 19 -6 410 18 1
-19 -1 -6 414 19 1
1 -19 -6 392 15 1
1 -19 -6 378 18 1
1 -19 6 407 17 1
-19 -1 6 396 19 1
-1 19 6 342 16 1
19 1 6 456 17 1
-1 -19 -6 407 18 1
-19 1 -6 428 20 1
-1 -19 -6 415 16 1
1 19 6 414 19 1
1 19 6 400 17 1
-3 -19 -6 26 2 1
-19 3 -6 54 2 1
3 19 6 30 2 1
3 19 6 47 3 1
-19 3 6 55 2 1
-19 5 -6 322 10 1
-19 5 -6 308 13 1
-5 -19 -6 367 13 1
5 19 6 348 11 1
-5 -19 6 349 12 1
-19 5 6 383 13 1
19 -5 6 317 12 1
-7 -19 -6 91 8 1
-19 7 -6 114 7 1
-19 7 -6 114 5 1
19 -7 -6 113 10 1
7 19 6 116 8 1
19 -7 6 128 8 1
-19 7 6 110 8 1
-19 9 -6 146 11 1
-19 9 -6 128 13 1
-9 -19 -6 159 13 1
19 -9 -6 146 14 1
9 19 6 159 13 1
-19 9 6 151 13 1
-9 -19 6 124 14 1
-19 11 -6 18 2 1
-11 -19 -6 14 3 1
-19 11 -6 4 2 1
19 -11 -6 11 4 1
-11 -19 6 5 4 1
19 -11 6 9 3 1
-19 11 6 8 2 1
19 -13 -6 1154 43 1
-19 13 -6 1154 41 1
-19 13 6 1122 46 1
19 -13 6 1139 42 1
19 -13 6 1198 42 1
-19 15 -6 572 22 1
-19 15 -6 553 20 1
19 -15 6 589 20 1
19 -15 6 580 21 1
-19 15 6 597 23 1
19 -17 -6 47 8 1
-19 17 -6 31 5 1
-19 17 6 25 5 1
19 -17 6 26 6 1
-19 -19 -6 275 13 1
-19 19 6 264 13 1
19 -19 6 285 12 1
-20 -18 -6 17 5 1
-18 20 6 11 4 1
-16 20 -6 81 9 1
-16 20 6 88 6 1
16 -20 6 106 8 1
16 -20 6 104 7 1
-20 -14 -6 95 10 1
-14 20 -6 109 9 1
14 -20 -6 128 12 1
-14 20 6 108 11 1
14 -20 6 116 8 1
-14 20 6 120 9 1
14 -20 6 111 9 1
12 -20 -6 2655 110 1
12 -20 -6 2685 112 1
-20 -12 -6 2825 124 1
-12 20 6 2649 111 1
12 -20 6 2616 110 1
12 -20 6 2586 112 1
-10 20 -6 15 6 1
10 -20 -6 5 3 1
-20 -10 -6 3 4 1
-10 20 6 5 3 1
-20 -10 6 2 4 1
10 -20 6 4 2 1
-10 20 6 7 4 1
10 -20 6 9 4 1
8 -20 -6 48 5 1
8 -20 -6 65 8 1
-8 20 -6 62 8 1
-20 -8 6 79 11 1
-8 20 6 61 6 1
8 -20 6 61 7 1
-8 20 6 78 11 1
6 -20 -6 526 21 1
6 -20 -6 565 22 1
-6 20 -6 552 22 1
-6 20 6 575 22 1
6 -20 6 564 22 1
-20 -6 6 539 25 1
4 -20 -6 1289 52 1
4 -20 -6 1363 54 1
-4 20 -6 1354 54 1
-20 -4 -6 1318 59 1
20 4 6 1329 54 1
-20 -4 6 1340 59 1
-4 20 6 1272 53 1
4 -20 6 1359 54 1
2 -20 -6 1981 90 1
-2 20 -6 1972 92 1
-20 -2 -6 1924 101 1
-20 -2 6 1946 101 1
-20 -2 6 2031 103 1
-2 20 6 1980 91 1
2 -20 6 2061 92 1
20 2 6 2023 92 1
0 -20 -6 484 20 1
0 -20 -6 490 18 1
0 20 -6 516 21 1
-20 0 -6 529 22 1
20 0 6 483 20 1
-20 0 6 458 22 1
0 -20 6 512 20 1
0 20 6 520 20 1
-2 -20 -6 1276 55 1
-20 2 -6 1300 60 1
20 -2 6 1229 54 1
-20 2 6 1317 60 1
-2 -20 6 1370 55 1
2 20 6 1404 54 1
-20 4 -6 235 10 1
-4 -20 -6 257 10 1
-4 -20 6 251 10 1
-20 4 6 245 10 1
20 -4 6 220 10 1
4 20 6 221 11 1
4 20 6 235 9 1
-6 -20 -6 16 3 1
-6 -20 6 10 3 1
20 -6 6 56 3 1
-20 6 6 34 2 1
6 20 6 18 3 1
-20 8 -6 483 18 1
20 -8 -6 513 19 1
-8 -20 -6 531 17 1
-20 8 -6 530 15 1
-8 -20 6 496 17 1
20 -8 6 536 17 1
-20 8 6 504 18 1
8 20 6 480 17 1
20 -10 -6 2 4 1
-20 10 -6 0 2 1
-20 10 -6 1 2 1
-10 -20 -6 1 3 1
-20 10 6 1 2 1
-10 -20 6 3 3 1
20 -10 6 1 3 1
-20 12 -6 1105 44 1
20 -12 -6 1008 41 1
-20 12 -6 1053 39 1
20 -12 6 1056 40 1
-20 12 6 1008 44 1
-20 14 -6 161 11 1
-20 14 -6 151 10 1
-20 14 6 152 11 1
20 -16 -6 11 4 1
-20 16 -6 2 4 1
-20 16 -6 3 2 1
-16 -20 -6 7 2 1
-20 16 6 3 1 1
20 -16 6 5 3 1
-20 16 6 11 2 1
-18 -20 -6 2 2 1
-20 -20 -6 10 2 1
-20 20 6 18 4 1
-21 -19 -6 322 17 1
-19 21 6 315 17 1
-21 -17 -6 20 2 1
17 -21 6 19 2 1
-15 21 -6 18 8 1
-21 -15 -6 17 5 1
15 -21 -6 20 6 1
-15 21 6 14 5 1
-21 -13 -6 72 8 1
13 -21 -6 78 6 1
-13 21 -6 54 8 1
13 -21 -6 69 9 1
-13 21 6 75 7 1
13 -21 6 56 6 1
11 -21 -6 204 10 1
-21 -11 -6 177 11 1
11 -21 -6 223 8 1
-11 21 -6 211 10 1
11 -21 6 201 9 1
-11 21 6 195 9 1
-11 21 6 217 12 1
-21 -9 -6 1459 55 1
-21 -9 6 1317 55 1
-9 21 6 1409 56 1
7 -21 -6 398 19 1
7 -21 -6 389 17 1
-21 -7 -6 407 21 1
-7 21 -6 402 20 1
-21 -7 6 375 21 1
-7 21 6 391 18 1
7 -21 6 403 19 1
-5 21 -6 322 20 1
5 -21 -6 312 20 1
5 -21 -6 338 18 1
-5 21 6 322 19 1
-21 -5 6 324 22 1
5 -21 6 306 20 1
-21 -3 -6 758 37 1
3 -21 -6 879 33 1
-3 21 -6 866 34 1
3 -21 -6 849 31 1
21 3 6 808 34 1
-3 21 6 852 33 1
3 -21 6 881 33 1
-21 -3 6 912 37 1
1 -21 -6 94 2 1
-1 21 -6 98 4 1
-21 -1 -6 3 3 1
-21 -1 6 66 3 1
21 1 6 8 4 1
-21 -1 6 56 3 1
-1 21 6 76 3 1
1 -21 6 99 2 1
-21 1 -6 194 15 1
-1 -21 -6 213 14 1
1 21 6 201 13 1
-1 -21 6 222 14 1
-21 3 -6 177 12 1
-3 -21 6 183 12 1
3 21 6 177 11 1
-21 3 6 197 13 1
-21 5 -6 1442 61 1
-5 -21 -6 1491 57 1
-5 -21 6 1500 56 1
5 21 6 1426 56 1
-21 5 6 1472 61 1
-7 -21 -6 358 18 1
-21 7 -6 311 18 1
21 -7 6 333 17 1
7 21 6 328 18 1
-21 7 6 290 18 1
-7 -21 6 353 18 1
21 -9 -6 30 12 1
-9 -21 -6 23 8 1
-21 9 -6 17 6 1
-9 -21 6 18 8 1
-21 9 6 18 6 1
-11 -21 -6 281 11 1
-21 11 -6 265 11 1
-11 -21 6 261 12 1
21 -11 6 256 11 1
-21 11 6 271 11 1
-21 13 -6 205 14 1
21 -13 -6 199 16 1
21 -13 6 178 13 1
-21 13 6 209 14 1
21 -15 -6 40 5 1
-21 15 -6 47 2 1
-21 15 6 53 2 1
21 -15 6 47 3 1
-21 15 6 31 2 1
-17 -21 -6 412 22 1
-21 17 -6 408 21 1
-21 17 6 401 22 1
-19 -21 -6 1 2 1
-21 19 6 1 1 1
-22 -18 -6 202 12 1
-18 22 6 218 12 1
18 -22 6 203 11 1
-22 -16 -6 271 16 1
16 -22 6 256 14 1
-16 22 6 282 16 1
14 -22 -6 1 3 1
-22 -14 -6 0 2 1
-14 22 -6 2 4 1
-12 22 -6 239 11 1
12 -22 -6 229 10 1
12 -22 -6 229 11 1
12 -22 6 230 10 1
-12 22 6 216 10 1
-10 22 -6 305 18 1
10 -22 -6 323 16 1
10 -22 -6 357 17 1
-22 -10 -6 300 19 1
-10 22 6 336 17 1
10 -22 6 311 17 1
-10 22 6 318 20 1
-22 -10 6 292 20 1
8 -22 -6 618 23 1
-22 -8 -6 618 27 1
8 -22 -6 637 24 1
-8 22 -6 643 25 1
8 -22 6 607 24 1
-8 22 6 608 24 1
-22 -8 6 573 27 1
-22 -6 -6 171 11 1
6 -22 -6 197 10 1
-22 -6 6 206 12 1
6 -22 6 168 9 1
-22 -4 -6 67 9 1
4 -22 -6 81 6 1
-4 22 -6 71 10 1
4 -22 -6 78 8 1
-4 22 6 64 7 1
4 -22 6 85 7 1
2 -22 -6 438 19 1
-2 22 -6 417 23 1
2 -22 -6 465 21 1
22 2 6 439 23 1
-2 22 6 430 20 1
-22 -2 6 443 24 1
2 -22 6 436 21 1
0 -22 -6 719 27 1
-22 0 -6 725 30 1
-22 0 6 730 30 1
-22 0 6 685 29 1
0 -22 6 733 27 1
0 22 6 718 27 1
22 0 6 734 28 1
-22 2 -6 402 26 1
-2 -22 -6 372 24 1
22 -2 6 389 24 1
-2 -22 6 396 23 1
-22 2 6 389 26 1
2 22 6 355 23 1
-4 -22 -6 293 14 1
-22 4 -6 262 15 1
-4 -22 6 283 14 1
4 22 6 252 14 1
-22 4 6 257 15 1
22 -4 6 260 15 1
-22 6 -6 1608 69 1
-6 -22 -6 1597 64 1
-6 -22 6 1577 64 1
-22 6 6 1685 70 1
6 22 6 1595 64 1
-8 -22 -6 0 2 1
8 22 6 1 5 1
-22 8 6 1 2 1
22 -8 6 1 3 1
-8 -22 6 0 3 1
-10 -22 -6 156 11 1
-22 10 -6 166 11 1
-10 -22 6 172 12 1
22 -10 6 195 11 1
-22 10 6 178 11 1
22 -12 -6 90 14 1
22 -12 6 116 9 1
-22 14 -6 568 28 1
-22 14 6 564 29 1
22 -14 6 529 26 1
-22 14 6 575 28 1
-22 16 -6 365 20 1
-16 -22 -6 356 20 1
-22 16 6 366 21 1
-18 -22 -6 19 3 1
-22 18 6 19 2 1
-23 -17 -6 26 5 1
17 -23 6 31 4 1
-17 23 6 34 5 1
-23 -15 -6 3 2 1
-15 23 6 6 3 1
-23 -13 -6 35 5 1
13 -23 -6 50 6 1
-13 23 6 36 7 1
11 -23 -6 171 11 1
11 -23 -6 171 10 1
-23 -11 -6 186 11 1
-11 23 -6 171 12 1
11 -23 6 176 10 1
-11 23 6 161 11 1
-9 23 -6 65 9 1
9 -23 -6 53 6 1
-23 -9 -6 60 8 1
9 -23 -6 55 7 1
9 -23 6 65 6 1
-9 23 6 54 7 1
-7 23 -6 157 12 1
7 -23 -6 167 10 1
-23 -7 -6 156 11 1
7 -23 -6 170 8 1
-7 23 6 157 9 1
-23 -7 6 158 11 1
7 -23 6 174 9 1
-23 -5 -6 16 3 1
5 -23 -6 10 2 1
5 -23 -6 11 2 1
-5 23 -6 12 4 1
-5 23 6 11 3 1
5 -23 6 12 2 1
-23 -5 6 11 3 1
3 -23 -6 4651 175 1
-3 23 -6 4373 174 1
-23 -3 -6 4502 192 1
3 -23 6 4680 175 1
-3 23 6 4518 173 1
-23 -1 -6 452 23 1
1 -23 -6 514 22 1
-1 23 6 507 21 1
-23 -1 6 540 23 1
1 -23 6 534 21 1
-23 -1 6 530 24 1
-1 -23 -6 27 6 1
-23 1 -6 24 7 1
1 23 6 28 7 1
-23 1 6 15 8 1
-23 1 6 30 7 1
-1 -23 6 20 6 1
-3 -23 -6 39 6 1
3 23 6 58 8 1
-3 -23 6 41 7 1
-23 3 6 39 7 1
23 -3 6 54 10 1
-5 -23 -6 215 10 1
-23 5 -6 171 11 1
23 -5 6 199 12 1
-5 -23 6 220 11 1
-23 5 6 210 11 1
5 23 6 198 12 1
-23 7 -6 150 10 1
-7 -23 -6 155 10 1
-23 7 6 162 10 1
-7 -23 6 152 10 1
23 -7 6 154 11 1
7 23 6 159 13 1
-23 9 -6 42 6 1
-9 -23 -6 67 8 1
-9 -23 6 56 8 1
23 -9 6 42 9 1
-23 9 6 54 7 1
23 -11 -6 78 18 1
-23 11 -6 51 7 1
23 -11 6 63 10 1
-23 13 -6 237 10 1
-23 13 6 259 10 1
-23 13 6 249 10 1
-15 -23 -6 1 2 1
-23 15 -6 4 1 1
-23 15 6 8 2 1
-23 15 6 8 1 1
-17 -23 -6 114 8 1
-23 17 6 90 7 1
-24 -14 -6 282 16 1
14 -24 6 309 14 1
-24 -12 -6 31 5 1
12 -24 -6 29 5 1
12 -24 6 27 4 1
10 -24 -6 0 4 1
-10 24 -6 3 4 1
-24 -10 -6 0 2 1
10 -24 6 0 2 1
-10 24 6 0 3 1
-24 -10 6 2 3 1
8 -24 -6 59 7 1
-24 -8 -6 40 6 1
8 -24 -6 65 7 1
-8 24 6 54 7 1
8 -24 6 59 6 1
-24 -8 6 64 7 1
6 -24 -6 910 34 1
-24 -6 -6 862 37 1
-6 24 -6 850 35 1
-6 24 6 881 34 1
6 -24 6 929 34 1
4 -24 -6 350 17 1
-24 -4 -6 355 19 1
-4 24 -6 342 20 1
4 -24 6 353 17 1
-4 24 6 321 17 1
-24 -4 6 357 19 1
-2 24 -6 618 32 1
2 -24 -6 669 30 1
-24 -2 -6 676 33 1
-2 24 6 633 30 1
2 -24 6 664 30 1
0 -24 -6 237 12 1
-24 0 -6 229 13 1
-24 0 6 257 13 1
0 -24 6 253 12 1
-24 0 6 265 14 1
24 0 6 229 16 1
0 24 6 200 12 1
-24 2 -6 8 2 1
-2 -24 -6 6 2 1
-24 2 6 4 3 1
2 24 6 1 4 1
-24 2 6 1 2 1
24 -2 6 1 5 1
-2 -24 6 9 2 1
-24 4 -6 576 25 1
-4 -24 -6 562 23 1
-24 4 6 579 25 1
-24 4 6 545 25 1
4 24 6 503 23 1
24 -4 6 531 24 1
-4 -24 6 567 23 1
-6 -24 -6 343 15 1
-24 6 -6 281 15 1
6 24 6 286 17 1
-6 -24 6 334 15 1
-24 6 6 317 16 1
24 -6 6 285 17 1
-8 -24 -6 0 2 1
24 -8 6 2 4 1
-24 8 6 0 2 1
-8 -24 6 4 2 1
-24 10 -6 180 8 1
-24 10 6 170 8 1
-24 10 6 190 9 1
24 -10 6 199 12 1
-10 -24 6 147 9 1
-24 12 -6 633 25 1
-24 12 6 579 26 1
-24 12 6 633 25 1
-14 -24 -6 72 7 1
-24 14 -6 57 5 1
-24 14 6 57 5 1
-24 14 6 64 4 1
-25 -13 -6 174 9 1
13 -25 -6 156 9 1
13 -25 6 153 8 1
-25 -11 -6 40 5 1
11 -25 6 28 4 1
-25 -9 -6 134 10 1
9 -25 -6 136 9 1
-25 -9 6 143 10 1
-25 -7 -6 8 2 1
-7 25 -6 0 5 1
7 -25 -6 6 2 1
-7 25 6 16 4 1
-25 -7 6 7 2 1
7 -25 6 7 2 1
-25 -5 -6 229 13 1
5 -25 -6 215 12 1
-5 25 -6 173 17 1
5 -25 6 214 12 1
3 -25 -6 26 2 1
-3 25 -6 4 7 1
-25 -3 6 51 2 1
-3 25 6 26 3 1
3 -25 6 26 2 1
1 -25 -6 1 2 1
-1 25 6 2 4 1
1 -25 6 1 2 1
-1 -25 -6 367 15 1
-25 1 6 312 16 1
-1 -25 6 331 15 1
1 25 6 356 16 1
-3 -25 -6 45 7 1
25 -3 6 38 14 1
-25 3 6 38 6 1
-25 3 6 42 6 1
-5 -25 -6 61 7 1
-5 -25 6 65 7 1
5 25 6 74 13 1
25 -5 6 68 13 1
-25 5 6 74 5 1
-25 5 6 82 6 1
-25 7 -6 25 6 1
-7 -25 -6 48 7 1
-7 -25 6 33 8 1
-25 7 6 35 6 1
25 -7 6 40 12 1
-25 7 6 29 6 1
-9 -25 -6 330 15 1
-25 9 -6 315 16 1
-25 9 6 330 17 1
-25 9 6 356 16 1
-9 -25 6 357 15 1
-25 11 -6 457 27 1
-25 11 6 471 27 1
-25 11 6 445 28 1
-11 -25 6 503 25 1
-25 13 -6 242 14 1
-13 -25 -6 252 15 1
-25 13 6 248 14 1
-26 -12 -6 127 10 1
12 -26 -6 142 9 1
12 -26 6 161 9 1
10 -26 -6 477 23 1
-26 -10 -6 516 26 1
10 -26 6 487 23 1
8 -26 -6 62 5 1
-26 -8 -6 81 6 1
8 -26 6 68 5 1
-26 -8 6 65 7 1
-26 -6 -6 97 6 1
6 -26 -6 91 6 1
-26 -6 6 74 7 1
4 -26 -6 26 6 1
-26 -4 -6 31 5 1
4 -26 6 29 6 1
-4 26 6 38 8 1
-26 -4 6 33 6 1
2 -26 -6 118 8 1
-26 -2 -6 131 8 1
2 -26 6 115 8 1
-2 26 6 97 10 1
-26 -2 6 112 8 1
-26 0 -6 20 4 1
0 -26 6 15 5 1
-26 0 6 15 5 1
-26 2 -6 3 2 1
-2 -26 -6 4 2 1
-26 2 6 5 2 1
-2 -26 6 4 2 1
-26 4 -6 201 12 1
-4 -26 -6 212 12 1
-26 4 6 211 12 1
-26 4 6 205 13 1
-26 6 -6 313 14 1
-6 -26 6 310 13 1
-26 6 6 318 14 1
-26 6 6 334 14 1
-8 -26 -6 180 10 1
-26 8 -6 185 11 1
-26 8 6 184 11 1
-8 -26 6 184 10 1
-26 8 6 188 11 1
-26 10 -6 56 6 1
-26 10 6 50 6 1
-26 10 6 49 6 1
-26 12 -6 353 15 1
-26 12 6 342 15 1
-26 12 6 350 16 1
9 -27 -6 1 1 1
-27 -9 -6 1 2 1
9 -27 6 1 1 1
7 -27 -6 1 1 1
-27 -7 -6 0 2 1
-27 -7 6 2 3 1
7 -27 6 3 1 1
5 -27 -6 220 12 1
-27 -5 -6 238 14 1
5 -27 6 215 12 1
-27 -5 6 223 14 1
-27 -3 -6 106 7 1
3 -27 -6 103 6 1
-27 -3 6 126 7 1
3 -27 6 104 6 1
-27 -1 -6 1 2 1
1 -27 -6 0 1 1
-27 -1 6 1 2 1
1 -27 6 3 1 1
-1 -27 -6 54 5 1
-27 1 -6 67 6 1
-1 -27 6 52 5 1
-27 1 6 49 6 1
-27 1 6 66 8 1
-3 -27 -6 312 12 1
-27 3 -6 316 13 1
-27 3 6 306 13 1
-27 3 6 312 13 1
-3 -27 6 272 12 1
-27 5 -6 558 26 1
-5 -27 -6 534 24 1
-5 -27 6 535 24 1
-27 5 6 588 26 1
-27 5 6 508 26 1
-27 7 -6 60 5 1
-7 -27 -6 59 5 1
-27 7 6 63 5 1
-7 -27 6 65 5 1
-27 7 6 63 6 1
-27 9 -6 13 3 1
-27 9 6 11 4 1
-27 9 6 12 3 1
6 -28 -6 299 15 1
-28 -6 -6 293 16 1
6 -28 6 297 14 1
-28 -6 6 312 16 1
4 -28 -6 107 7 1
-28 -4 -6 113 8 1
4 -28 6 102 7 1
-28 -4 6 106 8 1
-28 -2 -6 2 1 1
-28 -2 6 2 2 1
2 -28 6 3 1 1
-28 0 -6 2 1 1
0 -28 -6 1 1 1
-28 0 6 1 2 1
0 -28 6 2 1 1
-2 -28 -6 3 1 1
-28 2 -6 2 1 1
-28 2 6 5 2 1
-2 -28 6 8 1 1
-28 2 6 11 3 1
-28 4 -6 22 4 1
-4 -28 -6 24 4 1
-4 -28 6 23 4 1
-6 -28 -6 194 10 1
-28 6 -6 190 11 1
-28 6 6 191 11 1
-28 6 6 206 11 1
-6 -28 6 202 10 1
0 -1 -7 2468 77 1
0 -1 -7 2501 77 1
-1 0 -7 2479 77 1
1 0 -7 2477 77 1
0 1 -7 2646 77 1
0 1 7 2469 77 1
0 -1 7 2562 77 1
-1 0 7 2367 77 1
-1 0 7 2432 77 1
0 -1 7 2616 77 1
1 -2 -7 176 11 1
-2 -1 -7 241 11 1
-1 2 -7 182 11 1
-2 -1 -7 241 11 1
1 -2 -7 172 11 1
-1 2 7 176 11 1
1 -2 7 187 11 1
-1 2 7 187 12 1
1 -2 7 180 12 1
2 1 7 188 11 1
2 -1 -7 594 134 1
2 -1 -7 684 134 1
-1 -2 -7 630 134 1
1 2 -7 739 134 1
-2 1 -7 762 134 1
2 -1 7 731 134 1
-1 -2 7 640 148 1
-2 1 7 653 134 1
1 2 7 677 134 1
-3 -2 -7 720 117 1
-2 3 -7 732 117 1
2 -3 -7 741 117 1
2 -3 -7 618 117 1
-2 3 7 714 117 1
-3 -2 7 696 130 1
-2 3 7 752 130 1
2 -3 7 779 117 1
2 -3 7 677 129 1
3 0 -7 4 73 1
3 0 -7 8 73 1
-3 0 -7 15 73 1
0 3 -7 18 73 1
0 -3 -7 6 73 1
-3 0 7 19 81 1
0 -3 7 8 80 1
0 3 7 16 73 1
3 0 7 11 73 1
3 -2 -7 907 38 1
3 -2 -7 983 38 1
-2 -3 -7 876 38 1
-2 -3 -7 868 38 1
2 3 7 768 38 1
3 -2 7 903 38 1
-3 2 7 948 38 1
3 -4 -7 20118 726 1
3 -4 -7 20465 727 1
-4 -3 -7 21327 728 1
-3 4 7 20856 727 1
-4 -3 7 19935 805 1
4 3 7 22012 728 1
3 -4 7 20253 727 1
4 1 -7 582 189 1
-1 4 -7 626 189 1
-4 -1 -7 533 189 1
1 -4 -7 537 189 1
1 -4 -7 565 189 1
1 -4 7 622 189 1
1 -4 7 626 189 1
-1 4 7 618 190 1
4 -1 -7 276 1 1
-1 -4 -7 266 2 1
1 4 -7 288 1 1
4 -1 -7 299 2 1
-4 1 -7 265 2 1
1 4 7 267 2 1
-4 3 -7 18325 610 1
4 -3 -7 17430 609 1
3 4 7 18320 610 1
4 -3 7 17041 609 1
-4 3 7 18761 608 1
-3 -4 7 16968 674 1
-4 3 7 18483 608 1
-4 5 -7 1314 167 1
4 -5 -7 1148 167 1
-5 -4 -7 1297 167 1
-4 5 7 1350 167 1
-4 5 7 1365 185 1
4 -5 7 1215 185 1
-5 -4 7 1477 185 1
2 -5 -7 118 12 1
-5 -2 -7 128 12 1
-2 5 -7 142 12 1
2 -5 7 132 13 1
2 -5 7 138 12 1
5 2 7 131 12 1
-2 5 7 114 12 1
-5 -2 7 155 13 1
0 5 -7 14080 736 1
5 0 -7 13449 735 1
0 -5 7 13574 814 1
0 5 7 13068 737 1
5 0 7 14225 737 1
5 -2 -7 76 2 1
-5 2 -7 66 2 1
-2 -5 -7 71 2 1
-2 -5 -7 74 2 1
-5 2 7 74 3 1
2 5 7 73 2 1
5 -2 7 65 2 1
-2 -5 7 53 2 1
-5 4 -7 12540 485 1
5 -4 -7 12505 483 1
-4 -5 -7 12161 484 1
5 -4 -7 12197 482 1
-4 -5 -7 12333 485 1
-4 -5 7 11545 535 1
-5 4 7 12386 484 1
4 5 7 12742 485 1
-5 6 7 276 5 1
-5 6 7 258 4 1
5 -6 7 266 4 1
-3 6 -7 5936 329 1
3 -6 -7 5941 328 1
-6 -3 -7 5911 329 1
-6 -3 -7 6162 329 1
6 3 7 6541 328 1
3 -6 7 5798 328 1
-6 -3 7 5734 364 1
-3 6 7 6166 330 1
1 -6 -7 204 1 1
1 -6 -7 210 2 1
6 1 7 192 2 1
1 -6 7 205 1 1
-6 -1 7 191 2 1
-1 6 7 219 2 1
-1 6 7 213 1 1
-1 -6 -7 16260 739 1
-1 -6 -7 17548 740 1
1 6 -7 17781 739 1
6 -1 -7 17789 737 1
1 6 -7 16485 817 1
6 -1 -7 16852 739 1
-6 1 -7 17965 740 1
-6 1 7 17816 820 1
-1 -6 7 17783 817 1
-6 3 -7 41995 1586 1
6 -3 -7 38090 1581 1
-3 -6 -7 41365 1583 1
-3 -6 7 38861 1752 1
-6 3 7 41763 1582 1
-5 -6 -7 2776 84 1
6 -5 -7 2813 84 1
-6 5 -7 2953 85 1
-5 -6 -7 2633 84 1
-6 5 7 2757 84 1
-6 5 7 2970 84 1
-6 5 7 2937 94 1
5 6 7 2554 84 1
-5 -6 7 2789 93 1
-7 -6 -7 205 21 1
-6 7 -7 206 22 1
-7 -6 -7 207 21 1
6 -7 7 189 21 1
-6 7 7 237 21 1
-7 -4 -7 1793 132 1
-7 -4 -7 1730 132 1
4 -7 -7 1863 132 1
-4 7 -7 1747 133 1
-4 7 7 1878 132 1
4 -7 7 1904 132 1
-4 7 7 1833 147 1
-7 -4 7 1666 147 1
7 4 7 1877 133 1
-2 7 -7 1247 107 1
2 -7 -7 1382 107 1
-7 -2 -7 1398 107 1
2 -7 -7 1368 107 1
-7 -2 -7 1491 107 1
-2 7 7 1444 118 1
7 2 7 1416 107 1
2 -7 7 1323 106 1
2 -7 7 1339 106 1
0 -7 -7 242 15 1
0 7 -7 161 15 1
0 -7 -7 255 15 1
-7 0 -7 287 15 1
0 7 7 217 15 1
-7 0 7 280 16 1
7 -2 -7 768 24 1
-7 2 -7 781 24 1
-2 -7 -7 756 24 1
-2 -7 -7 784 24 1
7 -2 7 752 24 1
2 7 7 830 24 1
-2 -7 7 677 26 1
-4 -7 -7 43 4 1
-7 4 -7 66 4 1
7 -4 -7 39 4 1
-4 -7 -7 46 4 1
7 -4 7 66 4 1
-7 4 7 33 4 1
7 -6 -7 3139 132 1
-6 -7 -7 2775 132 1
-7 6 -7 3057 133 1
-6 -7 7 2804 147 1
-7 6 7 3020 132 1
6 7 7 3002 133 1
7 -8 -7 2030 63 1
-8 -7 -7 1945 63 1
-7 8 -7 2055 64 1
-8 -7 -7 2026 63 1
8 7 7 2061 63 1
-8 -7 7 2071 70 1
7 -8 7 1958 63 1
-5 8 -7 55 12 1
-8 -5 -7 2 12 1
-8 -5 -7 3 12 1
5 -8 -7 37 12 1
-5 8 7 43 12 1
-5 8 7 33 13 1
5 -8 7 46 12 1
3 -8 -7 6345 196 1
-3 8 -7 6476 196 1
-8 -3 -7 6428 196 1
-8 -3 -7 6183 196 1
3 -8 -7 6173 196 1
-3 8 7 6234 196 1
8 3 7 6614 196 1
3 -8 7 6555 196 1
1 -8 -7 688 88 1
1 -8 -7 629 87 1
-8 -1 -7 611 88 1
-1 8 -7 630 88 1
-1 8 7 699 88 1
-1 8 7 632 97 1
8 1 7 641 88 1
-1 -8 -7 5546 240 1
-8 1 -7 5431 241 1
8 -1 -7 5433 240 1
1 8 -7 5499 240 1
-1 -8 -7 5793 241 1
1 8 -7 5741 266 1
1 8 7 5727 241 1
-8 1 7 5768 266 1
-8 3 -7 21 3 1
3 8 7 24 3 1
8 -3 7 26 3 1
-5 -8 -7 30 2 1
8 -5 -7 17 2 1
-8 5 7 11 2 1
-7 -8 -7 28728 1040 1
8 -7 -7 27572 1040 1
-7 -8 -7 27238 1039 1
-8 7 7 27772 1152 1
7 8 7 27829 1040 1
8 -7 7 27460 1041 1
-8 7 7 26970 1040 1
-9 -8 -7 720 40 1
-8 9 -7 669 41 1
-9 -8 -7 718 40 1
8 -9 -7 710 40 1
-8 9 7 646 45 1
-8 9 7 686 45 1
8 -9 7 683 40 1
9 8 7 759 40 1
-6 9 -7 8184 354 1
-9 -6 -7 8486 354 1
6 -9 -7 8163 354 1
-9 -6 -7 8535 355 1
-6 9 7 7998 355 1
6 -9 7 7879 354 1
4 -9 -7 46 3 1
-4 9 -7 43 3 1
-9 -4 -7 47 3 1
-4 9 7 47 3 1
4 -9 7 41 2 1
2 -9 -7 4267 123 1
-2 9 -7 4127 124 1
-9 -2 -7 4165 123 1
-9 -2 -7 4175 123 1
2 -9 -7 4086 123 1
9 2 7 3900 124 1
-2 9 7 4111 123 1
2 -9 7 4155 123 1
2 -9 7 4266 123 1
-9 0 -7 145 7 1
9 0 -7 152 8 1
0 -9 -7 152 7 1
0 9 -7 187 8 1
0 9 7 188 8 1
9 0 7 131 8 1
2 9 -7 1821 47 1
9 -2 -7 1801 47 1
-9 2 -7 1826 47 1
-2 -9 -7 1872 47 1
2 9 7 1867 47 1
9 -2 7 1881 47 1
9 -4 -7 7805 372 1
-4 -9 -7 8286 373 1
9 -4 7 7733 372 1
4 9 7 8242 373 1
9 -6 -7 314 7 1
-6 -9 -7 299 7 1
-9 6 7 327 7 1
-9 6 7 298 7 1
9 -6 7 291 7 1
6 9 7 302 7 1
-9 8 -7 785 19 1
-8 -9 -7 742 18 1
8 9 7 775 19 1
-9 8 7 731 21 1
9 -8 7 767 19 1
9 -10 -7 3112 122 1
-9 10 -7 3073 123 1
-10 -9 -7 3234 122 1
-10 -9 -7 3082 121 1
-9 10 7 3447 136 1
10 9 7 3106 122 1
-7 10 -7 1134 67 1
-10 -7 -7 1190 66 1
-10 -7 -7 1244 67 1
-7 10 7 1263 67 1
7 -10 7 1165 67 1
-10 -5 -7 27 2 1
-5 10 -7 11 1 1
5 -10 -7 9 2 1
-5 10 7 12 1 1
-3 10 -7 217 17 1
3 -10 -7 190 17 1
-10 -3 -7 192 17 1
-10 -3 -7 194 17 1
-3 10 7 222 19 1
-3 10 7 183 17 1
-1 10 -7 6056 133 1
1 -10 -7 6074 133 1
-10 -1 -7 6238 133 1
1 -10 -7 5930 133 1
-10 -1 -7 6225 133 1
-1 10 7 6147 133 1
1 10 -7 14681 521 1
-1 -10 -7 14810 521 1
-1 -10 -7 15418 523 1
10 -1 -7 15186 521 1
1 10 -7 14478 576 1
1 10 7 14427 523 1
10 -1 7 15026 522 1
-10 3 -7 94 7 1
-3 -10 -7 107 7 1
-10 3 7 102 8 1
-5 -10 -7 6397 288 1
-5 -10 -7 6993 287 1
-10 5 -7 6700 288 1
10 -5 -7 6378 288 1
10 -5 7 6614 288 1
5 10 7 6748 288 1
-7 -10 -7 2852 91 1
-7 -10 -7 3011 92 1
7 10 7 3025 92 1
-10 7 7 2961 102 1
-10 7 7 2955 91 1
10 -7 7 2924 92 1
-10 9 -7 0 1 1
-9 -10 -7 2 1 1
10 -9 -7 1 1 1
-10 9 -7 0 3 1
9 10 7 1 1 1
-10 9 7 2 1 1
-10 9 7 0 2 1
-10 11 -7 85 10 1
10 -11 -7 76 7 1
11 10 7 90 7 1
10 -11 7 84 7 1
-10 11 7 80 7 1
10 -11 7 99 9 1
-10 11 7 82 8 1
-10 11 7 86 8 1
-11 -8 -7 73 1 1
8 -11 -7 69 1 1
-11 -8 -7 67 1 1
11 8 7 71 1 1
8 -11 7 65 1 1
-8 11 7 73 2 1
-8 11 7 66 2 1
-8 11 7 73 1 1
6 -11 -7 8633 411 1
-11 -6 -7 9329 411 1
6 -11 -7 8793 411 1
11 6 7 9096 411 1
-6 11 7 9567 412 1
-6 11 7 9227 455 1
-11 -4 -7 1970 97 1
-11 -4 7 2200 108 1
-4 11 7 2075 98 1
-4 11 7 2004 108 1
11 4 7 2012 97 1
4 -11 7 2028 97 1
-2 11 -7 165 5 1
2 -11 -7 145 4 1
-11 -2 -7 167 4 1
-11 -2 -7 188 4 1
2 -11 -7 153 4 1
11 2 7 176 4 1
-2 11 7 146 5 1
2 -11 7 163 3 1
0 -11 -7 4886 160 1
0 -11 -7 4714 159 1
0 11 7 4543 160 1
11 -2 -7 7297 289 1
-11 2 -7 7395 289 1
2 11 -7 7352 289 1
-2 -11 -7 7458 289 1
2 11 7 7506 289 1
-4 -11 -7 5108 195 1
-4 -11 -7 4786 195 1
-11 4 -7 4963 195 1
4 11 7 5230 195 1
-11 6 -7 1702 72 1
-11 6 -7 1675 81 1
-6 -11 -7 1663 72 1
-6 -11 -7 1661 72 1
11 -6 -7 1742 72 1
-11 6 7 1630 80 1
6 11 7 1754 72 1
-8 -11 -7 1492 59 1
-8 -11 -7 1419 58 1
11 -8 -7 1434 59 1
8 11 7 1365 59 1
-11 8 7 1475 58 1
-11 8 7 1473 66 1
-11 8 7 1483 66 1
-10 -11 -7 907 31 1
11 -10 -7 854 31 1
-11 10 -7 881 35 1
11 -10 7 909 31 1
-11 10 7 907 35 1
-11 12 -7 11 5 1
11 -12 -7 14 5 1
-12 -11 -7 16 3 1
-11 12 -7 14 7 1
-11 12 7 8 6 1
11 -12 7 10 4 1
-11 12 7 13 4 1
-11 12 7 11 5 1
11 -12 7 14 6 1
12 11 7 16 4 1
-12 -9 -7 1055 38 1
-9 12 -7 1011 43 1
-9 12 -7 1080 39 1
-9 12 7 1024 43 1
-9 12 7 1030 38 1
12 9 7 1047 38 1
9 -12 7 1029 39 1
9 -12 7 1018 38 1
-12 -7 -7 1694 66 1
-12 -7 -7 1640 65 1
-7 12 -7 1730 66 1
-12 -7 -7 1653 65 1
7 -12 -7 1581 66 1
7 -12 7 1692 66 1
-7 12 7 1615 66 1
7 -12 7 1669 67 1
-7 12 7 1604 73 1
-5 12 -7 121 9 1
-12 -5 -7 64 9 1
5 -12 -7 122 9 1
5 -12 -7 115 9 1
-12 -5 7 61 10 1
5 -12 7 116 8 1
-5 12 7 98 9 1
12 5 7 75 9 1
-12 -3 -7 8946 292 1
3 -12 -7 8476 292 1
-12 -3 -7 8655 291 1
3 -12 -7 9035 292 1
3 -12 7 8655 291 1
-3 12 7 8147 323 1
-3 12 7 8195 292 1
3 -12 7 8863 292 1
12 3 7 8907 292 1
-1 12 -7 3180 106 1
-12 -1 -7 3229 105 1
1 -12 -7 3285 105 1
1 -12 -7 3254 105 1
-12 -1 -7 3189 105 1
-1 12 7 3268 105 1
1 12 -7 260 16 1
-1 -12 -7 304 16 1
-12 1 -7 254 19 1
1 12 7 279 16 1
12 -1 7 244 16 1
-3 -12 -7 1403 63 1
-12 3 -7 1326 63 1
12 -3 -7 1308 63 1
12 -3 7 1309 63 1
-5 -12 -7 20158 674 1
-5 -12 -7 20079 671 1
-12 5 -7 19393 744 1
-12 5 -7 20209 675 1
5 12 7 20942 674 1
-7 -12 -7 83 2 1
-7 -12 -7 93 3 1
-12 7 -7 88 4 1
7 12 7 91 3 1
-12 7 7 72 5 1
-12 9 -7 1290 57 1
12 -9 -7 1203 56 1
-12 9 -7 1284 63 1
-9 -12 -7 1290 58 1
-9 -12 -7 1372 56 1
-12 9 7 1184 62 1
12 -9 7 1369 56 1
-12 9 7 1350 56 1
9 12 7 1361 56 1
-12 9 7 1191 62 1
-11 -12 -7 1419 47 1
12 -11 -7 1258 47 1
-12 11 -7 1411 53 1
-12 11 -7 1340 48 1
12 -11 7 1377 47 1
12 -11 7 1278 48 1
-12 11 7 1277 47 1
-12 11 7 1370 53 1
-12 13 -7 387 16 1
-12 13 -7 361 14 1
-13 -12 -7 380 14 1
-12 13 7 354 16 1
-12 13 7 360 16 1
-12 13 7 351 14 1
12 -13 7 348 15 1
13 12 7 375 15 1
10 -13 -7 1155 32 1
-10 13 -7 1124 36 1
-10 13 -7 1082 33 1
-10 13 7 1041 36 1
13 10 7 1193 33 1
-10 13 7 1098 36 1
-10 13 7 1105 32 1
10 -13 7 1079 32 1
8 -13 -7 8 4 1
-8 13 -7 3 3 1
-13 -8 -7 6 3 1
-8 13 -7 9 4 1
-8 13 7 15 5 1
8 -13 7 13 6 1
-8 13 7 11 5 1
-6 13 -7 88 3 1
-13 -6 -7 83 1 1
-13 -6 -7 90 1 1
-6 13 7 67 2 1
6 -13 7 91 2 1
4 -13 -7 49 3 1
-4 13 -7 40 4 1
-13 -4 -7 40 3 1
4 -13 7 47 2 1
13 4 7 44 3 1
-13 -2 -7 78 4 1
2 -13 -7 78 4 1
-13 -2 -7 70 3 1
2 -13 -7 76 4 1
-2 13 -7 62 4 1
-13 -2 -7 59 6 1
13 2 7 70 4 1
-2 13 7 69 4 1
0 -13 -7 74 2 1
0 -13 -7 65 1 1
-13 0 -7 84 2 1
-13 0 -7 72 1 1
0 13 -7 88 3 1
-13 0 7 64 3 1
0 13 7 56 1 1
2 13 -7 60 4 1
13 -2 -7 64 5 1
-2 -13 -7 67 3 1
-2 -13 -7 65 3 1
-13 2 7 71 7 1
13 -2 7 51 3 1
-13 2 7 70 5 1
-4 -13 -7 2992 97 1
4 13 7 3123 98 1
-13 4 7 3094 109 1
13 -4 7 3058 98 1
-13 6 -7 190 4 1
-6 -13 -7 205 7 1
-6 -13 -7 192 3 1
-13 6 7 178 6 1
-13 6 7 187 5 1
-13 8 -7 2340 86 1
-8 -13 -7 2442 76 1
-8 -13 -7 2295 79 1
-8 -13 -7 2457 77 1
-13 8 -7 2383 78 1
13 -8 7 2500 78 1
8 13 7 2327 78 1
-13 8 7 2220 86 1
-13 10 -7 13 2 1
-13 10 -7 16 3 1
13 -10 -7 24 2 1
-10 -13 -7 35 3 1
13 -10 7 27 2 1
-13 10 7 15 1 1
-13 10 7 18 3 1
-13 10 7 18 2 1
10 13 7 21 2 1
-12 -13 -7 2538 75 1
-13 12 -7 2372 75 1
12 13 7 2490 75 1
13 -12 7 2421 76 1
13 -12 7 2407 75 1
-13 12 7 2389 83 1
-13 12 7 2494 74 1
-14 -13 -7 1119 39 1
-13 14 -7 1088 44 1
-13 14 -7 1114 40 1
14 13 7 1148 40 1
-13 14 7 1162 39 1
-13 14 7 1163 44 1
11 -14 -7 525 23 1
11 -14 -7 537 18 1
-11 14 -7 484 19 1
-11 14 -7 521 20 1
11 -14 7 496 19 1
14 11 7 516 19 1
-11 14 7 518 20 1
-11 14 7 553 21 1
-11 14 7 516 18 1
11 -14 7 519 18 1
-9 14 -7 1543 65 1
-14 -9 -7 1536 58 1
-9 14 -7 1538 59 1
9 -14 -7 1529 59 1
9 -14 7 1465 60 1
-9 14 7 1560 59 1
-9 14 7 1595 65 1
9 -14 7 1528 58 1
7 -14 -7 3495 147 1
-14 -7 -7 3380 146 1
-7 14 -7 3343 148 1
-7 14 -7 3152 163 1
7 -14 -7 3199 149 1
-7 14 7 3338 163 1
14 7 7 3504 147 1
7 -14 7 3225 147 1
-7 14 7 3336 147 1
7 -14 7 3356 149 1
-14 -5 -7 74 8 1
5 -14 -7 80 9 1
-5 14 -7 81 9 1
-5 14 7 73 13 1
5 -14 7 90 8 1
-5 14 7 84 10 1
-5 14 7 76 9 1
5 -14 7 77 10 1
14 5 7 76 9 1
3 -14 -7 2683 85 1
3 -14 -7 2494 87 1
-3 14 -7 2593 86 1
-3 14 7 2497 85 1
-14 -3 7 2537 97 1
3 -14 7 2567 87 1
1 -14 -7 1507 76 1
-14 -1 -7 1437 76 1
-14 -1 -7 1352 85 1
1 -14 -7 1417 78 1
-1 14 7 1530 84 1
-1 14 7 1523 76 1
14 1 7 1355 76 1
1 -14 7 1404 77 1
-14 -1 7 1595 85 1
-14 1 -7 640 30 1
-1 -14 -7 627 30 1
1 14 -7 649 30 1
-1 -14 -7 660 30 1
-1 -14 -7 641 32 1
-14 1 7 652 34 1
-1 -14 7 625 32 1
1 14 7 631 30 1
-14 3 -7 185 9 1
-3 -14 -7 195 6 1
-3 -14 -7 175 9 1
-3 -14 -7 206 6 1
14 -3 -7 220 8 1
-14 3 7 219 9 1
-14 3 7 213 8 1
14 -5 -7 6 2 1
-5 -14 -7 5 3 1
-14 5 7 12 3 1
5 14 7 8 3 1
-14 5 7 6 2 1
-7 -14 -7 3255 121 1
-14 7 -7 3065 119 1
-14 7 -7 3223 132 1
14 -7 -7 3219 119 1
-7 -14 -7 3323 119 1
14 -7 7 2966 119 1
7 14 7 3178 119 1
-14 7 7 3378 132 1
-14 7 7 3286 132 1
14 -9 -7 68 7 1
-14 9 -7 48 6 1
-9 -14 -7 55 6 1
-9 -14 -7 68 9 1
-14 9 -7 55 8 1
-14 9 7 50 8 1
-11 -14 -7 878 39 1
-14 11 -7 899 38 1
14 -11 -7 844 38 1
-14 11 -7 898 42 1
14 -11 7 927 38 1
-14 11 7 967 42 1
11 14 7 927 38 1
-14 11 7 910 37 1
-13 -14 -7 507 16 1
-14 13 -7 432 17 1
-14 13 -7 426 18 1
14 -13 -7 453 17 1
-14 13 7 443 15 1
-14 13 7 466 19 1
14 -13 7 437 16 1
14 -13 7 468 17 1
-14 13 7 421 18 1
13 14 7 477 17 1
-14 15 -7 1439 68 1
-14 15 -7 1447 62 1
-14 15 7 1452 68 1
14 -15 7 1353 62 1
-14 15 7 1473 61 1
12 -15 -7 6 2 1
-12 15 -7 11 3 1
-15 -12 -7 2 3 1
-12 15 -7 11 2 1
-12 15 7 12 2 1
15 12 7 11 3 1
-12 15 7 6 2 1
12 -15 7 5 2 1
-10 15 -7 2 2 1
-15 -10 -7 2 2 1
10 -15 -7 2 4 1
10 -15 -7 1 2 1
-10 15 -7 1 3 1
-10 15 7 2 2 1
10 -15 7 2 2 1
10 -15 7 2 1 1
15 10 7 2 3 1
8 -15 -7 226 12 1
8 -15 -7 230 8 1
-8 15 -7 225 9 1
-8 15 -7 229 12 1
-8 15 7 229 8 1
15 8 7 212 8 1
8 -15 7 227 9 1
8 -15 7 229 8 1
-8 15 7 242 10 1
-15 -6 -7 3106 101 1
-6 15 -7 2988 102 1
6 -15 -7 3136 102 1
-6 15 7 3129 113 1
-6 15 7 3253 102 1
6 -15 7 2965 103 1
-15 -6 7 3284 114 1
15 6 7 2963 102 1
6 -15 7 3101 101 1
-4 15 -7 2912 109 1
-15 -4 -7 3086 121 1
4 -15 -7 2795 110 1
4 -15 -7 2766 108 1
-4 15 7 2900 108 1
4 -15 7 2882 110 1
15 4 7 2826 108 1
-4 15 7 2859 123 1
2 -15 -7 1 3 1
2 -15 -7 1 3 1
-15 -2 -7 1 3 1
-15 -2 -7 2 3 1
2 -15 -7 1 7 1
-15 -2 7 6 8 1
-15 -2 7 4 5 1
15 2 7 0 3 1
-2 15 7 3 4 1
-2 15 7 4 4 1
-15 0 -7 695 15 1
-15 0 -7 665 16 1
0 -15 -7 657 16 1
0 -15 -7 672 17 1
0 -15 -7 675 15 1
15 0 7 722 16 1
0 -15 7 605 17 1
0 15 7 667 17 1
0 15 7 677 16 1
-2 -15 -7 2216 79 1
-2 -15 -7 2336 79 1
-2 -15 -7 2348 81 1
-15 2 -7 2270 79 1
-15 2 -7 2375 89 1
-2 -15 7 2392 81 1
-15 2 7 2454 88 1
15 -2 7 2246 80 1
-4 -15 -7 3107 122 1
-4 -15 -7 2984 125 1
-4 -15 -7 3187 123 1
-15 4 -7 2940 123 1
-4 -15 7 2929 124 1
-6 -15 -7 573 22 1
-15 6 -7 541 23 1
15 -6 -7 517 23 1
-6 -15 -7 563 24 1
-6 -15 -7 550 23 1
-15 6 7 559 26 1
-6 -15 7 554 25 1
-15 8 -7 197 15 1
-15 8 -7 187 13 1
15 -8 7 176 13 1
-15 8 7 183 14 1
-8 -15 7 187 17 1
-15 10 -7 1297 49 1
-10 -15 -7 1350 50 1
-15 10 -7 1298 54 1
-10 -15 -7 1342 49 1
15 -10 -7 1346 49 1
-15 10 7 1267 54 1
-15 10 7 1270 54 1
10 15 7 1355 49 1
15 -10 7 1324 49 1
-15 12 -7 806 30 1
15 -12 -7 784 28 1
-15 12 -7 818 27 1
-12 -15 -7 772 27 1
12 15 7 798 28 1
-15 12 7 833 31 1
15 -12 7 783 28 1
15 -12 7 778 27 1
-15 14 -7 3007 133 1
-14 -15 -7 2965 120 1
15 -14 -7 3168 121 1
-15 14 -7 3034 121 1
15 -14 7 3058 121 1
-15 14 7 3137 119 1
15 -16 -7 1 3 1
-15 16 -7 0 3 1
-15 16 -7 1 3 1
-15 16 7 2 3 1
15 -16 7 5 5 1
-15 16 7 7 6 1
15 -16 7 3 3 1
13 -16 -7 992 35 1
-13 16 -7 1031 39 1
-13 16 -7 1018 35 1
13 -16 7 1054 35 1
-13 16 7 1018 34 1
13 -16 7 992 34 1
11 -16 -7 4639 192 1
-11 16 -7 4548 212 1
11 -16 -7 4589 194 1
-11 16 -7 4383 192 1
16 11 7 4396 192 1
11 -16 7 4558 194 1
11 -16 7 4668 191 1
-11 16 7 4523 192 1
-9 16 -7 425 25 1
-9 16 -7 413 23 1
9 -16 -7 411 22 1
16 9 7 409 23 1
-9 16 7 407 25 1
9 -16 7 401 22 1
-16 -9 7 435 27 1
-9 16 7 414 22 1
7 -16 -7 572 18 1
-7 16 -7 513 19 1
-16 -7 -7 578 21 1
7 -16 -7 579 20 1
-16 -7 -7 563 18 1
16 7 7 600 24 1
-16 -7 7 542 22 1
7 -16 7 534 19 1
-7 16 7 539 18 1
-7 16 7 602 21 1
7 -16 7 542 17 1
-7 16 7 614 22 1
-5 16 -7 644 29 1
5 -16 -7 674 28 1
5 -16 -7 658 30 1
-16 -5 -7 616 32 1
-16 -5 -7 653 28 1
5 -16 7 670 27 1
-16 -5 7 596 33 1
-5 16 7 633 33 1
-5 16 7 687 31 1
5 -16 7 659 29 1
-5 16 7 645 28 1
-16 -3 -7 1 4 1
-3 16 -7 2 5 1
-16 -3 -7 0 6 1
3 -16 -7 4 7 1
3 -16 -7 1 4 1
3 -16 7 3 6 1
-3 16 7 1 5 1
-16 -3 7 1 8 1
-16 -3 7 1 10 1
16 3 7 1 4 1
1 -16 -7 775 39 1
-16 -1 -7 847 39 1
-1 16 -7 831 40 1
1 -16 -7 766 41 1
-16 -1 -7 832 38 1
-1 16 7 858 44 1
-1 16 7 781 40 1
1 -16 7 778 40 1
-16 1 -7 875 42 1
-1 -16 -7 919 39 1
-1 -16 -7 917 37 1
-16 1 -7 905 37 1
1 16 -7 939 38 1
-16 1 -7 893 37 1
1 16 7 910 38 1
16 -1 7 971 38 1
1 16 7 943 42 1
-16 1 7 935 42 1
-1 -16 7 929 39 1
-16 1 7 949 42 1
-3 -16 -7 32 2 1
-16 3 -7 27 2 1
-3 -16 7 24 2 1
3 16 7 55 1 1
-16 3 7 38 2 1
-5 -16 -7 73 7 1
-16 5 -7 62 4 1
-5 -16 -7 60 4 1
-5 -16 -7 67 3 1
16 -5 -7 48 6 1
-5 -16 7 56 8 1
-16 5 7 53 5 1
5 16 7 63 4 1
-16 7 -7 2059 93 1
-7 -16 -7 2153 85 1
-16 7 -7 2185 84 1
-7 -16 -7 2173 84 1
-16 7 7 2031 93 1
-7 -16 7 2139 85 1
7 16 7 2049 84 1
16 -7 7 2164 84 1
16 -9 -7 454 19 1
-9 -16 -7 431 20 1
-16 9 -7 408 18 1
-16 9 -7 412 21 1
-9 -16 -7 450 18 1
-9 -16 7 426 21 1
9 16 7 468 19 1
16 -9 7 439 20 1
-16 9 7 396 21 1
16 -9 7 398 19 1
16 -11 -7 21 3 1
-16 11 -7 7 2 1
-16 11 -7 4 2 1
-11 -16 -7 3 3 1
-11 -16 -7 7 2 1
16 -11 7 10 2 1
16 -11 7 4 3 1
-16 11 7 4 4 1
11 16 7 3 3 1
-13 -16 -7 36 3 1
-16 13 -7 3 2 1
16 -13 -7 2 3 1
-16 13 -7 3 2 1
13 16 7 49 4 1
16 -13 7 1 2 1
-16 13 7 2 2 1
16 -13 7 1 3 1
16 -15 -7 391 16 1
-16 15 -7 390 16 1
-16 15 -7 415 18 1
16 -15 7 382 16 1
-16 15 7 407 18 1
16 -15 7 405 16 1
-16 17 -7 376 19 1
-16 17 -7 418 21 1
16 -17 -7 378 19 1
16 -17 7 392 19 1
-16 17 7 379 22 1
14 -17 -7 224 8 1
-14 17 -7 198 9 1
-14 17 -7 215 10 1
14 -17 7 213 7 1
-14 17 7 216 8 1
14 -17 7 193 9 1
12 -17 -7 83 12 1
-12 17 -7 84 8 1
12 -17 -7 91 8 1
-12 17 -7 96 10 1
-12 17 7 97 7 1
12 -17 7 82 7 1
12 -17 7 89 8 1
-10 17 -7 25 2 1
10 -17 -7 31 2 1
-17 -10 -7 30 3 1
10 -17 7 41 2 1
17 10 7 52 4 1
-17 -10 7 50 5 1
-10 17 7 23 2 1
10 -17 7 25 2 1
8 -17 -7 1778 69 1
-17 -8 -7 1744 77 1
8 -17 -7 1707 70 1
-8 17 7 1708 69 1
8 -17 7 1730 68 1
-8 17 7 1722 78 1
17 8 7 1812 70 1
-17 -8 7 1637 78 1
-6 17 -7 2776 92 1
6 -17 -7 2891 93 1
6 -17 -7 2794 91 1
6 -17 7 2830 90 1
17 6 7 2844 92 1
-6 17 7 2709 92 1
-6 17 7 2985 101 1
6 -17 7 2915 93 1
-17 -6 7 2667 102 1
-4 17 -7 1816 65 1
4 -17 -7 1680 66 1
4 -17 -7 1684 64 1
4 -17 7 1822 66 1
-4 17 7 1778 72 1
-4 17 7 1833 65 1
-17 -2 -7 1454 51 1
2 -17 -7 1314 51 1
2 -17 -7 1405 53 1
-2 17 7 1336 52 1
2 -17 7 1404 53 1
-2 17 7 1340 57 1
17 2 7 1398 52 1
-17 -2 7 1427 58 1
-17 0 -7 43 5 1
0 17 -7 43 6 1
0 -17 -7 48 4 1
0 -17 -7 53 7 1
-17 0 -7 39 6 1
0 17 7 42 4 1
17 0 7 39 6 1
-17 0 7 31 7 1
0 17 7 43 6 1
0 -17 7 48 6 1
-2 -17 -7 138 9 1
-17 2 -7 130 8 1
-17 2 -7 140 7 1
-2 -17 -7 132 8 1
-17 2 -7 124 9 1
-2 -17 -7 146 7 1
2 17 7 145 8 1
2 17 7 147 9 1
-17 2 7 151 9 1
-2 -17 7 129 9 1
-4 -17 -7 27 1 1
-4 -17 -7 21 2 1
-17 4 -7 40 2 1
-4 -17 -7 25 2 1
-17 4 -7 31 2 1
17 -4 7 40 2 1
-17 4 7 42 3 1
-4 -17 7 15 3 1
4 17 7 33 2 1
-17 4 7 45 2 1
-17 6 -7 2227 96 1
-17 6 -7 2325 107 1
-6 -17 -7 2207 96 1
-6 -17 7 2386 98 1
6 17 7 2203 96 1
-17 6 7 2128 107 1
-17 6 7 2131 107 1
17 -8 -7 775 28 1
-8 -17 -7 790 27 1
-17 8 -7 833 27 1
-17 8 -7 866 31 1
17 -8 7 811 28 1
8 17 7 798 28 1
-8 -17 7 812 29 1
-17 8 7 870 31 1
-17 8 7 845 31 1
-17 10 -7 1284 54 1
-10 -17 -7 1266 55 1
-17 10 -7 1251 60 1
-10 -17 -7 1250 53 1
-17 10 7 1244 60 1
10 17 7 1183 54 1
17 -10 7 1169 54 1
-10 -17 7 1185 55 1
-17 12 -7 144 9 1
-17 12 -7 149 8 1
17 -12 -7 138 9 1
-17 12 7 148 8 1
17 -12 7 143 8 1
12 17 7 150 11 1
17 -12 7 149 10 1
17 -14 -7 554 20 1
-17 14 -7 565 20 1
-17 14 -7 541 22 1
17 -14 7 573 20 1
-17 14 7 532 22 1
17 -14 7 538 19 1
-17 16 -7 703 26 1
17 -16 -7 761 27 1
-17 16 -7 750 29 1
-17 16 7 688 29 1
17 -16 7 708 26 1
17 -16 7 707 26 1
17 -18 -7 337 20 1
-17 18 -7 383 20 1
17 -18 7 385 19 1
17 -18 7 341 19 1
15 -18 -7 3 3 1
-18 -15 -7 1 3 1
-15 18 -7 2 3 1
-15 18 7 2 3 1
15 -18 7 2 2 1
-13 18 -7 680 29 1
13 -18 -7 617 28 1
13 -18 -7 635 30 1
13 -18 7 686 27 1
-13 18 7 687 32 1
-13 18 7 653 28 1
-11 18 -7 633 28 1
11 -18 -7 644 27 1
11 -18 -7 644 29 1
-11 18 7 628 27 1
-11 18 7 667 32 1
11 -18 7 655 28 1
11 -18 7 627 27 1
9 -18 -7 78 9 1
-9 18 -7 86 7 1
9 -18 -7 71 6 1
-18 -9 -7 76 8 1
-9 18 7 74 6 1
18 9 7 97 10 1
9 -18 7 75 5 1
-18 -9 7 82 11 1
9 -18 7 63 6 1
-7 18 -7 201 10 1
7 -18 -7 182 8 1
-18 -7 -7 187 11 1
-18 -7 7 216 13 1
7 -18 7 175 9 1
-7 18 7 190 9 1
7 -18 7 193 7 1
-7 18 7 208 12 1
18 7 7 196 11 1
-5 18 -7 851 29 1
5 -18 -7 813 27 1
5 -18 -7 831 29 1
-18 -5 7 811 32 1
18 5 7 822 28 1
-5 18 7 789 28 1
3 -18 -7 32 6 1
-3 18 7 19 4 1
18 3 7 22 3 1
3 -18 7 26 5 1
-18 -3 7 12 4 1
-18 -1 -7 4 2 1
1 -18 -7 2 1 1
-1 18 -7 4 3 1
1 -18 -7 3 2 1
-1 18 7 6 3 1
-18 -1 7 12 3 1
18 1 7 4 2 1
-1 18 7 5 2 1
1 -18 7 3 2 1
-1 -18 -7 162 9 1
-1 -18 -7 188 12 1
-18 1 -7 171 12 1
-1 -18 7 164 11 1
1 18 7 185 11 1
1 18 7 168 10 1
18 -1 7 177 11 1
-18 1 7 187 12 1
-18 3 -7 1509 46 1
-3 -18 -7 1577 48 1
-3 -18 -7 1561 46 1
-18 3 -7 1504 47 1
-18 3 -7 1578 53 1
-3 -18 7 1575 48 1
3 18 7 1488 47 1
-18 3 7 1580 53 1
3 18 7 1515 52 1
-18 3 7 1587 53 1
-18 5 -7 365 12 1
-5 -18 -7 382 13 1
-18 5 -7 393 15 1
-5 -18 7 356 14 1
18 -5 7 349 13 1
-18 5 7 346 14 1
5 18 7 364 13 1
-7 -18 -7 268 14 1
-18 7 -7 300 12 1
-7 -18 -7 305 13 1
-18 7 -7 322 15 1
18 -7 -7 309 15 1
-7 -18 7 271 15 1
18 -7 7 294 13 1
-18 7 7 304 15 1
-18 7 7 301 15 1
7 18 7 306 13 1
-18 9 -7 18 2 1
-18 9 -7 18 3 1
18 -9 -7 24 4 1
-9 -18 -7 13 2 1
18 -9 7 17 3 1
9 18 7 14 3 1
-18 9 7 15 2 1
18 -9 7 15 4 1
-9 -18 7 16 3 1
-18 9 7 26 4 1
-11 -18 -7 2 3 1
-18 11 -7 2 3 1
-18 11 -7 1 2 1
18 -11 -7 6 4 1
18 -11 7 1 2 1
11 18 7 3 4 1
-18 11 7 7 6 1
-11 -18 7 2 5 1
18 -11 7 3 4 1
-18 13 -7 199 11 1
-18 13 -7 230 10 1
18 -13 -7 225 12 1
18 -13 7 250 12 1
-18 13 7 197 12 1
18 -13 7 224 11 1
-18 15 -7 229 9 1
18 -15 -7 205 11 1
-18 15 -7 237 10 1
18 -15 7 213 9 1
18 -15 7 228 11 1
-18 15 7 232 11 1
18 -17 -7 5 3 1
-18 17 -7 9 3 1
18 -17 7 5 3 1
18 -17 7 4 3 1
-18 19 -7 23 4 1
18 -19 7 15 2 1
-18 19 7 29 5 1
-16 19 -7 593 24 1
16 -19 -7 609 24 1
16 -19 7 616 23 1
16 -19 7 626 24 1
14 -19 -7 456 20 1
-14 19 -7 407 20 1
-19 -14 -7 428 23 1
-14 19 7 440 23 1
14 -19 7 440 19 1
-14 19 7 416 19 1
14 -19 7 420 20 1
12 -19 -7 853 33 1
-12 19 -7 773 32 1
12 -19 7 842 30 1
-12 19 7 757 31 1
12 -19 7 843 32 1
-10 19 -7 585 27 1
10 -19 -7 632 27 1
10 -19 -7 632 26 1
-19 -10 -7 599 30 1
-10 19 7 632 30 1
-10 19 7 649 26 1
-19 -10 7 601 31 1
10 -19 7 577 25 1
10 -19 7 606 27 1
-8 19 -7 497 24 1
-19 -8 -7 507 26 1
8 -19 -7 526 22 1
8 -19 -7 515 24 1
-8 19 7 538 26 1
-19 -8 7 470 26 1
-8 19 7 481 23 1
8 -19 7 531 23 1
-6 19 -7 96 8 1
6 -19 -7 103 8 1
6 -19 -7 97 5 1
-19 -6 -7 92 8 1
-19 -6 7 89 10 1
6 -19 7 84 6 1
-6 19 7 116 6 1
-6 19 7 81 13 1
19 6 7 77 9 1
4 -19 -7 32 2 1
-4 19 -7 36 3 1
4 -19 -7 43 2 1
-19 -4 -7 28 2 1
4 -19 7 48 2 1
19 4 7 28 3 1
-19 -4 7 26 3 1
-4 19 7 32 2 1
2 -19 -7 2614 95 1
2 -19 -7 2539 93 1
-2 19 -7 2521 94 1
-19 -2 -7 2487 104 1
-2 19 7 2593 94 1
2 -19 7 2667 95 1
-19 -2 7 2669 104 1
0 19 -7 710 27 1
0 -19 -7 751 27 1
0 -19 -7 756 24 1
0 19 7 708 25 1
0 19 7 730 28 1
-19 0 7 761 29 1
0 -19 7 721 26 1
19 0 7 730 26 1
-2 -19 -7 590 17 1
-19 2 -7 608 21 1
2 19 7 607 18 1
-2 -19 7 570 19 1
-19 2 7 571 20 1
2 19 7 602 20 1
-4 -19 -7 619 25 1
-19 4 -7 552 22 1
4 19 7 587 23 1
4 19 7 568 26 1
-4 -19 7 586 24 1
19 -4 7 569 24 1
-19 4 7 540 26 1
-19 6 -7 957 30 1
-6 -19 -7 895 33 1
-19 6 7 984 35 1
19 -6 7 994 32 1
-6 -19 7 931 32 1
-19 6 7 998 36 1
6 19 7 955 32 1
-8 -19 -7 271 13 1
19 -8 -7 232 14 1
-19 8 -7 256 13 1
-19 8 -7 262 10 1
-19 8 7 235 13 1
-8 -19 7 273 13 1
8 19 7 302 12 1
19 -8 7 248 12 1
-19 10 -7 1361 54 1
-10 -19 -7 1366 56 1
-19 10 -7 1313 60 1
-10 -19 7 1346 56 1
10 19 7 1288 55 1
-19 10 7 1325 60 1
19 -10 7 1294 55 1
19 -12 -7 13 4 1
-19 12 -7 12 3 1
19 -12 7 14 4 1
-19 14 -7 5 3 1
-19 14 -7 2 2 1
19 -14 -7 8 4 1
-19 14 7 4 2 1
19 -14 7 1 3 1
19 -14 7 2 3 1
-19 16 -7 214 9 1
19 -16 -7 231 11 1
19 -16 7 227 9 1
-19 16 7 264 10 1
19 -16 7 249 11 1
19 -18 7 56 7 1
-19 18 7 60 5 1
19 -18 7 53 6 1
-20 -19 -7 209 12 1
-19 20 7 212 12 1
19 -20 7 211 11 1
-17 20 -7 9 4 1
17 -20 -7 7 4 1
-20 -17 -7 5 2 1
17 -20 7 9 2 1
-17 20 7 16 2 1
15 -20 -7 341 15 1
-15 20 -7 311 16 1
-20 -15 -7 341 17 1
15 -20 7 321 15 1
15 -20 7 342 15 1
-15 20 7 352 16 1
-20 -13 -7 1564 72 1
13 -20 -7 1659 64 1
13 -20 -7 1623 65 1
-13 20 -7 1525 65 1
13 -20 7 1556 65 1
13 -20 7 1575 63 1
-13 20 7 1575 64 1
-11 20 -7 38 7 1
-20 -11 -7 16 8 1
11 -20 -7 34 5 1
-11 20 7 39 8 1
11 -20 7 42 6 1
-11 20 7 24 5 1
-20 -9 -7 232 16 1
9 -20 -7 259 13 1
-9 20 -7 242 15 1
9 -20 -7 245 15 1
-9 20 7 269 17 1
-9 20 7 250 14 1
9 -20 7 264 14 1
7 -20 -7 2651 109 1
-20 -7 -7 2587 122 1
-7 20 7 2417 109 1
-7 20 7 2455 124 1
-20 -7 7 2512 121 1
7 -20 7 2443 110 1
5 -20 -7 96 10 1
-20 -5 -7 98 10 1
5 -20 -7 96 8 1
-5 20 -7 98 10 1
-5 20 7 82 8 1
-20 -5 7 70 11 1
5 -20 7 100 9 1
20 5 7 92 11 1
-3 20 -7 62 11 1
3 -20 -7 73 10 1
-20 -3 -7 77 10 1
3 -20 -7 68 7 1
-20 -3 7 77 13 1
3 -20 7 54 9 1
-20 -3 7 61 11 1
20 3 7 76 10 1
-3 20 7 72 8 1
1 -20 -7 6 4 1
1 -20 -7 7 7 1
-1 20 -7 11 9 1
-20 -1 -7 13 7 1
1 -20 7 10 6 1
20 1 7 8 8 1
-1 20 7 7 6 1
-20 -1 7 8 8 1
-1 -20 -7 1145 40 1
-1 -20 -7 1142 43 1
-20 1 -7 1116 46 1
-1 -20 7 1129 42 1
1 20 7 1131 41 1
20 -1 7 1144 42 1
-3 -20 -7 27 2 1
-20 3 -7 31 3 1
20 -3 7 38 3 1
3 20 7 30 3 1
-3 -20 7 40 3 1
-20 3 7 52 3 1
3 20 7 35 5 1
-20 5 -7 21 7 1
-5 -20 -7 40 8 1
5 20 7 26 9 1
-5 -20 7 34 8 1
-20 5 7 24 7 1
20 -5 7 30 7 1
5 20 7 39 7 1
-20 7 -7 174 10 1
-20 7 -7 212 8 1
-7 -20 -7 201 11 1
-20 7 7 196 11 1
-7 -20 7 189 11 1
7 20 7 201 10 1
20 -7 7 209 10 1
-9 -20 -7 703 35 1
20 -9 -7 692 36 1
-20 9 -7 693 37 1
-20 9 -7 741 33 1
-20 9 7 777 38 1
20 -9 7 774 34 1
-9 -20 7 677 35 1
9 20 7 656 34 1
-20 11 -7 34 6 1
-11 -20 7 34 4 1
20 -11 7 49 6 1
-20 11 7 38 6 1
20 -13 -7 198 15 1
-20 13 -7 217 14 1
-20 13 -7 203 12 1
20 -13 7 218 13 1
-20 13 7 232 14 1
20 -15 -7 60 11 1
-20 15 -7 88 7 1
-20 15 -7 74 8 1
20 -15 7 85 8 1
-17 -20 -7 475 24 1
-20 17 -7 477 23 1
-19 -20 -7 50 6 1
-20 19 7 39 5 1
18 -21 7 63 6 1
-18 21 7 73 6 1
-21 -16 -7 210 12 1
-16 21 7 209 11 1
16 -21 7 176 10 1
-21 -14 -7 196 11 1
-14 21 -7 172 11 1
14 -21 -7 189 10 1
-14 21 7 172 11 1
-14 21 7 204 11 1
14 -21 7 169 10 1
-21 -12 -7 4 3 1
12 -21 -7 4 3 1
-12 21 -7 5 3 1
12 -21 -7 2 3 1
-12 21 7 10 3 1
12 -21 7 8 2 1
10 -21 -7 607 22 1
10 -21 -7 675 23 1
-10 21 -7 607 23 1
-21 -10 -7 649 26 1
-10 21 7 663 22 1
-10 21 7 626 26 1
10 -21 7 574 22 1
-8 21 -7 142 10 1
8 -21 -7 154 9 1
-21 -8 -7 103 10 1
-21 -8 7 107 12 1
8 -21 7 136 8 1
6 -21 -7 144 9 1
6 -21 -7 147 11 1
-6 21 -7 143 12 1
6 -21 7 136 10 1
-21 -6 7 118 13 1
-6 21 7 145 10 1
-4 21 -7 882 39 1
4 -21 -7 931 38 1
4 -21 -7 917 37 1
-21 -4 -7 974 42 1
4 -21 7 927 38 1
21 4 7 927 39 1
2 -21 -7 146 11 1
-2 21 -7 133 13 1
2 -21 -7 152 9 1
-21 -2 7 124 13 1
-2 21 7 128 10 1
2 -21 7 125 11 1
21 2 7 157 12 1
-21 -2 7 124 12 1
0 -21 -7 1116 34 1
0 -21 -7 1202 37 1
-21 0 -7 1179 41 1
0 21 7 1135 36 1
0 -21 7 1143 37 1
-21 0 7 1131 41 1
-21 2 -7 3420 170 1
-2 -21 -7 3470 155 1
-21 2 7 3674 170 1
2 21 7 3380 153 1
-2 -21 7 3578 155 1
21 -2 7 3434 153 1
-21 4 -7 1087 44 1
-4 -21 -7 1098 41 1
4 21 7 1004 40 1
21 -4 7 1053 40 1
-4 -21 7 1070 40 1
-21 4 7 1016 44 1
-6 -21 -7 29 7 1
21 -6 7 27 7 1
-21 6 7 31 8 1
-6 -21 7 24 8 1
6 21 7 34 8 1
-21 8 -7 309 13 1
-8 -21 -7 348 14 1
8 21 7 304 14 1
-21 8 7 300 13 1
21 -8 7 330 13 1
-8 -21 7 324 14 1
-10 -21 -7 27 2 1
-21 10 -7 7 2 1
21 -10 -7 6 5 1
-10 -21 7 16 3 1
-21 10 7 8 2 1
21 -12 -7 482 21 1
-21 12 -7 542 19 1
21 -12 7 498 18 1
-21 12 7 528 20 1
-21 14 -7 88 6 1
21 -14 -7 74 13 1
21 -14 7 99 8 1
-21 14 7 78 6 1
-21 14 7 78 7 1
-16 -21 -7 4 2 1
-21 16 7 4 2 1
-21 18 7 24 4 1
-22 -17 -7 147 9 1
17 -22 7 141 8 1
-17 22 7 165 9 1
-22 -15 -7 31 5 1
-15 22 7 47 6 1
-22 -13 -7 5 2 1
-13 22 7 3 4 1
13 -22 7 7 5 1
-13 22 7 4 3 1
11 -22 -7 608 23 1
11 -22 -7 647 25 1
-22 -11 -7 629 27 1
-11 22 -7 633 25 1
-11 22 7 602 24 1
11 -22 7 661 24 1
-11 22 7 632 27 1
9 -22 -7 26 6 1
9 -22 -7 32 8 1
-9 22 -7 37 9 1
-22 -9 -7 46 8 1
-9 22 7 31 6 1
-22 -9 7 31 10 1
9 -22 7 36 7 1
-22 -7 -7 780 31 1
7 -22 -7 765 28 1
-7 22 -7 725 29 1
7 -22 -7 767 26 1
7 -22 7 758 28 1
-7 22 7 820 28 1
-22 -7 7 782 31 1
-5 22 -7 232 15 1
-22 -5 -7 235 15 1
5 -22 -7 225 13 1
-22 -5 7 251 15 1
5 -22 7 237 13 1
-22 -3 -7 192 14 1
-3 22 -7 187 15 1
3 -22 -7 216 13 1
3 -22 -7 211 11 1
22 3 7 198 15 1
-22 -3 7 248 15 1
3 -22 7 229 13 1
-3 22 7 202 12 1
1 -22 -7 221 13 1
-22 -1 -7 213 14 1
-22 -1 7 234 15 1
1 -22 7 215 13 1
-22 -1 7 241 14 1
22 1 7 231 14 1
-1 22 7 218 13 1
-1 -22 -7 9 7 1
-22 1 -7 10 7 1
1 22 7 12 6 1
-22 1 7 17 7 1
-22 1 7 13 8 1
-1 -22 7 9 6 1
22 -1 7 16 9 1
-22 3 -7 1084 46 1
-3 -22 -7 1112 42 1
-22 3 7 1162 46 1
22 -3 7 1088 42 1
-3 -22 7 1104 42 1
3 22 7 1124 41 1
-5 -22 -7 1063 55 1
-22 5 -7 1073 59 1
5 22 7 1060 54 1
-5 -22 7 1145 54 1
-22 5 7 1005 59 1
-22 7 -7 182 17 1
-7 -22 -7 212 16 1
22 -7 7 193 16 1
7 22 7 208 17 1
-22 7 7 214 17 1
-7 -22 7 226 16 1
-22 9 -7 143 11 1
-9 -22 -7 149 11 1
-9 -22 7 169 12 1
-22 9 7 141 11 1
22 -9 7 160 11 1
9 22 7 147 14 1
22 -11 -7 169 17 1
-22 11 -7 135 10 1
22 -11 7 125 10 1
-22 11 7 129 10 1
-11 -22 7 158 12 1
-22 13 -7 1 2 1
-22 13 7 4 1 1
-22 13 7 8 2 1
-22 15 7 11 2 1
-22 15 7 23 1 1
-22 17 -7 190 12 1
-23 -16 -7 167 10 1
16 -23 7 151 8 1
-16 23 7 157 10 1
-23 -14 -7 442 22 1
-14 23 7 449 22 1
14 -23 7 397 19 1
12 -23 -7 43 7 1
12 -23 -7 37 6 1
-23 -12 -7 23 5 1
12 -23 7 33 6 1
-12 23 7 19 8 1
-12 23 7 35 8 1
10 -23 -7 306 16 1
-23 -10 -7 314 18 1
10 -23 -7 324 15 1
-10 23 -7 288 17 1
10 -23 7 307 16 1
-10 23 7 291 16 1
8 -23 -7 110 8 1
-8 23 -7 84 11 1
-23 -8 -7 97 10 1
8 -23 -7 123 10 1
8 -23 7 113 9 1
-8 23 7 111 9 1
-6 23 -7 5 5 1
-23 -6 -7 7 3 1
6 -23 -7 5 2 1
6 -23 -7 2 2 1
6 -23 7 5 2 1
-23 -6 7 5 3 1
-6 23 7 5 3 1
4 -23 -7 1638 54 1
-23 -4 -7 1471 60 1
4 -23 -7 1598 52 1
-4 23 -7 1518 55 1
-4 23 7 1552 54 1
-23 -4 7 1649 59 1
4 -23 7 1591 54 1
-2 23 -7 2 6 1
-23 -2 -7 16 7 1
23 2 7 9 5 1
-23 -2 7 8 3 1
2 -23 7 20 6 1
0 -23 -7 52 8 1
-23 0 -7 37 8 1
23 0 7 48 11 1
0 23 7 54 8 1
0 -23 7 52 8 1
-23 0 7 44 8 1
-23 0 7 51 10 1
-2 -23 -7 139 10 1
-23 2 7 165 11 1
-2 -23 7 145 9 1
-23 2 7 164 10 1
23 -2 7 155 12 1
2 23 7 142 10 1
-23 4 -7 107 8 1
-4 -23 -7 128 8 1
23 -4 7 118 10 1
-23 4 7 128 9 1
-4 -23 7 153 8 1
4 23 7 119 9 1
-23 4 7 121 9 1
-6 -23 -7 50 8 1
-23 6 7 44 8 1
23 -6 7 56 10 1
-6 -23 7 43 8 1
6 23 7 47 10 1
-8 -23 -7 937 39 1
-23 8 -7 872 42 1
8 23 7 849 40 1
-23 8 7 937 42 1
23 -8 7 905 39 1
-8 -23 7 937 39 1
-23 10 -7 17 2 1
-10 -23 7 15 3 1
-23 10 7 20 2 1
-23 12 -7 146 8 1
-23 12 7 141 9 1
-23 12 7 127 8 1
23 -12 7 128 10 1
-23 14 -7 355 15 1
-23 14 7 335 15 1
-16 -23 -7 148 8 1
-23 16 -7 144 7 1
-23 16 7 136 8 1
-24 -15 -7 0 2 1
15 -24 7 1 1 1
13 -24 -7 0 2 1
-24 -13 -7 1 2 1
13 -24 7 4 1 1
11 -24 -7 276 16 1
-24 -11 -7 331 18 1
9 -24 -7 235 11 1
-24 -9 -7 223 12 1
-9 24 -7 203 14 1
9 -24 -7 232 11 1
-9 24 7 238 11 1
9 -24 7 222 11 1
7 -24 -7 156 10 1
7 -24 -7 162 10 1
-7 24 -7 138 14 1
7 -24 7 162 10 1
-7 24 7 147 10 1
-24 -5 -7 302 16 1
-5 24 -7 264 18 1
5 -24 -7 290 14 1
5 -24 7 294 14 1
-5 24 7 273 14 1
3 -24 -7 394 17 1
-24 -3 -7 386 19 1
-3 24 -7 325 21 1
3 -24 7 359 17 1
-3 24 7 332 17 1
-24 -3 7 388 19 1
1 -24 -7 551 21 1
-24 -1 -7 546 23 1
24 1 7 506 23 1
-24 -1 7 495 23 1
1 -24 7 560 21 1
-1 24 7 494 21 1
-1 -24 -7 1151 40 1
-24 1 -7 1125 43 1
-24 1 7 1129 44 1
1 24 7 1136 40 1
24 -1 7 1140 41 1
-1 -24 7 1132 40 1
-24 1 7 1086 43 1
-3 -24 -7 61 7 1
-24 3 -7 53 7 1
-24 3 7 50 9 1
-24 3 7 64 8 1
3 24 7 57 10 1
24 -3 7 67 11 1
-24 5 -7 1131 48 1
-5 -24 -7 1038 44 1
24 -5 7 1113 45 1
-5 -24 7 1120 44 1
-24 5 7 1069 50 1
5 24 7 1062 44 1
-24 5 7 1136 48 1
-7 -24 -7 111 8 1
-24 7 7 125 7 1
24 -7 7 121 11 1
-9 -24 -7 262 13 1
-24 9 -7 265 13 1
24 -9 7 243 15 1
-24 9 7 272 13 1
-24 11 -7 2005 81 1
-11 -24 7 2079 74 1
-24 11 7 1960 81 1
-24 13 -7 73 6 1
-24 13 7 68 7 1
-24 15 -7 4 4 1
-24 15 7 5 4 1
-25 -12 -7 233 12 1
12 -25 -7 222 11 1
12 -25 7 228 11 1
10 -25 -7 427 17 1
-25 -10 -7 443 19 1
10 -25 7 397 17 1
8 -25 -7 511 23 1
-8 25 7 513 24 1
-25 -8 7 527 25 1
8 -25 7 548 23 1
-6 25 -7 135 14 1
6 -25 -7 124 8 1
-25 -6 -7 135 8 1
-25 -6 7 133 8 1
6 -25 7 108 7 1
-6 25 7 116 8 1
4 -25 -7 27 2 1
-4 25 -7 13 7 1
-25 -4 -7 24 2 1
4 -25 7 10 2 1
-25 -4 7 18 2 1
2 -25 -7 951 39 1
2 -25 7 953 38 1
-25 -2 7 975 42 1
-2 25 7 927 38 1
0 -25 -7 1268 51 1
0 -25 7 1274 51 1
0 25 7 1183 51 1
-25 0 7 1143 56 1
-25 0 7 1225 57 1
-2 -25 -7 94 7 1
-25 2 7 92 6 1
-2 -25 7 93 7 1
25 -2 7 96 13 1
-25 2 7 87 6 1
-4 -25 -7 116 8 1
-25 4 7 109 6 1
4 25 7 117 12 1
-25 4 7 100 7 1
-4 -25 7 108 7 1
25 -4 7 109 12 1
-6 -25 -7 13 2 1
-25 6 -7 17 2 1
-25 6 7 7 2 1
25 -6 7 16 5 1
-6 -25 7 7 2 1
-25 6 7 7 2 1
-25 8 -7 464 20 1
-8 -25 7 477 19 1
-25 8 7 487 21 1
-25 8 7 499 21 1
-25 10 -7 1 1 1
-10 -25 7 0 2 1
-25 10 7 2 2 1
-25 10 7 2 2 1
-25 12 -7 15 2 1
-25 12 7 24 3 1
-25 12 7 15 2 1
-26 -11 -7 46 4 1
11 -26 -7 65 5 1
11 -26 7 46 3 1
-26 -9 -7 43 5 1
9 -26 -7 34 4 1
9 -26 7 38 4 1
-26 -7 -7 1 2 1
7 -26 -7 3 1 1
-26 -7 7 3 3 1
7 -26 7 2 1 1
5 -26 -7 13 2 1
-26 -5 7 18 3 1
3 -26 -7 151 8 1
-26 -3 -7 167 8 1
3 -26 7 157 8 1
-26 -3 7 190 9 1
-26 -1 -7 33 5 1
1 -26 -7 21 6 1
-26 -1 7 43 6 1
1 -26 7 24 6 1
-1 -26 -7 62 7 1
-26 1 -7 58 6 1
-1 -26 7 68 7 1
-26 1 7 72 6 1
1 26 7 51 10 1
-26 1 7 67 7 1
-3 -26 -7 26 6 1
-26 3 -7 29 4 1
-26 3 7 28 5 1
-26 5 -7 221 13 1
-26 5 7 228 14 1
-5 -26 7 240 12 1
-26 5 7 238 13 1
-26 7 -7 79 6 1
-7 -26 -7 81 6 1
-26 7 7 83 7 1
-26 7 7 64 7 1
-7 -26 7 77 6 1
-26 9 -7 389 18 1
-26 9 7 384 19 1
-9 -26 7 400 17 1
-26 9 7 411 19 1
-26 11 -7 49 5 1
-26 11 7 58 5 1
-26 11 7 51 6 1
-27 -8 -7 240 12 1
8 -27 -7 215 11 1
8 -27 7 232 11 1
-27 -6 -7 0 2 1
6 -27 -7 3 1 1
6 -27 7 0 1 1
-27 -6 7 1 3 1
4 -27 -7 135 8 1
-27 -4 -7 145 9 1
-27 -4 7 122 9 1
4 -27 7 126 8 1
-27 -2 -7 264 12 1
2 -27 -7 249 11 1
-27 -2 7 252 12 1
2 -27 7 239 10 1
-27 0 -7 1 1 1
-27 0 7 0 2 1
0 -27 7 0 1 1
-27 2 -7 201 11 1
-2 -27 -7 161 10 1
-27 2 7 192 11 1
-27 2 7 184 12 1
-2 -27 7 159 10 1
-27 4 -7 7 1 1
-4 -27 -7 5 1 1
-4 -27 7 8 1 1
-27 4 7 6 2 1
-27 4 7 1 2 1
-6 -27 -7 337 14 1
-27 6 -7 336 15 1
-27 6 7 319 15 1
-6 -27 7 316 14 1
-27 8 -7 7 1 1
-8 -27 7 9 2 1
-27 8 7 6 1 1
-28 -5 -7 11 4 1
5 -28 7 8 3 1
-28 -5 7 12 6 1
3 -28 -7 110 6 1
-28 -3 -7 113 7 1
3 -28 7 107 6 1
-28 -3 7 98 7 1
1 -28 -7 357 17 1
-28 -1 -7 379 19 1
-28 -1 7 336 19 1
1 -28 7 352 17 1
-1 -28 -7 126 6 1
-28 1 -7 123 6 1
-28 1 7 133 7 1
-1 -28 7 122 6 1
-3 -28 -7 0 1 1
-28 3 -7 0 1 1
-28 3 7 2 3 1
-3 -28 7 2 1 1
-5 -28 -7 65 5 1
-28 5 -7 69 5 1
-28 5 7 63 6 1
-28 5 7 70 5 1
-5 -28 7 52 5 1
0 0 -8 24137 1729 1
1 1 -8 617 2 1
1 -1 -8 568 2 1
1 -1 -8 581 2 1
-1 -1 -8 542 2 1
1 -1 8 554 2 1
1 -1 8 574 3 1
-1 1 8 553 3 1
-1 -1 8 627 3 1
0 -2 -8 91 1 1
0 2 -8 76 1 1
0 2 8 86 1 1
-2 -2 -8 313 7 1
2 -2 -8 382 7 1
-2 2 -8 388 7 1
-2 -2 -8 314 7 1
-2 -2 8 315 8 1
-1 3 -8 1965 81 1
-3 -1 -8 1916 81 1
1 -3 -8 1928 81 1
-1 3 8 2147 81 1
1 -3 8 2064 81 1
1 -3 8 2086 81 1
3 1 8 1945 81 1
1 -3 8 2019 90 1
3 -1 -8 5999 440 1
-1 -3 -8 6285 440 1
-3 1 -8 6568 440 1
3 -1 -8 6542 440 1
1 3 -8 6453 439 1
-1 -3 -8 6538 440 1
-3 1 8 6465 488 1
3 -1 8 6134 441 1
-1 -3 8 6702 487 1
3 -3 -8 677 15 1
-3 -3 -8 692 15 1
-3 -3 -8 665 15 1
-3 3 -8 678 15 1
-3 -3 8 756 17 1
-3 3 8 680 17 1
-3 3 8 650 15 1
2 -4 -8 76 3 1
-4 -2 -8 93 3 1
-2 4 -8 87 3 1
4 2 8 98 3 1
-4 -2 8 95 3 1
2 -4 8 84 3 1
-4 0 -8 2198 230 1
0 4 -8 2217 229 1
0 -4 -8 2524 230 1
4 0 -8 2278 229 1
0 -4 8 2203 254 1
0 4 8 2533 229 1
-4 0 8 2342 254 1
4 0 8 2461 230 1
4 -2 -8 9921 535 1
-2 -4 -8 10422 537 1
-4 2 -8 11271 538 1
4 -2 -8 11115 536 1
-2 -4 -8 11047 537 1
-2 -4 8 10741 594 1
-4 4 -8 155 9 1
-4 -4 -8 165 9 1
4 -4 -8 147 9 1
-4 -4 -8 156 9 1
-4 4 8 137 9 1
4 4 8 176 9 1
-4 -4 8 179 10 1
4 -4 8 156 9 1
3 -5 -8 2061 64 1
-5 -3 -8 2046 64 1
-3 5 -8 2019 64 1
3 -5 8 2031 64 1
-5 -3 8 2035 71 1
1 -5 -8 0 7 1
-1 5 -8 2 7 1
5 1 -8 3 7 1
-5 -1 -8 1 7 1
5 1 8 2 7 1
1 -5 8 1 6 1
-1 -5 -8 1102 113 1
5 -1 -8 1048 113 1
-5 1 -8 1127 113 1
5 -1 -8 1145 112 1
1 5 -8 1125 112 1
-5 1 8 952 125 1
-1 -5 8 1115 124 1
5 -1 8 1089 113 1
-5 3 -8 1192 37 1
5 -3 -8 1216 37 1
-3 -5 -8 1145 37 1
-5 3 8 1209 37 1
3 5 8 1142 37 1
-5 3 8 1198 37 1
-5 5 -8 2028 59 1
5 -5 -8 2134 58 1
-5 -5 -8 2127 58 1
5 -5 -8 2080 58 1
5 -5 8 1981 58 1
5 -5 8 2020 64 1
-5 5 8 2046 58 1
5 5 8 2162 58 1
-5 5 8 2008 58 1
-5 -5 8 2041 65 1
-6 -4 -8 56 27 1
-4 6 -8 70 28 1
-6 -4 8 71 30 1
-6 -2 -8 9 2 1
2 -6 -8 5 2 1
2 -6 8 8 2 1
-2 6 8 5 3 1
2 -6 8 8 2 1
0 -6 -8 1233 78 1
6 0 -8 1139 78 1
-6 0 -8 1063 78 1
0 6 -8 1193 78 1
0 -6 -8 1231 78 1
0 -6 8 1239 86 1
-2 -6 -8 1218 82 1
6 -2 -8 1284 82 1
-6 2 -8 1282 82 1
6 -2 -8 1304 82 1
-2 -6 -8 1257 82 1
-2 -6 8 1284 91 1
2 6 8 1189 82 1
6 -2 8 1273 82 1
6 -4 -8 3457 153 1
-4 -6 -8 3378 154 1
-6 4 -8 3807 154 1
4 6 8 3205 154 1
-6 4 8 3679 153 1
-6 4 8 3604 153 1
-4 -6 8 3307 170 1
6 -6 -8 4261 157 1
-6 -6 -8 4261 157 1
6 -6 -8 4373 157 1
-6 -6 -8 4391 157 1
-6 6 -8 4318 157 1
6 -6 8 4249 173 1
-6 -6 8 4495 174 1
6 6 8 4117 157 1
-7 -5 -8 3045 113 1
5 -7 -8 3216 113 1
-5 7 -8 3041 113 1
5 -7 -8 2909 113 1
-7 -5 8 2807 125 1
-5 7 8 3097 125 1
5 -7 8 3110 113 1
-7 -3 -8 2977 105 1
3 -7 -8 3325 105 1
-7 -3 -8 3162 105 1
-3 7 -8 3058 105 1
7 3 8 3183 105 1
-7 -3 8 3041 116 1
3 -7 8 3063 105 1
-3 7 8 3193 105 1
-7 -1 -8 109 3 1
1 -7 -8 113 3 1
-1 7 -8 109 3 1
-1 7 8 117 4 1
7 1 8 104 3 1
-7 -1 8 107 4 1
-1 7 8 109 3 1
7 -1 -8 16 1 1
7 -1 -8 14 2 1
7 -1 8 7 2 1
-1 -7 8 10 1 1
7 -3 -8 3677 114 1
-7 3 -8 3732 115 1
-3 -7 -8 3538 114 1
7 -3 -8 3419 114 1
-3 -7 -8 3570 114 1
3 7 8 3556 114 1
-3 -7 8 3897 126 1
7 -5 -8 5931 292 1
-5 -7 -8 5802 293 1
7 -5 -8 5765 291 1
-7 5 -8 6104 292 1
-7 5 8 5641 292 1
-7 5 8 5874 292 1
-5 -7 8 6088 324 1
5 7 8 5855 292 1
-7 -7 -8 7407 277 1
7 -7 -8 7445 278 1
-7 -7 -8 7291 278 1
7 -7 8 6899 278 1
-7 -7 8 7324 307 1
6 -8 -8 2913 77 1
-6 8 -8 2917 78 1
6 -8 -8 2895 77 1
-8 -6 -8 2967 77 1
6 -8 8 2682 77 1
-4 8 8 82 2 1
4 -8 8 77 1 1
8 4 8 72 2 1
2 -8 -8 2750 134 1
-2 8 -8 2660 134 1
-8 -2 -8 2770 134 1
2 -8 8 2838 133 1
-2 8 8 2974 148 1
-2 8 8 2927 134 1
2 -8 8 2793 133 1
0 -8 -8 8025 252 1
0 -8 -8 7907 253 1
0 8 -8 8016 253 1
-8 0 -8 8156 253 1
0 8 8 8087 253 1
8 0 8 7980 253 1
-2 -8 -8 10363 451 1
-8 2 -8 10015 452 1
8 -2 -8 10133 449 1
8 -2 -8 9958 450 1
-2 -8 -8 9916 449 1
-8 2 8 9629 500 1
2 8 8 10250 452 1
8 -2 8 10484 453 1
-4 -8 -8 4897 144 1
-8 4 -8 4620 144 1
4 8 8 4407 144 1
8 -4 8 4459 144 1
-6 -8 -8 8999 313 1
8 -6 -8 9170 313 1
8 -6 -8 9414 312 1
-6 -8 -8 9021 312 1
8 -6 8 8477 313 1
-8 6 8 9029 346 1
6 8 8 8906 313 1
-8 6 8 9163 313 1
-8 6 8 8795 313 1
-8 8 -8 5340 225 1
-8 -8 -8 5231 225 1
-8 -8 -8 5447 225 1
-8 8 8 5576 225 1
8 -8 8 5321 225 1
8 8 8 5283 225 1
-9 -7 -8 156 11 1
-9 -7 -8 144 10 1
-7 9 8 133 11 1
9 7 8 164 11 1
7 -9 8 128 11 1
-9 -5 -8 4395 165 1
-9 -5 -8 4741 165 1
5 -9 -8 4628 165 1
-5 9 -8 4632 166 1
-5 9 8 4564 165 1
-9 -5 8 4913 183 1
9 5 8 4644 165 1
3 -9 -8 1920 65 1
-9 -3 -8 1980 65 1
-3 9 -8 1943 65 1
3 -9 -8 1919 65 1
-3 9 8 1969 65 1
3 -9 8 1906 65 1
3 -9 8 1949 65 1
-9 -3 8 1915 72 1
1 -9 -8 117 4 1
-9 -1 -8 153 4 1
1 -9 -8 121 4 1
-1 9 8 126 4 1
-1 9 8 114 4 1
-1 -9 -8 1310 34 1
1 9 -8 1237 33 1
9 -1 -8 1351 33 1
-9 1 -8 1369 34 1
-1 -9 -8 1358 33 1
-3 -9 -8 3192 112 1
3 9 -8 3060 112 1
-9 3 -8 2940 112 1
-3 -9 -8 3074 112 1
3 9 8 3113 112 1
9 -3 8 2931 112 1
-5 -9 -8 471 20 1
-9 5 -8 553 20 1
-5 -9 -8 484 20 1
9 -5 8 552 20 1
5 9 8 462 20 1
-9 5 8 532 22 1
9 -7 -8 7210 315 1
-7 -9 -8 7432 315 1
-7 -9 -8 7428 315 1
7 9 8 6724 315 1
9 -7 8 7026 315 1
-9 9 -8 46 7 1
-9 -9 -8 59 7 1
-9 -9 -8 60 7 1
9 -9 8 51 7 1
-9 9 8 56 9 1
-9 9 8 57 7 1
8 -10 -8 1758 62 1
-8 10 -8 1648 62 1
-10 -8 -8 1636 62 1
-10 -8 -8 1711 61 1
10 8 8 1550 62 1
-8 10 8 1708 69 1
8 -10 8 1699 62 1
6 -10 -8 8919 356 1
-6 10 -8 9165 356 1
-10 -6 -8 8804 357 1
-10 -6 -8 9213 355 1
6 -10 -8 9247 355 1
-6 10 8 9556 394 1
6 -10 8 9195 357 1
-10 -4 -8 170 5 1
-4 10 -8 183 5 1
4 -10 -8 187 5 1
-4 10 8 177 5 1
-4 10 8 198 6 1
10 4 8 169 5 1
4 -10 8 176 4 1
2 -10 -8 5212 169 1
-10 -2 -8 5312 169 1
-10 -2 -8 5078 169 1
2 -10 -8 4881 169 1
-2 10 -8 5232 170 1
-2 10 8 4961 169 1
2 -10 8 5211 169 1
2 -10 8 5329 169 1
-2 10 8 5063 188 1
10 2 8 5069 170 1
0 10 -8 3888 173 1
-10 0 -8 3533 173 1
0 -10 -8 3541 173 1
-10 0 8 3703 192 1
10 0 8 3904 173 1
-10 2 -8 3647 139 1
10 -2 -8 3822 139 1
-2 -10 -8 3511 139 1
-2 -10 -8 3592 139 1
2 10 -8 3522 139 1
10 -2 8 3894 139 1
10 -4 -8 2119 70 1
-4 -10 -8 2014 69 1
-4 -10 -8 1970 69 1
4 10 8 1894 69 1
-6 -10 -8 13059 534 1
-10 6 -8 12649 534 1
-6 -10 -8 13346 534 1
6 10 8 13307 535 1
10 -6 8 12257 533 1
-10 6 8 13265 532 1
-10 6 8 12294 590 1
-8 -10 -8 6413 201 1
-10 8 -8 6253 201 1
-8 -10 -8 6092 200 1
-10 8 8 5872 222 1
10 -8 8 6447 201 1
-10 8 8 6423 200 1
8 10 8 6039 201 1
-10 -10 -8 27 4 1
-10 10 -8 27 6 1
-10 10 -8 32 9 1
-10 -10 -8 27 5 1
-10 10 8 20 7 1
10 -10 8 25 6 1
10 10 8 24 5 1
-10 10 8 25 5 1
-10 10 8 31 7 1
-9 11 -8 38 3 1
-9 11 8 21 2 1
9 -11 8 27 1 1
-9 11 8 29 1 1
-9 11 8 21 2 1
-7 11 -8 40 1 1
-11 -7 -8 39 2 1
11 7 8 27 1 1
-7 11 8 34 2 1
-7 11 8 39 2 1
5 -11 -8 8 3 1
-11 -5 -8 7 3 1
-5 11 8 12 3 1
11 5 8 12 3 1
-5 11 8 7 3 1
-11 -5 8 14 4 1
-3 11 -8 702 46 1
-11 -3 -8 663 45 1
3 -11 -8 659 46 1
-11 -3 -8 663 46 1
3 -11 -8 726 46 1
3 -11 8 687 45 1
11 3 8 611 46 1
-3 11 8 708 51 1
3 -11 8 712 45 1
-11 -3 8 668 51 1
-11 -1 -8 116 2 1
-1 11 -8 104 3 1
-1 11 8 122 2 1
-11 -1 8 122 4 1
-1 -11 -8 1917 73 1
-1 -11 -8 2000 73 1
11 -1 -8 2055 73 1
1 11 -8 2024 74 1
-11 1 -8 2016 73 1
1 11 8 2058 73 1
11 -1 8 2021 74 1
-11 1 8 2050 82 1
-3 -11 -8 2 3 1
-3 -11 -8 3 3 1
3 11 8 2 3 1
-11 3 8 18 5 1
-5 -11 -8 12 3 1
-5 -11 -8 14 2 1
-11 5 -8 13 3 1
-11 5 8 9 6 1
-11 5 8 12 5 1
-11 7 -8 955 44 1
-7 -11 -8 963 43 1
-11 7 -8 928 49 1
-7 -11 -8 941 44 1
-11 7 8 932 43 1
11 -7 8 955 44 1
-11 7 8 1003 43 1
-11 7 8 973 49 1
-11 9 -8 5 5 1
-9 -11 -8 2 4 1
-9 -11 -8 4 3 1
-9 -11 -8 7 8 1
9 11 8 5 4 1
11 -9 8 8 5 1
-11 9 8 4 6 1
-11 9 8 4 6 1
-11 -11 -8 135 8 1
-11 11 -8 119 9 1
-11 11 -8 129 11 1
-11 11 8 141 10 1
11 11 8 148 9 1
-11 11 8 144 10 1
-11 11 8 130 8 1
11 -11 8 128 9 1
-10 12 -8 40 7 1
10 -12 -8 40 7 1
-10 12 -8 43 10 1
-12 -10 -8 53 6 1
-10 12 8 48 7 1
10 -12 8 39 6 1
12 10 8 48 7 1
-10 12 8 47 8 1
10 -12 8 44 8 1
-8 12 -8 2293 86 1
-8 12 -8 2352 94 1
-12 -8 -8 2533 84 1
-8 12 8 2296 94 1
8 -12 8 2502 85 1
-8 12 8 2364 94 1
-8 12 8 2481 85 1
12 8 8 2595 85 1
-12 -6 -8 611 32 1
-12 -6 -8 596 32 1
6 -12 -8 552 32 1
-6 12 8 586 36 1
-12 -4 -8 218 9 1
-4 12 -8 216 9 1
-12 -4 -8 201 8 1
4 -12 -8 200 9 1
4 -12 -8 191 8 1
-12 -4 8 212 10 1
-4 12 8 194 9 1
4 -12 8 210 8 1
2 -12 -8 12307 485 1
-12 -2 -8 11894 483 1
-2 12 -8 11899 483 1
-12 -2 -8 12555 483 1
2 -12 -8 11960 484 1
-12 -2 8 13114 538 1
12 2 8 11856 483 1
-2 12 8 12966 535 1
-2 12 8 12823 483 1
0 -12 -8 2787 114 1
-12 0 -8 2666 114 1
0 12 -8 2899 115 1
0 -12 -8 2648 115 1
-12 0 -8 2901 115 1
0 12 8 2593 115 1
-2 -12 -8 5578 188 1
2 12 -8 5394 189 1
-2 -12 -8 5483 188 1
12 -2 -8 5374 189 1
-12 2 -8 5747 189 1
2 12 8 5811 189 1
12 -2 8 5938 189 1
12 -4 -8 961 32 1
-4 -12 -8 989 31 1
-4 -12 -8 1004 32 1
-12 4 -8 955 32 1
-12 4 -8 923 36 1
-12 4 8 938 36 1
12 -4 8 990 32 1
-12 6 -8 142 10 1
-6 -12 -8 159 7 1
-12 6 -8 161 8 1
12 -6 -8 183 8 1
12 -6 8 175 8 1
6 12 8 152 7 1
-12 6 8 165 10 1
-12 8 -8 2 5 1
12 -8 -8 3 4 1
-8 -12 -8 2 4 1
-12 8 -8 1 7 1
12 -8 8 3 5 1
-12 8 8 4 6 1
-12 8 8 1 5 1
-12 10 -8 537 30 1
-12 10 -8 517 33 1
-10 -12 -8 504 31 1
-10 -12 -8 574 29 1
-12 10 8 486 33 1
12 -10 8 578 30 1
-12 10 8 539 33 1
10 12 8 595 29 1
-12 10 8 525 29 1
12 -12 -8 1 2 1
-12 12 -8 3 2 1
-12 12 -8 3 3 1
12 -12 8 2 2 1
-12 12 8 7 5 1
-12 12 8 4 3 1
12 12 8 1 2 1
-12 12 8 7 6 1
12 -12 8 5 4 1
-11 13 -8 19 5 1
-13 -11 -8 22 4 1
-11 13 -8 28 7 1
-11 13 8 21 6 1
-11 13 8 17 7 1
11 -13 8 28 6 1
13 11 8 32 6 1
11 -13 8 21 4 1
-11 13 8 16 4 1
-13 -9 -8 558 21 1
9 -13 8 544 22 1
13 9 8 565 21 1
9 -13 8 527 21 1
-13 -7 -8 704 20 1
-13 -7 -8 695 19 1
7 -13 -8 690 20 1
-7 13 -8 729 21 1
-7 13 8 681 20 1
7 -13 8 649 21 1
-7 13 8 756 23 1
5 -13 -8 2074 75 1
5 -13 -8 2051 75 1
-13 -5 -8 2035 74 1
-5 13 -8 2096 75 1
13 5 8 2056 75 1
-5 13 8 2003 75 1
5 -13 8 2110 76 1
-13 -5 8 2043 83 1
-5 13 8 2188 83 1
-3 13 -8 637 11 1
-13 -3 -8 604 10 1
-13 -3 -8 604 11 1
3 -13 -8 627 11 1
3 -13 8 652 12 1
13 3 8 601 11 1
-3 13 8 668 12 1
-13 -1 -8 2635 77 1
1 -13 -8 2601 77 1
-13 -1 -8 2630 77 1
-13 -1 -8 2619 87 1
-1 13 -8 2711 78 1
-1 13 8 2685 86 1
-1 13 8 2762 78 1
13 1 8 2611 78 1
-13 -1 8 2752 86 1
1 13 -8 1329 73 1
-13 1 -8 1232 81 1
13 -3 -8 119 5 1
-13 3 -8 87 7 1
-13 3 -8 81 4 1
-3 -13 -8 89 4 1
-3 -13 -8 106 7 1
3 13 8 118 4 1
-13 3 8 91 7 1
-13 3 8 96 5 1
-5 -13 -8 18 3 1
-5 -13 -8 20 7 1
-5 -13 -8 15 3 1
-13 5 -8 30 4 1
13 -5 -8 22 4 1
-13 5 8 22 5 1
-13 5 8 17 4 1
-13 7 -8 65 5 1
13 -7 -8 69 5 1
-7 -13 -8 71 4 1
-7 -13 -8 68 5 1
-13 7 8 56 6 1
-13 7 8 56 7 1
13 -7 8 75 6 1
-9 -13 -8 56 3 1
-9 -13 -8 60 1 1
-13 9 8 57 2 1
-13 9 8 57 2 1
9 13 8 57 1 1
13 -9 8 49 2 1
13 -11 -8 128 8 1
-13 11 -8 114 7 1
-13 11 -8 102 9 1
-11 -13 -8 115 7 1
13 -11 8 111 7 1
13 -11 8 106 9 1
-13 11 8 120 9 1
11 13 8 122 8 1
-13 11 8 108 8 1
-13 13 -8 1633 64 1
-13 -13 -8 1629 57 1
13 -13 -8 1533 58 1
-13 13 -8 1550 58 1
-13 13 8 1615 64 1
13 -13 8 1570 58 1
13 13 8 1565 58 1
-13 13 8 1627 57 1
-13 13 8 1631 64 1
12 -14 -8 255 12 1
-12 14 -8 251 12 1
-12 14 -8 233 14 1
-12 14 8 253 11 1
12 -14 8 249 11 1
14 12 8 235 13 1
-12 14 8 243 13 1
12 -14 8 250 13 1
-12 14 8 248 14 1
-14 -10 -8 545 15 1
10 -14 -8 543 15 1
-10 14 -8 601 16 1
-10 14 -8 558 18 1
10 -14 -8 555 19 1
14 10 8 597 16 1
-10 14 8 579 17 1
10 -14 8 550 15 1
-10 14 8 577 15 1
-10 14 8 563 17 1
10 -14 8 587 16 1
-8 14 -8 468 29 1
-14 -8 -8 512 25 1
8 -14 -8 454 28 1
-8 14 -8 489 26 1
8 -14 -8 488 25 1
8 -14 8 486 26 1
-8 14 8 498 28 1
-8 14 8 502 25 1
8 -14 8 462 25 1
-14 -6 -8 291 12 1
6 -14 -8 259 15 1
-6 14 -8 266 13 1
6 -14 -8 255 13 1
-6 14 8 275 16 1
-6 14 8 261 13 1
-6 14 8 284 14 1
-14 -6 8 241 18 1
6 -14 8 253 14 1
6 -14 8 265 12 1
4 -14 -8 375 9 1
-4 14 -8 424 9 1
4 -14 -8 402 9 1
-14 -4 -8 409 12 1
-14 -4 -8 413 9 1
4 -14 -8 385 12 1
-4 14 8 384 10 1
-14 -4 8 370 13 1
14 4 8 404 9 1
4 -14 8 430 8 1
-4 14 8 403 13 1
-4 14 8 391 9 1
4 -14 8 398 10 1
2 -14 -8 419 18 1
-14 -2 -8 439 18 1
-14 -2 -8 426 17 1
-14 -2 -8 454 21 1
-2 14 -8 471 18 1
2 -14 -8 395 18 1
2 -14 -8 436 20 1
14 2 8 450 18 1
-14 -2 8 411 22 1
2 -14 8 434 19 1
-2 14 8 437 20 1
0 14 -8 35 5 1
0 -14 -8 17 4 1
0 -14 -8 15 7 1
-14 0 -8 20 7 1
0 -14 -8 16 4 1
-14 0 -8 22 4 1
-14 0 -8 18 4 1
0 14 8 18 5 1
0 -14 8 41 7 1
14 0 8 28 4 1
-2 -14 -8 406 10 1
-14 2 -8 403 10 1
-2 -14 -8 385 8 1
-14 2 -8 382 8 1
-2 -14 -8 403 8 1
-2 -14 8 364 10 1
2 14 8 389 8 1
14 -2 8 388 8 1
-14 4 -8 3 4 1
-14 4 -8 6 7 1
-4 -14 -8 8 4 1
14 -4 -8 10 6 1
-4 -14 -8 4 4 1
-4 -14 -8 10 7 1
-14 4 8 3 5 1
-4 -14 8 6 8 1
4 14 8 6 4 1
14 -4 8 3 5 1
-6 -14 -8 959 31 1
-14 6 -8 949 31 1
-6 -14 -8 1021 33 1
-14 6 -8 958 35 1
-6 -14 -8 983 31 1
-6 -14 8 958 33 1
6 14 8 926 31 1
-8 -14 -8 4 3 1
-8 -14 -8 1 7 1
-14 8 -8 2 4 1
14 -8 -8 1 4 1
8 14 8 0 4 1
-8 -14 8 1 5 1
-14 8 8 1 5 1
-14 8 8 3 5 1
14 -8 8 1 4 1
-14 10 -8 22 2 1
-10 -14 -8 23 3 1
14 -10 -8 29 2 1
-14 10 8 29 2 1
-14 10 8 24 3 1
14 -10 8 18 2 1
10 14 8 17 2 1
-12 -14 -8 49 5 1
-14 12 -8 47 7 1
-14 12 -8 41 5 1
14 -12 -8 43 5 1
-14 12 8 54 7 1
-14 12 8 47 5 1
12 14 8 33 4 1
-14 12 8 44 4 1
14 -12 8 43 4 1
14 -14 -8 3 3 1
-14 14 -8 2 3 1
-14 -14 -8 3 3 1
-14 14 -8 2 3 1
-14 14 8 5 5 1
14 -14 8 3 3 1
14 14 8 2 4 1
14 -14 8 5 4 1
-14 14 8 5 2 1
-14 14 8 5 2 1
-13 15 -8 541 31 1
-13 15 -8 589 33 1
-15 -13 -8 566 30 1
15 13 8 560 31 1
13 -15 8 574 30 1
-13 15 8 544 33 1
13 -15 8 532 30 1
-13 15 8 546 29 1
-11 15 -8 26 6 1
-15 -11 -8 30 5 1
-11 15 -8 25 8 1
11 -15 -8 36 12 1
11 -15 -8 21 5 1
-11 15 8 29 8 1
15 11 8 32 8 1
11 -15 8 25 4 1
-11 15 8 36 5 1
9 -15 -8 214 14 1
-9 15 -8 179 11 1
-9 15 -8 176 14 1
-15 -9 -8 195 10 1
9 -15 -8 214 10 1
15 9 8 218 11 1
9 -15 8 186 10 1
-9 15 8 205 10 1
-9 15 8 212 12 1
9 -15 8 172 11 1
-7 15 -8 124 8 1
7 -15 -8 111 7 1
-15 -7 -8 110 6 1
7 -15 -8 104 10 1
7 -15 8 117 8 1
-7 15 8 114 8 1
-7 15 8 142 10 1
7 -15 8 118 6 1
-15 -7 8 85 13 1
5 -15 -8 2459 95 1
-15 -5 -8 2643 93 1
-15 -5 -8 2715 105 1
5 -15 -8 2673 94 1
-5 15 8 2684 107 1
5 -15 8 2613 93 1
15 5 8 2601 94 1
-5 15 8 2593 94 1
-5 15 8 2624 104 1
-15 -5 8 2574 105 1
5 -15 8 2646 95 1
-15 -3 -8 83 5 1
3 -15 -8 96 8 1
3 -15 -8 89 5 1
-3 15 -8 80 5 1
-15 -3 -8 83 7 1
3 -15 -8 76 5 1
3 -15 8 66 6 1
-3 15 8 76 5 1
15 3 8 90 5 1
-15 -3 8 93 10 1
-15 -3 8 93 6 1
1 -15 -8 518 25 1
-15 -1 -8 511 25 1
-15 -1 -8 490 25 1
1 -15 -8 472 26 1
-15 -1 8 535 30 1
-1 15 8 515 28 1
-1 15 8 512 26 1
15 1 8 491 26 1
-1 -15 -8 781 18 1
1 15 -8 798 18 1
-1 -15 -8 786 17 1
-1 -15 -8 844 20 1
-15 1 -8 779 17 1
-15 1 -8 835 21 1
-1 -15 8 782 19 1
1 15 8 803 18 1
-3 -15 -8 226 4 1
-3 -15 -8 213 7 1
-3 -15 -8 225 4 1
-15 3 -8 195 7 1
-15 3 -8 178 5 1
-15 3 8 220 6 1
-3 -15 8 194 8 1
-15 3 8 192 7 1
-5 -15 -8 3 6 1
15 -5 -8 4 5 1
-15 5 -8 1 6 1
-5 -15 -8 5 3 1
-15 5 8 4 5 1
5 15 8 5 4 1
-15 5 8 4 6 1
15 -5 8 3 4 1
-15 7 -8 1333 63 1
15 -7 -8 1408 63 1
-15 7 -8 1507 70 1
-7 -15 -8 1310 65 1
-7 -15 -8 1309 62 1
-7 -15 8 1259 64 1
7 15 8 1357 63 1
-15 7 8 1393 70 1
-9 -15 -8 43 7 1
-15 9 -8 23 5 1
-15 9 -8 26 6 1
-9 -15 -8 45 5 1
15 -9 -8 21 6 1
-15 9 8 39 6 1
9 15 8 38 5 1
15 -9 8 20 5 1
-15 9 8 39 6 1
15 -11 -8 336 14 1
-15 11 -8 335 16 1
-15 11 -8 328 14 1
-11 -15 -8 336 13 1
-15 11 8 307 16 1
-15 11 8 319 15 1
15 -11 8 334 14 1
15 -11 8 342 15 1
11 15 8 312 14 1
-13 -15 -8 599 24 1
15 -13 -8 571 24 1
-15 13 -8 556 24 1
-15 13 -8 628 27 1
-15 13 8 587 27 1
15 -13 8 626 24 1
-15 13 8 564 28 1
13 15 8 547 25 1
-15 15 -8 161 10 1
-15 15 -8 144 9 1
15 -15 -8 162 9 1
15 -15 8 153 9 1
15 -15 8 145 8 1
-15 15 8 144 9 1
-14 16 -8 21 7 1
-14 16 -8 33 6 1
14 -16 8 31 5 1
14 -16 8 31 7 1
-14 16 8 24 5 1
12 -16 -8 0 2 1
-12 16 -8 0 3 1
-12 16 -8 0 3 1
12 -16 8 0 2 1
-12 16 8 0 2 1
16 12 8 1 4 1
12 -16 8 0 2 1
-10 16 -8 8 3 1
-10 16 -8 10 2 1
10 -16 -8 8 4 1
10 -16 8 8 2 1
-10 16 8 5 2 1
16 10 8 5 3 1
-10 16 8 8 3 1
-10 16 8 4 4 1
10 -16 8 8 2 1
8 -16 -8 1578 53 1
-16 -8 -8 1484 51 1
-8 16 -8 1411 52 1
8 -16 -8 1440 52 1
16 8 8 1364 52 1
-8 16 8 1526 59 1
8 -16 8 1461 53 1
-8 16 8 1569 58 1
-8 16 8 1423 52 1
8 -16 8 1481 51 1
-16 -6 -8 1212 41 1
6 -16 -8 1232 37 1
-6 16 -8 1219 37 1
-16 -6 -8 1291 36 1
6 -16 -8 1229 36 1
-6 16 8 1261 40 1
-6 16 8 1167 36 1
6 -16 8 1292 37 1
6 -16 8 1233 35 1
-6 16 8 1294 42 1
16 6 8 1251 36 1
-16 -6 8 1238 41 1
4 -16 -8 1396 57 1
4 -16 -8 1467 59 1
-16 -4 -8 1497 65 1
-16 -4 -8 1554 57 1
-4 16 -8 1451 58 1
-4 16 8 1406 66 1
-4 16 8 1504 58 1
-4 16 8 1535 64 1
4 -16 8 1449 59 1
-16 -2 -8 2272 84 1
2 -16 -8 2285 86 1
-16 -2 -8 2285 94 1
2 -16 -8 2107 84 1
2 -16 -8 2245 84 1
-16 -2 8 2086 93 1
-16 -2 8 2228 94 1
-2 16 8 2269 93 1
2 -16 8 2140 85 1
16 2 8 2148 84 1
0 -16 -8 198 9 1
-16 0 -8 213 8 1
0 16 -8 223 10 1
0 -16 -8 202 8 1
0 -16 -8 211 10 1
-16 0 -8 210 8 1
0 16 8 222 9 1
-16 0 8 185 11 1
0 16 8 212 10 1
0 -16 8 178 10 1
-2 -16 -8 445 23 1
-16 2 -8 455 22 1
-16 2 -8 456 25 1
-16 2 -8 492 22 1
-2 -16 -8 477 22 1
-2 -16 -8 489 22 1
-16 2 8 507 25 1
2 16 8 462 22 1
2 16 8 507 25 1
-2 -16 8 515 23 1
-16 4 -8 224 11 1
-16 4 -8 220 13 1
-4 -16 -8 233 10 1
-4 -16 -8 261 11 1
-4 -16 8 248 13 1
16 -4 8 225 11 1
-16 4 8 230 13 1
4 16 8 228 11 1
-16 6 -8 21 4 1
-16 6 -8 16 6 1
-6 -16 -8 26 3 1
16 -6 -8 15 6 1
-6 -16 -8 23 4 1
-16 6 8 19 6 1
16 -6 8 22 5 1
6 16 8 27 5 1
-16 6 8 13 6 1
-8 -16 -8 244 10 1
-8 -16 -8 245 7 1
-16 8 -8 282 8 1
-16 8 -8 265 9 1
-16 8 8 262 10 1
-8 -16 8 274 12 1
8 16 8 258 8 1
-16 8 8 228 9 1
-16 10 -8 112 8 1
-16 10 -8 100 6 1
-10 -16 -8 115 6 1
16 -10 8 95 6 1
-16 10 8 93 7 1
10 16 8 102 7 1
-16 10 8 92 9 1
-16 12 -8 291 17 1
-16 12 -8 288 15 1
16 -12 -8 261 16 1
-12 -16 -8 297 15 1
16 -12 8 271 15 1
-16 12 8 287 18 1
12 16 8 303 16 1
16 -12 8 277 16 1
-16 12 8 287 17 1
-16 14 -8 280 11 1
-16 14 -8 278 10 1
16 -14 -8 312 11 1
14 16 8 306 14 1
-16 14 8 304 11 1
16 -14 8 314 11 1
16 -16 -8 1175 44 1
-16 16 -8 1161 44 1
-16 16 -8 1224 48 1
16 -16 8 1227 44 1
-16 16 8 1102 50 1
16 -16 8 1179 43 1
15 -17 -8 215 10 1
-15 17 -8 214 11 1
-15 17 -8 213 10 1
-15 17 8 216 12 1
15 -17 8 216 9 1
15 -17 8 208 10 1
13 -17 -8 8 3 1
-13 17 -8 3 4 1
-13 17 -8 2 4 1
-13 17 8 2 5 1
13 -17 8 5 3 1
13 -17 8 2 4 1
11 -17 -8 234 9 1
11 -17 -8 232 12 1
-11 17 -8 241 10 1
11 -17 8 240 8 1
-11 17 8 244 9 1
17 11 8 257 12 1
11 -17 8 223 9 1
-11 17 8 237 11 1
9 -17 -8 14 3 1
9 -17 -8 10 2 1
-9 17 -8 15 3 1
-17 -9 -8 13 3 1
9 -17 8 20 6 1
-9 17 8 18 4 1
9 -17 8 21 4 1
-9 17 8 25 7 1
7 -17 -8 35 4 1
-17 -7 -8 29 7 1
-7 17 -8 32 6 1
17 7 8 40 6 1
-7 17 8 47 8 1
-7 17 8 32 5 1
-7 17 8 35 9 1
-17 -5 -8 467 13 1
5 -17 -8 528 13 1
-5 17 -8 496 12 1
5 -17 -8 495 11 1
5 -17 8 530 12 1
-5 17 8 534 13 1
-5 17 8 482 15 1
-17 -5 8 474 15 1
-5 17 8 518 11 1
17 5 8 510 12 1
-17 -3 -8 1041 35 1
3 -17 -8 1030 37 1
3 -17 -8 1003 35 1
-3 17 -8 1045 37 1
-3 17 8 1080 40 1
-17 -3 8 1057 41 1
17 3 8 992 36 1
3 -17 8 998 37 1
1 -17 -8 435 25 1
-17 -1 -8 436 25 1
1 -17 -8 480 27 1
1 -17 -8 439 25 1
-1 17 -8 459 26 1
-17 -1 -8 416 29 1
-1 17 8 481 28 1
-17 -1 8 415 28 1
17 1 8 456 26 1
1 -17 8 455 26 1
-1 17 8 436 25 1
-17 1 -8 81 4 1
-1 -17 -8 64 4 1
-17 1 8 58 5 1
1 17 8 62 4 1
1 17 8 61 5 1
-17 3 -8 212 16 1
-3 -17 -8 243 16 1
-3 -17 -8 231 13 1
-17 3 -8 234 14 1
-17 3 -8 241 14 1
-3 -17 -8 219 14 1
-17 3 8 232 16 1
3 17 8 236 14 1
-17 3 8 237 17 1
-3 -17 8 235 16 1
17 -3 8 228 15 1
-5 -17 -8 248 9 1
-17 5 -8 243 8 1
-5 -17 -8 232 7 1
-17 5 -8 233 10 1
-5 -17 -8 257 10 1
-17 5 8 213 10 1
5 17 8 257 9 1
17 -5 8 227 9 1
-17 5 8 229 11 1
17 -7 -8 378 14 1
-7 -17 -8 396 13 1
-17 7 -8 407 12 1
-17 7 -8 414 15 1
-7 -17 8 400 15 1
7 17 8 412 13 1
-17 7 8 394 15 1
-17 7 8 377 14 1
-9 -17 -8 257 9 1
-17 9 -8 270 9 1
17 -9 -8 238 11 1
-9 -17 -8 250 11 1
-17 9 8 254 12 1
9 17 8 255 10 1
-9 -17 8 270 13 1
17 -9 8 244 9 1
17 -9 8 244 12 1
-11 -17 -8 305 11 1
17 -11 -8 302 13 1
-17 11 -8 286 11 1
-17 11 8 303 14 1
11 17 8 302 13 1
-17 11 8 272 12 1
17 -11 8 283 13 1
17 -11 8 274 11 1
-17 13 -8 66 7 1
17 -13 -8 68 7 1
-17 13 -8 62 5 1
17 -13 8 60 5 1
17 -13 8 44 8 1
-17 13 8 79 7 1
-17 15 -8 68 7 1
-17 15 -8 78 7 1
17 -15 8 83 8 1
17 -15 8 84 6 1
-17 17 -8 350 18 1
17 -17 -8 351 18 1
-17 17 -8 380 20 1
17 -17 8 361 18 1
17 -17 8 364 17 1
-18 -16 -8 124 11 1
16 -18 -8 120 10 1
-16 18 -8 120 10 1
-16 18 8 112 11 1
16 -18 8 120 8 1
16 -18 8 128 9 1
14 -18 -8 322 17 1
-14 18 -8 330 17 1
-18 -14 -8 334 20 1
14 -18 8 343 16 1
-14 18 8 320 16 1
-14 18 8 288 19 1
14 -18 8 313 17 1
-18 -12 -8 1242 51 1
12 -18 -8 1235 45 1
12 -18 -8 1250 47 1
-12 18 -8 1235 46 1
-12 18 8 1176 51 1
12 -18 8 1215 46 1
12 -18 8 1264 44 1
-12 18 8 1223 45 1
-10 18 -8 1278 54 1
10 -18 -8 1328 53 1
10 -18 -8 1246 55 1
-18 -10 -8 1341 60 1
10 -18 8 1284 54 1
10 -18 8 1301 52 1
18 10 8 1325 54 1
-10 18 8 1254 53 1
8 -18 -8 406 15 1
-8 18 -8 395 16 1
8 -18 -8 430 17 1
8 -18 8 410 14 1
18 8 8 363 16 1
-8 18 8 423 15 1
-8 18 8 406 18 1
8 -18 8 426 16 1
-18 -6 -8 243 14 1
-6 18 -8 234 12 1
6 -18 -8 225 10 1
18 6 8 206 12 1
-6 18 8 233 11 1
-6 18 8 241 15 1
6 -18 8 236 12 1
-18 -6 8 210 14 1
-4 18 -8 455 20 1
4 -18 -8 422 20 1
4 -18 -8 449 18 1
-4 18 8 424 21 1
18 4 8 406 19 1
-4 18 8 441 19 1
2 -18 -8 15 7 1
-2 18 -8 10 8 1
-18 -2 -8 20 7 1
2 -18 -8 18 5 1
18 2 8 16 7 1
2 -18 8 14 6 1
-2 18 8 17 7 1
0 -18 -8 230 10 1
-18 0 -8 237 11 1
-18 0 -8 223 13 1
0 -18 -8 255 12 1
0 18 8 235 11 1
0 -18 8 254 12 1
18 0 8 230 12 1
0 18 8 246 12 1
-18 0 8 232 13 1
-2 -18 -8 702 24 1
-2 -18 -8 727 23 1
-18 2 -8 693 27 1
-18 2 -8 703 23 1
-18 2 -8 741 24 1
-2 -18 -8 752 25 1
-2 -18 8 757 25 1
2 18 8 710 24 1
2 18 8 742 27 1
-18 2 8 750 27 1
-18 4 -8 551 22 1
-4 -18 -8 548 21 1
-4 -18 -8 533 23 1
-18 4 -8 560 26 1
-18 4 -8 555 23 1
4 18 8 535 23 1
-4 -18 8 547 24 1
-18 4 8 543 26 1
-18 4 8 547 26 1
-6 -18 -8 22 5 1
-6 -18 -8 22 7 1
-18 6 -8 21 7 1
-18 6 -8 17 5 1
-6 -18 8 17 8 1
18 -6 8 16 6 1
6 18 8 20 6 1
-18 6 8 26 6 1
-18 6 8 20 7 1
-18 8 -8 358 15 1
-8 -18 -8 375 16 1
-8 -18 -8 374 17 1
18 -8 -8 376 18 1
-18 8 -8 356 18 1
-18 8 8 405 19 1
18 -8 8 338 18 1
8 18 8 413 16 1
-18 8 8 403 18 1
-8 -18 8 373 19 1
-10 -18 -8 185 10 1
-18 10 -8 193 10 1
18 -10 -8 193 12 1
-18 10 -8 202 12 1
-10 -18 -8 188 12 1
18 -10 8 190 10 1
18 -10 8 170 12 1
-18 10 8 220 12 1
-18 10 8 206 14 1
10 18 8 188 12 1
18 -12 -8 80 3 1
-18 12 -8 87 2 1
-18 12 -8 63 2 1
18 -12 8 70 3 1
-18 12 8 64 2 1
18 -12 8 70 2 1
12 18 8 92 4 1
18 -14 -8 659 34 1
-18 14 -8 612 36 1
-18 14 -8 664 33 1
18 -14 8 629 33 1
18 -14 8 666 33 1
18 -16 -8 128 11 1
-18 16 -8 157 10 1
-18 16 -8 151 10 1
18 -16 8 153 10 1
-18 16 8 138 11 1
18 -16 8 149 9 1
-18 -18 -8 389 19 1
18 -18 -8 386 18 1
-18 18 -8 380 17 1
18 -18 8 377 17 1
-18 18 8 420 19 1
-17 19 -8 57 8 1
-19 -17 -8 41 5 1
17 -19 -8 64 7 1
17 -19 8 67 6 1
17 -19 8 61 7 1
-15 19 -8 30 7 1
-19 -15 -8 26 8 1
-15 19 8 23 7 1
15 -19 8 21 6 1
15 -19 8 25 6 1
13 -19 -8 133 12 1
13 -19 -8 136 8 1
-19 -13 -8 147 11 1
-13 19 8 128 8 1
13 -19 8 121 7 1
-13 19 8 126 10 1
13 -19 8 109 8 1
11 -19 -8 25 5 1
11 -19 -8 19 4 1
-11 19 -8 27 7 1
-11 19 8 29 5 1
-11 19 8 29 8 1
11 -19 8 23 4 1
11 -19 8 23 6 1
-19 -9 -8 18 3 1
-9 19 -8 18 3 1
9 -19 -8 14 2 1
9 -19 -8 27 3 1
9 -19 8 31 2 1
-9 19 8 11 3 1
-9 19 8 12 2 1
-19 -9 8 14 5 1
7 -19 -8 3 5 1
7 -19 -8 5 7 1
-7 19 -8 5 7 1
-19 -7 -8 8 7 1
7 -19 8 2 6 1
-7 19 8 5 5 1
-7 19 8 4 10 1
19 7 8 8 8 1
-19 -7 8 3 5 1
-19 -5 -8 580 29 1
5 -19 -8 580 27 1
-5 19 -8 550 26 1
5 -19 -8 574 25 1
5 -19 8 593 26 1
-19 -5 8 515 29 1
19 5 8 540 26 1
-5 19 8 529 25 1
-3 19 -8 9 4 1
3 -19 -8 8 3 1
-19 -3 -8 15 6 1
-19 -3 8 23 10 1
3 -19 8 8 2 1
-19 -3 8 12 4 1
1 -19 -8 442 18 1
-19 -1 -8 448 19 1
1 -19 -8 432 15 1
-1 19 -8 409 18 1
-1 19 8 419 16 1
-19 -1 8 422 19 1
-1 19 8 450 19 1
-19 -1 8 378 19 1
1 -19 8 423 17 1
19 1 8 476 17 1
-1 -19 -8 952 39 1
-19 1 -8 985 45 1
-1 -19 -8 973 42 1
19 -1 8 950 41 1
-19 1 8 987 45 1
1 19 8 922 45 1
-1 -19 8 944 41 1
1 19 8 970 40 1
-3 -19 -8 1669 60 1
-19 3 -8 1736 66 1
-19 3 -8 1652 57 1
-3 -19 -8 1645 57 1
19 -3 8 1609 59 1
3 19 8 1662 59 1
3 19 8 1626 65 1
-3 -19 8 1674 60 1
-19 5 -8 559 24 1
-5 -19 -8 559 23 1
-19 5 -8 543 22 1
-19 5 -8 558 21 1
5 19 8 598 22 1
-5 -19 8 597 23 1
-19 5 8 590 25 1
-19 5 8 586 25 1
-19 7 -8 26 6 1
-7 -19 -8 35 7 1
19 -7 8 17 3 1
-19 7 8 27 6 1
-19 7 8 25 4 1
-7 -19 8 24 3 1
7 19 8 20 3 1
-19 9 -8 21 4 1
-9 -19 -8 30 7 1
-19 9 -8 13 3 1
19 -9 8 20 4 1
-19 9 8 19 6 1
-9 -19 8 13 3 1
-19 9 8 20 6 1
19 -9 8 12 3 1
-19 11 -8 56 6 1
-19 11 -8 49 5 1
19 -11 -8 33 4 1
11 19 8 50 5 1
19 -11 8 47 4 1
-19 11 8 46 5 1
19 -11 8 53 6 1
-19 13 -8 361 20 1
-19 13 -8 334 17 1
-19 13 8 363 20 1
19 -13 8 338 19 1
19 -13 8 337 18 1
-19 15 -8 19 3 1
-19 15 -8 30 6 1
19 -15 -8 22 5 1
19 -15 8 44 7 1
-19 15 8 22 5 1
-19 15 8 26 7 1
-17 -19 -8 9 2 1
-19 17 -8 13 2 1
19 -17 -8 12 4 1
-19 17 -8 3 3 1
-19 17 8 14 2 1
-19 -19 -8 5 2 1
19 -19 8 2 2 1
-20 -18 -8 1 2 1
16 -20 -8 8 3 1
-20 -16 -8 0 2 1
-16 20 -8 7 4 1
16 -20 8 0 2 1
-16 20 8 1 2 1
-14 20 -8 411 21 1
14 -20 -8 455 21 1
-20 -14 -8 450 24 1
14 -20 8 431 21 1
14 -20 8 413 20 1
-14 20 8 442 20 1
-20 -12 -8 2 3 1
-12 20 -8 2 3 1
12 -20 -8 1 2 1
12 -20 -8 1 3 1
-12 20 8 4 3 1
-12 20 8 4 2 1
-20 -10 -8 233 11 1
10 -20 -8 241 11 1
10 -20 8 215 9 1
-10 20 8 247 12 1
8 -20 -8 286 14 1
8 -20 -8 296 12 1
-8 20 -8 293 14 1
-20 -8 -8 243 15 1
-8 20 8 285 16 1
-20 -8 8 254 16 1
-8 20 8 283 12 1
8 -20 8 282 13 1
6 -20 -8 4 2 1
-6 20 -8 5 3 1
-20 -6 -8 5 3 1
6 -20 -8 5 2 1
6 -20 8 5 2 1
-20 -6 8 3 4 1
-6 20 8 4 2 1
20 6 8 9 4 1
4 -20 -8 457 16 1
4 -20 -8 474 18 1
4 -20 8 436 17 1
20 4 8 485 18 1
-4 20 8 440 17 1
-20 -4 8 428 19 1
-2 20 -8 43 10 1
2 -20 -8 42 5 1
-20 -2 -8 45 8 1
2 -20 -8 39 7 1
2 -20 8 48 7 1
-2 20 8 45 6 1
20 2 8 38 8 1
-20 -2 8 31 9 1
-20 -2 8 36 9 1
0 -20 -8 1773 76 1
0 -20 -8 1786 74 1
-20 0 -8 1590 83 1
20 0 8 1653 75 1
0 20 8 1756 75 1
0 -20 8 1791 76 1
-20 0 8 1819 85 1
-20 0 8 1602 83 1
-2 -20 -8 391 14 1
-2 -20 -8 429 17 1
-20 2 -8 410 18 1
2 20 8 407 16 1
2 20 8 393 18 1
-2 -20 8 442 17 1
20 -2 8 415 17 1
-20 2 8 426 18 1
-20 4 -8 271 17 1
-4 -20 -8 294 17 1
4 20 8 278 18 1
-4 -20 8 276 16 1
20 -4 8 254 16 1
-20 4 8 258 17 1
4 20 8 277 15 1
-20 6 -8 4 2 1
-6 -20 -8 2 2 1
20 -6 8 0 3 1
6 20 8 2 3 1
-6 -20 8 0 3 1
-20 6 8 4 2 1
-20 8 -8 30 2 1
-8 -20 -8 21 2 1
-20 8 -8 22 2 1
20 -8 8 22 3 1
-20 8 8 25 2 1
8 20 8 21 3 1
-8 -20 8 21 3 1
-20 10 -8 174 10 1
-10 -20 -8 181 12 1
-20 10 -8 173 12 1
20 -10 -8 213 15 1
-20 10 8 167 12 1
-10 -20 8 161 14 1
10 20 8 174 13 1
20 -12 -8 5 5 1
-20 12 -8 9 2 1
-20 12 -8 10 2 1
20 -12 8 11 3 1
20 -12 8 13 4 1
-20 12 8 4 2 1
-20 14 -8 42 7 1
20 -14 -8 61 11 1
-20 14 -8 39 7 1
-20 14 8 56 7 1
20 -14 8 44 9 1
-20 14 8 62 8 1
-20 16 -8 3 4 1
20 -16 -8 3 4 1
-20 16 8 7 2 1
20 -16 8 16 2 1
20 -16 8 21 3 1
-18 -20 -8 258 13 1
-20 18 8 243 13 1
20 -18 8 224 12 1
-20 -20 -8 538 26 1
-20 20 8 556 26 1
-21 -19 -8 48 5 1
19 -21 8 67 6 1
-19 21 8 56 5 1
-21 -17 -8 21 5 1
17 -21 8 10 2 1
-21 -15 -8 146 9 1
-15 21 -8 115 10 1
15 -21 -8 135 9 1
-15 21 8 152 9 1
13 -21 -8 170 12 1
-13 21 -8 154 10 1
13 -21 -8 159 9 1
-13 21 8 172 9 1
-13 21 8 135 10 1
13 -21 8 143 9 1
-21 -11 -8 19 3 1
11 -21 -8 30 2 1
11 -21 -8 41 3 1
-11 21 -8 7 4 1
11 -21 8 8 2 1
-11 21 8 41 3 1
-11 21 8 20 3 1
-9 21 -8 3 3 1
9 -21 -8 2 3 1
-21 -9 -8 15 3 1
9 -21 -8 14 2 1
-9 21 8 5 4 1
9 -21 8 9 2 1
-9 21 8 7 2 1
-21 -9 8 19 4 1
-7 21 -8 287 13 1
-21 -7 -8 288 14 1
7 -21 -8 303 10 1
7 -21 -8 341 12 1
-7 21 8 302 11 1
7 -21 8 345 12 1
5 -21 -8 72 8 1
-5 21 -8 80 12 1
5 -21 -8 87 10 1
-21 -5 -8 95 11 1
-21 -5 8 73 12 1
21 5 8 81 12 1
-5 21 8 71 9 1
5 -21 8 82 9 1
3 -21 -8 170 10 1
-21 -3 -8 180 13 1
3 -21 -8 167 12 1
21 3 8 197 13 1
-21 -3 8 175 14 1
-3 21 8 193 11 1
3 -21 8 181 12 1
1 -21 -8 24 2 1
1 -21 -8 10 2 1
-21 -1 -8 7 2 1
-1 21 8 24 2 1
-21 -1 8 28 3 1
-21 -1 8 13 3 1
1 -21 8 3 2 1
21 1 8 2 3 1
-21 1 -8 416 23 1
-1 -21 -8 470 18 1
-1 -21 -8 482 21 1
21 -1 8 413 21 1
-1 -21 8 449 21 1
-21 1 8 434 23 1
-21 1 8 479 23 1
1 21 8 470 20 1
-3 -21 -8 97 8 1
-21 3 -8 84 8 1
-3 -21 8 89 8 1
21 -3 8 80 8 1
3 21 8 94 7 1
-21 3 8 98 8 1
-21 5 -8 3 3 1
-21 5 8 3 3 1
5 21 8 5 3 1
-7 -21 -8 66 7 1
-21 7 -8 59 6 1
7 21 8 69 12 1
7 21 8 80 8 1
-7 -21 8 85 8 1
-21 7 8 72 6 1
21 -7 8 82 7 1
-9 -21 -8 101 8 1
-21 9 -8 73 7 1
21 -9 8 77 8 1
-21 9 8 68 7 1
-9 -21 8 78 9 1
21 -11 -8 574 28 1
-21 11 -8 609 28 1
21 -11 8 594 26 1
-21 13 -8 39 8 1
21 -13 8 45 7 1
-21 15 -8 13 2 1
21 -15 8 5 3 1
-21 15 8 17 2 1
-21 15 8 17 1 1
-17 -21 -8 4 2 1
-21 17 -8 2 2 1
-19 -21 -8 1 2 1
-21 19 8 1 2 1
-22 -16 -8 13 2 1
16 -22 8 14 2 1
-14 22 -8 119 10 1
-22 -14 -8 122 8 1
-14 22 8 141 9 1
12 -22 -8 8 3 1
12 -22 -8 6 2 1
-12 22 -8 10 4 1
-22 -12 -8 39 2 1
-12 22 8 5 3 1
12 -22 8 4 2 1
-12 22 8 6 3 1
10 -22 -8 21 2 1
-10 22 -8 9 4 1
10 -22 -8 35 2 1
-22 -10 -8 56 2 1
10 -22 8 9 2 1
-10 22 8 18 3 1
8 -22 -8 26 2 1
-8 22 -8 19 4 1
8 -22 -8 28 3 1
-22 -8 -8 17 2 1
-8 22 8 17 2 1
8 -22 8 26 2 1
-22 -8 8 21 4 1
-6 22 -8 9 5 1
-22 -6 -8 19 7 1
6 -22 -8 10 2 1
6 -22 8 9 2 1
-22 -6 8 11 4 1
-6 22 8 8 3 1
4 -22 -8 58 7 1
-4 22 -8 27 5 1
-22 -4 -8 32 3 1
22 4 8 40 5 1
-22 -4 8 54 8 1
2 -22 -8 63 3 1
-2 22 8 50 3 1
22 2 8 81 5 1
-22 -2 8 56 4 1
-22 -2 8 58 3 1
0 -22 -8 573 24 1
-22 0 -8 555 27 1
-22 0 8 582 26 1
0 22 8 576 24 1
-22 0 8 540 27 1
22 0 8 600 25 1
0 -22 8 578 24 1
-22 2 -8 2414 108 1
-2 -22 -8 2451 99 1
-22 2 8 2437 108 1
2 22 8 2491 98 1
-2 -22 8 2517 99 1
22 -2 8 2437 98 1
-22 4 -8 14 3 1
-4 -22 -8 23 2 1
-4 -22 8 13 2 1
-22 4 8 19 3 1
-22 4 8 25 3 1
4 22 8 20 3 1
-22 6 -8 39 6 1
-22 6 8 33 6 1
6 22 8 42 8 1
-6 -22 8 40 7 1
-22 8 -8 172 9 1
-8 -22 -8 178 10 1
-22 8 8 208 10 1
-8 -22 8 177 10 1
22 -8 8 187 10 1
8 22 8 195 12 1
-22 10 -8 363 20 1
-10 -22 8 372 19 1
22 -10 8 369 19 1
-22 10 8 410 21 1
22 -12 -8 142 17 1
-22 12 -8 99 5 1
-22 12 8 103 6 1
-22 12 8 116 5 1
22 -12 8 108 8 1
-22 14 -8 13 2 1
-22 14 8 10 2 1
-22 14 8 9 2 1
22 -14 8 19 4 1
-16 -22 -8 6 2 1
-22 16 8 5 2 1
-23 -15 -8 146 8 1
15 -23 8 128 7 1
-15 23 8 147 9 1
13 -23 -8 80 8 1
-23 -13 -8 73 6 1
-13 23 8 99 8 1
13 -23 8 86 5 1
-23 -11 -8 688 35 1
11 -23 -8 636 31 1
-11 23 -8 581 33 1
-11 23 8 596 32 1
11 -23 8 635 32 1
9 -23 -8 4 3 1
-9 23 -8 1 4 1
9 -23 -8 2 3 1
-9 23 8 3 3 1
9 -23 8 2 2 1
-7 23 -8 26 5 1
7 -23 -8 35 3 1
-23 -7 -8 31 3 1
7 -23 -8 35 3 1
-7 23 8 34 3 1
7 -23 8 30 2 1
-23 -7 8 43 4 1
5 -23 -8 10 3 1
-5 23 -8 5 5 1
5 -23 -8 10 3 1
-23 -5 -8 3 3 1
5 -23 8 6 2 1
-5 23 8 10 3 1
-23 -5 8 4 3 1
3 -23 -8 48 7 1
-23 -3 -8 74 8 1
3 -23 -8 47 6 1
-3 23 8 45 7 1
3 -23 8 62 7 1
23 3 8 61 12 1
-23 -3 8 66 9 1
1 -23 -8 233 12 1
-23 -1 -8 216 13 1
23 1 8 214 15 1
-23 -1 8 216 13 1
-23 -1 8 208 14 1
1 -23 8 240 12 1
-1 23 8 215 12 1
-23 1 -8 24 3 1
-1 -23 -8 25 2 1
23 -1 8 29 4 1
-23 1 8 25 3 1
1 23 8 29 3 1
-23 1 8 28 3 1
-1 -23 8 12 2 1
-3 -23 -8 244 16 1
23 -3 8 263 17 1
3 23 8 249 15 1
-23 3 8 251 17 1
-3 -23 8 242 15 1
-23 3 8 220 17 1
-5 -23 -8 79 7 1
-23 5 8 82 7 1
5 23 8 73 8 1
-23 5 8 77 7 1
23 -5 8 73 9 1
-23 7 -8 25 6 1
-7 -23 -8 38 7 1
23 -7 8 25 9 1
-23 7 8 33 7 1
-7 -23 8 36 7 1
-23 7 8 44 7 1
7 23 8 44 10 1
-9 -23 -8 187 10 1
-9 -23 8 186 11 1
9 23 8 188 15 1
23 -9 8 196 11 1
-23 11 -8 35 4 1
-23 11 8 27 5 1
23 -11 8 38 8 1
-23 11 8 26 5 1
-23 13 -8 808 33 1
-23 13 8 829 33 1
-23 13 8 854 34 1
-24 -14 -8 133 9 1
14 -24 8 134 7 1
12 -24 -8 118 7 1
-24 -12 -8 139 7 1
12 -24 8 120 6 1
-24 -10 -8 38 5 1
10 -24 -8 20 5 1
10 -24 8 34 5 1
-10 24 8 41 8 1
-24 -8 -8 1 2 1
-8 24 -8 6 5 1
8 -24 -8 6 2 1
8 -24 -8 13 3 1
8 -24 8 6 2 1
-24 -8 8 3 3 1
-8 24 8 7 3 1
6 -24 -8 216 14 1
6 -24 -8 196 13 1
-6 24 -8 238 18 1
6 -24 8 226 14 1
-6 24 8 203 14 1
-24 -6 8 241 15 1
-4 24 -8 67 15 1
4 -24 -8 72 8 1
-24 -4 -8 86 9 1
-4 24 8 73 7 1
4 -24 8 88 7 1
-24 -2 -8 756 34 1
2 -24 -8 755 31 1
-2 24 8 704 31 1
24 2 8 724 33 1
2 -24 8 754 31 1
-24 -2 8 731 34 1
-24 0 -8 401 15 1
0 -24 -8 393 14 1
-24 0 8 360 15 1
0 -24 8 387 13 1
24 0 8 390 16 1
-24 0 8 392 15 1
-24 2 -8 113 10 1
-2 -24 -8 131 9 1
-24 2 8 100 10 1
2 24 8 109 10 1
24 -2 8 116 12 1
-2 -24 8 105 9 1
-24 2 8 104 10 1
-24 4 -8 31 3 1
-4 -24 8 29 3 1
4 24 8 54 9 1
24 -4 8 39 5 1
-6 -24 -8 4 2 1
6 24 8 4 5 1
24 -6 8 0 4 1
-24 6 8 2 2 1
-6 -24 8 4 2 1
-8 -24 -8 7 2 1
24 -8 8 6 4 1
-8 -24 8 19 3 1
-24 8 8 4 2 1
-24 8 8 5 2 1
8 24 8 8 6 1
-24 10 8 3 2 1
-10 -24 8 1 2 1
24 -10 8 5 4 1
-24 12 -8 34 4 1
-24 12 8 19 4 1
-24 12 8 26 5 1
-24 14 8 20 3 1
-24 14 8 22 4 1
-25 -13 -8 1 2 1
13 -25 8 1 1 1
11 -25 -8 206 10 1
-25 -11 -8 203 11 1
11 -25 8 192 9 1
-25 -9 -8 63 6 1
9 -25 -8 49 6 1
9 -25 8 51 5 1
-25 -7 -8 709 33 1
-25 -7 8 684 33 1
-7 25 8 669 30 1
7 -25 8 716 30 1
-5 25 -8 0 7 1
5 -25 -8 0 2 1
-25 -5 -8 3 2 1
-25 -5 8 5 2 1
-5 25 8 1 3 1
5 -25 8 0 2 1
-25 -3 -8 32 5 1
3 -25 8 26 5 1
-25 -3 8 29 6 1
1 -25 -8 153 10 1
-25 -1 -8 166 10 1
1 -25 8 170 10 1
-25 -1 8 181 10 1
-25 1 -8 200 10 1
-1 -25 -8 196 11 1
1 25 8 195 11 1
-25 1 8 214 10 1
25 -1 8 214 15 1
-1 -25 8 194 10 1
-25 1 8 221 11 1
-25 3 -8 20 2 1
-3 -25 -8 11 2 1
25 -3 8 28 5 1
-25 3 8 15 2 1
-3 -25 8 9 2 1
3 25 8 23 4 1
-25 3 8 15 2 1
-5 -25 -8 2 2 1
-25 5 -8 3 2 1
5 25 8 1 5 1
-25 5 8 3 2 1
25 -5 8 13 5 1
-5 -25 8 4 2 1
-25 5 8 3 2 1
-25 7 -8 4 1 1
-7 -25 -8 2 2 1
-25 7 8 2 2 1
-25 7 8 0 2 1
-7 -25 8 3 2 1
-25 9 -8 437 19 1
-25 9 8 423 19 1
-25 9 8 388 20 1
-9 -25 8 437 18 1
-25 11 -8 5 2 1
-25 11 8 8 2 1
-25 11 8 6 2 1
-25 13 -8 376 19 1
-25 13 8 372 20 1
-25 13 8 374 19 1
10 -26 -8 2 2 1
-26 -10 -8 2 2 1
10 -26 8 3 1 1
8 -26 -8 146 8 1
-26 -8 -8 143 9 1
8 -26 8 156 8 1
6 -26 -8 3 1 1
-26 -6 -8 3 2 1
-26 -6 8 2 3 1
-26 -4 -8 269 14 1
4 -26 -8 243 13 1
-26 -4 8 276 14 1
-26 -2 -8 34 6 1
2 -26 -8 31 7 1
2 -26 8 45 6 1
-26 -2 8 41 6 1
0 -26 -8 278 14 1
-26 0 -8 280 15 1
0 -26 8 291 14 1
-26 2 -8 9 2 1
-2 -26 -8 6 2 1
-26 2 8 8 2 1
-26 2 8 9 2 1
-26 4 -8 0 2 1
-26 4 8 4 5 1
-26 4 8 0 2 1
-26 6 -8 9 4 1
-26 6 8 9 4 1
-26 6 8 8 5 1
-26 8 -8 100 8 1
-8 -26 8 108 7 1
-26 8 8 101 8 1
-26 8 8 100 8 1
-10 -26 8 420 17 1
-26 10 8 415 19 1
-27 -7 -8 29 4 1
7 -27 8 23 3 1
5 -27 -8 92 6 1
-27 -5 -8 110 7 1
-27 -5 8 108 8 1
5 -27 8 114 6 1
-27 -3 -8 60 5 1
3 -27 -8 62 4 1
3 -27 8 49 4 1
-27 -1 -8 3 2 1
1 -27 -8 7 1 1
-27 -1 8 1 2 1
1 -27 8 3 1 1
-27 1 -8 204 13 1
-1 -27 -8 205 12 1
-27 1 8 225 13 1
-1 -27 8 207 12 1
-27 1 8 195 14 1
-3 -27 -8 215 10 1
-27 3 -8 205 11 1
-27 3 8 197 11 1
-3 -27 8 186 10 1
-27 3 8 201 11 1
-27 5 -8 21 4 1
-5 -27 -8 26 4 1
-5 -27 8 22 4 1
-27 5 8 33 5 1
-27 7 -8 0 1 1
-27 7 8 2 2 1
-7 -27 8 1 2 1
-27 7 8 0 2 1
-28 -4 -8 4 4 1
-28 -4 8 12 6 1
-28 -2 -8 163 9 1
2 -28 -8 147 8 1
-28 -2 8 169 9 1
2 -28 8 152 8 1
0 -28 -8 3 1 1
-28 0 -8 2 1 1
-28 0 8 4 2 1
0 -28 8 4 1 1
-28 2 -8 141 10 1
-2 -28 -8 151 9 1
-2 -28 8 150 9 1
-4 -28 -8 8 1 1
-28 4 -8 5 1 1
-4 -28 8 2 1 1
-28 4 8 3 2 1
0 -1 -9 215 2 1
-1 0 -9 198 2 1
0 1 9 221 2 1
0 -1 9 230 2 1
0 -1 9 225 2 1
0 -1 9 227 2 1
0 1 9 215 2 1
-1 0 9 200 1 1
1 0 9 207 2 1
2 1 -9 396 11 1
1 -2 -9 391 11 1
1 -2 -9 389 11 1
-2 -1 -9 377 11 1
-1 2 9 370 11 1
2 1 9 371 11 1
-1 2 9 374 12 1
1 -2 9 405 10 1
1 -2 9 421 12 1
-1 2 9 404 11 1
1 -2 9 424 10 1
-2 1 -9 1289 151 1
2 -1 -9 1231 151 1
2 -1 -9 1034 150 1
-1 -2 -9 1125 151 1
1 2 -9 1184 151 1
-1 -2 9 1330 167 1
2 -1 9 1268 151 1
-2 1 9 1101 167 1
-2 1 9 1188 150 1
1 2 9 1066 150 1
2 -3 -9 360 3 1
-3 -2 -9 322 3 1
-3 -2 -9 340 4 1
-2 3 9 365 3 1
-3 -2 9 361 4 1
2 -3 9 365 3 1
-3 0 -9 38 9 1
0 -3 -9 38 9 1
3 0 -9 30 9 1
3 0 -9 34 9 1
0 -3 9 35 10 1
3 0 9 40 9 1
-3 0 9 33 10 1
-2 -3 -9 402 9 1
-3 2 -9 352 9 1
3 -2 -9 356 8 1
3 -2 -9 350 8 1
2 3 9 363 8 1
-3 2 9 348 8 1
-3 2 9 361 8 1
3 -2 9 364 8 1
3 -4 -9 623 9 1
-4 -3 -9 678 9 1
-4 -3 -9 692 9 1
-3 4 -9 659 9 1
-4 -3 9 704 10 1
-3 4 9 672 9 1
3 -4 9 607 10 1
-3 4 9 690 9 1
-4 -1 -9 256 34 1
1 -4 -9 275 34 1
4 1 -9 234 33 1
1 -4 -9 250 33 1
1 -4 9 299 33 1
-1 4 9 274 33 1
1 -4 9 281 37 1
1 -4 9 278 33 1
4 -1 -9 1661 105 1
-4 1 -9 1566 105 1
1 4 -9 1578 105 1
-1 -4 -9 1642 105 1
-1 -4 -9 1607 105 1
4 -1 -9 1487 105 1
-4 1 9 1460 117 1
-1 -4 9 1525 116 1
4 -3 -9 328 54 1
-4 3 -9 356 54 1
4 -3 -9 327 54 1
-3 -4 -9 383 54 1
-3 -4 -9 421 54 1
3 4 9 409 54 1
-3 -4 9 440 59 1
-4 3 9 309 60 1
-4 3 9 335 53 1
-4 5 -9 2956 71 1
4 -5 -9 2806 71 1
4 -5 -9 2856 71 1
-4 5 9 2754 71 1
-4 5 9 2988 79 1
4 -5 9 2791 78 1
5 4 9 2903 71 1
-2 5 -9 2098 169 1
5 2 -9 2154 169 1
2 -5 -9 2148 169 1
-5 -2 -9 2091 169 1
-5 -2 -9 2045 169 1
-2 5 9 2052 187 1
2 -5 9 2193 169 1
-5 -2 9 2053 187 1
2 -5 9 2123 169 1
5 0 -9 803 98 1
0 -5 -9 762 98 1
0 -5 -9 862 99 1
-5 0 -9 831 99 1
0 5 -9 935 98 1
0 -5 9 877 109 1
5 0 9 916 99 1
0 5 9 839 98 1
5 -2 -9 5000 263 1
-5 2 -9 4889 263 1
5 -2 -9 5033 262 1
-2 -5 -9 5282 264 1
5 -2 9 5046 263 1
2 5 9 5048 265 1
-2 -5 9 5283 292 1
-4 -5 -9 7830 403 1
-4 -5 -9 7839 402 1
-5 4 9 8303 402 1
4 5 9 8609 404 1
-5 4 9 7980 402 1
5 -4 9 8341 403 1
-4 -5 9 8220 447 1
5 -6 -9 22826 821 1
-6 -5 -9 23170 823 1
-6 -5 -9 22982 823 1
5 -6 -9 24043 822 1
-5 6 -9 22500 823 1
-5 6 9 21597 822 1
5 -6 9 23403 907 1
-5 6 9 22000 911 1
5 -6 9 23731 907 1
-6 -5 9 22493 910 1
-6 -3 -9 1976 105 1
3 -6 -9 2052 105 1
6 3 -9 1928 104 1
-3 6 -9 2138 105 1
-3 6 9 2047 116 1
6 3 9 2208 105 1
3 -6 9 2111 105 1
-6 -1 -9 2608 140 1
6 1 -9 2245 139 1
1 -6 -9 2637 139 1
-1 6 -9 2502 139 1
-1 6 9 2613 139 1
1 -6 9 2551 154 1
-6 -1 9 2450 154 1
6 1 9 2328 139 1
6 -1 -9 899 38 1
6 -1 -9 908 38 1
-6 1 -9 1008 38 1
-1 -6 -9 1035 38 1
1 6 -9 1114 38 1
6 -1 9 981 38 1
1 6 9 1162 38 1
-1 -6 9 1160 42 1
-6 3 -9 62 22 1
6 -3 -9 190 22 1
-3 -6 9 241 24 1
6 -3 9 42 22 1
3 6 9 151 22 1
-5 -6 -9 3429 199 1
-6 5 -9 4017 199 1
-5 -6 -9 3612 199 1
6 -5 -9 4023 199 1
-5 -6 9 3485 220 1
-6 5 9 3873 199 1
6 -5 9 4125 199 1
-6 5 9 3984 199 1
5 6 9 3472 199 1
-6 7 -9 1191 38 1
6 -7 -9 1184 38 1
6 -7 -9 1138 38 1
-7 -6 -9 1107 38 1
6 -7 9 1070 38 1
-7 -6 9 1117 42 1
-6 7 9 1109 38 1
4 -7 -9 349 1 1
-4 7 -9 371 2 1
-7 -4 -9 339 1 1
4 -7 9 389 1 1
7 4 9 273 1 1
-4 7 9 337 1 1
-7 -2 -9 10751 508 1
-7 -2 -9 11782 509 1
2 -7 -9 11647 507 1
-2 7 9 11675 510 1
2 -7 9 11508 507 1
2 -7 9 11381 507 1
-2 7 9 11719 564 1
-7 0 -9 11476 425 1
0 -7 -9 11353 423 1
0 7 -9 10955 422 1
0 -7 -9 11133 424 1
-7 0 9 12171 471 1
0 -7 9 11297 467 1
7 0 9 12020 425 1
-7 2 -9 6961 216 1
7 -2 -9 7342 216 1
-2 -7 -9 6756 216 1
7 -2 -9 6876 216 1
2 7 -9 7458 216 1
-2 -7 -9 7092 216 1
7 -2 9 7225 216 1
-2 -7 9 7317 239 1
-7 2 9 6914 240 1
-4 -7 -9 2585 119 1
-4 -7 -9 2617 119 1
7 -4 -9 2484 119 1
-7 4 -9 2561 119 1
-4 -7 9 2383 132 1
4 7 9 2666 119 1
-6 -7 -9 4424 128 1
7 -6 -9 4194 127 1
-6 -7 -9 4333 128 1
7 -6 -9 4342 128 1
-7 6 9 4346 128 1
-7 6 9 4388 127 1
-6 -7 9 4414 141 1
6 7 9 4346 128 1
-7 8 -9 293 6 1
7 -8 -9 268 6 1
-8 -7 -9 267 5 1
-7 8 9 260 7 1
-8 -7 9 266 6 1
8 7 9 273 6 1
-7 8 9 269 5 1
7 -8 9 299 6 1
-8 -5 -9 4464 236 1
-8 -5 -9 4407 236 1
5 -8 -9 4807 237 1
-5 8 -9 4757 237 1
5 -8 9 4799 236 1
-5 8 9 5032 236 1
8 5 9 4287 237 1
-8 -3 -9 5247 186 1
3 -8 -9 5675 186 1
-8 -3 9 5800 206 1
-3 8 9 5603 206 1
-3 8 9 5849 186 1
3 -8 9 5489 186 1
1 -8 -9 7 4 1
-8 -1 -9 11 4 1
1 -8 -9 10 4 1
-8 -1 -9 13 3 1
-8 -1 9 7 4 1
-1 8 9 9 3 1
-1 8 9 13 4 1
8 1 9 11 4 1
-1 -8 -9 18123 612 1
-8 1 -9 16556 612 1
-1 -8 -9 17458 612 1
8 -1 -9 16082 609 1
8 -1 -9 16757 608 1
1 8 -9 17672 609 1
8 -1 9 17361 612 1
-8 3 -9 17 15 1
-3 -8 -9 12 14 1
-3 -8 -9 10 15 1
-3 -8 9 5 16 1
3 8 9 10 15 1
-8 3 9 18 16 1
-5 -8 -9 459 19 1
8 -5 -9 463 19 1
-8 5 -9 450 19 1
8 -5 9 454 19 1
5 8 9 443 19 1
-8 5 9 442 22 1
-8 7 -9 10480 370 1
-7 -8 -9 10750 370 1
8 -7 -9 10555 370 1
-7 -8 -9 10574 369 1
8 -7 9 10700 371 1
-7 -8 9 10717 409 1
-8 7 9 10412 370 1
7 8 9 10857 370 1
-9 -8 -9 100 1 1
8 -9 9 29 1 1
-8 9 9 29 2 1
-8 9 9 14 2 1
-6 9 -9 7034 199 1
6 -9 -9 7083 199 1
-9 -6 -9 6790 199 1
9 6 9 6791 199 1
6 -9 9 7322 199 1
-6 9 9 7038 199 1
-9 -4 -9 174 5 1
-4 9 -9 178 5 1
4 -9 -9 164 5 1
4 -9 9 182 4 1
-4 9 9 163 5 1
9 4 9 183 5 1
-4 9 9 172 5 1
-9 -4 9 150 5 1
-2 9 -9 7333 269 1
-9 -2 -9 6836 268 1
2 -9 -9 7042 268 1
2 -9 -9 7003 268 1
-9 -2 -9 7122 268 1
-2 9 9 6887 297 1
-2 9 9 7090 269 1
0 -9 -9 298 1 1
-9 0 -9 148 1 1
0 9 -9 475 1 1
0 -9 -9 305 1 1
0 9 9 311 1 1
9 -2 -9 14673 492 1
-2 -9 -9 15156 494 1
-9 2 -9 14191 494 1
-2 -9 -9 14776 494 1
2 9 -9 14516 492 1
-9 2 9 13814 547 1
9 -4 -9 102897 3749 1
-9 6 -9 5180 229 1
-6 -9 -9 5306 228 1
-6 -9 -9 5223 228 1
-9 6 9 4969 253 1
6 9 9 5044 229 1
-9 6 9 5313 228 1
-9 6 9 5263 228 1
-9 8 -9 125 4 1
9 -8 -9 131 5 1
-8 -9 -9 134 4 1
-8 -9 -9 144 4 1
8 9 9 122 4 1
-9 8 9 135 6 1
-9 8 9 144 4 1
-10 -9 -9 651 23 1
9 -10 -9 645 23 1
-9 10 -9 585 23 1
-9 10 9 659 23 1
10 9 9 665 23 1
-9 10 9 647 26 1
9 -10 9 633 23 1
-7 10 -9 2106 76 1
-10 -7 -9 2042 75 1
7 -10 -9 2092 75 1
10 7 9 2143 76 1
7 -10 9 1970 75 1
-7 10 9 2097 84 1
-10 -5 -9 165 8 1
-5 10 -9 151 9 1
-10 -5 -9 167 8 1
5 -10 -9 139 8 1
-10 -5 9 149 10 1
-5 10 9 148 8 1
10 5 9 159 8 1
5 -10 9 148 8 1
-3 10 -9 534 17 1
3 -10 -9 532 17 1
-10 -3 -9 509 17 1
-3 10 9 525 17 1
-3 10 9 497 19 1
3 -10 9 534 16 1
3 -10 9 555 16 1
-10 -3 9 551 19 1
-10 -1 -9 4 3 1
1 -10 -9 9 3 1
-10 -1 -9 4 2 1
10 1 9 6 3 1
-1 10 9 8 3 1
-10 -1 9 6 4 1
-1 -10 -9 17098 608 1
-10 1 -9 15479 607 1
-1 -10 -9 17028 607 1
-10 1 9 16801 674 1
1 10 9 16608 608 1
10 -1 9 17177 608 1
-3 -10 -9 2275 122 1
-3 -10 -9 2101 122 1
10 -3 -9 2223 122 1
-10 3 -9 2256 122 1
3 10 9 2312 122 1
10 -3 9 2268 122 1
-5 -10 -9 4 1 1
-5 -10 -9 6 2 1
10 -5 9 13 2 1
5 10 9 7 2 1
-10 5 9 10 2 1
-10 5 9 10 3 1
-10 7 -9 7233 269 1
-7 -10 -9 7415 268 1
-7 -10 -9 7207 268 1
-10 7 9 7304 268 1
-10 7 9 7428 268 1
7 10 9 6965 269 1
10 -7 9 7302 269 1
10 -9 9 213 7 1
-10 9 9 210 6 1
9 10 9 204 6 1
-10 9 9 195 8 1
-10 11 -9 832 38 1
-11 -10 -9 855 36 1
-10 11 -9 766 42 1
-11 -10 -9 837 37 1
-10 11 9 818 42 1
11 10 9 887 37 1
-10 11 9 826 41 1
-10 11 9 837 37 1
-8 11 -9 39 3 1
-11 -8 -9 48 3 1
-8 11 9 35 5 1
-8 11 9 27 3 1
-6 11 -9 812 18 1
6 -11 -9 773 17 1
-11 -6 -9 822 17 1
-11 -6 -9 821 17 1
-6 11 9 772 20 1
-6 11 9 779 21 1
6 -11 9 841 17 1
-11 -6 9 808 20 1
4 -11 -9 2114 73 1
-11 -4 -9 2160 73 1
-4 11 -9 2035 73 1
4 -11 -9 2269 73 1
11 4 9 2255 73 1
-11 -2 -9 3455 87 1
-2 11 -9 3455 88 1
2 -11 -9 3500 88 1
2 -11 -9 3638 88 1
-11 -2 -9 3390 88 1
-2 11 9 3496 88 1
11 2 9 3536 88 1
0 -11 -9 4324 162 1
0 11 -9 4126 162 1
0 -11 -9 4239 162 1
-11 0 -9 4545 180 1
-11 0 -9 4472 162 1
-11 0 9 4512 180 1
0 11 9 4441 162 1
-2 -11 -9 2719 107 1
2 11 -9 2673 107 1
-2 -11 -9 2622 107 1
11 -2 -9 2804 107 1
2 11 9 2598 107 1
-4 -11 -9 1860 64 1
-11 4 -9 1908 64 1
-4 -11 -9 1992 64 1
4 11 9 2049 64 1
-11 4 9 2084 72 1
-11 6 -9 1670 54 1
-6 -11 -9 1591 53 1
-11 6 -9 1561 60 1
6 11 9 1600 54 1
11 -6 9 1621 54 1
-8 -11 -9 1920 102 1
-11 8 -9 1668 103 1
-8 -11 -9 1798 102 1
-11 8 -9 1699 114 1
-11 8 9 1936 102 1
8 11 9 1861 103 1
-11 8 9 1895 102 1
-11 8 9 1719 114 1
-10 -11 -9 3970 164 1
-11 10 -9 3934 183 1
-10 -11 -9 4017 165 1
-11 10 -9 3969 165 1
-11 10 9 3994 164 1
-11 10 9 3927 183 1
-11 12 -9 0 3 1
11 -12 -9 0 4 1
-11 12 -9 0 4 1
-12 -11 -9 1 2 1
-11 12 9 1 3 1
-11 12 9 0 3 1
12 11 9 0 3 1
-9 12 -9 36 2 1
9 -12 -9 24 4 1
12 9 9 25 3 1
9 -12 9 52 3 1
-9 12 9 23 3 1
-9 12 9 23 2 1
-9 12 9 23 3 1
-7 12 -9 3008 113 1
7 -12 9 2982 113 1
-7 12 9 2816 113 1
7 -12 9 2945 115 1
12 7 9 3148 113 1
5 -12 -9 223 30 1
-5 12 -9 262 30 1
-12 -5 -9 283 30 1
5 -12 -9 256 30 1
5 -12 9 223 31 1
5 -12 9 268 29 1
12 5 9 275 30 1
-5 12 9 251 33 1
-12 -3 -9 109 4 1
-3 12 -9 100 5 1
-12 -3 -9 90 4 1
-3 12 9 114 6 1
12 3 9 107 4 1
-3 12 9 107 4 1
-12 -1 -9 2518 144 1
1 -12 -9 2357 129 1
1 -12 -9 2464 129 1
-12 -1 -9 2504 129 1
-1 12 -9 2379 129 1
-12 -1 -9 2330 129 1
-1 12 9 2536 129 1
-1 12 9 2407 143 1
-12 1 -9 345 17 1
-1 -12 -9 390 14 1
-1 -12 -9 408 14 1
-12 1 -9 385 14 1
-12 1 9 404 16 1
12 -1 9 377 14 1
-12 3 -9 10305 433 1
-3 -12 -9 10309 391 1
-12 3 -9 10371 391 1
12 -3 -9 10188 391 1
-3 -12 -9 9768 391 1
3 12 9 10930 391 1
12 -3 9 10542 391 1
-5 -12 -9 1881 82 1
-12 5 -9 1768 80 1
-12 5 9 1801 88 1
-12 5 9 1792 88 1
-7 -12 -9 2907 114 1
-12 7 -9 2929 124 1
-7 -12 -9 2964 111 1
-7 -12 -9 3082 111 1
7 12 9 2950 112 1
-9 -12 -9 469 18 1
-12 9 -9 397 18 1
-9 -12 -9 433 20 1
12 -9 -9 429 18 1
-12 9 -9 445 21 1
-12 9 9 471 21 1
12 -9 9 436 18 1
-12 9 9 462 21 1
9 12 9 442 18 1
12 -11 -9 70 8 1
-12 11 -9 64 10 1
-12 11 -9 62 7 1
-11 -12 -9 58 6 1
-12 11 9 66 8 1
12 -11 9 68 7 1
-12 11 9 65 6 1
11 12 9 56 8 1
-12 11 9 64 9 1
-12 13 -9 3668 165 1
-12 13 -9 3765 150 1
-12 13 9 3830 149 1
13 12 9 3833 149 1
-12 13 9 3963 165 1
-12 13 9 3981 165 1
12 -13 9 3849 149 1
-10 13 -9 1229 49 1
-13 -10 -9 1291 48 1
-10 13 -9 1287 54 1
10 -13 -9 1195 49 1
10 -13 9 1202 48 1
-10 13 9 1248 54 1
-10 13 9 1236 48 1
10 -13 9 1236 50 1
13 10 9 1298 49 1
8 -13 -9 41 2 1
-13 -8 -9 49 3 1
-8 13 9 38 3 1
13 8 9 47 2 1
8 -13 9 47 3 1
-13 -6 -9 0 2 1
6 -13 -9 4 3 1
6 -13 -9 1 2 1
6 -13 9 1 2 1
-6 13 9 1 2 1
-6 13 9 1 2 1
-6 13 9 2 3 1
-13 -4 -9 194 8 1
4 -13 -9 187 8 1
-4 13 -9 208 9 1
4 -13 -9 187 8 1
-13 -4 -9 191 8 1
4 -13 9 201 7 1
4 -13 9 204 9 1
-4 13 9 169 12 1
-4 13 9 191 9 1
4 -13 9 199 7 1
-13 -2 -9 557 27 1
2 -13 -9 576 27 1
-13 -2 -9 580 27 1
2 -13 -9 550 27 1
2 -13 9 550 28 1
13 2 9 579 27 1
-13 -2 9 573 30 1
0 -13 -9 1718 70 1
-13 0 -9 1719 70 1
-13 0 -9 1906 70 1
0 -13 -9 1828 70 1
-13 0 -9 1817 78 1
0 13 -9 1712 70 1
13 0 9 1831 70 1
-13 0 9 1829 78 1
0 13 9 1696 77 1
-13 0 9 1825 78 1
-2 -13 -9 3087 106 1
-2 -13 -9 3142 105 1
-13 2 -9 2955 118 1
-13 2 -9 2981 106 1
-13 2 9 3061 117 1
2 13 9 3039 106 1
-13 4 -9 129 13 1
-4 -13 -9 134 13 1
-4 -13 -9 143 13 1
-13 4 -9 131 16 1
-13 4 9 148 15 1
4 13 9 156 13 1
-13 6 -9 2119 83 1
-6 -13 -9 2009 74 1
-13 6 -9 2194 75 1
13 -6 -9 2169 75 1
-6 -13 -9 2086 74 1
-13 6 9 2262 83 1
6 13 9 2058 74 1
-8 -13 -9 2538 91 1
-13 8 -9 2605 102 1
-13 8 -9 2630 92 1
-8 -13 -9 2585 92 1
13 -8 -9 2525 92 1
-8 -13 -9 2525 94 1
13 -8 9 2604 92 1
-10 -13 -9 1942 75 1
-13 10 -9 2010 75 1
-13 10 -9 2085 83 1
10 13 9 1971 75 1
13 -10 9 1957 75 1
-12 -13 -9 5 2 1
-13 12 -9 3 2 1
-13 12 9 5 2 1
-13 12 9 2 3 1
-13 12 9 7 1 1
13 -12 9 4 2 1
12 13 9 14 3 1
13 -12 9 4 2 1
-13 14 -9 1301 57 1
13 -14 -9 1273 56 1
-14 -13 -9 1364 56 1
-13 14 -9 1337 62 1
14 13 9 1422 57 1
13 -14 9 1356 57 1
-13 14 9 1344 63 1
13 -14 9 1342 56 1
-13 14 9 1229 62 1
-13 14 9 1354 55 1
-11 14 -9 772 36 1
-11 14 -9 778 39 1
11 -14 -9 814 35 1
-14 -11 -9 780 35 1
-11 14 9 754 35 1
11 -14 9 821 35 1
-11 14 9 802 39 1
14 11 9 791 35 1
11 -14 9 819 36 1
-9 14 -9 494 18 1
9 -14 -9 495 21 1
9 -14 -9 519 18 1
-14 -9 -9 530 17 1
9 -14 9 509 18 1
9 -14 9 518 17 1
-9 14 9 463 17 1
-7 14 -9 791 20 1
7 -14 -9 784 22 1
-14 -7 -9 791 19 1
7 -14 9 817 18 1
-7 14 9 790 21 1
-7 14 9 835 19 1
-14 -5 -9 1 1 1
5 -14 -9 0 1 1
5 -14 -9 1 1 1
5 -14 -9 1 3 1
-5 14 -9 2 2 1
-14 -5 -9 2 1 1
-5 14 9 1 2 1
5 -14 9 1 2 1
14 5 9 2 1 1
-5 14 9 2 2 1
-14 -5 9 0 5 1
-3 14 -9 3498 150 1
3 -14 -9 3359 150 1
-14 -3 -9 3385 149 1
3 -14 -9 3356 150 1
-14 -3 -9 3353 149 1
3 -14 -9 3235 152 1
-3 14 9 3358 150 1
-3 14 9 3269 166 1
-14 -3 9 3203 166 1
3 -14 9 3179 151 1
14 3 9 3400 150 1
1 -14 -9 905 49 1
1 -14 -9 940 48 1
-1 14 -9 976 48 1
-14 -1 -9 927 47 1
-14 -1 -9 1010 54 1
-14 -1 -9 951 48 1
1 -14 -9 923 47 1
-14 -1 9 1041 53 1
1 -14 9 926 49 1
-1 14 9 971 48 1
14 1 9 950 48 1
-14 -1 9 997 55 1
-1 14 9 976 53 1
-14 -1 9 947 54 1
-1 -14 -9 71 3 1
-1 -14 -9 86 1 1
-1 -14 -9 71 1 1
1 14 -9 83 3 1
-14 1 -9 89 1 1
-14 1 -9 105 1 1
-14 1 -9 85 2 1
-14 1 9 106 3 1
14 -1 9 86 1 1
1 14 9 92 1 1
-1 -14 9 99 2 1
-3 -14 -9 100 22 1
-3 -14 -9 103 20 1
-14 3 9 107 23 1
-14 3 9 98 23 1
3 14 9 93 21 1
14 -3 9 118 21 1
-14 5 -9 727 35 1
-5 -14 -9 666 31 1
-5 -14 -9 697 33 1
-14 5 -9 671 31 1
14 -5 -9 671 31 1
14 -5 9 690 31 1
5 14 9 671 31 1
-5 -14 9 655 33 1
-7 -14 -9 3486 123 1
-7 -14 -9 3596 123 1
-7 -14 -9 3586 126 1
14 -7 -9 3686 124 1
-14 7 -9 3520 137 1
7 14 9 3585 124 1
-7 -14 9 3787 126 1
-9 -14 -9 317 15 1
-14 9 -9 315 13 1
-14 9 -9 330 15 1
14 -9 -9 314 13 1
-14 9 9 317 15 1
-11 -14 -9 1163 47 1
-14 11 -9 1134 47 1
-14 11 -9 1224 52 1
14 -11 -9 1172 47 1
-14 11 9 1192 52 1
14 -11 9 1200 47 1
14 -11 9 1187 48 1
11 14 9 1147 47 1
-13 -14 -9 683 30 1
-14 13 -9 719 31 1
-14 13 -9 754 34 1
14 -13 -9 766 31 1
-14 13 9 697 34 1
14 -13 9 808 31 1
13 14 9 669 31 1
14 -13 9 790 31 1
-14 15 -9 731 33 1
-14 15 -9 648 30 1
-15 -14 -9 668 30 1
14 -15 -9 718 30 1
-14 15 9 757 35 1
14 -15 9 667 29 1
14 -15 9 625 30 1
-14 15 9 693 29 1
12 -15 -9 417 20 1
-15 -12 -9 437 20 1
-12 15 -9 388 23 1
-12 15 -9 418 21 1
-12 15 9 427 23 1
-12 15 9 391 19 1
12 -15 9 437 21 1
15 12 9 456 21 1
12 -15 9 419 19 1
10 -15 -9 560 41 1
-10 15 -9 581 40 1
-10 15 -9 640 44 1
-15 -10 -9 651 39 1
10 -15 9 633 40 1
-10 15 9 624 45 1
-10 15 9 594 44 1
10 -15 9 651 39 1
-10 15 9 633 39 1
8 -15 -9 1158 43 1
8 -15 -9 1127 41 1
-15 -8 -9 1148 41 1
-8 15 -9 1157 42 1
-8 15 9 1101 41 1
8 -15 9 1122 40 1
15 8 9 1183 42 1
8 -15 9 1075 42 1
-8 15 9 1152 46 1
6 -15 -9 4039 123 1
-6 15 -9 4038 122 1
-15 -6 -9 4101 121 1
-6 15 9 4182 138 1
-6 15 9 3761 121 1
-6 15 9 4055 134 1
6 -15 9 3872 123 1
6 -15 9 3907 120 1
-15 -4 -9 1483 46 1
-4 15 -9 1492 47 1
4 -15 -9 1467 47 1
-15 -4 -9 1539 47 1
-15 -4 -9 1448 53 1
-4 15 9 1377 47 1
-15 -4 9 1426 53 1
-4 15 9 1493 54 1
-15 -4 9 1437 52 1
4 -15 9 1431 48 1
-2 15 -9 34 6 1
2 -15 -9 36 8 1
-15 -2 -9 36 4 1
2 -15 -9 24 4 1
2 -15 -9 38 4 1
-2 15 9 33 6 1
15 2 9 23 5 1
-15 -2 9 22 9 1
-15 -2 9 29 6 1
2 -15 9 24 6 1
-2 15 9 30 5 1
-15 -2 9 27 9 1
-15 0 -9 3957 144 1
-15 0 -9 4110 144 1
0 15 -9 3995 145 1
0 -15 -9 4097 145 1
-15 0 9 4216 161 1
-15 0 9 4198 161 1
0 -15 9 3916 146 1
0 15 9 4089 160 1
0 15 9 4003 145 1
15 0 9 3957 145 1
-15 2 -9 3967 156 1
-2 -15 -9 4108 156 1
-2 -15 -9 3960 159 1
-15 2 -9 4160 156 1
-15 2 -9 4239 174 1
-15 2 9 4222 174 1
15 -2 9 4089 157 1
-15 2 9 4251 174 1
-2 -15 9 4112 159 1
-4 -15 -9 4606 179 1
-4 -15 -9 4611 176 1
-4 -15 -9 4518 176 1
-15 4 -9 4448 176 1
-4 -15 9 4687 179 1
-15 4 9 4406 195 1
15 -4 9 4606 177 1
-15 4 9 4333 195 1
4 15 9 4682 176 1
-6 -15 -9 984 40 1
-15 6 -9 953 41 1
-15 6 -9 1055 46 1
6 15 9 927 41 1
15 -6 9 999 41 1
-15 6 9 1077 46 1
-6 -15 9 941 42 1
-8 -15 -9 311 15 1
-15 8 -9 313 15 1
-15 8 -9 311 13 1
15 -8 -9 297 14 1
-8 -15 -9 287 13 1
15 -8 9 292 13 1
8 15 9 317 13 1
-8 -15 9 281 17 1
-15 8 9 317 15 1
-10 -15 -9 386 19 1
-15 10 -9 364 17 1
-10 -15 -9 379 17 1
-15 10 9 384 19 1
15 -10 9 341 17 1
10 15 9 350 17 1
15 -12 -9 6 3 1
-15 12 -9 8 3 1
-15 12 -9 5 3 1
15 -12 9 5 2 1
-15 12 9 4 2 1
-15 12 9 6 4 1
12 15 9 7 3 1
15 -14 -9 200 14 1
-15 14 -9 175 14 1
-14 -15 -9 210 14 1
-15 14 -9 209 15 1
14 15 9 175 15 1
15 -14 9 215 14 1
-15 14 9 205 15 1
-15 14 9 212 19 1
15 -14 9 199 13 1
15 -16 -9 196 9 1
-15 16 -9 219 10 1
-15 16 -9 203 9 1
15 -16 9 221 8 1
15 -16 9 218 9 1
-15 16 9 196 10 1
13 -16 -9 13 6 1
-13 16 -9 2 3 1
-13 16 -9 4 3 1
13 -16 9 2 2 1
13 -16 9 3 2 1
16 13 9 2 4 1
-13 16 9 2 2 1
11 -16 -9 487 18 1
-16 -11 -9 502 19 1
-11 16 -9 565 21 1
11 -16 -9 510 21 1
-11 16 -9 545 19 1
-11 16 9 538 18 1
16 11 9 554 20 1
-11 16 9 567 22 1
11 -16 9 523 18 1
-11 16 9 567 23 1
11 -16 9 542 19 1
9 -16 -9 20 5 1
-9 16 -9 16 6 1
-16 -9 -9 16 5 1
9 -16 9 24 4 1
-9 16 9 16 8 1
-9 16 9 18 5 1
-9 16 9 15 7 1
16 9 9 14 6 1
-16 -7 -9 13 7 1
-7 16 -9 9 6 1
7 -16 -9 12 9 1
-16 -7 -9 11 5 1
-7 16 9 16 5 1
7 -16 9 10 6 1
-16 -7 9 7 6 1
7 -16 9 8 3 1
-7 16 9 16 8 1
5 -16 -9 2 2 1
-5 16 -9 3 3 1
5 -16 -9 2 3 1
-16 -5 -9 5 4 1
-16 -5 -9 2 3 1
-5 16 9 2 2 1
-16 -5 9 0 4 1
-5 16 9 4 4 1
16 5 9 4 3 1
5 -16 9 1 2 1
-5 16 9 6 3 1
-16 -3 -9 1969 76 1
-16 -3 -9 1914 76 1
3 -16 -9 1876 77 1
3 -16 -9 1909 78 1
-3 16 9 1837 77 1
-3 16 9 1953 85 1
16 3 9 1808 77 1
3 -16 9 1920 78 1
-16 -3 9 1963 86 1
1 -16 -9 2065 89 1
-16 -1 -9 2162 89 1
-1 16 -9 2024 90 1
1 -16 -9 2260 91 1
-16 -1 -9 2248 89 1
1 -16 -9 2199 89 1
-16 -1 9 2053 99 1
-16 -1 9 2129 101 1
16 1 9 2297 90 1
1 -16 9 2123 91 1
-16 1 -9 85 2 1
-16 1 -9 63 5 1
-1 -16 -9 127 2 1
1 16 9 127 2 1
1 16 9 146 2 1
-16 1 9 114 3 1
-16 1 9 125 2 1
-16 3 -9 1023 37 1
-3 -16 -9 1049 37 1
-3 -16 -9 1073 39 1
-3 -16 -9 994 38 1
-3 -16 9 1102 39 1
16 -3 9 1134 38 1
3 16 9 1036 38 1
-16 5 -9 471 18 1
-5 -16 -9 456 19 1
-5 -16 -9 452 17 1
-5 -16 -9 441 18 1
-16 5 -9 437 20 1
5 16 9 460 18 1
-5 -16 9 486 20 1
-16 5 9 449 20 1
16 -5 9 481 18 1
-7 -16 -9 20 2 1
-16 7 -9 19 2 1
-7 -16 -9 21 2 1
-16 7 -9 22 2 1
-16 7 9 19 3 1
7 16 9 18 2 1
-7 -16 9 17 3 1
-16 7 9 22 2 1
-16 9 -9 719 31 1
-16 9 -9 704 28 1
-9 -16 -9 692 28 1
16 -9 -9 700 28 1
9 16 9 682 28 1
-16 9 9 711 31 1
-16 9 9 702 31 1
-9 -16 9 639 30 1
-16 11 -9 753 34 1
-16 11 -9 739 37 1
-11 -16 -9 704 33 1
-16 11 9 755 38 1
11 16 9 719 34 1
16 -11 9 714 33 1
16 -11 9 713 34 1
-16 13 -9 1273 61 1
-13 -16 -9 1246 55 1
-16 13 -9 1206 55 1
16 -13 -9 1190 56 1
-16 13 9 1219 62 1
13 16 9 1115 56 1
16 -13 9 1187 56 1
-16 15 -9 1216 49 1
-16 15 -9 1202 45 1
16 -15 9 1197 44 1
-16 15 9 1111 50 1
16 -15 9 1120 45 1
-16 17 -9 731 34 1
16 -17 -9 712 31 1
-16 17 -9 718 31 1
-16 17 9 678 35 1
16 -17 9 692 30 1
-14 17 -9 6261 239 1
-14 17 -9 6648 263 1
-14 17 9 6370 237 1
14 -17 9 6036 237 1
14 -17 9 6495 240 1
12 -17 9 754 27 1
-12 17 9 725 27 1
17 12 9 753 29 1
12 -17 9 765 28 1
-10 17 -9 852 30 1
10 -17 -9 814 30 1
10 -17 9 830 29 1
10 -17 9 803 27 1
-10 17 9 837 33 1
17 10 9 880 30 1
-10 17 9 819 28 1
-17 -8 -9 244 21 1
8 -17 -9 214 18 1
8 -17 -9 216 20 1
-8 17 -9 212 19 1
17 8 9 235 19 1
-8 17 9 205 21 1
8 -17 9 230 17 1
-8 17 9 207 21 1
8 -17 9 245 19 1
-8 17 9 202 18 1
-17 -6 -9 319 18 1
6 -17 -9 279 14 1
-6 17 -9 277 16 1
-17 -6 -9 280 14 1
6 -17 -9 289 17 1
-17 -6 9 262 19 1
17 6 9 294 16 1
-6 17 9 318 15 1
-6 17 9 314 17 1
-17 -4 -9 8 2 1
4 -17 -9 3 2 1
-4 17 -9 9 3 1
17 4 9 5 2 1
-4 17 9 2 4 1
-17 -4 9 6 4 1
-4 17 9 14 3 1
-17 -2 -9 232 23 1
-17 -2 -9 246 19 1
2 -17 -9 283 21 1
2 -17 -9 259 19 1
-17 -2 -9 261 20 1
-2 17 9 281 22 1
-17 -2 9 247 24 1
-17 -2 9 255 23 1
-17 -2 9 254 23 1
2 -17 9 248 21 1
17 2 9 241 20 1
-2 17 9 274 20 1
-17 0 -9 12 4 1
0 -17 -9 9 4 1
0 -17 -9 6 6 1
-17 0 -9 19 3 1
0 -17 -9 16 4 1
0 17 9 11 4 1
0 17 9 16 6 1
-17 0 9 13 6 1
17 0 9 17 5 1
-17 2 -9 32 6 1
-17 2 -9 24 2 1
-2 -17 -9 36 4 1
-2 -17 -9 27 3 1
2 17 9 34 5 1
-17 2 9 38 6 1
-2 -17 9 26 3 1
17 -2 9 38 5 1
-17 4 -9 48 7 1
-4 -17 -9 58 9 1
-4 -17 -9 55 8 1
-4 -17 -9 54 6 1
-17 4 -9 58 9 1
17 -4 9 58 8 1
4 17 9 49 8 1
-17 4 9 43 9 1
-4 -17 9 64 10 1
-17 4 9 44 9 1
-6 -17 -9 60 3 1
-17 6 -9 76 5 1
-17 6 -9 59 7 1
-6 -17 -9 66 7 1
-6 -17 -9 59 5 1
-17 6 9 55 6 1
17 -6 9 54 6 1
6 17 9 78 6 1
-17 6 9 65 7 1
-6 -17 9 75 9 1
17 -8 -9 351 14 1
-8 -17 -9 343 12 1
-17 8 -9 311 12 1
-17 8 -9 344 14 1
-8 -17 -9 364 14 1
-17 8 9 355 14 1
-8 -17 9 354 15 1
8 17 9 346 12 1
17 -8 9 333 12 1
-10 -17 -9 176 8 1
17 -10 -9 185 9 1
-10 -17 -9 200 6 1
-17 10 -9 179 6 1
-17 10 -9 185 8 1
-17 10 9 163 7 1
-17 10 9 172 9 1
17 -10 9 166 6 1
17 -10 9 143 8 1
10 17 9 176 8 1
-12 -17 -9 441 13 1
-17 12 -9 403 15 1
17 -12 -9 449 14 1
-17 12 -9 402 13 1
17 -12 9 395 13 1
17 -12 9 400 14 1
-17 12 9 403 14 1
12 17 9 414 14 1
-17 14 -9 118 12 1
17 -14 -9 107 12 1
14 17 9 109 13 1
-17 14 9 125 13 1
-17 14 9 99 11 1
17 -14 9 119 11 1
-17 16 -9 3473 138 1
17 -16 -9 3192 138 1
-17 16 -9 3500 152 1
17 -16 9 3458 138 1
17 -16 9 3381 137 1
-17 18 -9 276 14 1
17 -18 -9 280 15 1
-18 -17 -9 253 15 1
17 -18 9 266 13 1
-17 18 9 267 15 1
-15 18 -9 306 15 1
-18 -15 -9 334 18 1
15 -18 -9 316 15 1
15 -18 9 299 15 1
-15 18 9 330 17 1
15 -18 9 330 14 1
-18 -13 -9 272 15 1
13 -18 9 247 12 1
-13 18 9 288 14 1
-18 -11 -9 929 48 1
-11 18 -9 875 43 1
11 -18 -9 930 44 1
11 -18 -9 914 42 1
11 -18 9 915 41 1
11 -18 9 992 43 1
18 11 9 907 43 1
-11 18 9 912 42 1
9 -18 -9 474 17 1
9 -18 -9 460 19 1
-18 -9 -9 421 20 1
-9 18 -9 459 18 1
9 -18 9 476 17 1
-9 18 9 456 20 1
-9 18 9 451 17 1
18 9 9 416 18 1
7 -18 -9 959 35 1
-7 18 -9 951 36 1
-18 -7 -9 919 40 1
7 -18 -9 969 37 1
-18 -7 9 877 40 1
7 -18 9 970 36 1
-7 18 9 916 35 1
-7 18 9 1003 41 1
18 7 9 943 36 1
5 -18 -9 907 49 1
-5 18 -9 891 50 1
-5 18 9 865 57 1
-5 18 9 881 49 1
18 5 9 847 50 1
-5 18 9 840 55 1
5 -18 9 932 50 1
3 -18 -9 1042 43 1
3 -18 -9 927 40 1
18 3 9 978 41 1
-3 18 9 953 45 1
-3 18 9 936 41 1
-18 -1 -9 918 38 1
1 -18 -9 946 40 1
1 -18 -9 973 38 1
-18 -1 -9 946 43 1
-1 18 -9 944 39 1
-18 -1 9 1059 44 1
-1 18 9 967 38 1
18 1 9 875 39 1
1 -18 9 954 39 1
-1 -18 -9 5995 248 1
-1 -18 -9 5959 248 1
-18 1 -9 6110 248 1
-18 1 -9 6253 248 1
-18 1 9 6282 282 1
1 18 9 6326 249 1
-18 1 9 5720 275 1
1 18 9 6119 275 1
-18 1 9 6393 276 1
18 -1 9 6271 249 1
-1 -18 9 6243 251 1
-3 -18 -9 860 35 1
-18 3 -9 787 39 1
-18 3 -9 877 34 1
-3 -18 -9 807 37 1
-3 -18 -9 884 34 1
-18 3 -9 827 36 1
3 18 9 873 35 1
-3 -18 9 869 36 1
18 -3 9 835 36 1
3 18 9 829 39 1
-5 -18 -9 122 5 1
-5 -18 -9 132 8 1
-5 -18 -9 118 7 1
-18 5 -9 114 8 1
-18 5 -9 124 6 1
-18 5 9 114 8 1
18 -5 9 111 7 1
-5 -18 9 128 9 1
-18 5 9 134 9 1
5 18 9 122 7 1
-18 7 -9 203 12 1
-7 -18 -9 176 11 1
-18 7 -9 197 10 1
-7 -18 -9 204 12 1
-18 7 9 184 12 1
-7 -18 9 176 14 1
18 -7 9 197 11 1
7 18 9 196 11 1
-18 7 9 172 13 1
-9 -18 -9 38 7 1
-18 9 -9 37 6 1
-18 9 -9 40 5 1
18 -9 9 25 5 1
-9 -18 9 54 10 1
18 -9 9 38 9 1
9 18 9 42 7 1
-18 9 9 38 6 1
18 -11 -9 3 4 1
-18 11 -9 1 3 1
-11 -18 -9 2 6 1
18 -11 9 2 5 1
-18 11 9 1 6 1
11 18 9 1 4 1
-18 13 -9 730 32 1
18 -13 9 692 29 1
-18 13 9 754 32 1
13 18 9 667 30 1
-18 15 -9 741 35 1
18 -15 -9 695 36 1
-18 15 -9 717 39 1
-18 15 9 719 40 1
18 -15 9 716 35 1
18 -15 9 745 35 1
-18 17 -9 29 5 1
18 -17 -9 19 5 1
-18 17 -9 38 7 1
-17 -18 -9 16 5 1
-18 17 9 32 5 1
18 -17 9 42 6 1
18 -17 9 37 6 1
-18 19 9 298 16 1
18 -19 9 312 14 1
-16 19 -9 130 9 1
-19 -16 -9 114 8 1
16 -19 -9 117 9 1
16 -19 9 111 8 1
16 -19 9 101 8 1
-16 19 9 137 8 1
-19 -14 -9 25 3 1
14 -19 -9 15 3 1
-14 19 -9 38 3 1
14 -19 9 38 2 1
-14 19 9 16 3 1
14 -19 9 27 3 1
-14 19 9 19 3 1
12 -19 -9 727 32 1
-12 19 -9 731 33 1
12 -19 -9 745 34 1
-19 -12 -9 764 37 1
-12 19 9 730 37 1
-12 19 9 756 32 1
12 -19 9 765 32 1
-19 -10 -9 2210 104 1
10 -19 -9 2364 93 1
-10 19 -9 2266 94 1
19 10 9 2317 94 1
-10 19 9 2324 106 1
10 -19 9 2294 94 1
-10 19 9 2425 93 1
-19 -8 -9 229 15 1
-8 19 -9 241 14 1
8 -19 -9 261 14 1
8 -19 -9 268 12 1
-8 19 9 280 16 1
-19 -8 9 240 18 1
8 -19 9 251 13 1
19 8 9 288 15 1
-8 19 9 264 13 1
6 -19 -9 3 3 1
-19 -6 -9 1 2 1
-6 19 -9 6 4 1
6 -19 -9 4 2 1
-6 19 9 2 2 1
6 -19 9 1 2 1
19 6 9 6 3 1
-19 -6 9 2 4 1
-6 19 9 4 4 1
4 -19 -9 656 27 1
-4 19 -9 710 29 1
4 -19 -9 681 28 1
-19 -4 -9 599 31 1
19 4 9 636 28 1
-19 -4 9 673 31 1
4 -19 9 660 28 1
-2 19 -9 283 19 1
2 -19 -9 342 19 1
2 -19 -9 327 17 1
-19 -2 9 306 20 1
-2 19 9 339 20 1
-2 19 9 312 17 1
2 -19 9 312 18 1
19 2 9 303 18 1
-19 -2 9 283 21 1
0 -19 -9 1230 37 1
0 -19 -9 1276 39 1
0 19 9 1171 38 1
0 -19 9 1182 39 1
-19 0 9 1292 44 1
-19 0 9 1294 43 1
0 19 9 1170 42 1
-19 2 -9 597 30 1
-2 -19 -9 627 26 1
-2 -19 -9 630 28 1
-19 2 -9 654 25 1
2 19 9 582 27 1
2 19 9 591 30 1
-19 2 9 556 31 1
19 -2 9 621 27 1
-2 -19 9 638 28 1
-19 2 9 650 31 1
-19 4 -9 734 34 1
-19 4 -9 803 29 1
-4 -19 -9 830 30 1
-19 4 -9 763 30 1
-4 -19 -9 747 28 1
-4 -19 -9 766 31 1
-19 4 9 796 34 1
-19 4 9 767 34 1
19 -4 9 785 31 1
-4 -19 9 814 31 1
4 19 9 738 30 1
-6 -19 -9 4 2 1
-19 6 -9 2 2 1
-19 6 -9 5 3 1
-6 -19 -9 4 3 1
-19 6 -9 2 4 1
-19 6 9 7 4 1
19 -6 9 0 3 1
-6 -19 9 8 3 1
6 19 9 3 2 1
-19 6 9 11 2 1
-19 8 -9 73 5 1
-8 -19 -9 75 7 1
-19 8 -9 53 6 1
-8 -19 -9 52 5 1
-8 -19 9 62 8 1
-19 8 9 59 6 1
19 -8 9 70 10 1
19 -8 9 65 6 1
8 19 9 56 7 1
-19 8 9 42 6 1
19 -10 -9 35 11 1
-19 10 -9 53 6 1
-19 10 -9 55 7 1
-10 -19 -9 40 8 1
10 19 9 32 9 1
-19 10 9 63 12 1
19 -10 9 46 7 1
-10 -19 9 33 11 1
-19 10 9 35 7 1
19 -10 9 37 9 1
-19 12 -9 7 2 1
19 -12 -9 19 5 1
-19 12 -9 11 3 1
19 -12 9 6 2 1
-19 12 9 12 2 1
19 -12 9 8 3 1
19 -14 -9 21 5 1
-19 14 -9 25 6 1
-19 14 -9 30 7 1
19 -14 9 33 7 1
-19 14 9 21 6 1
19 -16 -9 0 4 1
-19 16 -9 4 3 1
-19 16 -9 1 2 1
19 -16 9 1 3 1
19 -16 9 2 3 1
-19 16 9 0 2 1
19 -18 9 241 10 1
-19 18 9 270 12 1
-20 -19 -9 468 20 1
-19 20 9 467 20 1
19 -20 9 442 18 1
-20 -17 -9 318 16 1
17 -20 9 327 14 1
-17 20 9 361 16 1
15 -20 -9 810 35 1
-20 -15 -9 856 39 1
-15 20 -9 830 35 1
15 -20 9 836 35 1
-15 20 9 867 39 1
-20 -13 -9 1246 53 1
-13 20 -9 1239 48 1
13 -20 -9 1277 47 1
-13 20 9 1230 47 1
-13 20 9 1238 54 1
13 -20 9 1307 48 1
-20 -11 -9 486 21 1
11 -20 -9 573 17 1
-11 20 -9 561 19 1
11 -20 -9 576 20 1
11 -20 9 562 18 1
-11 20 9 559 18 1
-11 20 9 544 21 1
9 -20 -9 146 9 1
-20 -9 -9 139 11 1
9 -20 -9 146 11 1
-9 20 -9 122 11 1
-9 20 9 137 9 1
9 -20 9 127 9 1
-9 20 9 143 12 1
7 -20 -9 410 24 1
7 -20 -9 439 26 1
-20 -7 -9 423 29 1
-7 20 -9 378 26 1
-7 20 9 405 29 1
7 -20 9 427 25 1
-7 20 9 405 25 1
-20 -7 9 449 29 1
5 -20 -9 1589 62 1
-5 20 -9 1448 62 1
-20 -5 -9 1588 68 1
5 -20 -9 1566 60 1
20 5 9 1560 61 1
5 -20 9 1537 61 1
-5 20 9 1525 61 1
-20 -5 9 1515 68 1
3 -20 -9 417 16 1
3 -20 -9 394 14 1
-20 -3 -9 429 17 1
-20 -3 9 401 18 1
20 3 9 429 16 1
-20 -3 9 376 17 1
3 -20 9 412 15 1
-20 -1 -9 1595 75 1
1 -20 -9 1622 67 1
1 -20 -9 1694 69 1
-20 -1 9 1681 75 1
1 -20 9 1713 68 1
-1 20 9 1663 68 1
20 1 9 1620 68 1
-20 -1 9 1613 77 1
-1 -20 -9 287 12 1
-1 -20 -9 286 14 1
1 20 9 281 16 1
-1 -20 9 295 13 1
-20 1 9 240 15 1
20 -1 9 329 14 1
20 -3 9 16 3 1
3 20 9 24 5 1
-3 -20 9 17 3 1
3 20 9 19 5 1
-5 -20 -9 322 16 1
-20 5 -9 295 16 1
-5 -20 9 321 15 1
-20 5 9 328 16 1
20 -5 9 292 15 1
5 20 9 272 17 1
5 20 9 297 15 1
-20 7 -9 41 2 1
-7 -20 -9 36 2 1
-20 7 -9 66 2 1
7 20 9 21 3 1
-20 7 9 31 2 1
-7 -20 9 45 3 1
20 -7 9 45 3 1
-9 -20 -9 70 9 1
-20 9 -9 76 9 1
-20 9 -9 88 7 1
-9 -20 9 79 11 1
-20 9 9 72 8 1
20 -9 9 80 8 1
20 -9 9 80 11 1
9 20 9 85 10 1
20 -11 -9 52 5 1
-20 11 -9 33 2 1
-20 11 -9 40 3 1
11 20 9 37 4 1
20 -11 9 36 3 1
20 -11 9 36 3 1
-20 11 9 34 2 1
-20 11 9 21 2 1
-20 13 -9 281 21 1
20 -13 -9 245 23 1
-20 13 -9 253 19 1
20 -13 9 279 20 1
20 -13 9 261 19 1
-20 13 9 271 22 1
-20 15 -9 313 15 1
20 -15 -9 291 18 1
20 -15 9 325 15 1
-20 15 9 289 15 1
-20 15 9 303 16 1
-17 -20 -9 388 22 1
-20 17 -9 418 21 1
20 -17 9 400 19 1
-20 17 9 377 22 1
-19 -20 -9 270 14 1
20 -19 9 258 12 1
-20 19 9 284 14 1
-18 21 9 201 11 1
-21 -16 -9 639 27 1
16 -21 9 607 23 1
-16 21 9 640 26 1
14 -21 -9 33 6 1
-14 21 -9 22 4 1
14 -21 9 18 2 1
-14 21 9 20 2 1
12 -21 -9 194 11 1
12 -21 -9 195 14 1
-12 21 -9 161 13 1
-12 21 9 184 12 1
12 -21 9 166 11 1
-10 21 -9 444 21 1
10 -21 -9 415 19 1
-21 -10 -9 448 23 1
10 -21 -9 404 21 1
-10 21 9 449 20 1
10 -21 9 445 20 1
-10 21 9 429 23 1
8 -21 -9 1268 41 1
8 -21 -9 1205 40 1
-21 -8 -9 1130 45 1
-8 21 -9 1256 42 1
8 -21 9 1261 41 1
-8 21 9 1217 40 1
-8 21 9 1297 47 1
6 -21 -9 23 5 1
6 -21 -9 31 7 1
-21 -6 -9 22 7 1
-6 21 9 29 6 1
6 -21 9 29 6 1
4 -21 -9 3202 127 1
-21 -4 -9 3285 139 1
4 -21 -9 3223 124 1
-4 21 9 3210 125 1
4 -21 9 3213 126 1
-21 -4 9 2988 138 1
2 -21 -9 532 18 1
-21 -2 -9 513 22 1
2 -21 -9 546 21 1
-21 -2 9 504 23 1
-21 -2 9 512 22 1
-2 21 9 518 20 1
2 -21 9 504 20 1
-21 0 -9 931 51 1
0 -21 -9 1033 45 1
0 -21 -9 1074 47 1
0 21 9 997 46 1
-21 0 9 1012 51 1
0 -21 9 1028 47 1
-21 0 9 986 52 1
-2 -21 -9 777 36 1
-21 2 -9 776 39 1
-21 2 9 795 40 1
2 21 9 767 35 1
-2 -21 9 750 35 1
-4 -21 -9 17 3 1
-21 4 -9 8 3 1
21 -4 9 12 3 1
-21 4 9 10 3 1
-4 -21 9 9 2 1
4 21 9 6 3 1
-21 4 9 14 3 1
-6 -21 -9 10 3 1
6 21 9 14 6 1
21 -6 9 15 3 1
-6 -21 9 10 3 1
6 21 9 15 3 1
-21 6 9 11 3 1
-21 8 -9 21 2 1
-8 -21 -9 22 3 1
8 21 9 18 4 1
8 21 9 33 6 1
-21 8 9 22 2 1
-21 8 9 42 6 1
-8 -21 9 24 3 1
-21 10 -9 358 14 1
-21 10 -9 343 17 1
-21 10 9 381 18 1
-21 10 9 331 17 1
-10 -21 9 341 17 1
21 -10 9 386 16 1
10 21 9 342 17 1
21 -12 -9 125 16 1
-21 12 -9 130 11 1
-21 12 9 112 10 1
-21 12 9 115 11 1
21 -12 9 134 10 1
-21 14 -9 20 2 1
-21 14 -9 41 4 1
21 -14 -9 31 6 1
-21 14 9 21 1 1
21 -14 9 18 3 1
-21 14 9 31 2 1
-21 16 -9 421 19 1
-16 -21 -9 376 20 1
-21 16 9 422 20 1
-21 18 9 47 6 1
17 -22 9 35 5 1
-17 22 9 41 6 1
-22 -15 -9 100 7 1
-15 22 9 122 7 1
15 -22 9 100 6 1
-22 -13 -9 78 7 1
-13 22 -9 60 9 1
13 -22 9 75 7 1
-13 22 9 65 7 1
11 -22 -9 562 25 1
11 -22 -9 612 26 1
-11 22 -9 517 26 1
-11 22 9 556 25 1
-11 22 9 582 28 1
11 -22 9 574 25 1
-22 -9 -9 0 3 1
9 -22 -9 1 3 1
9 -22 -9 2 2 1
-9 22 -9 3 4 1
-9 22 9 1 3 1
9 -22 9 4 2 1
-22 -7 -9 1067 48 1
7 -22 -9 1045 43 1
-7 22 -9 951 44 1
7 -22 -9 1045 42 1
-7 22 9 1042 42 1
7 -22 9 1012 43 1
5 -22 -9 86 6 1
-22 -5 -9 74 8 1
-5 22 -9 67 11 1
5 -22 -9 88 8 1
22 5 9 68 11 1
5 -22 9 79 7 1
-5 22 9 72 7 1
-22 -5 9 89 10 1
-3 22 -9 597 30 1
-22 -3 9 623 31 1
22 3 9 646 30 1
-22 -1 -9 5582 234 1
1 -22 -9 5392 210 1
1 -22 -9 5631 214 1
1 -22 9 5441 213 1
-1 22 9 5291 211 1
-22 -1 9 5171 234 1
-22 1 -9 364 18 1
-1 -22 -9 362 17 1
-22 1 9 373 19 1
22 -1 9 410 17 1
1 22 9 365 16 1
-22 1 9 387 19 1
-3 -22 -9 258 13 1
-22 3 -9 247 14 1
-22 3 9 265 14 1
-22 3 9 254 14 1
-3 -22 9 245 13 1
-22 5 -9 99 10 1
-5 -22 -9 103 10 1
22 -5 9 108 10 1
5 22 9 101 10 1
-22 5 9 117 10 1
-5 -22 9 106 10 1
-22 5 9 119 11 1
-7 -22 -9 64 7 1
-22 7 -9 79 7 1
-22 7 9 69 8 1
22 -7 9 85 8 1
-7 -22 9 65 8 1
-22 7 9 81 7 1
7 22 9 57 9 1
-9 -22 -9 1 3 1
-22 9 -9 3 2 1
9 22 9 3 5 1
-22 9 9 0 2 1
-9 -22 9 1 3 1
22 -9 9 3 3 1
-22 9 9 1 3 1
22 -11 9 10 4 1
-22 13 9 75 5 1
22 -13 9 57 7 1
-22 13 9 73 6 1
-22 15 -9 39 4 1
-22 15 9 36 4 1
-17 -22 -9 31 5 1
-22 17 9 41 4 1
-23 -16 -9 49 5 1
16 -23 9 55 4 1
-16 23 9 45 6 1
-23 -14 -9 200 11 1
14 -23 9 193 9 1
-14 23 9 210 11 1
12 -23 -9 103 9 1
-23 -12 -9 90 9 1
-12 23 9 87 10 1
10 -23 -9 314 11 1
10 -23 -9 317 13 1
-23 -10 -9 314 13 1
-10 23 9 311 12 1
10 -23 9 307 12 1
8 -23 -9 491 23 1
-23 -8 -9 501 27 1
-8 23 -9 507 26 1
8 -23 -9 501 25 1
-8 23 9 504 24 1
8 -23 9 483 24 1
6 -23 -9 65 7 1
-6 23 -9 65 12 1
-23 -6 -9 69 9 1
-23 -6 9 85 10 1
6 -23 9 52 7 1
-6 23 9 50 7 1
4 -23 -9 601 21 1
4 -23 -9 619 23 1
-23 -4 -9 603 25 1
-4 23 -9 571 26 1
23 4 9 618 25 1
-4 23 9 616 22 1
4 -23 9 595 23 1
-23 -4 9 602 25 1
2 -23 -9 5 2 1
-23 -2 -9 20 3 1
23 2 9 22 5 1
-23 -2 9 13 4 1
2 -23 9 8 2 1
-23 -2 9 13 3 1
-2 23 9 6 3 1
-23 0 -9 119 10 1
0 -23 -9 125 9 1
0 -23 9 120 9 1
23 0 9 137 11 1
0 23 9 130 9 1
-23 0 9 101 11 1
-2 -23 -9 450 17 1
-23 2 -9 435 18 1
-2 -23 9 443 17 1
-23 2 9 471 18 1
-23 2 9 417 18 1
-4 -23 -9 714 26 1
-23 4 -9 667 28 1
-4 -23 9 700 26 1
-23 4 9 618 28 1
4 23 9 642 26 1
-23 4 9 640 28 1
-23 6 -9 296 17 1
-6 -23 -9 287 16 1
-23 6 9 323 18 1
23 -6 9 269 17 1
-23 6 9 292 17 1
-6 -23 9 303 16 1
6 23 9 273 17 1
-23 8 -9 173 12 1
-8 -23 -9 206 12 1
-23 8 9 143 12 1
23 -8 9 152 12 1
8 23 9 160 14 1
-8 -23 9 195 12 1
-23 10 -9 8 2 1
-23 10 9 1 2 1
23 -10 9 5 4 1
-23 12 -9 258 11 1
23 -12 9 220 13 1
-23 12 9 245 12 1
-23 12 9 233 12 1
-23 14 -9 2259 105 1
-23 14 9 2281 105 1
-16 -23 -9 237 13 1
-23 16 -9 222 13 1
-23 16 9 239 13 1
-24 -13 -9 1 2 1
13 -24 9 1 1 1
-24 -11 -9 36 5 1
11 -24 -9 42 6 1
11 -24 9 30 4 1
-24 -9 -9 213 10 1
9 -24 -9 241 11 1
9 -24 9 247 10 1
-7 24 -9 494 26 1
7 -24 -9 573 23 1
7 -24 -9 581 24 1
-24 -7 -9 544 26 1
-7 24 9 540 23 1
7 -24 9 574 24 1
5 -24 -9 1135 47 1
-5 24 -9 1128 51 1
5 -24 -9 1234 49 1
-5 24 9 1186 48 1
5 -24 9 1211 48 1
-24 -5 9 1235 53 1
3 -24 -9 1607 60 1
-24 -3 -9 1563 66 1
-3 24 9 1542 59 1
3 -24 9 1582 60 1
1 -24 -9 101 2 1
-24 -1 -9 125 2 1
-24 -1 9 143 3 1
24 1 9 104 5 1
-1 24 9 121 3 1
1 -24 9 144 2 1
-24 1 -9 170 11 1
-1 -24 -9 178 11 1
-1 -24 9 167 10 1
1 24 9 137 11 1
-24 1 9 170 12 1
24 -1 9 127 13 1
-24 3 -9 1298 61 1
-24 3 9 1364 61 1
3 24 9 1238 55 1
-3 -24 9 1342 55 1
-5 -24 -9 5 2 1
-24 5 9 8 2 1
-5 -24 9 3 2 1
5 24 9 5 4 1
24 -5 9 10 4 1
-24 7 -9 1 2 1
-7 -24 -9 1 2 1
7 24 9 2 5 1
-24 7 9 1 2 1
-7 -24 9 4 2 1
24 -7 9 0 4 1
-24 7 9 0 2 1
-24 9 -9 133 6 1
-9 -24 9 142 7 1
-24 9 9 167 7 1
-24 9 9 142 7 1
24 -9 9 122 10 1
-24 11 -9 130 8 1
-24 11 9 116 8 1
-24 11 9 121 8 1
-24 13 -9 183 9 1
-24 13 9 180 10 1
-24 13 9 191 10 1
-25 -12 -9 8 2 1
12 -25 -9 7 2 1
12 -25 9 5 1 1
10 -25 -9 188 9 1
-25 -10 -9 194 10 1
10 -25 9 173 8 1
8 -25 -9 50 5 1
-25 -8 -9 56 6 1
8 -25 9 45 4 1
-25 -6 -9 414 19 1
6 -25 9 384 17 1
-25 -6 9 409 19 1
-6 25 9 377 17 1
4 -25 -9 117 7 1
-25 -4 -9 109 7 1
-4 25 9 101 8 1
-25 -4 9 109 7 1
4 -25 9 121 7 1
-25 -2 -9 1602 70 1
2 -25 -9 1588 64 1
-25 -2 9 1531 70 1
2 -25 9 1519 64 1
-25 0 -9 482 21 1
0 -25 -9 486 20 1
-25 0 9 506 21 1
0 -25 9 535 20 1
-25 0 9 532 22 1
25 0 9 439 23 1
-25 2 -9 762 31 1
-2 -25 -9 752 28 1
2 25 9 693 29 1
-25 2 9 728 31 1
-25 2 9 760 30 1
25 -2 9 699 30 1
-2 -25 9 755 28 1
-25 4 -9 63 7 1
-4 -25 -9 95 9 1
-4 -25 9 68 8 1
25 -4 9 58 12 1
-25 4 9 83 7 1
-25 4 9 76 7 1
4 25 9 75 11 1
-6 -25 -9 40 7 1
-25 6 9 52 5 1
-25 6 9 48 5 1
-25 8 -9 1256 52 1
-25 8 9 1292 52 1
-8 -25 9 1252 47 1
-25 8 9 1254 53 1
-25 10 -9 34 4 1
-25 10 9 22 4 1
-10 -25 9 21 3 1
-25 12 -9 412 21 1
9 -26 -9 20 2 1
-26 -9 -9 19 2 1
9 -26 9 16 1 1
-26 -7 -9 2 2 1
7 -26 -9 1 1 1
5 -26 -9 453 21 1
-26 -5 -9 449 23 1
-26 -5 9 444 23 1
5 -26 9 463 21 1
3 -26 -9 188 11 1
-26 -3 -9 195 12 1
-26 -3 9 208 12 1
-26 -1 -9 30 4 1
-26 -1 9 28 5 1
-26 1 -9 117 7 1
-26 1 9 140 8 1
-26 1 9 122 7 1
-26 3 -9 309 14 1
-26 3 9 336 14 1
-26 3 9 319 15 1
-3 -26 9 268 13 1
-26 5 -9 220 13 1
-5 -26 -9 217 13 1
-5 -26 9 215 12 1
-26 5 9 209 14 1
-26 7 -9 6 2 1
-7 -26 9 4 2 1
-26 7 9 5 2 1
-26 7 9 6 2 1
-26 9 -9 387 23 1
-26 9 9 384 23 1
-9 -26 9 401 21 1
-26 9 9 384 23 1
8 -27 -9 198 9 1
-27 -8 -9 179 10 1
8 -27 9 189 9 1
6 -27 -9 266 12 1
-27 -6 -9 256 13 1
6 -27 9 255 11 1
-27 -4 -9 114 8 1
4 -27 -9 89 7 1
4 -27 9 95 7 1
-27 -4 9 113 8 1
2 -27 -9 5 2 1
-27 -2 9 9 2 1
-27 0 -9 97 6 1
0 -27 -9 96 6 1
-27 0 9 101 7 1
0 -27 9 78 5 1
-2 -27 -9 779 32 1
-27 2 -9 675 34 1
-27 2 9 758 34 1
-2 -27 9 739 31 1
-27 2 9 692 35 1
-4 -27 -9 3 1 1
-27 4 -9 2 1 1
-4 -27 9 1 1 1
-27 4 9 3 2 1
-27 6 -9 227 12 1
-27 6 9 237 12 1
-27 6 9 240 13 1
-6 -27 9 226 11 1
-27 8 -9 42 5 1
-27 8 9 43 5 1
-8 -27 9 51 6 1
-27 8 9 39 6 1
-28 -3 -9 200 11 1
3 -28 -9 174 10 1
3 -28 9 174 10 1
-28 -3 9 199 12 1
-28 -1 -9 260 14 1
1 -28 -9 260 13 1
1 -28 9 264 13 1
-28 -1 9 271 14 1
-1 -28 -9 28 4 1
-28 1 -9 23 4 1
-1 -28 9 22 3 1
-3 -28 -9 45 4 1
-28 3 -9 44 4 1
-3 -28 9 31 4 1
-28 3 9 47 5 1
-28 3 9 28 7 1
0 0 -10 327 1 1
0 0 10 327 2 1
0 0 10 327 1 1
-1 1 -10 218 8 1
1 -1 -10 222 8 1
-1 -1 -10 229 8 1
1 1 -10 208 8 1
1 -1 -10 208 8 1
1 1 10 242 8 1
-1 1 10 209 8 1
-1 1 10 217 8 1
0 2 -10 13 3 1
2 0 -10 9 3 1
-2 0 -10 16 3 1
0 2 10 30 4 1
0 2 10 30 3 1
-2 0 10 14 4 1
0 -2 10 20 3 1
2 0 10 10 3 1
2 -2 -10 58 5 1
-2 -2 -10 24 5 1
-2 2 -10 25 5 1
-2 -2 -10 24 5 1
-2 2 10 57 5 1
2 -2 10 28 5 1
-2 2 10 60 5 1
1 -3 -10 1117 47 1
3 1 -10 919 47 1
1 -3 -10 1041 47 1
-3 -1 -10 881 47 1
3 1 -10 981 47 1
-3 -1 -10 838 47 1
-1 3 -10 1039 47 1
1 -3 10 1060 52 1
1 -3 10 1117 47 1
-1 3 10 1006 47 1
-3 1 -10 7800 302 1
3 -1 -10 7791 302 1
1 3 -10 7626 302 1
3 -1 -10 7853 302 1
-1 -3 10 7894 334 1
1 3 10 7832 304 1
-3 1 10 7811 334 1
3 -3 -10 481 8 1
-3 -3 -10 599 8 1
-3 -3 10 544 9 1
-3 3 10 522 8 1
3 -3 10 551 9 1
3 -3 10 526 8 1
2 -4 -10 4718 248 1
-4 -2 -10 4727 249 1
2 -4 -10 4915 249 1
-2 4 10 4639 248 1
2 -4 10 4468 248 1
2 -4 10 4564 275 1
-4 -2 10 4675 276 1
0 -4 -10 2639 64 1
4 0 -10 2846 64 1
4 0 -10 2955 64 1
4 0 10 2747 64 1
0 4 10 2611 64 1
4 -2 -10 225 8 1
-2 -4 -10 215 8 1
-4 2 -10 201 8 1
-2 -4 10 238 9 1
4 -2 10 204 8 1
-4 4 -10 47 2 1
4 -4 -10 46 1 1
-4 -4 -10 59 1 1
-4 4 10 43 1 1
4 -4 10 44 1 1
-4 -4 10 49 1 1
-5 -3 -10 15 3 1
3 -5 -10 10 3 1
3 -5 -10 11 3 1
-3 5 -10 11 3 1
-5 -3 -10 18 3 1
-3 5 10 13 3 1
-3 5 10 8 2 1
-1 5 -10 1 7 1
1 -5 -10 0 7 1
-5 -1 -10 0 7 1
1 -5 -10 0 7 1
1 -5 10 1 8 1
-1 5 10 1 7 1
-5 -1 10 0 8 1
-1 -5 -10 1519 57 1
-5 1 -10 1539 57 1
1 5 -10 1582 57 1
5 -1 -10 1537 56 1
5 -1 -10 1702 57 1
-1 -5 -10 1482 57 1
-1 -5 10 1702 62 1
1 5 10 1568 57 1
5 -3 -10 2454 49 1
-5 3 -10 2316 49 1
-3 -5 -10 2236 49 1
5 -5 -10 20011 855 1
-5 5 10 20434 856 1
5 -5 10 22033 857 1
-5 5 10 21053 855 1
-6 -4 -10 260 13 1
-6 -4 -10 284 13 1
4 -6 -10 221 13 1
6 4 10 267 13 1
-6 -4 10 206 14 1
-4 6 10 265 15 1
6 2 -10 5053 194 1
2 -6 -10 5150 195 1
-6 -2 -10 4950 195 1
2 -6 10 5349 195 1
-6 -2 10 5385 216 1
6 2 10 5349 195 1
-2 6 10 5037 195 1
2 -6 10 5389 215 1
2 -6 10 5560 195 1
-6 0 -10 1934 160 1
0 6 -10 1989 159 1
6 0 -10 1737 159 1
0 -6 -10 2002 159 1
0 -6 10 2046 176 1
6 0 10 1794 159 1
-2 -6 -10 1399 82 1
-6 2 -10 1424 82 1
-2 -6 -10 1305 82 1
-6 2 10 1409 91 1
-6 4 -10 3071 136 1
6 -4 -10 3206 136 1
-4 -6 -10 3120 136 1
-4 -6 -10 2830 136 1
-6 4 10 3209 151 1
-4 -6 10 2988 151 1
-6 -6 -10 7808 223 1
-6 6 -10 7661 223 1
6 -6 -10 7590 222 1
6 -6 -10 7498 223 1
-6 -6 -10 7906 222 1
6 6 10 7725 223 1
6 -6 10 7378 246 1
-6 -6 10 7616 246 1
6 -6 10 8008 246 1
6 -6 10 7480 222 1
-5 7 -10 10365 344 1
-7 -5 -10 10432 344 1
-7 -5 -10 10043 344 1
5 -7 -10 9637 343 1
-5 7 10 10485 344 1
-7 -5 10 9975 380 1
5 -7 10 9624 345 1
-5 7 10 9614 380 1
-7 -3 -10 218 45 1
3 -7 -10 241 45 1
-3 7 -10 236 45 1
-7 -3 10 206 50 1
3 -7 10 233 45 1
-3 7 10 268 50 1
7 3 10 268 45 1
3 -7 10 211 45 1
1 -7 -10 1250 34 1
-1 7 -10 1360 34 1
7 1 -10 1438 33 1
-7 -1 -10 1299 34 1
1 -7 -10 1300 34 1
-7 -1 -10 1383 34 1
7 1 10 1260 34 1
-7 -1 10 1351 38 1
-1 -7 -10 7884 202 1
7 -1 -10 7229 201 1
-7 1 -10 7381 202 1
1 7 -10 7762 202 1
-1 -7 -10 7780 202 1
1 7 10 7416 202 1
-1 -7 10 7620 223 1
7 -1 10 7337 202 1
-7 3 -10 1090 26 1
7 -3 -10 1075 25 1
-3 -7 -10 1202 26 1
7 -3 -10 1023 25 1
-3 -7 10 1183 28 1
7 -3 10 1032 25 1
7 -5 -10 7280 312 1
-5 -7 -10 7858 312 1
-5 -7 -10 7729 313 1
-7 5 -10 7750 313 1
-5 -7 10 7951 347 1
5 7 10 7946 313 1
7 -5 10 7652 313 1
-7 5 10 7873 346 1
-7 5 10 7523 312 1
7 -7 -10 158 2 1
-7 -7 -10 228 1 1
-7 7 -10 104 2 1
-7 -7 -10 240 1 1
-7 -7 10 243 1 1
-8 -6 -10 830 15 1
-8 -6 -10 837 15 1
6 -8 -10 818 15 1
6 -8 -10 854 15 1
-6 8 -10 868 16 1
6 -8 10 811 15 1
8 6 10 855 15 1
-6 8 10 840 15 1
-8 -6 10 854 17 1
-8 -4 -10 216 9 1
4 -8 -10 215 9 1
-4 8 -10 212 9 1
4 -8 -10 208 9 1
-8 -4 -10 198 9 1
-4 8 10 230 10 1
8 4 10 207 9 1
-8 -4 10 221 10 1
-4 8 10 222 9 1
2 -8 -10 4804 165 1
-8 -2 -10 4946 165 1
-2 8 -10 5189 165 1
-2 8 10 4948 165 1
-8 0 -10 138 48 1
0 -8 -10 191 48 1
0 8 -10 214 48 1
0 -8 -10 201 48 1
8 0 10 187 48 1
2 8 -10 6984 174 1
-8 2 -10 6667 174 1
-2 -8 -10 7068 174 1
8 -2 -10 6761 202 1
8 -2 10 6486 174 1
-8 2 10 6913 193 1
-2 -8 10 7075 192 1
2 8 10 6802 174 1
8 -4 -10 8247 375 1
-4 -8 -10 8094 376 1
-4 -8 -10 7544 375 1
-8 4 -10 7727 375 1
-8 4 10 7728 415 1
-4 -8 10 7568 415 1
8 -4 10 7696 377 1
4 8 10 7826 376 1
8 -6 -10 5574 199 1
-8 6 -10 5728 199 1
-6 -8 -10 5565 199 1
-6 -8 -10 5757 199 1
-8 6 10 6047 198 1
6 8 10 5732 199 1
-6 -8 10 5686 220 1
-8 6 10 5657 221 1
8 -8 -10 355 15 1
-8 8 -10 388 15 1
8 -8 -10 372 15 1
-8 -8 -10 342 14 1
-8 8 10 356 17 1
-8 8 10 380 14 1
-8 -8 10 335 16 1
-8 8 10 367 17 1
8 8 10 356 15 1
-7 9 -10 5492 217 1
-9 -7 -10 5604 216 1
-9 -7 -10 5557 216 1
7 -9 -10 5946 217 1
-9 -7 10 5737 240 1
7 -9 10 5737 216 1
-7 9 10 5815 240 1
9 7 10 5570 217 1
-7 9 10 5842 216 1
-5 9 -10 843 55 1
-9 -5 -10 785 54 1
5 -9 -10 814 55 1
-9 -5 -10 820 55 1
5 -9 -10 813 55 1
3 -9 -10 14 3 1
-9 -3 -10 7 3 1
3 -9 -10 15 3 1
-3 9 10 11 3 1
9 3 10 11 3 1
1 -9 -10 5590 194 1
1 -9 -10 5352 194 1
-9 -1 -10 5591 194 1
-9 -1 -10 5449 194 1
-1 9 10 5231 194 1
-9 -1 10 5685 215 1
-9 1 -10 5249 135 1
-1 -9 -10 5515 134 1
1 9 -10 5724 135 1
-1 -9 -10 5396 134 1
9 -1 -10 5322 134 1
9 -1 10 5073 135 1
1 9 10 5575 135 1
9 -3 -10 1680 88 1
-3 -9 -10 1703 89 1
-9 3 -10 1720 89 1
-3 -9 -10 1674 89 1
-9 3 10 1669 99 1
3 9 10 1734 89 1
9 -3 10 1594 89 1
9 -5 -10 3404 105 1
-5 -9 -10 3452 106 1
9 -5 -10 3490 106 1
-5 -9 -10 3314 105 1
-9 5 -10 3324 106 1
5 9 10 3417 106 1
9 -5 10 3570 106 1
-7 -9 -10 2549 78 1
-7 -9 -10 2523 78 1
-9 7 10 2452 87 1
-9 7 10 2558 78 1
-9 7 10 2590 78 1
9 -7 10 2492 78 1
7 9 10 2471 78 1
-9 9 -10 608 20 1
9 -9 -10 605 19 1
-9 9 10 611 22 1
-9 9 10 590 19 1
9 -9 10 582 19 1
9 9 10 601 19 1
-9 9 10 599 22 1
8 -10 -10 535 41 1
-10 -8 -10 611 41 1
-8 10 10 553 45 1
10 8 10 614 41 1
6 -10 -10 4835 180 1
-10 -6 -10 4800 179 1
6 -10 -10 4803 179 1
-6 10 -10 5271 180 1
-6 10 10 4819 204 1
-6 10 10 5210 180 1
-10 -6 10 4841 199 1
10 6 10 4827 180 1
6 -10 10 5032 179 1
-6 10 10 5125 199 1
4 -10 -10 308 4 1
-4 10 -10 290 4 1
-10 -4 -10 318 4 1
4 -10 -10 311 4 1
-10 -4 -10 306 3 1
-4 10 10 292 4 1
4 -10 10 306 3 1
-10 -4 10 381 5 1
10 4 10 341 4 1
-4 10 10 286 5 1
4 -10 10 302 4 1
-10 -2 -10 26 2 1
2 -10 -10 7 2 1
2 -10 -10 9 2 1
-2 10 -10 13 3 1
-10 -2 10 18 4 1
10 2 10 18 2 1
-10 0 -10 713 22 1
0 -10 -10 760 22 1
0 -10 -10 738 22 1
10 0 10 774 22 1
-10 0 10 724 24 1
-2 -10 -10 4743 162 1
10 -2 -10 4495 162 1
-2 -10 -10 4826 162 1
-10 2 -10 4709 163 1
10 -2 10 4815 163 1
2 10 10 4641 163 1
10 -4 -10 9418 385 1
4 10 10 9143 385 1
-6 -10 -10 554 13 1
10 -6 -10 510 13 1
-10 6 -10 530 13 1
-10 6 10 516 15 1
10 -6 10 514 13 1
6 10 10 543 13 1
-10 6 10 516 15 1
-10 8 -10 360 15 1
-8 -10 -10 333 14 1
-8 -10 -10 307 17 1
10 -8 -10 392 15 1
-10 8 -10 325 18 1
-8 -10 -10 347 15 1
8 10 10 327 15 1
-10 8 10 355 14 1
-10 8 10 365 17 1
10 -10 -10 88 6 1
-10 -10 -10 68 6 1
-10 10 -10 65 10 1
-10 10 -10 74 7 1
-10 -10 -10 83 5 1
-10 10 10 73 5 1
10 -10 10 84 6 1
-10 10 10 80 8 1
-11 -9 -10 31 5 1
-9 11 -10 36 7 1
-11 -9 -10 24 6 1
-9 11 -10 28 11 1
-9 11 10 34 6 1
9 -11 10 26 6 1
-9 11 10 41 8 1
-9 11 10 32 8 1
11 9 10 35 6 1
-11 -7 -10 32 1 1
-7 11 10 32 2 1
-7 11 10 26 1 1
7 -11 10 28 1 1
-11 -7 10 21 2 1
11 7 10 28 1 1
-5 11 -10 1462 53 1
-11 -5 -10 1444 52 1
5 -11 -10 1560 52 1
5 -11 -10 1560 53 1
-11 -5 -10 1518 52 1
-5 11 10 1498 60 1
-11 -5 10 1583 58 1
11 5 10 1404 53 1
-5 11 10 1575 58 1
5 -11 10 1525 52 1
-3 11 -10 5 4 1
-11 -3 -10 7 3 1
3 -11 -10 5 3 1
11 3 10 6 3 1
-3 11 10 5 3 1
-11 -3 10 7 4 1
-3 11 10 8 4 1
-1 11 -10 7108 274 1
-11 -1 -10 7042 274 1
1 -11 -10 6507 274 1
1 -11 -10 6762 274 1
-11 -1 -10 6900 274 1
-1 11 10 6944 303 1
11 1 10 6811 274 1
-1 11 10 6649 274 1
-1 -11 -10 476 21 1
-1 -11 -10 485 21 1
-11 1 -10 485 21 1
1 11 -10 492 21 1
-11 1 10 471 23 1
1 11 10 474 21 1
11 -1 10 492 21 1
-3 -11 -10 3278 106 1
-3 -11 -10 3336 106 1
-11 3 -10 3159 107 1
-11 3 -10 3104 119 1
3 11 10 3444 107 1
-11 3 10 3468 119 1
11 -3 10 3417 107 1
-11 3 10 3330 118 1
-11 5 -10 267 9 1
11 -5 10 283 6 1
5 11 10 262 6 1
-11 5 10 250 8 1
-7 -11 -10 1332 46 1
-7 -11 -10 1446 44 1
-11 7 -10 1364 50 1
-11 7 -10 1438 45 1
11 -7 -10 1383 45 1
-7 -11 -10 1460 45 1
-11 7 10 1339 50 1
7 11 10 1429 45 1
11 -7 10 1409 45 1
-11 9 -10 1548 64 1
-9 -11 -10 1537 56 1
-9 -11 -10 1529 57 1
11 -9 -10 1560 57 1
-11 9 -10 1516 58 1
11 -9 10 1446 57 1
-11 9 10 1594 56 1
-11 9 10 1460 64 1
-11 9 10 1439 64 1
11 -11 -10 70 5 1
-11 -11 -10 86 4 1
-11 -11 -10 78 3 1
-11 11 -10 72 5 1
-11 11 10 72 6 1
11 -11 10 77 4 1
-11 11 10 84 6 1
-12 -10 -10 395 22 1
-12 -10 -10 385 21 1
-10 12 -10 408 26 1
-10 12 -10 376 23 1
-10 12 10 425 25 1
-10 12 10 389 22 1
10 -12 10 363 22 1
10 -12 10 413 23 1
12 10 10 394 22 1
-8 12 -10 258 5 1
-12 -8 -10 287 4 1
-12 -8 -10 281 4 1
8 -12 -10 298 5 1
12 8 10 281 5 1
-8 12 10 284 5 1
8 -12 10 284 4 1
-8 12 10 272 6 1
-8 12 10 297 8 1
-12 -6 -10 950 42 1
-6 12 -10 891 43 1
-12 -6 -10 948 42 1
6 -12 -10 848 42 1
-12 -6 10 810 47 1
6 -12 10 861 43 1
-6 12 10 848 42 1
6 -12 10 893 42 1
-6 12 10 953 49 1
-6 12 10 952 47 1
4 -12 -10 1730 95 1
-12 -4 -10 1638 95 1
-12 -4 -10 1786 95 1
-4 12 -10 1732 96 1
-4 12 10 1657 95 1
4 -12 10 1680 97 1
-4 12 10 1687 108 1
12 4 10 1737 95 1
4 -12 10 1769 94 1
2 -12 -10 3294 159 1
-12 -2 -10 3323 159 1
-2 12 10 3219 176 1
12 2 10 3472 159 1
-2 12 10 3510 159 1
0 -12 -10 14 2 1
0 -12 -10 13 2 1
-12 0 -10 15 2 1
-12 0 -10 19 1 1
-12 0 10 14 3 1
0 12 10 15 2 1
-12 0 10 13 4 1
-2 -12 -10 6 4 1
-12 2 -10 6 7 1
12 -2 10 1 4 1
-12 2 10 5 5 1
2 12 10 4 3 1
-4 -12 -10 154 5 1
-12 4 -10 140 6 1
-4 -12 -10 168 8 1
-4 -12 -10 166 5 1
-12 4 -10 122 9 1
-12 4 10 175 8 1
-12 4 10 150 7 1
-12 6 -10 2408 93 1
-12 6 -10 2267 83 1
-6 -12 -10 2309 83 1
-6 -12 -10 2184 83 1
-12 6 10 2359 92 1
12 -6 10 2316 83 1
6 12 10 2233 83 1
-12 8 -10 738 22 1
-8 -12 -10 751 21 1
-8 -12 -10 703 23 1
-12 8 -10 770 25 1
-8 -12 -10 744 21 1
12 -8 -10 752 22 1
12 -8 10 781 22 1
-12 8 10 679 24 1
-10 -12 -10 3 2 1
-12 10 -10 6 2 1
-12 10 -10 5 3 1
12 -10 -10 7 2 1
-12 10 10 3 5 1
10 12 10 3 4 1
-12 10 10 5 3 1
-12 12 -10 1 3 1
12 -12 -10 7 2 1
-12 12 -10 3 2 1
-12 -12 -10 2 2 1
12 -12 10 3 2 1
-12 12 10 7 1 1
12 -12 10 3 2 1
-12 12 10 5 2 1
-12 12 10 4 3 1
12 12 10 5 2 1
-11 13 -10 922 39 1
-11 13 -10 849 35 1
-11 13 10 932 40 1
13 11 10 927 35 1
11 -13 10 891 34 1
-11 13 10 910 34 1
-11 13 10 904 39 1
11 -13 10 889 35 1
-11 13 10 857 38 1
-13 -9 -10 1432 53 1
-13 -9 -10 1528 54 1
-9 13 -10 1414 55 1
-9 13 10 1488 61 1
-9 13 10 1381 54 1
9 -13 10 1455 55 1
13 9 10 1414 55 1
7 -13 -10 305 16 1
-13 -7 -10 289 10 1
7 -13 -10 312 12 1
7 -13 10 302 11 1
7 -13 10 300 12 1
-7 13 10 347 13 1
-13 -5 -10 2963 107 1
-5 13 -10 2917 108 1
5 -13 -10 2931 107 1
-5 13 10 3053 108 1
-5 13 10 3033 119 1
5 -13 10 3130 107 1
13 5 10 2942 108 1
-5 13 10 3076 122 1
-3 13 -10 990 37 1
-13 -3 -10 990 36 1
-13 -3 -10 1011 36 1
3 -13 -10 1042 36 1
-13 -3 10 1021 41 1
13 3 10 923 36 1
-3 13 10 983 36 1
-3 13 10 984 40 1
3 -13 10 974 37 1
-13 -1 -10 214 9 1
1 -13 -10 177 7 1
-13 -1 -10 214 7 1
-13 -1 -10 196 7 1
1 -13 10 225 9 1
-1 13 10 199 7 1
-13 -1 10 193 10 1
13 1 10 207 7 1
-1 -13 -10 34 2 1
-1 -13 -10 23 3 1
-13 1 -10 18 2 1
-13 1 -10 29 3 1
13 -1 10 23 2 1
-13 1 10 31 3 1
-13 1 10 29 3 1
-13 3 -10 4069 163 1
-3 -13 -10 4233 163 1
-3 -13 -10 3983 163 1
-3 -13 -10 3891 166 1
13 -3 10 4031 164 1
-13 3 10 4128 181 1
-5 -13 -10 1258 37 1
-5 -13 -10 1218 38 1
-13 5 -10 1337 38 1
-13 5 -10 1263 43 1
-5 -13 -10 1232 39 1
-13 5 10 1215 42 1
-13 5 10 1355 43 1
-7 -13 -10 87 8 1
13 -7 -10 83 6 1
-13 7 -10 52 8 1
-7 -13 -10 65 4 1
-13 7 -10 63 5 1
7 13 10 77 5 1
-13 7 10 56 6 1
13 -7 10 67 5 1
-13 7 10 67 6 1
-9 -13 -10 1386 40 1
-9 -13 -10 1402 41 1
-9 -13 -10 1345 43 1
-13 9 -10 1415 42 1
-13 9 -10 1372 46 1
13 -9 10 1316 41 1
9 13 10 1320 41 1
-13 9 10 1342 46 1
-13 11 -10 682 38 1
-11 -13 -10 715 37 1
-13 11 -10 729 42 1
13 -11 10 720 37 1
11 13 10 782 38 1
-13 13 -10 903 37 1
13 -13 -10 982 37 1
-13 -13 -10 906 36 1
-13 13 -10 913 41 1
-13 13 10 879 41 1
-13 13 10 940 35 1
13 -13 10 914 36 1
13 13 10 950 37 1
-13 13 10 995 41 1
13 -13 10 878 38 1
12 -14 -10 2136 88 1
-14 -12 -10 2189 88 1
14 12 10 2256 89 1
12 -14 10 2229 89 1
-12 14 10 2059 98 1
12 -14 10 2217 88 1
-12 14 10 2261 98 1
-12 14 10 2175 88 1
-10 14 -10 875 29 1
-14 -10 -10 832 28 1
-10 14 -10 855 32 1
10 -14 -10 860 28 1
-10 14 10 877 28 1
-10 14 10 883 32 1
10 -14 10 906 29 1
10 -14 10 886 28 1
14 10 10 906 29 1
8 -14 -10 2072 86 1
-14 -8 -10 2173 85 1
-8 14 -10 2091 86 1
-8 14 10 2226 86 1
14 8 10 2112 86 1
8 -14 10 2215 87 1
8 -14 10 2156 85 1
-8 14 10 2109 95 1
6 -14 -10 357 16 1
-14 -6 -10 420 12 1
6 -14 -10 400 13 1
6 -14 10 403 12 1
-6 14 10 397 13 1
-6 14 10 395 16 1
-6 14 10 392 15 1
6 -14 10 408 14 1
4 -14 -10 433 19 1
-14 -4 -10 463 16 1
4 -14 -10 469 16 1
-14 -4 -10 489 16 1
4 -14 -10 459 16 1
-14 -4 10 438 21 1
-14 -4 10 420 21 1
-4 14 10 438 20 1
-4 14 10 454 16 1
-14 -2 -10 120 16 1
2 -14 -10 106 16 1
2 -14 -10 105 16 1
-14 -2 -10 108 19 1
-14 -2 -10 108 15 1
2 -14 -10 103 18 1
2 -14 10 118 17 1
-2 14 10 113 18 1
-2 14 10 108 16 1
-2 14 10 126 21 1
-14 -2 10 122 19 1
0 -14 -10 483 17 1
-14 0 -10 534 15 1
0 -14 -10 515 15 1
0 -14 -10 496 15 1
0 14 -10 511 16 1
-14 0 -10 502 15 1
14 0 10 536 16 1
0 -14 10 469 17 1
-14 0 10 514 19 1
0 14 10 490 16 1
0 14 10 494 17 1
-14 2 -10 245 15 1
-2 -14 -10 234 15 1
-2 -14 -10 257 13 1
-2 -14 -10 244 13 1
-14 2 -10 235 13 1
2 14 10 236 13 1
-2 -14 10 251 15 1
14 -2 10 240 13 1
-4 -14 -10 904 33 1
-4 -14 -10 919 32 1
-14 4 -10 857 32 1
-4 -14 -10 894 31 1
-14 4 10 961 36 1
-4 -14 10 872 33 1
4 14 10 911 32 1
-14 4 10 899 36 1
-6 -14 -10 216 10 1
-6 -14 -10 211 12 1
-6 -14 -10 221 9 1
14 -6 -10 198 10 1
-14 6 -10 213 10 1
-14 6 -10 206 12 1
-6 -14 10 196 14 1
14 -6 10 199 10 1
6 14 10 189 10 1
-14 6 10 223 12 1
14 -8 -10 671 24 1
-8 -14 -10 623 22 1
-8 -14 -10 630 25 1
-8 -14 -10 615 23 1
-14 8 -10 617 23 1
-14 8 -10 631 26 1
-14 8 10 656 26 1
14 -8 10 666 24 1
8 14 10 650 23 1
-14 8 10 605 26 1
14 -10 -10 18 6 1
-14 10 -10 6 2 1
-14 10 -10 9 3 1
-14 10 10 17 6 1
10 14 10 3 3 1
-14 10 10 12 5 1
-12 -14 -10 481 16 1
-14 12 -10 418 16 1
-14 12 -10 449 18 1
14 -12 -10 442 17 1
-14 12 10 448 19 1
12 14 10 465 17 1
-14 12 10 457 18 1
-14 14 -10 3246 117 1
14 -14 -10 3084 116 1
-14 14 -10 3368 129 1
-14 -14 -10 3381 116 1
14 -14 10 3364 116 1
-14 14 10 3269 129 1
-14 14 10 3122 132 1
14 14 10 3298 117 1
-14 14 10 3053 129 1
14 -14 10 3179 117 1
-13 15 -10 2012 84 1
-13 15 -10 2133 93 1
-15 -13 -10 2074 83 1
-13 15 10 2113 83 1
-13 15 10 1999 93 1
-13 15 10 1950 95 1
13 -15 10 2065 83 1
15 13 10 2174 84 1
13 -15 10 2049 85 1
-11 15 -10 101 7 1
11 -15 -10 97 7 1
-11 15 -10 81 10 1
-15 -11 -10 75 7 1
15 11 10 84 8 1
-11 15 10 85 8 1
-11 15 10 88 10 1
11 -15 10 105 7 1
-11 15 10 84 6 1
-9 15 -10 831 35 1
9 -15 -10 861 37 1
-15 -9 -10 832 34 1
9 -15 -10 852 35 1
-9 15 10 877 40 1
9 -15 10 827 34 1
15 9 10 836 35 1
-9 15 10 791 39 1
-9 15 10 798 35 1
9 -15 10 844 35 1
-15 -7 -10 373 17 1
-7 15 -10 384 18 1
7 -15 -10 372 20 1
7 -15 -10 374 17 1
7 -15 10 402 18 1
-7 15 10 353 20 1
-7 15 10 376 17 1
7 -15 10 381 16 1
15 7 10 388 18 1
5 -15 -10 664 39 1
-15 -5 -10 657 37 1
-15 -5 -10 677 37 1
5 -15 -10 627 37 1
5 -15 -10 638 38 1
-5 15 10 706 43 1
-5 15 10 637 38 1
5 -15 10 692 38 1
-15 -3 -10 491 17 1
3 -15 -10 524 20 1
3 -15 -10 502 18 1
-15 -3 -10 504 21 1
-3 15 10 488 18 1
-3 15 10 516 23 1
-15 -3 10 539 21 1
3 -15 10 505 19 1
-3 15 10 511 20 1
1 -15 -10 155 9 1
1 -15 -10 151 11 1
-1 15 -10 162 10 1
-15 -1 -10 162 9 1
-15 -1 -10 167 9 1
-1 15 10 175 9 1
15 1 10 165 10 1
1 -15 10 162 10 1
-15 -1 10 175 12 1
-15 -1 10 184 11 1
-15 -1 10 162 12 1
-1 -15 -10 213 7 1
-1 -15 -10 237 10 1
-15 1 -10 225 8 1
-15 1 -10 190 7 1
-15 1 10 230 10 1
-1 -15 10 240 9 1
-15 1 10 200 10 1
-15 1 10 212 9 1
1 15 10 198 8 1
15 -1 10 209 8 1
1 15 10 194 9 1
-15 3 -10 0 3 1
-15 3 -10 1 2 1
-3 -15 -10 0 2 1
-3 -15 -10 2 1 1
-15 3 10 0 2 1
15 -3 10 2 2 1
-15 3 10 0 3 1
3 15 10 2 2 1
-3 -15 10 1 3 1
-5 -15 -10 2522 81 1
-5 -15 -10 2469 83 1
-5 -15 -10 2415 81 1
-15 5 -10 2480 91 1
-5 -15 10 2459 83 1
5 15 10 2449 81 1
-15 5 10 2554 91 1
-7 -15 -10 1530 54 1
-7 -15 -10 1579 51 1
-7 -15 -10 1672 52 1
-15 7 -10 1610 53 1
15 -7 -10 1700 53 1
-15 7 10 1698 59 1
-7 -15 10 1605 54 1
15 -7 10 1578 53 1
7 15 10 1593 52 1
-9 -15 -10 132 12 1
-9 -15 -10 121 10 1
15 -9 -10 110 11 1
-15 9 -10 139 12 1
-15 9 -10 123 10 1
-15 9 10 145 12 1
-15 9 10 138 11 1
9 15 10 121 10 1
-15 11 -10 5 3 1
15 -11 -10 4 3 1
-15 11 -10 4 2 1
-11 -15 -10 4 3 1
-15 11 10 5 3 1
15 -11 10 9 2 1
-15 11 10 5 4 1
11 15 10 9 3 1
15 -13 -10 2 3 1
-13 -15 -10 4 3 1
-15 13 -10 2 3 1
-15 13 10 3 4 1
15 -13 10 2 2 1
-15 13 10 3 3 1
15 -13 10 2 2 1
13 15 10 1 3 1
-15 13 10 2 2 1
-15 15 -10 2 3 1
-15 15 -10 2 3 1
15 -15 -10 4 3 1
-15 -15 -10 4 4 1
15 15 10 4 4 1
-15 15 10 3 3 1
15 -15 10 2 2 1
15 -15 10 3 2 1
14 -16 -10 2358 82 1
-14 16 -10 2356 90 1
-14 16 -10 2247 82 1
14 -16 10 2500 81 1
-14 16 10 2517 93 1
14 -16 10 2374 82 1
16 14 10 2312 82 1
-12 16 -10 65 4 1
12 -16 -10 59 5 1
-16 -12 -10 60 4 1
-12 16 -10 80 6 1
-12 16 10 60 7 1
12 -16 10 59 4 1
-12 16 10 71 5 1
12 -16 10 73 6 1
16 12 10 59 4 1
-16 -10 -10 146 12 1
10 -16 -10 124 11 1
-10 16 -10 142 12 1
10 -16 -10 141 15 1
-10 16 10 140 14 1
-10 16 10 130 14 1
-10 16 10 136 11 1
16 10 10 152 12 1
10 -16 10 142 12 1
-8 16 -10 401 15 1
8 -16 -10 428 16 1
8 -16 -10 433 14 1
-16 -8 -10 384 13 1
-8 16 10 414 16 1
16 8 10 399 14 1
-8 16 10 391 14 1
8 -16 10 413 12 1
6 -16 -10 183 8 1
-16 -6 -10 147 10 1
-6 16 -10 163 10 1
-16 -6 -10 155 8 1
6 -16 -10 174 11 1
6 -16 10 187 9 1
-6 16 10 163 8 1
-6 16 10 156 11 1
-6 16 10 166 10 1
16 6 10 159 9 1
-16 -4 -10 3191 131 1
-4 16 -10 3279 133 1
4 -16 -10 3190 132 1
-16 -4 -10 3310 132 1
-16 -4 -10 3306 147 1
4 -16 -10 3412 135 1
-4 16 10 3304 133 1
4 -16 10 3320 134 1
-4 16 10 3272 147 1
-2 16 -10 1362 48 1
-16 -2 -10 1361 47 1
2 -16 -10 1263 47 1
-16 -2 -10 1325 47 1
2 -16 -10 1414 48 1
16 2 10 1343 48 1
-16 -2 10 1347 53 1
-2 16 10 1364 53 1
2 -16 10 1389 48 1
0 -16 -10 33 5 1
-16 0 -10 48 8 1
0 -16 -10 35 7 1
0 -16 -10 26 4 1
-16 0 -10 29 4 1
0 16 10 21 5 1
-16 0 10 10 8 1
0 -16 10 10 6 1
-16 0 10 10 6 1
16 0 10 40 6 1
-16 0 10 12 8 1
0 16 10 23 6 1
-16 2 -10 17 4 1
-2 -16 -10 17 7 1
-16 2 -10 19 7 1
-2 -16 -10 13 4 1
-2 -16 -10 16 5 1
2 16 10 15 4 1
2 16 10 18 5 1
-2 -16 10 8 7 1
-16 2 10 21 7 1
16 -2 10 13 5 1
-4 -16 -10 240 9 1
-4 -16 -10 217 8 1
-4 -16 -10 241 11 1
-16 4 -10 245 11 1
-16 4 -10 216 9 1
-16 4 10 205 11 1
16 -4 10 211 9 1
-16 4 10 244 11 1
-4 -16 10 207 11 1
4 16 10 228 9 1
-6 -16 -10 100 8 1
-6 -16 -10 102 5 1
-16 6 -10 101 8 1
-16 6 -10 107 6 1
-6 -16 -10 93 6 1
-6 -16 10 114 10 1
6 16 10 102 6 1
16 -6 10 108 7 1
-16 6 10 113 8 1
-16 6 10 103 8 1
-16 8 -10 39 5 1
16 -8 -10 30 8 1
-8 -16 -10 55 5 1
-16 8 -10 38 7 1
-8 -16 10 49 11 1
16 -8 10 28 5 1
8 16 10 38 6 1
-16 8 10 46 6 1
-16 8 10 48 7 1
-10 -16 -10 39 5 1
-16 10 -10 46 2 1
-16 10 -10 46 3 1
16 -10 -10 52 4 1
16 -10 10 42 3 1
-16 10 10 52 4 1
-16 10 10 60 2 1
10 16 10 36 3 1
16 -12 -10 1152 43 1
-16 12 -10 1165 47 1
-12 -16 -10 1161 42 1
-16 12 10 1165 48 1
16 -12 10 1152 42 1
12 16 10 1039 43 1
-16 14 -10 45 8 1
-14 -16 -10 31 7 1
16 -14 -10 27 8 1
-16 14 -10 34 6 1
14 16 10 23 9 1
-16 14 10 41 7 1
-16 14 10 39 8 1
16 -14 10 42 6 1
16 -14 10 38 7 1
-16 16 -10 5 3 1
16 -16 -10 2 3 1
-16 16 10 3 3 1
15 -17 -10 844 31 1
-15 17 -10 896 32 1
-15 17 -10 914 34 1
-15 17 10 853 35 1
15 -17 10 894 31 1
15 -17 10 896 30 1
-13 17 -10 900 48 1
13 -17 -10 905 43 1
-13 17 -10 931 44 1
17 13 10 915 44 1
-13 17 10 1004 49 1
-13 17 10 938 42 1
13 -17 10 915 44 1
-11 17 -10 886 36 1
11 -17 -10 902 35 1
11 -17 -10 925 37 1
17 11 10 959 36 1
-11 17 10 975 41 1
11 -17 10 922 36 1
-11 17 10 933 35 1
11 -17 10 928 34 1
-17 -9 -10 60 7 1
-9 17 -10 61 6 1
9 -17 10 49 6 1
-9 17 10 51 8 1
9 -17 10 43 3 1
17 9 10 47 6 1
-7 17 -10 33 7 1
-17 -7 -10 15 3 1
7 -17 -10 18 3 1
7 -17 -10 28 4 1
7 -17 10 16 2 1
-7 17 10 21 5 1
-7 17 10 27 4 1
-7 17 10 18 4 1
17 7 10 19 3 1
5 -17 -10 337 18 1
-17 -5 -10 347 16 1
-17 -5 -10 365 19 1
-5 17 -10 332 18 1
5 -17 -10 325 16 1
17 5 10 340 17 1
-5 17 10 347 16 1
-17 -3 -10 629 29 1
-3 17 -10 593 26 1
3 -17 -10 652 26 1
-17 -3 -10 617 25 1
-17 -3 -10 624 24 1
3 -17 -10 587 25 1
3 -17 10 624 26 1
-17 -3 10 619 29 1
17 3 10 629 25 1
-17 -3 10 580 29 1
-17 -1 -10 76 4 1
-17 -1 -10 77 5 1
-17 -1 -10 73 7 1
-1 17 -10 88 7 1
1 -17 -10 63 5 1
1 -17 -10 64 4 1
1 -17 10 71 6 1
17 1 10 59 6 1
-17 -1 10 55 6 1
-1 17 10 61 6 1
-1 17 10 57 5 1
-17 1 -10 113 8 1
-1 -17 -10 107 10 1
-1 -17 -10 108 9 1
-1 -17 -10 122 8 1
-17 1 -10 112 8 1
-17 1 10 104 11 1
-17 1 10 103 11 1
1 17 10 115 8 1
17 -1 10 135 9 1
-17 1 10 107 10 1
1 17 10 119 10 1
-1 -17 10 111 10 1
-3 -17 -10 457 17 1
-3 -17 -10 469 18 1
-17 3 -10 470 17 1
-3 -17 -10 493 19 1
-17 3 -10 453 21 1
-17 3 -10 480 18 1
3 17 10 457 18 1
17 -3 10 454 18 1
-17 3 10 456 20 1
-3 -17 10 517 19 1
-17 3 10 432 21 1
3 17 10 485 20 1
-17 5 -10 53 8 1
-5 -17 -10 69 5 1
-17 5 -10 66 6 1
-5 -17 -10 66 6 1
17 -5 10 56 7 1
5 17 10 63 7 1
-17 5 10 70 8 1
-17 5 10 71 8 1
-5 -17 10 67 9 1
-17 7 -10 48 9 1
-7 -17 -10 76 8 1
-7 -17 -10 70 10 1
-17 7 10 53 9 1
17 -7 10 45 8 1
-17 7 10 71 10 1
-7 -17 10 80 11 1
7 17 10 65 8 1
-9 -17 -10 39 5 1
-9 -17 -10 33 8 1
17 -9 -10 27 9 1
-17 9 -10 39 7 1
-17 9 -10 27 5 1
-9 -17 10 46 11 1
9 17 10 25 7 1
-17 9 10 40 8 1
-17 9 10 32 6 1
-17 11 -10 382 18 1
-17 11 -10 381 16 1
-11 -17 -10 380 16 1
17 -11 -10 408 17 1
17 -11 10 374 16 1
-17 11 10 402 18 1
-17 11 10 414 19 1
11 17 10 397 17 1
17 -11 10 367 16 1
-17 13 -10 189 11 1
17 -13 -10 176 11 1
-13 -17 -10 185 10 1
-17 13 -10 172 9 1
17 -13 10 198 10 1
-17 13 10 161 11 1
-17 13 10 179 10 1
-17 13 10 165 16 1
13 17 10 179 11 1
17 -13 10 190 9 1
-17 15 -10 322 17 1
-17 15 -10 325 19 1
17 -15 -10 340 18 1
17 -15 10 327 17 1
17 -15 10 312 17 1
17 -17 -10 153 12 1
-17 17 -10 178 12 1
-17 17 -10 159 11 1
-17 17 10 177 13 1
17 -17 10 165 10 1
17 -17 10 180 11 1
16 -18 -10 112 9 1
-18 -16 -10 123 10 1
-16 18 -10 117 9 1
16 -18 10 103 8 1
16 -18 10 101 8 1
-14 18 -10 393 15 1
14 -18 -10 392 14 1
-14 18 10 408 16 1
14 -18 10 427 14 1
14 -18 10 390 13 1
-12 18 -10 298 12 1
12 -18 -10 269 11 1
-12 18 10 265 13 1
-12 18 10 283 10 1
12 -18 10 268 10 1
12 -18 10 268 11 1
18 12 10 272 14 1
10 -18 -10 1211 53 1
10 -18 -10 1311 51 1
-10 18 -10 1202 52 1
-18 -10 -10 1231 58 1
18 10 10 1352 52 1
-10 18 10 1247 51 1
10 -18 10 1218 52 1
8 -18 -10 4 3 1
-18 -8 -10 4 3 1
8 -18 -10 4 2 1
-8 18 -10 0 3 1
8 -18 10 4 2 1
-8 18 10 4 3 1
18 8 10 11 3 1
-8 18 10 7 2 1
-18 -6 -10 696 28 1
6 -18 -10 663 24 1
-6 18 -10 646 26 1
-6 18 10 661 28 1
-6 18 10 622 24 1
-18 -6 10 642 29 1
6 -18 10 617 25 1
-6 18 10 624 28 1
-18 -4 -10 37 2 1
4 -18 -10 55 3 1
-4 18 -10 43 3 1
-4 18 10 47 4 1
18 4 10 46 3 1
-4 18 10 45 2 1
-18 -4 10 42 4 1
2 -18 -10 305 13 1
-18 -2 -10 297 14 1
-18 -2 10 319 17 1
18 2 10 308 15 1
-2 18 10 297 16 1
-2 18 10 313 14 1
-18 0 -10 3156 109 1
0 -18 -10 3037 108 1
-18 0 -10 3197 108 1
0 -18 -10 3101 109 1
-18 0 -10 3104 121 1
-18 0 10 3219 124 1
18 0 10 3054 109 1
0 18 10 3106 109 1
-18 0 10 3235 121 1
0 18 10 3283 121 1
-2 -18 -10 4 2 1
-18 2 -10 14 3 1
-2 -18 -10 6 2 1
-2 -18 -10 3 2 1
-18 2 -10 4 2 1
2 18 10 4 3 1
-18 2 10 11 3 1
-18 2 10 5 3 1
2 18 10 8 2 1
18 -2 10 10 3 1
-18 4 -10 17 6 1
-18 4 -10 17 7 1
-4 -18 -10 31 4 1
-4 -18 -10 34 7 1
-4 -18 -10 37 3 1
-18 4 10 17 6 1
4 18 10 28 6 1
4 18 10 38 5 1
-18 4 10 17 6 1
18 -4 10 21 5 1
-6 -18 -10 18 2 1
-6 -18 -10 21 2 1
-18 6 -10 10 2 1
-18 6 -10 10 2 1
-6 -18 10 18 3 1
-18 6 10 15 2 1
6 18 10 16 2 1
18 -6 10 16 2 1
-18 6 10 17 3 1
-18 8 -10 15 4 1
-8 -18 -10 23 5 1
-18 8 -10 16 6 1
-8 -18 10 10 4 1
8 18 10 16 6 1
-18 8 10 24 4 1
-18 8 10 23 5 1
18 -8 10 8 3 1
-18 10 -10 117 6 1
18 -10 -10 80 11 1
-10 -18 -10 108 6 1
-18 10 -10 115 8 1
-18 10 10 107 7 1
18 -10 10 87 6 1
10 18 10 101 8 1
18 -10 10 101 9 1
-18 10 10 96 10 1
-18 12 -10 397 17 1
-18 12 -10 393 19 1
18 -12 -10 381 19 1
-12 -18 -10 378 18 1
-18 12 10 423 21 1
18 -12 10 388 18 1
-18 12 10 376 23 1
12 18 10 393 19 1
18 -12 10 421 17 1
-18 12 10 397 19 1
-18 14 -10 7 3 1
18 -14 -10 3 4 1
-18 14 -10 19 6 1
-18 14 10 5 3 1
-18 14 10 6 2 1
18 -14 10 11 3 1
18 -14 10 10 3 1
14 18 10 3 5 1
18 -16 -10 318 17 1
-18 16 -10 347 17 1
-18 16 -10 323 15 1
18 -16 10 311 15 1
18 -16 10 328 15 1
-18 16 10 367 18 1
-18 -18 -10 444 18 1
-18 18 -10 387 17 1
18 -18 -10 386 18 1
-18 18 10 428 18 1
18 -18 10 415 16 1
-17 19 -10 9 4 1
17 -19 -10 4 4 1
15 -19 -10 345 15 1
-15 19 -10 292 16 1
15 -19 10 306 15 1
13 -19 -10 3 2 1
-19 -13 -10 2 3 1
-13 19 -10 6 3 1
-13 19 10 3 3 1
-13 19 10 9 3 1
13 -19 10 16 2 1
11 -19 -10 0 3 1
-19 -11 -10 4 3 1
11 -19 10 7 2 1
19 11 10 3 5 1
-11 19 10 5 3 1
-19 -9 -10 123 15 1
9 -19 -10 143 14 1
9 -19 -10 137 12 1
-9 19 -10 129 14 1
-9 19 10 142 15 1
19 9 10 135 15 1
-9 19 10 130 12 1
9 -19 10 139 13 1
-19 -7 -10 110 9 1
-7 19 -10 114 9 1
7 -19 -10 97 6 1
7 -19 -10 112 9 1
-7 19 10 104 11 1
7 -19 10 102 7 1
-7 19 10 101 7 1
19 7 10 117 9 1
-5 19 -10 215 12 1
5 -19 -10 218 9 1
-5 19 10 219 10 1
5 -19 10 237 11 1
19 5 10 224 11 1
3 -19 -10 493 21 1
3 -19 -10 475 19 1
-3 19 -10 444 21 1
-3 19 10 478 19 1
3 -19 10 468 20 1
-19 -3 10 469 23 1
-19 -3 10 417 23 1
-3 19 10 458 23 1
19 3 10 489 20 1
-19 -1 -10 25 3 1
1 -19 -10 43 7 1
-1 19 10 38 7 1
-19 -1 10 28 3 1
-1 19 10 41 4 1
19 1 10 15 3 1
-19 -1 10 29 3 1
-19 1 -10 20 4 1
-1 -19 -10 3 2 1
-19 1 -10 23 3 1
-1 -19 -10 8 3 1
19 -1 10 32 3 1
-19 1 10 13 3 1
1 19 10 2 4 1
-1 -19 10 4 2 1
1 19 10 2 2 1
-19 1 10 11 3 1
-19 3 -10 24 8 1
-19 3 -10 23 4 1
-3 -19 -10 20 7 1
-19 3 -10 23 7 1
-3 -19 -10 18 4 1
3 19 10 23 6 1
-19 3 10 28 7 1
3 19 10 24 8 1
-19 3 10 27 7 1
-19 3 10 27 7 1
19 -3 10 18 6 1
-3 -19 10 36 7 1
-19 5 -10 899 49 1
-5 -19 -10 886 50 1
-19 5 -10 864 50 1
-5 -19 -10 934 52 1
-19 5 -10 957 56 1
-19 5 10 883 56 1
-5 -19 10 883 51 1
-19 5 10 865 56 1
5 19 10 873 50 1
19 -5 10 865 50 1
-19 5 10 930 57 1
-19 7 -10 5 2 1
-7 -19 -10 42 2 1
-19 7 -10 9 2 1
-7 -19 -10 29 3 1
19 -7 10 8 2 1
-19 7 10 28 2 1
-7 -19 10 19 3 1
-19 7 10 22 4 1
7 19 10 39 3 1
-9 -19 -10 54 7 1
-19 9 -10 41 8 1
-9 -19 -10 71 9 1
-19 9 -10 48 6 1
-19 9 10 47 8 1
-9 -19 10 55 11 1
-19 9 10 41 9 1
19 -9 10 46 10 1
9 19 10 55 8 1
19 -9 10 42 7 1
-19 9 10 57 11 1
-19 11 -10 31 3 1
19 -11 -10 36 5 1
19 -11 10 13 3 1
-19 11 10 21 2 1
-19 11 10 11 3 1
11 19 10 28 4 1
-19 11 10 11 7 1
19 -13 -10 143 12 1
-19 13 -10 140 8 1
-19 13 -10 123 9 1
-19 13 10 115 10 1
19 -13 10 128 9 1
13 19 10 113 13 1
-19 13 10 128 9 1
19 -13 10 124 8 1
-19 15 -10 24 3 1
19 -15 -10 18 5 1
19 -15 10 22 3 1
-19 17 -10 333 16 1
19 -17 10 315 15 1
-19 -19 -10 1266 56 1
19 -19 10 1345 50 1
-19 19 10 1298 57 1
-18 20 10 31 4 1
18 -20 10 33 4 1
-20 -16 -10 8 2 1
16 -20 -10 12 3 1
-16 20 -10 12 4 1
-16 20 10 21 5 1
-14 20 -10 29 4 1
14 -20 -10 17 3 1
14 -20 10 18 2 1
-14 20 10 24 5 1
12 -20 -10 737 32 1
-12 20 -10 733 32 1
12 -20 -10 705 30 1
-20 -12 -10 784 35 1
-12 20 10 746 30 1
12 -20 10 741 31 1
-12 20 10 744 35 1
-10 20 -10 113 9 1
-20 -10 -10 130 9 1
10 -20 -10 106 9 1
10 -20 -10 120 6 1
-10 20 10 130 6 1
10 -20 10 97 7 1
-10 20 10 109 9 1
8 -20 -10 130 6 1
-20 -8 -10 133 8 1
-8 20 -10 112 8 1
8 -20 -10 130 9 1
-8 20 10 164 10 1
-8 20 10 150 6 1
8 -20 10 147 7 1
20 8 10 113 10 1
6 -20 -10 52 8 1
-20 -6 -10 37 8 1
-6 20 -10 59 10 1
6 -20 -10 59 5 1
6 -20 10 63 6 1
20 6 10 60 9 1
-20 -6 10 47 11 1
-6 20 10 65 6 1
4 -20 -10 158 9 1
-4 20 -10 162 13 1
-20 -4 -10 154 12 1
4 -20 -10 159 11 1
-4 20 10 162 10 1
20 4 10 152 11 1
-20 -4 10 153 13 1
4 -20 10 174 10 1
2 -20 -10 34 8 1
-20 -2 -10 28 7 1
2 -20 -10 23 5 1
20 2 10 31 7 1
-20 -2 10 24 9 1
-2 20 10 27 6 1
-20 -2 10 24 9 1
2 -20 10 24 6 1
0 -20 -10 494 22 1
0 -20 -10 491 20 1
-20 0 -10 505 24 1
0 20 10 483 21 1
0 -20 10 485 21 1
20 0 10 497 22 1
0 20 10 482 24 1
-20 0 10 468 24 1
-20 2 -10 1759 69 1
-2 -20 -10 1784 64 1
-2 -20 -10 1730 61 1
-2 -20 10 1665 63 1
20 -2 10 1632 63 1
2 20 10 1735 69 1
-20 4 -10 589 28 1
-4 -20 -10 615 26 1
-20 4 -10 588 23 1
-4 -20 10 656 25 1
-20 4 10 554 28 1
4 20 10 597 25 1
4 20 10 625 28 1
-20 6 -10 9 2 1
-6 -20 -10 27 2 1
-20 6 -10 10 2 1
6 20 10 15 2 1
-20 6 10 13 4 1
6 20 10 18 4 1
-6 -20 10 15 3 1
20 -6 10 25 2 1
-20 6 10 15 2 1
-20 6 10 15 3 1
-8 -20 -10 330 16 1
-20 8 -10 318 17 1
-20 8 -10 333 14 1
-8 -20 10 316 16 1
-20 8 10 307 19 1
8 20 10 297 15 1
20 -8 10 333 15 1
-20 8 10 314 17 1
-20 8 10 311 16 1
20 -8 10 303 16 1
10 20 10 8 4 1
-20 10 10 11 6 1
20 -10 10 13 6 1
-20 10 10 10 7 1
-10 -20 10 18 11 1
20 -10 10 5 4 1
-20 12 -10 95 9 1
-20 12 -10 82 8 1
20 -12 -10 61 14 1
12 20 10 89 12 1
-20 12 10 89 9 1
20 -12 10 88 8 1
-20 12 10 74 9 1
20 -12 10 92 10 1
-20 14 -10 0 2 1
20 -14 -10 3 6 1
-20 14 -10 1 3 1
20 -14 10 4 3 1
20 -14 10 0 3 1
-20 16 -10 13 2 1
-20 16 10 29 4 1
20 -16 10 16 2 1
20 -16 10 25 3 1
-18 -20 -10 4 2 1
20 -18 10 3 2 1
-21 -17 -10 24 5 1
-17 21 10 36 5 1
17 -21 10 33 4 1
-21 -15 -10 629 34 1
15 -21 10 606 30 1
-15 21 10 642 34 1
-13 21 -10 34 4 1
-21 -13 -10 21 2 1
13 -21 -10 20 3 1
13 -21 10 26 2 1
-13 21 10 23 2 1
-11 21 -10 49 8 1
11 -21 -10 59 9 1
11 -21 -10 43 5 1
-21 -11 -10 56 7 1
11 -21 10 42 6 1
-11 21 10 64 6 1
9 -21 -10 218 10 1
-9 21 -10 215 13 1
9 -21 -10 232 12 1
-21 -9 -10 213 13 1
-9 21 10 254 14 1
-9 21 10 233 11 1
9 -21 10 237 11 1
-21 -7 -10 1 3 1
7 -21 -10 19 2 1
7 -21 -10 23 3 1
-7 21 10 14 2 1
7 -21 10 21 2 1
5 -21 -10 541 21 1
5 -21 -10 553 22 1
-21 -5 -10 546 24 1
-5 21 -10 511 24 1
21 5 10 524 23 1
-21 -5 10 605 25 1
-5 21 10 532 21 1
5 -21 10 536 22 1
-21 -3 -10 806 34 1
-3 21 -10 796 33 1
3 -21 -10 820 29 1
3 -21 -10 832 31 1
21 3 10 845 31 1
-21 -3 10 818 34 1
3 -21 10 840 31 1
-3 21 10 791 30 1
1 -21 -10 746 29 1
1 -21 -10 741 31 1
-21 -1 10 729 35 1
21 1 10 764 31 1
-21 -1 10 827 34 1
-1 21 10 774 30 1
1 -21 10 744 31 1
-1 -21 -10 106 4 1
-21 1 -10 131 7 1
-1 -21 -10 104 7 1
-21 1 10 121 8 1
-1 -21 10 131 7 1
21 -1 10 143 7 1
1 21 10 133 6 1
-21 1 10 142 8 1
-21 3 -10 8 2 1
-3 -21 -10 21 2 1
3 21 10 21 2 1
-21 3 10 3 3 1
21 -3 10 8 3 1
-21 3 10 3 3 1
-3 -21 10 14 2 1
-21 5 -10 373 18 1
-5 -21 -10 440 17 1
5 21 10 421 21 1
-21 5 10 377 19 1
-5 -21 10 434 17 1
-21 5 10 402 18 1
5 21 10 448 17 1
21 -5 10 424 17 1
-7 -21 -10 7 2 1
-21 7 -10 9 3 1
-21 7 10 2 3 1
7 21 10 19 6 1
-7 -21 10 2 3 1
-21 9 -10 345 19 1
-21 9 -10 350 17 1
9 21 10 342 19 1
-21 9 10 340 20 1
-9 -21 10 360 19 1
21 -9 10 354 18 1
-21 11 -10 12 3 1
-21 11 -10 24 3 1
-21 11 10 50 2 1
21 -11 10 12 3 1
-21 11 10 50 2 1
21 -11 10 20 4 1
11 21 10 46 5 1
21 -13 -10 1 7 1
-21 13 -10 1 2 1
-21 13 10 1 2 1
-21 13 10 0 2 1
-21 15 -10 36 5 1
-21 15 10 46 5 1
21 -15 10 42 7 1
-17 -21 -10 102 6 1
-21 17 10 100 5 1
-22 -16 -10 85 6 1
16 -22 10 69 5 1
-22 -14 -10 0 2 1
-14 22 10 3 2 1
14 -22 10 3 1 1
12 -22 -10 299 19 1
-22 -12 -10 342 21 1
-12 22 -10 279 21 1
12 -22 -10 289 19 1
12 -22 10 301 19 1
-12 22 10 294 21 1
10 -22 -10 206 9 1
-10 22 -10 177 11 1
10 -22 -10 178 7 1
-22 -10 -10 196 9 1
10 -22 10 183 8 1
-10 22 10 187 8 1
-10 22 10 170 9 1
8 -22 -10 71 5 1
-8 22 -10 61 10 1
8 -22 -10 64 8 1
-22 -8 -10 67 8 1
8 -22 10 71 6 1
-8 22 10 71 6 1
-6 22 -10 76 11 1
6 -22 -10 85 5 1
-22 -6 -10 84 8 1
6 -22 -10 84 7 1
-6 22 10 81 6 1
6 -22 10 79 6 1
22 6 10 93 11 1
-22 -6 10 91 11 1
4 -22 -10 69 6 1
4 -22 -10 77 8 1
-4 22 -10 63 14 1
-22 -4 -10 72 9 1
4 -22 10 78 8 1
-4 22 10 67 7 1
22 4 10 66 11 1
-22 -4 10 70 11 1
2 -22 -10 449 17 1
-22 -2 -10 511 19 1
-22 -2 10 511 19 1
2 -22 10 459 16 1
-22 -2 10 493 19 1
-22 0 -10 869 42 1
0 -22 -10 859 38 1
-22 0 10 885 42 1
0 -22 10 837 37 1
-2 -22 -10 14 2 1
-22 2 -10 34 2 1
2 22 10 24 3 1
-2 -22 10 32 2 1
-22 2 10 17 3 1
-22 2 10 10 3 1
-22 4 -10 147 10 1
-4 -22 -10 152 10 1
-4 -22 10 147 9 1
-22 4 10 167 10 1
4 22 10 151 9 1
-22 4 10 166 10 1
22 -4 10 134 10 1
-22 6 -10 123 9 1
-6 -22 -10 142 9 1
22 -6 10 156 10 1
-22 6 10 144 10 1
-22 6 10 153 9 1
6 22 10 143 9 1
-6 -22 10 120 9 1
-22 8 -10 36 2 1
-8 -22 -10 43 2 1
8 22 10 57 4 1
-22 8 10 20 3 1
-8 -22 10 53 3 1
22 -8 10 26 3 1
-22 8 10 18 2 1
22 -10 10 582 23 1
10 22 10 540 24 1
-22 10 10 574 25 1
-22 12 -10 228 13 1
-22 12 10 245 14 1
-22 12 10 234 13 1
-22 14 -10 205 10 1
-22 14 10 202 10 1
-16 -22 -10 11 2 1
-22 16 -10 15 2 1
-23 -15 -10 168 7 1
15 -23 10 150 6 1
-15 23 10 171 8 1
-23 -13 -10 297 14 1
13 -23 10 272 12 1
-13 23 10 266 14 1
-23 -11 -10 449 26 1
11 -23 -10 486 24 1
11 -23 -10 436 23 1
11 -23 10 437 24 1
-23 -9 -10 15 5 1
9 -23 -10 21 7 1
-9 23 10 32 7 1
9 -23 10 15 5 1
7 -23 -10 168 9 1
-7 23 -10 149 14 1
7 -23 -10 179 11 1
-23 -7 -10 182 12 1
-7 23 10 173 10 1
7 -23 10 171 10 1
5 -23 -10 27 5 1
-23 -5 -10 24 7 1
5 -23 -10 33 6 1
-5 23 -10 20 7 1
23 5 10 18 6 1
-23 -5 10 24 4 1
5 -23 10 26 5 1
-5 23 10 16 3 1
3 -23 -10 965 34 1
-23 -3 -10 981 37 1
3 -23 -10 950 32 1
-3 23 10 908 33 1
-23 -3 10 990 37 1
3 -23 10 981 33 1
1 -23 -10 0 3 1
-23 -1 -10 0 2 1
-1 23 10 1 3 1
1 -23 10 1 2 1
23 1 10 0 4 1
-23 -1 10 3 3 1
-23 -1 10 0 4 1
-1 -23 -10 1347 55 1
-23 1 -10 1260 59 1
-23 1 10 1273 60 1
1 23 10 1268 54 1
23 -1 10 1329 54 1
-1 -23 10 1323 54 1
-23 3 -10 1754 78 1
-3 -23 -10 1811 71 1
23 -3 10 1722 71 1
-3 -23 10 1883 71 1
3 23 10 1753 70 1
-23 5 -10 8 2 1
-5 -23 -10 3 3 1
5 23 10 3 3 1
-23 5 10 4 3 1
-5 -23 10 5 2 1
23 -5 10 8 4 1
-23 5 10 0 2 1
-23 7 -10 10 2 1
-7 -23 -10 61 2 1
-23 7 10 44 2 1
7 23 10 77 4 1
23 -7 10 7 3 1
-7 -23 10 52 3 1
-23 9 -10 296 11 1
-9 -23 10 322 13 1
-23 9 10 285 11 1
23 -9 10 295 11 1
9 23 10 277 14 1
-23 11 -10 218 8 1
23 -11 10 180 9 1
-23 11 10 214 8 1
-23 11 10 189 8 1
-23 13 -10 272 15 1
-23 13 10 278 16 1
-23 13 10 288 17 1
-15 -23 -10 81 7 1
-23 15 -10 68 6 1
-23 15 10 76 6 1
-24 -14 -10 19 4 1
-24 -12 -10 11 2 1
12 -24 -10 18 3 1
12 -24 10 11 1 1
-24 -10 -10 8 2 1
10 -24 -10 4 2 1
-24 -8 -10 69 6 1
8 -24 -10 59 8 1
8 -24 10 49 6 1
-8 24 10 55 8 1
-6 24 -10 83 16 1
6 -24 -10 105 10 1
6 -24 -10 109 10 1
-24 -6 -10 114 10 1
-6 24 10 105 9 1
6 -24 10 119 9 1
4 -24 -10 131 8 1
4 -24 -10 144 9 1
-24 -4 10 129 9 1
-4 24 10 140 8 1
4 -24 10 140 8 1
24 4 10 149 15 1
-24 -2 -10 57 8 1
2 -24 -10 54 7 1
24 2 10 72 12 1
-2 24 10 46 7 1
2 -24 10 51 6 1
-24 0 -10 334 18 1
0 -24 -10 349 17 1
0 -24 10 359 16 1
0 24 10 360 16 1
24 0 10 333 18 1
-24 0 10 336 18 1
-2 -24 -10 389 19 1
-24 2 -10 354 20 1
2 24 10 369 19 1
24 -2 10 379 20 1
-24 2 10 369 20 1
-2 -24 10 382 19 1
-4 -24 -10 0 2 1
24 -4 10 0 4 1
-4 -24 10 2 2 1
4 24 10 1 4 1
-24 4 10 13 2 1
-6 -24 -10 97 8 1
-24 6 -10 114 6 1
-24 6 10 120 6 1
24 -6 10 99 9 1
-24 6 10 121 6 1
-6 -24 10 99 7 1
6 24 10 93 10 1
-24 8 -10 5 2 1
-8 -24 10 11 2 1
-24 8 10 2 2 1
24 -8 10 6 4 1
-24 8 10 8 2 1
-24 10 -10 122 8 1
-24 10 10 127 8 1
-24 10 10 101 8 1
-24 12 -10 73 6 1
-24 12 10 67 6 1
-24 14 -10 26 4 1
-24 14 10 26 4 1
11 -25 -10 4 2 1
-25 -11 -10 2 2 1
11 -25 10 5 1 1
-25 -9 -10 98 7 1
9 -25 -10 101 7 1
9 -25 10 109 6 1
7 -25 -10 180 11 1
-25 -7 -10 194 13 1
-25 -5 -10 25 4 1
5 -25 10 8 2 1
-25 -5 10 18 3 1
-5 25 10 8 3 1
-25 -3 -10 3 2 1
3 -25 -10 3 2 1
3 -25 10 2 2 1
-25 -3 10 3 2 1
-3 25 10 6 3 1
1 -25 -10 126 8 1
-25 -1 -10 130 7 1
25 1 10 131 14 1
-25 -1 10 130 7 1
1 -25 10 133 8 1
-1 -25 -10 32 6 1
25 -1 10 11 6 1
-25 1 10 14 5 1
-3 -25 -10 754 28 1
-25 3 -10 734 29 1
25 -3 10 717 29 1
-3 -25 10 770 27 1
3 25 10 699 28 1
-25 3 10 720 30 1
-5 -25 -10 28 2 1
-25 5 10 12 2 1
-25 5 10 18 2 1
-25 7 -10 4 1 1
-25 7 10 3 2 1
-25 7 10 2 2 1
-7 -25 10 8 2 1
-25 9 -10 251 15 1
-25 9 10 240 16 1
-25 9 10 269 15 1
-9 -25 10 256 14 1
-26 -10 -10 93 6 1
10 -26 -10 83 6 1
10 -26 10 76 5 1
-26 -8 -10 73 6 1
8 -26 -10 70 6 1
8 -26 10 59 5 1
-26 -6 -10 38 5 1
6 -26 -10 28 4 1
6 -26 10 35 4 1
-26 -4 -10 19 4 1
-26 -4 10 21 7 1
4 -26 10 18 3 1
-26 -2 -10 459 24 1
2 -26 -10 451 22 1
2 -26 10 460 21 1
-26 -2 10 469 23 1
0 -26 -10 313 14 1
-26 0 -10 358 14 1
-26 0 10 337 14 1
0 -26 10 295 13 1
-26 2 10 14 6 1
-4 -26 -10 7 1 1
-26 4 -10 9 2 1
-26 4 10 13 2 1
-4 -26 10 17 1 1
-26 4 10 10 2 1
-26 6 -10 172 9 1
-6 -26 10 166 9 1
-26 6 10 172 10 1
-26 6 10 183 10 1
-26 8 -10 597 29 1
-26 8 10 594 30 1
-26 8 10 584 29 1
-8 -26 10 627 27 1
-26 10 -10 166 10 1
-26 10 10 146 10 1
-26 10 10 153 10 1
7 -27 -10 47 5 1
-27 -7 -10 45 5 1
7 -27 10 46 4 1
-27 -5 -10 86 6 1
5 -27 -10 82 6 1
5 -27 10 85 5 1
-27 -3 -10 2 1 1
3 -27 -10 4 1 1
3 -27 10 9 1 1
-27 -1 -10 3 2 1
1 -27 -10 2 1 1
-27 -1 10 5 2 1
-27 1 -10 308 16 1
-1 -27 -10 341 15 1
-1 -27 10 320 14 1
-3 -27 -10 37 4 1
-27 3 -10 29 4 1
-3 -27 10 40 4 1
-27 3 10 33 6 1
-27 3 10 35 5 1
-27 5 -10 83 4 1
-27 5 10 90 5 1
-27 5 10 88 5 1
-5 -27 10 73 4 1
-27 7 -10 42 5 1
-27 7 10 50 5 1
-27 7 10 50 5 1
-7 -27 10 48 5 1
0 -28 -10 388 15 1
-28 0 -10 378 16 1
-28 0 10 399 16 1
0 -28 10 382 14 1
1 0 -11 223 27 1
0 1 -11 236 27 1
0 -1 -11 242 27 1
0 -1 -11 241 27 1
1 0 -11 237 27 1
0 1 11 237 27 1
1 0 11 241 27 1
0 -1 11 211 30 1
-2 -1 -11 440 12 1
-1 2 -11 418 11 1
-2 -1 -11 453 12 1
1 -2 -11 461 11 1
2 1 -11 410 11 1
1 -2 11 456 11 1
-1 2 11 416 11 1
-2 -1 11 430 13 1
1 -2 11 466 11 1
2 -1 -11 7876 354 1
-2 1 -11 7542 354 1
1 2 -11 7526 353 1
2 -1 -11 7226 354 1
-1 -2 -11 7438 354 1
-1 -2 -11 7696 354 1
2 -1 11 7297 354 1
2 -3 -11 3755 108 1
-3 -2 -11 3934 108 1
-3 -2 -11 3821 108 1
2 -3 11 3870 108 1
-2 3 11 3948 108 1
2 -3 11 4157 120 1
0 3 -11 955 11 1
3 0 -11 751 11 1
-3 0 -11 968 11 1
3 0 -11 756 11 1
0 -3 -11 981 11 1
0 3 11 993 10 1
3 0 11 992 10 1
-2 -3 -11 2946 136 1
3 -2 -11 2809 135 1
-2 -3 -11 3024 135 1
3 -2 -11 2869 135 1
2 3 -11 3058 135 1
-2 -3 11 3021 150 1
-3 2 11 2768 150 1
3 -2 11 2755 135 1
2 3 11 2845 135 1
-4 -3 -11 366 5 1
-3 4 -11 314 5 1
3 -4 -11 285 5 1
-4 -3 -11 339 5 1
3 -4 11 338 5 1
3 -4 11 321 5 1
-4 -3 11 324 5 1
-4 -1 -11 2910 142 1
4 1 -11 2840 141 1
-4 -1 -11 3061 142 1
-1 4 -11 3049 142 1
4 1 11 3001 142 1
1 -4 11 3074 157 1
-1 4 11 2720 141 1
-1 -4 -11 159 15 1
-1 -4 -11 139 15 1
1 4 -11 139 15 1
-4 1 -11 135 15 1
4 -1 -11 94 15 1
-4 1 11 81 17 1
1 4 11 145 15 1
-1 -4 11 134 17 1
-3 -4 -11 3225 111 1
-3 -4 -11 3275 111 1
4 -3 -11 3293 111 1
-4 3 -11 3247 111 1
4 -3 -11 3334 111 1
-4 3 11 3345 123 1
3 4 11 3259 111 1
-3 -4 11 3353 123 1
4 -3 11 3348 111 1
4 -5 -11 1353 49 1
-5 -4 -11 1462 49 1
-4 5 -11 1460 49 1
4 -5 -11 1342 49 1
-5 -4 -11 1471 49 1
4 -5 11 1407 49 1
4 -5 11 1463 54 1
5 2 -11 9227 337 1
2 -5 -11 9853 339 1
2 -5 11 9459 338 1
2 -5 11 9649 337 1
-2 5 11 9328 339 1
5 2 11 9693 339 1
2 -5 11 9529 374 1
-2 5 11 9309 375 1
0 -5 -11 89 2 1
5 0 -11 317 3 1
0 -5 -11 89 2 1
-5 0 11 352 2 1
0 5 11 59 2 1
5 -2 -11 4029 92 1
5 -2 -11 3821 91 1
-2 -5 -11 4166 92 1
-5 2 -11 4098 92 1
-2 -5 -11 4226 92 1
-5 2 11 4124 102 1
-2 -5 11 4040 101 1
5 -4 -11 271 4 1
-4 -5 -11 275 5 1
4 5 11 275 4 1
-4 -5 11 302 5 1
5 -4 11 272 4 1
-5 4 11 275 4 1
-5 4 11 261 5 1
-6 -5 -11 6618 215 1
5 -6 -11 7081 215 1
5 -6 11 7161 238 1
-5 6 11 6929 215 1
5 -6 11 6800 238 1
6 5 11 6401 215 1
-6 -3 -11 139 13 1
6 3 -11 138 12 1
3 -6 -11 137 13 1
-3 6 -11 148 13 1
-6 -3 -11 139 13 1
3 -6 -11 124 13 1
3 -6 11 156 12 1
-3 6 11 139 12 1
3 -6 11 152 13 1
-1 6 -11 3919 117 1
6 1 -11 3951 116 1
1 -6 -11 4166 117 1
1 -6 -11 4057 117 1
-6 -1 -11 3951 117 1
6 1 11 4008 117 1
6 -1 -11 144 9 1
-1 -6 -11 164 9 1
-1 -6 -11 178 9 1
6 -1 -11 162 9 1
1 6 -11 171 9 1
-1 -6 11 188 10 1
-6 3 -11 14463 570 1
-3 -6 -11 13085 570 1
-3 -6 -11 13460 569 1
6 -3 -11 13435 568 1
-6 3 11 13538 631 1
6 -3 11 13643 570 1
-5 -6 -11 2160 70 1
6 -5 -11 2187 70 1
-6 5 -11 2229 70 1
6 -5 11 2145 70 1
-6 5 11 2277 69 1
-6 5 11 2221 69 1
-5 -6 11 2135 77 1
-7 -6 -11 1507 73 1
-7 -6 -11 1623 72 1
-6 7 -11 1604 73 1
6 -7 -11 1683 72 1
-7 -6 11 1501 80 1
6 -7 11 1495 72 1
-6 7 11 1559 72 1
7 4 -11 13 3 1
4 -7 -11 14 3 1
-7 -4 -11 11 4 1
-7 -4 -11 10 3 1
4 -7 11 14 3 1
7 4 11 13 3 1
2 -7 -11 10672 285 1
7 2 -11 11038 284 1
-2 7 -11 11258 285 1
-7 -2 -11 10686 285 1
2 -7 -11 10729 285 1
-7 -2 -11 10457 285 1
-2 7 11 10824 286 1
-2 7 11 10467 316 1
7 2 11 11072 285 1
-7 -2 11 11393 316 1
0 -7 -11 533 22 1
-7 0 -11 446 22 1
7 0 -11 503 21 1
0 7 -11 560 22 1
0 7 11 534 21 1
0 -7 11 595 23 1
0 7 11 524 24 1
7 -2 -11 128 3 1
7 -2 -11 137 2 1
2 7 -11 139 2 1
-2 -7 -11 146 2 1
-2 -7 -11 150 2 1
2 7 11 144 2 1
-7 2 11 136 3 1
7 -2 11 157 1 1
-7 4 -11 51 4 1
7 -4 -11 74 4 1
-7 4 11 75 5 1
4 7 11 55 3 1
-6 -7 -11 15078 631 1
-7 6 -11 15200 632 1
7 -6 -11 16647 632 1
7 -6 -11 15903 631 1
-7 6 11 15815 702 1
-6 -7 11 15474 701 1
-7 6 11 16719 632 1
7 -6 11 15922 634 1
6 7 11 14998 634 1
-7 6 11 16757 631 1
7 -8 -11 203 7 1
7 -8 -11 212 7 1
-7 8 -11 194 7 1
8 7 11 212 7 1
-7 8 11 210 7 1
7 -8 11 206 7 1
-7 8 11 201 9 1
-7 8 11 189 9 1
-8 -5 -11 3999 153 1
-8 -5 -11 4217 153 1
5 -8 -11 4071 153 1
5 -8 -11 4177 153 1
5 -8 11 4158 153 1
8 5 11 4138 153 1
-5 8 11 3865 153 1
-8 -5 11 4291 169 1
-8 -3 -11 54 4 1
3 -8 -11 86 4 1
3 -8 -11 87 4 1
-3 8 -11 74 5 1
-8 -3 -11 53 5 1
-3 8 11 83 4 1
-3 8 11 77 5 1
3 -8 11 77 4 1
8 3 11 64 5 1
8 1 -11 987 44 1
-8 -1 -11 1135 45 1
1 -8 -11 1060 44 1
-8 -1 -11 1134 45 1
1 -8 -11 1029 44 1
-8 -1 11 1042 49 1
8 1 11 1029 45 1
-1 8 11 1056 49 1
-1 8 11 1157 44 1
8 -1 -11 196 6 1
-1 -8 -11 173 5 1
8 -1 -11 207 5 1
1 8 -11 145 6 1
-1 -8 -11 178 5 1
8 -1 11 187 5 1
-3 -8 -11 124 15 1
-3 -8 -11 126 15 1
-8 3 -11 132 15 1
-3 -8 11 102 16 1
8 -5 -11 12788 489 1
-8 5 -11 12989 489 1
-5 -8 -11 13270 491 1
-5 -8 -11 12654 488 1
-5 -8 11 12934 542 1
8 -5 11 12667 491 1
-7 -8 -11 11214 415 1
-7 -8 -11 11670 413 1
-8 7 -11 11358 414 1
-8 7 11 10956 458 1
-8 7 11 11831 414 1
8 -7 11 10829 414 1
-7 -8 11 11562 458 1
-9 -8 -11 1714 63 1
-9 -8 -11 1623 63 1
-8 9 -11 1695 64 1
8 -9 -11 1645 63 1
8 -9 11 1548 63 1
-8 9 11 1683 63 1
-8 9 11 1577 70 1
-8 9 11 1710 70 1
-9 -8 11 1639 70 1
-9 -6 -11 1065 47 1
-6 9 -11 1090 47 1
6 -9 -11 1076 47 1
6 -9 -11 1079 47 1
-9 -6 -11 1153 47 1
-6 9 11 1091 52 1
6 -9 11 1034 46 1
-9 -6 11 1149 52 1
9 6 11 1139 47 1
-6 9 11 1060 54 1
-4 9 -11 1318 36 1
4 -9 -11 1274 36 1
4 -9 -11 1313 36 1
-9 -4 -11 1329 36 1
-9 -4 -11 1256 36 1
4 -9 11 1259 35 1
-9 -4 11 1262 40 1
4 -9 11 1218 35 1
-4 9 11 1241 36 1
-2 9 -11 6607 241 1
-9 -2 -11 6410 241 1
2 -9 -11 6444 241 1
2 -9 -11 6786 241 1
-9 -2 -11 6398 241 1
-9 -2 11 6800 267 1
-2 9 11 6611 241 1
9 2 11 6583 241 1
0 9 -11 3039 138 1
-9 0 -11 2906 138 1
0 -9 -11 2737 138 1
9 -2 -11 3 3 1
-2 -9 -11 8 2 1
2 9 11 9 2 1
9 -4 11 0 2 1
4 9 11 2 2 1
-4 -9 11 3 2 1
-9 4 11 0 2 1
-6 -9 -11 2423 78 1
9 -6 -11 2511 78 1
9 -6 -11 2571 78 1
-6 -9 -11 2490 78 1
-9 6 -11 2402 79 1
-9 6 11 2433 89 1
9 -6 11 2466 78 1
-9 6 11 2445 87 1
6 9 11 2388 78 1
-6 -9 11 2414 86 1
-8 -9 -11 1883 59 1
9 -8 -11 1958 60 1
9 -8 -11 2016 60 1
-8 -9 -11 1893 60 1
-9 8 -11 1890 60 1
-9 8 11 2003 69 1
-9 8 11 2017 67 1
-9 8 11 1959 67 1
-9 8 11 1941 59 1
-10 -9 -11 2273 93 1
9 -10 -11 2420 94 1
10 9 11 2319 94 1
-9 10 11 2417 93 1
-9 10 11 2275 104 1
-9 10 11 2409 107 1
9 -10 11 2434 94 1
-10 -7 -11 58 1 1
-7 10 -11 68 1 1
7 -10 -11 73 2 1
-7 10 11 63 2 1
-7 10 11 78 2 1
-7 10 11 63 2 1
10 7 11 48 1 1
-10 -7 11 56 2 1
5 -10 -11 185 19 1
-10 -5 -11 184 19 1
-10 -5 -11 174 19 1
-5 10 -11 201 20 1
-5 10 11 191 19 1
-5 10 11 167 23 1
-10 -5 11 181 22 1
5 -10 11 197 19 1
3 -10 -11 58 2 1
-10 -3 -11 60 2 1
3 -10 -11 53 2 1
-3 10 11 49 2 1
-3 10 11 56 2 1
-10 -3 11 50 2 1
1 -10 -11 1004 21 1
-10 -1 -11 932 21 1
-10 -1 -11 952 21 1
-1 10 -11 1032 21 1
1 -10 -11 1001 21 1
-10 -1 11 994 24 1
-1 10 11 988 21 1
-10 1 -11 18260 805 1
-1 -10 -11 18400 803 1
-1 -10 -11 18768 803 1
1 10 -11 18479 800 1
10 -1 11 17771 804 1
-10 1 11 17550 889 1
1 10 11 18591 804 1
-10 1 11 18732 906 1
-10 3 -11 3294 164 1
-3 -10 -11 3407 164 1
-3 -10 -11 3333 164 1
10 -3 -11 3443 164 1
3 10 11 3602 164 1
-10 5 -11 798 26 1
-5 -10 -11 759 26 1
-5 -10 -11 794 25 1
10 -5 -11 772 26 1
10 -5 11 736 26 1
-10 5 11 718 30 1
-7 -10 -11 527 19 1
-7 -10 -11 561 19 1
-10 7 -11 610 20 1
7 10 11 578 19 1
10 -7 11 606 20 1
-10 7 11 536 22 1
-10 7 11 540 22 1
-9 -10 -11 12 1 1
-10 9 -11 4 4 1
10 -9 -11 21 1 1
-9 -10 -11 12 1 1
-10 9 11 9 3 1
-10 9 11 11 2 1
-10 9 11 13 1 1
10 -9 11 7 2 1
-10 9 11 13 2 1
9 10 11 9 1 1
-10 11 -11 254 15 1
-10 11 -11 274 11 1
10 -11 -11 276 11 1
-11 -10 -11 269 10 1
-10 11 11 247 12 1
-10 11 11 255 10 1
-10 11 11 240 13 1
-10 11 11 243 12 1
8 -11 -11 24 3 1
-8 11 -11 22 4 1
-11 -8 -11 15 3 1
8 -11 -11 15 3 1
8 -11 11 17 4 1
-8 11 11 22 4 1
-8 11 11 16 5 1
-8 11 11 16 7 1
-11 -6 -11 5525 212 1
-6 11 -11 5672 213 1
6 -11 -11 5689 212 1
-11 -6 11 5687 235 1
-6 11 11 5507 212 1
-6 11 11 5755 241 1
11 6 11 5716 212 1
4 -11 -11 2856 92 1
-4 11 -11 2992 93 1
-4 11 11 2889 105 1
-4 11 11 2880 103 1
-2 11 -11 329 25 1
2 -11 -11 297 24 1
2 -11 -11 329 24 1
-11 -2 -11 322 24 1
-11 -2 -11 324 24 1
11 2 11 313 24 1
-2 11 11 273 27 1
-2 11 11 300 24 1
-11 -2 11 296 27 1
0 -11 -11 581 27 1
-11 0 -11 556 27 1
-11 0 -11 593 27 1
-11 0 -11 595 31 1
-11 0 11 526 31 1
11 0 11 543 27 1
0 11 11 567 27 1
-11 2 -11 871 34 1
-2 -11 -11 830 34 1
-2 -11 -11 815 34 1
-11 2 11 841 38 1
-4 -11 -11 573 22 1
-11 4 -11 584 22 1
-11 4 11 586 25 1
-11 4 11 558 26 1
11 -4 11 574 22 1
-11 6 -11 1021 34 1
-6 -11 -11 1048 34 1
-11 6 -11 1008 38 1
-6 -11 -11 988 35 1
-6 -11 -11 1110 34 1
-11 6 11 1019 38 1
-11 6 11 1007 38 1
6 11 11 1070 34 1
11 -6 11 987 34 1
-8 -11 -11 730 31 1
-11 8 -11 753 36 1
-8 -11 -11 738 32 1
11 -8 -11 713 32 1
-10 -11 -11 1253 51 1
-11 10 -11 1339 52 1
-11 10 -11 1349 58 1
-10 -11 -11 1324 52 1
-11 10 11 1376 58 1
10 11 11 1357 52 1
-11 12 -11 246 12 1
-12 -11 -11 262 10 1
-11 12 -11 257 15 1
-11 12 11 276 14 1
-11 12 11 236 14 1
-11 12 11 257 11 1
-11 12 11 242 13 1
-12 -9 -11 312 12 1
-9 12 -11 296 13 1
-12 -9 -11 299 11 1
9 -12 11 307 12 1
-9 12 11 299 14 1
12 9 11 328 12 1
-9 12 11 262 15 1
-9 12 11 282 12 1
-7 12 -11 2817 102 1
7 -12 -11 2838 101 1
-12 -7 -11 2755 101 1
-12 -7 -11 2923 101 1
7 -12 -11 2804 101 1
7 -12 11 2839 101 1
-7 12 11 2937 101 1
-12 -7 11 2679 112 1
-12 -5 -11 23 2 1
-12 -5 -11 30 2 1
-5 12 -11 33 3 1
5 -12 -11 24 2 1
-5 12 11 30 3 1
-5 12 11 21 3 1
-12 -5 11 37 4 1
12 5 11 30 2 1
5 -12 11 35 1 1
-5 12 11 37 4 1
-3 12 -11 4629 176 1
-12 -3 -11 4458 175 1
3 -12 -11 4723 175 1
-12 -3 -11 4330 175 1
-12 -3 11 4533 194 1
3 -12 11 4406 177 1
-12 -3 11 4518 199 1
-3 12 11 4803 199 1
-12 -1 -11 373 14 1
-1 12 -11 396 14 1
-12 -1 -11 374 13 1
-12 -1 -11 329 16 1
1 -12 -11 361 13 1
-1 12 11 352 15 1
-12 -1 11 370 16 1
12 1 11 357 13 1
-12 -1 11 340 17 1
-1 -12 -11 1063 32 1
-1 -12 -11 1155 32 1
-12 1 -11 1032 32 1
-12 1 11 1074 37 1
1 12 11 1117 32 1
-12 3 -11 2579 94 1
-3 -12 -11 2633 94 1
-3 -12 -11 2501 94 1
-3 -12 -11 2501 96 1
-12 3 -11 2480 105 1
-12 3 11 2506 105 1
-12 5 -11 848 38 1
-5 -12 -11 896 35 1
-5 -12 -11 897 33 1
12 -5 -11 834 33 1
-12 5 -11 800 33 1
-12 5 11 829 37 1
-12 5 11 895 37 1
-7 -12 -11 90 2 1
-12 7 -11 81 2 1
-7 -12 -11 82 1 1
-12 7 -11 85 3 1
12 -7 -11 22 4 1
7 12 11 72 2 1
-12 7 11 44 2 1
-12 7 11 30 3 1
-12 9 -11 800 44 1
-12 9 -11 763 40 1
-9 -12 -11 866 39 1
9 12 11 798 39 1
12 -9 11 803 39 1
-11 -12 -11 1273 53 1
12 -11 -11 1179 55 1
-11 -12 -11 1297 55 1
-12 11 -11 1298 61 1
-12 11 -11 1275 55 1
-12 11 11 1314 61 1
12 -11 11 1216 54 1
-12 11 11 1164 62 1
12 -13 -11 3 2 1
-12 13 -11 0 3 1
-13 -12 -11 0 2 1
-12 13 11 11 4 1
13 12 11 1 2 1
-12 13 11 4 2 1
-12 13 11 4 2 1
12 -13 11 4 2 1
-10 13 -11 1319 50 1
10 -13 -11 1225 50 1
10 -13 11 1291 51 1
-10 13 11 1328 56 1
-10 13 11 1288 49 1
10 -13 11 1220 49 1
8 -13 -11 12 5 1
-13 -8 -11 16 3 1
8 -13 -11 13 13 1
-13 -8 -11 14 4 1
-8 13 -11 12 6 1
8 -13 11 18 7 1
13 8 11 15 5 1
-8 13 11 8 6 1
-13 -6 -11 757 35 1
6 -13 -11 755 35 1
-6 13 -11 753 36 1
6 -13 -11 733 38 1
6 -13 -11 754 35 1
-13 -6 -11 712 35 1
-6 13 11 760 35 1
-13 -6 11 820 39 1
-6 13 11 747 41 1
6 -13 11 740 36 1
-6 13 11 794 39 1
4 -13 -11 16 1 1
-4 13 -11 20 2 1
4 -13 -11 17 1 1
-13 -4 -11 16 1 1
-13 -4 11 17 4 1
4 -13 11 19 2 1
-4 13 11 18 2 1
-13 -4 11 16 2 1
-4 13 11 19 2 1
-4 13 11 23 3 1
-13 -2 -11 0 3 1
2 -13 -11 0 2 1
-13 -2 -11 0 3 1
-13 -2 -11 1 3 1
2 -13 11 0 2 1
-13 -2 11 1 3 1
-13 -2 11 1 4 1
-2 13 11 0 4 1
0 -13 -11 541 24 1
0 13 -11 537 25 1
-13 0 -11 577 24 1
0 -13 -11 596 24 1
-13 0 -11 576 24 1
-13 0 11 597 28 1
-13 0 11 596 29 1
0 13 11 562 24 1
0 -13 11 525 25 1
0 13 11 527 27 1
-13 0 11 563 28 1
-13 2 -11 214 10 1
-13 2 -11 222 8 1
-2 -13 -11 270 8 1
-2 -13 -11 264 10 1
-2 -13 -11 253 8 1
2 13 11 245 8 1
-13 2 11 261 11 1
-13 2 11 225 11 1
-2 -13 11 223 11 1
-13 2 11 236 9 1
13 -2 11 218 8 1
-13 4 -11 1707 91 1
-4 -13 -11 1697 81 1
-13 4 -11 1716 82 1
-4 -13 -11 1765 82 1
-4 -13 -11 1681 83 1
13 -6 -11 640 30 1
-6 -13 -11 696 29 1
-6 -13 -11 675 31 1
-13 6 -11 668 30 1
-6 -13 -11 651 29 1
-13 6 -11 709 34 1
13 -6 11 671 30 1
-13 6 11 624 33 1
6 13 11 664 30 1
-13 6 11 685 33 1
13 -8 -11 8 5 1
-8 -13 -11 8 3 1
-8 -13 -11 15 7 1
-13 8 -11 2 4 1
8 13 11 3 4 1
-13 8 11 2 5 1
-13 8 11 6 5 1
-13 10 -11 488 18 1
-10 -13 -11 511 15 1
-13 10 -11 468 16 1
-10 -13 -11 479 14 1
13 -10 -11 504 16 1
10 13 11 499 15 1
-13 10 11 489 17 1
-13 12 -11 10 4 1
12 13 11 15 3 1
13 -12 11 5 4 1
-13 12 11 12 7 1
-13 12 11 11 6 1
13 -12 11 8 6 1
-13 14 -11 1605 71 1
-14 -13 -11 1573 70 1
-13 14 -11 1658 78 1
13 -14 -11 1620 71 1
14 13 11 1654 71 1
13 -14 11 1665 70 1
13 -14 11 1602 72 1
-13 14 11 1751 79 1
-14 -11 -11 125 8 1
-11 14 -11 121 8 1
11 -14 -11 125 8 1
-11 14 11 132 10 1
14 11 11 135 9 1
-11 14 11 122 7 1
-11 14 11 119 10 1
11 -14 11 125 7 1
9 -14 -11 1274 62 1
-14 -9 -11 1264 59 1
-9 14 -11 1321 60 1
9 -14 11 1366 59 1
-9 14 11 1393 59 1
14 9 11 1299 60 1
-9 14 11 1415 68 1
9 -14 11 1363 61 1
-9 14 11 1380 66 1
-14 -7 -11 4605 164 1
-7 14 -11 4375 165 1
7 -14 -11 4408 165 1
-14 -7 -11 4661 164 1
7 -14 11 4487 166 1
-7 14 11 4472 182 1
-7 14 11 4698 165 1
-7 14 11 4595 187 1
7 -14 11 4668 164 1
14 7 11 4386 165 1
5 -14 -11 364 15 1
5 -14 -11 383 15 1
-14 -5 -11 398 15 1
5 -14 -11 366 18 1
-14 -5 -11 400 15 1
-5 14 -11 394 16 1
14 5 11 377 16 1
-5 14 11 385 15 1
5 -14 11 373 16 1
-5 14 11 384 17 1
-5 14 11 381 19 1
-14 -3 -11 2990 108 1
3 -14 -11 3027 110 1
-14 -3 -11 2974 107 1
3 -14 -11 3072 108 1
-3 14 11 3017 122 1
-14 -3 11 2967 120 1
-14 -3 11 2784 120 1
3 -14 11 2985 109 1
-3 14 11 2848 108 1
1 -14 -11 206 14 1
-1 14 -11 228 15 1
-14 -1 -11 238 14 1
1 -14 -11 232 14 1
1 -14 -11 203 16 1
-14 -1 -11 238 14 1
-14 -1 11 209 18 1
1 -14 11 228 16 1
-14 -1 11 232 18 1
-1 14 11 209 16 1
14 1 11 214 15 1
-1 14 11 206 14 1
-14 1 -11 73 1 1
-14 1 -11 58 1 1
-14 1 -11 52 2 1
-1 -14 -11 15 1 1
-1 -14 -11 22 1 1
-1 -14 -11 22 2 1
1 14 11 31 1 1
14 -1 11 39 2 1
-1 -14 11 40 2 1
-14 1 11 19 2 1
1 14 11 17 2 1
-14 1 11 9 3 1
-14 1 11 16 3 1
-14 3 -11 656 21 1
-14 3 -11 621 18 1
-3 -14 -11 582 20 1
-3 -14 -11 613 18 1
-3 -14 -11 613 18 1
-3 -14 11 579 20 1
14 -3 11 656 19 1
3 14 11 609 18 1
-5 -14 -11 798 42 1
-14 5 -11 819 43 1
-5 -14 -11 754 44 1
-14 5 -11 851 48 1
14 -5 11 827 43 1
5 14 11 776 43 1
-5 -14 11 749 44 1
-14 5 11 807 48 1
-7 -14 -11 1142 44 1
-7 -14 -11 1108 41 1
-14 7 -11 1106 42 1
-14 7 -11 1185 47 1
-7 -14 -11 1167 42 1
7 14 11 1165 42 1
14 -7 11 1192 42 1
-14 7 11 1089 47 1
-7 -14 11 1093 44 1
-9 -14 -11 123 3 1
14 -9 -11 110 6 1
-14 9 -11 125 5 1
-9 -14 -11 114 4 1
-14 9 11 146 6 1
9 14 11 118 5 1
14 -9 11 120 5 1
-11 -14 -11 1202 53 1
-14 11 -11 1184 53 1
14 -11 -11 1195 53 1
-14 11 -11 1119 59 1
14 -11 11 1170 53 1
-14 11 11 1214 59 1
11 14 11 1260 53 1
-14 13 -11 86 10 1
14 -13 -11 100 9 1
-13 -14 -11 90 7 1
-14 13 -11 91 8 1
13 14 11 84 9 1
-14 13 11 103 11 1
-14 13 11 94 9 1
-14 13 11 87 8 1
14 -13 11 88 8 1
14 -13 11 94 7 1
-14 15 -11 40 6 1
14 -15 -11 52 7 1
-14 15 -11 44 9 1
14 -15 11 42 5 1
-14 15 11 38 7 1
15 14 11 33 8 1
14 -15 11 30 6 1
12 -15 -11 869 34 1
-15 -12 -11 849 34 1
-12 15 -11 827 35 1
-12 15 -11 865 38 1
-12 15 11 894 33 1
12 -15 11 885 33 1
-12 15 11 818 39 1
-12 15 11 897 39 1
12 -15 11 903 35 1
15 12 11 865 35 1
10 -15 -11 516 23 1
-15 -10 -11 528 22 1
-10 15 -11 531 23 1
10 -15 -11 511 26 1
-10 15 11 527 22 1
10 -15 11 560 23 1
10 -15 11 521 22 1
-10 15 11 542 26 1
-8 15 -11 27 5 1
8 -15 -11 24 4 1
-8 15 11 24 4 1
8 -15 11 20 3 1
-8 15 11 20 3 1
-8 15 11 25 4 1
6 -15 -11 1989 91 1
-15 -6 -11 1915 88 1
-15 -6 -11 2116 89 1
-6 15 -11 2036 90 1
6 -15 -11 2085 90 1
6 -15 11 2056 91 1
15 6 11 1976 90 1
-6 15 11 1977 99 1
-6 15 11 2078 90 1
-15 -4 -11 3544 126 1
4 -15 -11 3468 126 1
4 -15 -11 3397 128 1
-4 15 -11 3553 127 1
4 -15 -11 3526 126 1
-4 15 11 3400 126 1
15 4 11 3602 127 1
-4 15 11 3620 140 1
4 -15 11 3478 128 1
-4 15 11 3620 143 1
-15 -2 -11 132 6 1
2 -15 -11 123 7 1
2 -15 -11 123 6 1
2 -15 -11 146 9 1
-15 -2 -11 155 9 1
-15 -2 -11 138 6 1
-15 -2 11 133 8 1
-2 15 11 148 12 1
-2 15 11 144 7 1
-2 15 11 138 8 1
15 2 11 125 7 1
2 -15 11 123 8 1
-15 -2 11 136 11 1
-15 -2 11 131 10 1
-15 0 -11 117 5 1
0 -15 -11 119 8 1
-15 0 -11 107 4 1
0 -15 -11 115 4 1
0 -15 -11 103 5 1
0 -15 11 95 7 1
-15 0 11 109 9 1
0 15 11 107 6 1
15 0 11 112 5 1
0 15 11 110 5 1
-15 0 11 114 6 1
-15 0 11 112 8 1
-15 2 -11 607 19 1
-2 -15 -11 582 18 1
-2 -15 -11 578 19 1
-2 -15 -11 591 20 1
-2 -15 11 605 20 1
2 15 11 619 19 1
-15 2 11 546 22 1
-4 -15 -11 409 29 1
-15 4 -11 457 29 1
-4 -15 -11 426 29 1
-4 -15 -11 444 31 1
-15 4 -11 485 33 1
-15 4 11 470 33 1
4 15 11 428 29 1
-4 -15 11 430 30 1
-15 4 11 444 33 1
-15 6 -11 12 4 1
-6 -15 -11 14 5 1
-6 -15 -11 10 4 1
-6 -15 -11 20 7 1
-15 6 11 10 6 1
15 -6 11 9 5 1
-6 -15 11 19 10 1
6 15 11 10 5 1
-15 6 11 10 6 1
-8 -15 -11 66 5 1
15 -8 -11 64 7 1
-8 -15 -11 71 3 1
-8 -15 -11 73 7 1
-15 8 -11 50 7 1
-15 8 -11 73 5 1
-15 8 11 65 6 1
15 -8 11 62 5 1
8 15 11 74 5 1
-15 8 11 61 7 1
-15 10 -11 295 19 1
15 -10 -11 276 18 1
-10 -15 -11 275 17 1
-15 10 -11 275 17 1
-15 10 11 251 18 1
10 15 11 243 17 1
-15 10 11 296 19 1
15 -10 11 281 17 1
-15 12 -11 91 10 1
-12 -15 -11 91 7 1
-15 12 -11 98 8 1
15 -12 -11 101 9 1
12 15 11 107 8 1
-15 12 11 109 8 1
15 -12 11 114 7 1
15 -12 11 100 8 1
-15 12 11 112 11 1
-15 12 11 112 9 1
-15 14 -11 1139 50 1
-14 -15 -11 1089 49 1
-15 14 -11 1124 54 1
15 -14 -11 1182 50 1
15 -14 11 1170 50 1
14 15 11 1131 50 1
-15 14 11 1050 56 1
-15 14 11 1106 55 1
15 -16 -11 647 27 1
-15 16 -11 656 27 1
15 -16 11 702 27 1
-13 16 -11 44 8 1
13 -16 -11 44 8 1
-16 -13 -11 52 9 1
-13 16 -11 43 11 1
13 -16 11 47 8 1
-13 16 11 47 9 1
13 -16 11 47 6 1
-11 16 -11 3438 146 1
11 -16 -11 3131 145 1
-16 -11 -11 3332 145 1
-11 16 11 3301 165 1
11 -16 11 3523 147 1
11 -16 11 3361 144 1
16 11 11 3515 146 1
-11 16 11 3205 161 1
-11 16 11 3285 145 1
9 -16 -11 841 23 1
-9 16 -11 816 24 1
-16 -9 -11 847 23 1
9 -16 -11 850 26 1
9 -16 11 835 22 1
-9 16 11 859 27 1
-9 16 11 796 23 1
16 9 11 827 24 1
9 -16 11 859 24 1
7 -16 -11 1 2 1
-7 16 11 0 4 1
-7 16 11 1 3 1
16 7 11 1 3 1
-16 -5 -11 3 2 1
5 -16 -11 3 3 1
-16 -5 -11 1 3 1
-5 16 -11 5 3 1
-16 -5 -11 5 4 1
5 -16 -11 5 4 1
16 5 11 7 5 1
5 -16 11 2 2 1
-5 16 11 4 4 1
-5 16 11 1 2 1
-5 16 11 2 3 1
3 -16 -11 30 4 1
3 -16 -11 40 5 1
-16 -3 -11 37 4 1
-16 -3 -11 44 7 1
3 -16 -11 40 8 1
-3 16 11 49 11 1
-16 -3 11 55 10 1
-16 -3 11 37 9 1
16 3 11 41 5 1
-3 16 11 36 4 1
-3 16 11 41 6 1
-16 -1 -11 909 46 1
1 -16 -11 931 46 1
-16 -1 -11 941 45 1
1 -16 -11 932 46 1
1 -16 -11 886 47 1
1 -16 11 949 47 1
-1 16 11 938 51 1
-16 -1 11 884 52 1
-1 16 11 882 46 1
-16 -1 11 851 51 1
-16 1 -11 826 39 1
-16 1 -11 850 34 1
-1 -16 -11 860 34 1
-1 -16 -11 795 35 1
-1 -16 -11 819 36 1
-16 1 -11 834 34 1
1 16 11 866 35 1
16 -1 11 904 35 1
-1 -16 11 892 36 1
1 16 11 819 38 1
-16 3 -11 0 2 1
-16 3 -11 0 2 1
-3 -16 -11 0 2 1
-3 -16 -11 0 1 1
-3 -16 -11 3 4 1
-16 3 -11 0 2 1
-3 -16 11 1 2 1
-16 3 11 2 3 1
3 16 11 0 2 1
3 16 11 4 4 1
16 -3 11 0 2 1
-16 3 11 1 3 1
-5 -16 -11 292 12 1
-16 5 -11 316 13 1
-5 -16 -11 290 13 1
-5 -16 -11 273 14 1
-16 5 -11 292 15 1
-16 5 11 305 15 1
-16 5 11 315 16 1
16 -5 11 304 13 1
-16 5 11 282 15 1
-5 -16 11 282 15 1
5 16 11 275 13 1
-7 -16 -11 1647 68 1
-16 7 -11 1585 77 1
-7 -16 -11 1585 69 1
-16 7 -11 1557 70 1
16 -7 11 1525 70 1
7 16 11 1630 70 1
-7 -16 11 1591 71 1
-16 7 11 1567 77 1
-16 9 -11 292 20 1
-16 9 -11 318 18 1
-9 -16 -11 305 18 1
-9 -16 -11 311 19 1
16 -9 -11 292 19 1
9 16 11 291 18 1
16 -9 11 310 18 1
16 -11 -11 10 4 1
-16 11 -11 22 5 1
-16 11 -11 22 7 1
16 -11 11 18 5 1
-16 11 11 27 7 1
11 16 11 13 3 1
16 -11 11 14 3 1
-16 11 11 23 6 1
-16 11 11 16 4 1
16 -13 -11 456 20 1
-16 13 -11 394 19 1
-16 13 -11 437 21 1
-13 -16 -11 458 19 1
16 -13 11 434 19 1
-16 13 11 403 24 1
16 -13 11 447 20 1
-16 13 11 403 21 1
-15 -16 -11 146 10 1
-16 15 -11 131 10 1
-16 15 -11 119 8 1
16 -15 -11 112 9 1
16 -15 11 117 8 1
16 -15 11 137 7 1
-16 15 11 117 10 1
16 -17 -11 184 11 1
-16 17 -11 202 12 1
-16 17 -11 202 10 1
-16 17 11 166 11 1
16 -17 11 210 10 1
16 -17 11 177 9 1
-14 17 -11 285 13 1
14 -17 -11 271 12 1
14 -17 11 272 12 1
-14 17 11 279 14 1
14 -17 11 283 11 1
17 14 11 247 15 1
-12 17 -11 4 7 1
12 -17 -11 9 6 1
-12 17 11 5 5 1
-12 17 11 3 7 1
12 -17 11 3 4 1
12 -17 11 7 6 1
17 12 11 11 9 1
-10 17 -11 757 34 1
10 -17 -11 773 33 1
10 -17 -11 785 35 1
17 10 11 799 34 1
-10 17 11 812 33 1
10 -17 11 770 34 1
-17 -8 -11 764 41 1
-17 -8 -11 757 36 1
8 -17 -11 736 38 1
8 -17 -11 677 36 1
-8 17 11 696 41 1
-8 17 11 674 36 1
-8 17 11 750 40 1
8 -17 11 706 36 1
6 -17 -11 330 21 1
6 -17 -11 301 19 1
-17 -6 -11 311 20 1
-6 17 -11 307 21 1
-6 17 11 298 20 1
-6 17 11 296 23 1
-6 17 11 322 23 1
17 6 11 341 20 1
6 -17 11 314 20 1
4 -17 -11 508 20 1
4 -17 -11 512 22 1
-4 17 -11 505 22 1
-17 -4 -11 499 20 1
-4 17 11 489 25 1
-4 17 11 516 23 1
-17 -4 11 478 25 1
-4 17 11 511 21 1
-17 -2 -11 2446 95 1
-2 17 -11 2286 96 1
2 -17 -11 2429 95 1
2 -17 -11 2394 95 1
-17 -2 -11 2473 106 1
2 -17 -11 2545 97 1
17 2 11 2557 95 1
-2 17 11 2274 95 1
2 -17 11 2452 96 1
-2 17 11 2314 105 1
-17 -2 11 2459 106 1
0 -17 -11 2091 72 1
-17 0 -11 2072 81 1
-17 0 -11 2056 72 1
-17 0 -11 2171 73 1
0 -17 -11 2085 74 1
0 -17 -11 2123 73 1
-17 0 11 2178 83 1
0 -17 11 2177 74 1
-2 -17 -11 41 4 1
-17 2 -11 33 4 1
-2 -17 -11 47 7 1
-17 2 -11 33 7 1
-17 2 11 34 7 1
-2 -17 11 47 7 1
-17 2 11 30 8 1
2 17 11 44 5 1
17 -2 11 41 6 1
2 17 11 50 7 1
-4 -17 -11 668 23 1
-17 4 -11 678 24 1
-17 4 -11 696 28 1
-4 -17 -11 720 24 1
-17 4 11 701 28 1
17 -4 11 668 25 1
-17 4 11 655 27 1
4 17 11 704 24 1
-4 -17 11 730 25 1
-17 6 -11 246 13 1
-6 -17 -11 264 12 1
-17 6 -11 264 15 1
-6 -17 -11 252 14 1
-6 -17 -11 263 13 1
-17 6 11 276 15 1
-17 6 11 236 15 1
-6 -17 11 265 15 1
6 17 11 278 13 1
17 -6 11 235 13 1
-17 6 11 254 15 1
-8 -17 -11 106 7 1
-8 -17 -11 106 5 1
-17 8 -11 94 7 1
-17 8 -11 103 5 1
-8 -17 11 119 11 1
-17 8 11 117 7 1
-17 8 11 129 8 1
17 -8 11 109 6 1
8 17 11 109 6 1
-17 8 11 106 6 1
-17 10 -11 1890 73 1
-10 -17 -11 1932 73 1
-17 10 -11 1843 81 1
17 -10 -11 1737 74 1
17 -10 11 1777 74 1
10 17 11 1779 73 1
-17 10 11 1760 81 1
-17 10 11 1931 82 1
17 -10 11 1921 73 1
-17 12 -11 196 13 1
17 -12 -11 170 15 1
-17 12 -11 185 14 1
-12 -17 -11 195 13 1
-17 12 11 159 15 1
-17 12 11 163 14 1
17 -12 11 196 12 1
12 17 11 185 14 1
-17 12 11 191 17 1
17 -12 11 193 13 1
17 -14 -11 58 4 1
-17 14 -11 53 3 1
-17 14 -11 60 3 1
-14 -17 -11 38 4 1
17 -14 11 74 5 1
-17 14 11 74 7 1
17 -14 11 84 6 1
14 17 11 50 5 1
-17 14 11 74 6 1
-17 16 -11 32 3 1
17 -16 -11 36 4 1
-17 16 -11 38 3 1
17 -16 11 33 2 1
-17 16 11 48 3 1
17 -16 11 42 2 1
-17 18 -11 1036 46 1
17 -18 -11 1028 46 1
17 -18 11 1128 46 1
-17 18 11 1154 52 1
-18 -15 -11 1022 55 1
-15 18 -11 1018 50 1
15 -18 -11 1034 49 1
15 -18 11 1015 48 1
-15 18 11 1113 56 1
15 -18 11 1070 49 1
-18 -13 -11 225 13 1
-13 18 -11 217 12 1
13 -18 11 221 10 1
-13 18 11 256 13 1
18 13 11 232 15 1
13 -18 11 211 9 1
11 -18 -11 442 21 1
11 -18 -11 478 19 1
-11 18 -11 439 20 1
-11 18 11 430 22 1
-11 18 11 443 18 1
18 11 11 418 21 1
11 -18 11 480 19 1
-9 18 -11 495 20 1
9 -18 -11 524 18 1
9 -18 -11 499 20 1
-18 -9 -11 528 22 1
18 9 11 522 20 1
-9 18 11 514 18 1
9 -18 11 527 19 1
-9 18 11 529 22 1
-7 18 -11 191 14 1
-18 -7 -11 201 15 1
7 -18 -11 203 14 1
7 -18 -11 213 12 1
18 7 11 214 13 1
-7 18 11 196 15 1
7 -18 11 196 13 1
-7 18 11 197 12 1
-7 18 11 206 16 1
5 -18 -11 366 22 1
5 -18 -11 360 20 1
-18 -5 -11 346 20 1
-5 18 -11 349 22 1
-18 -5 11 349 24 1
-5 18 11 325 23 1
-5 18 11 347 24 1
-5 18 11 352 20 1
5 -18 11 349 21 1
3 -18 -11 104 5 1
3 -18 -11 107 8 1
-18 -3 -11 77 8 1
-18 -3 -11 75 8 1
-3 18 -11 83 10 1
3 -18 11 79 7 1
-18 -3 11 95 10 1
-18 -3 11 92 10 1
18 3 11 89 7 1
-3 18 11 102 9 1
-3 18 11 98 6 1
1 -18 -11 510 22 1
1 -18 -11 551 24 1
1 -18 -11 517 22 1
-18 -1 -11 524 22 1
-1 18 11 488 22 1
1 -18 11 522 23 1
-18 -1 11 542 26 1
-1 18 11 507 25 1
-18 1 -11 152 9 1
-1 -18 -11 131 8 1
-18 1 -11 161 6 1
-1 -18 -11 130 9 1
-1 -18 -11 134 7 1
-18 1 -11 164 8 1
-18 1 11 156 10 1
1 18 11 131 7 1
-1 -18 11 149 8 1
-18 1 11 139 9 1
18 -1 11 144 8 1
1 18 11 156 10 1
-18 1 11 165 10 1
-3 -18 -11 248 15 1
-18 3 -11 259 17 1
-3 -18 -11 236 14 1
-3 -18 -11 270 16 1
-18 3 -11 246 14 1
3 18 11 260 17 1
-18 3 11 248 17 1
-18 3 11 246 17 1
-18 3 11 259 17 1
3 18 11 253 15 1
-5 -18 -11 133 9 1
-18 5 -11 146 8 1
-18 5 -11 126 10 1
-5 -18 -11 139 7 1
-18 5 -11 141 10 1
-5 -18 -11 162 11 1
-18 5 11 124 11 1
18 -5 11 121 9 1
5 18 11 127 9 1
-5 -18 11 154 11 1
-18 5 11 140 10 1
-18 5 11 154 11 1
-7 -18 -11 19 5 1
-18 7 -11 10 4 1
-7 -18 -11 15 3 1
-7 -18 11 17 4 1
7 18 11 17 5 1
-18 7 11 11 4 1
-18 9 -11 52 6 1
-9 -18 -11 61 6 1
-18 9 -11 61 7 1
-18 9 11 57 7 1
-9 -18 11 53 11 1
-18 9 11 55 9 1
-18 9 11 74 8 1
18 -9 11 53 6 1
9 18 11 38 7 1
-18 11 -11 59 7 1
-18 11 -11 48 8 1
18 -11 -11 75 11 1
-11 -18 -11 62 7 1
-18 11 11 51 9 1
18 -11 11 61 7 1
18 -11 11 63 8 1
-18 11 11 61 7 1
11 18 11 48 9 1
-18 11 11 63 12 1
18 -13 -11 153 12 1
-18 13 -11 139 10 1
-18 13 -11 153 8 1
-13 -18 -11 141 9 1
13 18 11 132 12 1
18 -13 11 158 8 1
-18 13 11 154 9 1
18 -13 11 155 9 1
-18 13 11 133 10 1
18 -15 -11 5 4 1
-18 15 -11 6 3 1
-18 15 -11 17 3 1
18 -15 11 9 3 1
-18 15 11 6 3 1
15 18 11 12 6 1
18 -17 -11 863 34 1
-18 17 -11 862 33 1
18 -17 11 849 32 1
18 -17 11 885 33 1
-19 -18 -11 87 7 1
18 -19 11 100 6 1
-19 -16 -11 1324 58 1
16 -19 -11 1192 52 1
-16 19 -11 1194 52 1
-16 19 11 1304 58 1
16 -19 11 1210 52 1
-14 19 -11 11 4 1
-19 -14 -11 3 3 1
14 -19 -11 13 3 1
-14 19 11 11 3 1
14 -19 11 12 2 1
-19 -12 -11 36 3 1
-12 19 -11 49 3 1
12 -19 -11 47 2 1
12 -19 11 55 2 1
19 12 11 31 5 1
-10 19 -11 26 4 1
10 -19 -11 32 2 1
-19 -10 -11 25 3 1
10 -19 -11 32 3 1
10 -19 11 37 2 1
-10 19 11 27 3 1
19 10 11 25 4 1
8 -19 -11 1440 53 1
-8 19 -11 1348 53 1
-8 19 11 1397 52 1
8 -19 11 1376 53 1
-8 19 11 1410 59 1
19 8 11 1385 53 1
6 -19 -11 10 2 1
6 -19 -11 10 3 1
-19 -6 -11 4 3 1
-6 19 -11 1 4 1
6 -19 11 6 2 1
-6 19 11 10 4 1
19 6 11 2 3 1
-6 19 11 2 2 1
-4 19 -11 155 14 1
4 -19 -11 169 11 1
4 -19 -11 175 13 1
-19 -4 11 174 15 1
19 4 11 162 12 1
-4 19 11 160 15 1
-4 19 11 156 11 1
4 -19 11 162 12 1
2 -19 -11 2484 104 1
2 -19 -11 2576 107 1
-19 -2 11 2400 116 1
19 2 11 2591 105 1
2 -19 11 2530 106 1
-19 -2 11 2515 118 1
-2 19 11 2443 116 1
-2 19 11 2520 105 1
0 -19 -11 105 6 1
0 -19 -11 93 9 1
-19 0 -11 107 9 1
0 19 11 103 7 1
-19 0 11 93 10 1
19 0 11 116 8 1
0 -19 11 112 8 1
-19 0 11 99 10 1
0 19 11 94 10 1
-19 0 11 126 9 1
-19 2 -11 190 10 1
-19 2 -11 163 8 1
-2 -19 -11 190 9 1
-19 2 -11 173 11 1
-2 -19 -11 187 8 1
-2 -19 -11 182 11 1
19 -2 11 168 10 1
2 19 11 165 12 1
-19 2 11 195 11 1
-2 -19 11 188 10 1
-19 2 11 173 11 1
-19 2 11 202 11 1
2 19 11 154 9 1
-4 -19 -11 273 13 1
-4 -19 -11 262 15 1
-4 -19 -11 287 14 1
-19 4 -11 268 16 1
-19 4 -11 294 13 1
-19 4 -11 290 15 1
4 19 11 273 16 1
19 -4 11 261 15 1
4 19 11 286 14 1
-4 -19 11 307 15 1
-19 4 11 248 17 1
-19 4 11 273 16 1
-19 6 -11 2364 76 1
-6 -19 -11 2391 78 1
-19 6 -11 2406 77 1
-6 -19 -11 2294 77 1
-19 6 -11 2254 85 1
19 -6 11 2319 77 1
-6 -19 11 2336 78 1
6 19 11 2323 77 1
-19 6 11 2297 85 1
-19 8 -11 43 7 1
-8 -19 -11 45 8 1
-8 -19 -11 34 6 1
-19 8 -11 56 6 1
-19 8 11 46 7 1
-19 8 11 40 8 1
-8 -19 11 47 11 1
8 19 11 33 7 1
-19 8 11 49 10 1
-10 -19 -11 267 14 1
-19 10 -11 290 13 1
-19 10 -11 287 15 1
19 -10 11 277 14 1
-19 10 11 273 16 1
19 -10 11 279 15 1
-19 10 11 297 15 1
-19 10 11 295 19 1
10 19 11 277 15 1
-19 12 -11 96 8 1
-19 12 -11 93 10 1
19 -12 -11 92 13 1
-19 12 11 79 10 1
12 19 11 75 11 1
19 -12 11 94 9 1
19 -12 11 99 8 1
-19 12 11 96 10 1
-19 14 -11 134 11 1
-19 14 -11 142 10 1
19 -14 -11 125 14 1
14 19 11 139 15 1
-19 14 11 143 12 1
19 -14 11 129 9 1
-19 14 11 129 11 1
19 -14 11 133 10 1
-19 16 -11 79 6 1
-19 16 -11 84 8 1
19 -16 -11 105 12 1
19 -16 11 78 6 1
-19 16 11 87 5 1
-18 -19 -11 270 14 1
19 -18 11 244 12 1
-19 18 11 273 14 1
-20 -19 -11 24 4 1
-19 20 11 16 4 1
-20 -17 -11 376 17 1
-17 20 11 393 17 1
17 -20 11 346 15 1
-15 20 -11 72 10 1
-20 -15 -11 80 7 1
15 -20 -11 85 9 1
-15 20 11 96 7 1
15 -20 11 75 7 1
13 -20 -11 500 26 1
-20 -13 -11 610 31 1
-13 20 -11 476 28 1
13 -20 11 501 27 1
-20 -11 -11 1 3 1
-11 20 -11 130 4 1
11 -20 -11 156 3 1
20 11 11 1 6 1
-11 20 11 106 3 1
-11 20 11 156 3 1
11 -20 11 129 2 1
-9 20 -11 107 11 1
9 -20 -11 91 11 1
9 -20 -11 101 8 1
-20 -9 -11 97 11 1
-9 20 11 116 9 1
9 -20 11 98 9 1
-9 20 11 115 12 1
-7 20 -11 207 4 1
7 -20 -11 222 2 1
-20 -7 -11 158 3 1
7 -20 -11 222 2 1
20 7 11 134 4 1
-7 20 11 182 4 1
-7 20 11 173 2 1
7 -20 11 168 2 1
5 -20 -11 20 2 1
5 -20 -11 20 2 1
-20 -5 -11 10 3 1
-5 20 -11 11 5 1
5 -20 11 9 2 1
-5 20 11 20 2 1
20 5 11 21 3 1
-20 -5 11 6 4 1
3 -20 -11 149 11 1
-20 -3 -11 142 14 1
3 -20 -11 147 13 1
20 3 11 120 13 1
-20 -3 11 124 16 1
-20 -3 11 122 15 1
3 -20 11 158 13 1
-3 20 11 137 12 1
1 -20 -11 763 26 1
-20 -1 -11 779 28 1
1 -20 -11 731 24 1
-20 -1 11 728 28 1
1 -20 11 713 25 1
20 1 11 774 25 1
-1 20 11 674 29 1
-20 -1 11 759 28 1
-1 20 11 684 25 1
-1 -20 -11 1589 60 1
-1 -20 -11 1434 57 1
-20 1 -11 1528 65 1
1 20 11 1468 58 1
-1 -20 11 1561 59 1
-20 1 11 1508 66 1
1 20 11 1449 64 1
-20 3 -11 18 7 1
-3 -20 -11 14 8 1
-3 -20 -11 24 5 1
-20 3 -11 24 5 1
-20 3 11 30 8 1
20 -3 11 25 7 1
-20 3 11 32 9 1
-20 3 11 27 8 1
-3 -20 11 27 8 1
3 20 11 22 6 1
-20 5 -11 114 10 1
-20 5 -11 113 8 1
-5 -20 -11 119 7 1
-20 5 -11 122 6 1
-5 -20 -11 120 8 1
-20 5 11 152 10 1
-20 5 11 134 8 1
-5 -20 11 127 9 1
5 20 11 139 7 1
5 20 11 127 11 1
20 -5 11 109 7 1
-20 5 11 140 9 1
-7 -20 -11 568 21 1
-20 7 -11 565 23 1
-7 -20 -11 560 22 1
-20 7 -11 642 20 1
-20 7 -11 625 23 1
-20 7 11 570 24 1
-20 7 11 575 25 1
-7 -20 11 567 22 1
7 20 11 594 25 1
7 20 11 581 22 1
20 -7 11 625 22 1
-20 9 -11 450 21 1
-20 9 -11 430 23 1
9 20 11 371 22 1
-20 9 11 416 26 1
-9 -20 11 406 23 1
20 -9 11 430 21 1
-20 9 11 446 24 1
20 -9 11 420 22 1
-20 11 -11 96 11 1
-20 11 -11 96 9 1
-20 11 11 91 10 1
20 -11 11 99 10 1
-20 11 11 82 11 1
11 20 11 105 13 1
20 -11 11 93 11 1
20 -13 -11 1 6 1
-20 13 -11 1 3 1
20 -13 11 1 3 1
13 20 11 1 6 1
-20 13 11 1 2 1
20 -13 11 1 3 1
-20 13 11 1 3 1
-20 15 -11 468 17 1
-20 15 -11 440 16 1
20 -15 11 482 16 1
20 -15 11 427 16 1
-20 15 11 509 18 1
-17 -20 -11 308 15 1
20 -17 11 298 13 1
-20 17 11 276 15 1
-19 -20 -11 44 5 1
-20 19 11 48 4 1
-21 -18 -11 2 2 1
18 -21 11 2 1 1
-18 21 11 0 2 1
-21 -16 -11 1 2 1
-16 21 11 2 2 1
16 -21 11 5 1 1
-14 21 -11 38 4 1
14 -21 -11 29 3 1
-21 -14 -11 9 2 1
-14 21 11 41 2 1
14 -21 11 34 2 1
12 -21 -11 129 6 1
-12 21 -11 176 10 1
12 -21 -11 148 11 1
-12 21 11 137 7 1
12 -21 11 138 6 1
-12 21 11 130 9 1
-21 -10 -11 39 7 1
-10 21 -11 31 5 1
10 -21 -11 44 5 1
10 -21 -11 36 4 1
-10 21 11 30 4 1
8 -21 -11 406 15 1
-8 21 -11 388 18 1
8 -21 -11 406 17 1
-21 -8 -11 421 19 1
-8 21 11 424 16 1
-8 21 11 431 20 1
21 8 11 398 19 1
8 -21 11 397 16 1
6 -21 -11 38 5 1
6 -21 -11 53 8 1
-21 -6 -11 40 8 1
-6 21 11 40 6 1
6 -21 11 44 6 1
-21 -4 -11 802 35 1
4 -21 -11 775 30 1
4 -21 -11 777 32 1
-4 21 -11 710 33 1
-4 21 11 737 31 1
21 4 11 731 32 1
4 -21 11 775 31 1
-21 -4 11 716 35 1
2 -21 -11 95 9 1
2 -21 -11 100 7 1
-21 -2 -11 100 9 1
-21 -2 11 107 11 1
-21 -2 11 95 11 1
2 -21 11 93 8 1
-2 21 11 103 8 1
21 2 11 78 9 1
0 -21 -11 15 2 1
0 -21 -11 11 2 1
-21 0 -11 1 3 1
-21 0 11 6 3 1
0 21 11 16 2 1
21 0 11 1 3 1
0 -21 11 8 2 1
-21 0 11 6 3 1
-2 -21 -11 2569 101 1
-2 -21 -11 2595 105 1
-21 2 -11 2449 114 1
2 21 11 2592 103 1
-2 -21 11 2662 104 1
-4 -21 -11 186 9 1
-21 4 -11 167 9 1
4 21 11 195 8 1
-21 4 11 181 9 1
-4 -21 11 180 9 1
21 -4 11 157 9 1
-21 4 11 165 10 1
4 21 11 169 14 1
-21 6 -11 48 7 1
-6 -21 -11 52 7 1
21 -6 11 73 7 1
-21 6 11 63 7 1
-21 6 11 71 7 1
-6 -21 11 54 8 1
6 21 11 56 13 1
-8 -21 -11 45 7 1
-21 8 -11 53 7 1
-21 8 -11 69 7 1
-21 8 11 73 8 1
21 -8 11 68 7 1
8 21 11 60 8 1
-8 -21 11 58 9 1
-21 8 11 57 7 1
8 21 11 37 13 1
21 -8 11 52 10 1
-21 10 -11 23 6 1
-21 10 11 17 6 1
21 -10 11 19 6 1
21 -10 11 13 4 1
-21 12 -11 427 18 1
-21 12 -11 423 17 1
21 -12 11 409 17 1
-21 12 11 405 19 1
12 21 11 382 20 1
21 -12 11 416 18 1
-21 14 -11 134 8 1
-21 14 11 128 8 1
21 -14 11 117 9 1
-21 16 -11 10 2 1
-21 16 11 14 4 1
21 -16 11 7 2 1
-18 -21 -11 16 2 1
-21 18 11 19 2 1
-22 -15 -11 49 5 1
15 -22 11 51 4 1
-15 22 11 49 6 1
-22 -13 -11 1 2 1
-13 22 11 4 3 1
11 -22 -11 490 16 1
-11 22 -11 478 19 1
11 -22 11 525 16 1
-11 22 11 544 18 1
-11 22 11 494 17 1
-9 22 -11 17 5 1
-22 -9 -11 8 3 1
9 -22 -11 15 3 1
9 -22 -11 11 2 1
9 -22 11 17 5 1
-7 22 -11 111 14 1
7 -22 -11 126 11 1
7 -22 -11 124 9 1
-22 -7 -11 112 11 1
7 -22 11 137 10 1
-7 22 11 130 9 1
22 7 11 114 14 1
-5 22 -11 131 14 1
5 -22 -11 148 9 1
-22 -5 -11 163 10 1
5 -22 -11 130 7 1
22 5 11 146 12 1
-5 22 11 136 8 1
5 -22 11 152 8 1
3 -22 -11 23 6 1
3 -22 -11 24 5 1
3 -22 11 16 6 1
-22 -3 11 8 4 1
22 3 11 9 4 1
-3 22 11 19 5 1
-22 -1 -11 322 15 1
1 -22 -11 326 14 1
1 -22 -11 317 12 1
-22 -1 11 307 16 1
1 -22 11 336 13 1
-22 -1 11 331 15 1
22 1 11 305 14 1
-1 22 11 331 13 1
-22 1 -11 509 21 1
-1 -22 -11 495 20 1
1 22 11 489 19 1
-1 -22 11 492 19 1
-22 1 11 516 22 1
-22 1 11 540 21 1
-3 -22 -11 338 19 1
22 -3 11 335 19 1
-22 3 11 334 20 1
-22 3 11 356 21 1
3 22 11 351 19 1
-3 -22 11 354 19 1
-22 5 -11 539 26 1
-5 -22 -11 577 24 1
-5 -22 11 575 24 1
22 -5 11 561 24 1
5 22 11 550 24 1
-22 5 11 569 26 1
-7 -22 -11 62 8 1
-22 7 -11 44 7 1
22 -7 11 53 8 1
7 22 11 71 9 1
-22 7 11 62 8 1
-22 7 11 51 8 1
-7 -22 11 60 9 1
-22 9 -11 68 7 1
-22 9 11 61 8 1
9 22 11 64 10 1
-9 -22 11 70 10 1
-22 9 11 57 7 1
22 -9 11 74 7 1
-22 11 -11 256 11 1
22 -11 11 258 12 1
-22 11 11 276 12 1
-22 11 11 277 12 1
11 22 11 247 16 1
-22 13 -11 17 5 1
-22 13 11 15 5 1
-22 13 11 16 4 1
-22 15 -11 52 6 1
-22 15 11 61 6 1
-23 -14 -11 168 11 1
14 -23 11 150 10 1
-14 23 11 163 12 1
-23 -12 -11 129 10 1
12 -23 11 177 9 1
-12 23 11 191 11 1
-10 23 -11 65 12 1
10 -23 -11 58 6 1
-23 -10 -11 61 6 1
10 -23 -11 85 7 1
-10 23 11 82 9 1
10 -23 11 71 6 1
8 -23 -11 215 10 1
8 -23 -11 223 11 1
-23 -8 -11 232 11 1
-8 23 11 208 11 1
8 -23 11 199 10 1
6 -23 -11 171 10 1
-23 -6 -11 143 11 1
6 -23 -11 175 9 1
-6 23 11 160 9 1
6 -23 11 155 10 1
4 -23 -11 182 11 1
4 -23 -11 186 10 1
-23 -4 -11 195 12 1
4 -23 11 185 10 1
-4 23 11 187 10 1
23 4 11 196 14 1
-23 -4 11 177 13 1
-23 -2 -11 194 12 1
2 -23 -11 209 12 1
2 -23 -11 175 10 1
23 2 11 175 13 1
-23 -2 11 194 13 1
-2 23 11 177 11 1
2 -23 11 189 11 1
-23 0 -11 2157 94 1
0 -23 -11 2323 86 1
23 0 11 2079 86 1
-23 0 11 2247 94 1
-23 0 11 2088 96 1
0 23 11 2099 85 1
0 -23 11 2163 86 1
-23 2 -11 45 7 1
-2 -23 -11 64 7 1
-23 2 11 56 8 1
-2 -23 11 46 7 1
-23 2 11 50 8 1
23 -2 11 71 8 1
2 23 11 68 7 1
-23 4 -11 6 3 1
-4 -23 -11 8 3 1
23 -4 11 6 4 1
-23 4 11 9 3 1
-4 -23 11 26 7 1
4 23 11 10 4 1
-23 4 11 11 3 1
-6 -23 -11 10 2 1
-23 6 -11 4 2 1
6 23 11 6 4 1
-23 6 11 6 2 1
-6 -23 11 7 2 1
-23 8 -11 278 15 1
-8 -23 11 285 15 1
8 23 11 252 17 1
-23 8 11 299 15 1
-23 8 11 306 16 1
23 -8 11 297 15 1
-23 10 -11 39 4 1
-23 10 11 47 4 1
-23 10 11 47 5 1
23 -10 11 34 4 1
-23 12 -11 69 5 1
-23 12 11 65 5 1
-23 14 -11 13 2 1
-23 14 11 7 2 1
-24 -13 -11 0 2 1
13 -24 11 5 1 1
-24 -11 -11 207 16 1
11 -24 -11 232 14 1
11 -24 11 233 14 1
9 -24 -11 168 11 1
-24 -9 -11 162 12 1
7 -24 -11 17 7 1
7 -24 -11 25 7 1
-24 -7 -11 20 5 1
7 -24 11 22 6 1
-7 24 11 30 7 1
5 -24 -11 25 6 1
-24 -5 -11 28 5 1
5 -24 -11 41 7 1
24 5 11 22 7 1
5 -24 11 24 5 1
3 -24 -11 313 13 1
24 3 11 303 17 1
-3 24 11 294 13 1
3 -24 11 281 13 1
1 -24 -11 129 8 1
-24 -1 11 112 7 1
24 1 11 128 11 1
1 -24 11 132 7 1
-1 -24 -11 1086 45 1
24 -1 11 1037 45 1
-1 -24 11 1048 44 1
-24 1 11 1099 49 1
-3 -24 -11 100 8 1
24 -3 11 118 10 1
3 24 11 116 9 1
-3 -24 11 92 8 1
-24 3 11 117 7 1
-24 3 11 116 7 1
-24 5 -11 179 9 1
-5 -24 -11 154 10 1
-24 5 11 172 9 1
-5 -24 11 163 9 1
24 -5 11 168 11 1
5 24 11 145 11 1
-24 7 -11 38 4 1
-24 7 11 38 5 1
-24 7 11 44 5 1
7 24 11 49 10 1
-24 9 -11 147 7 1
-9 -24 11 144 8 1
-24 9 11 165 7 1
-24 11 -11 893 38 1
-24 11 11 890 38 1
-24 11 11 929 40 1
-24 13 -11 86 6 1
-24 13 11 101 7 1
-25 -12 -11 106 8 1
12 -25 11 87 7 1
10 -25 -11 8 2 1
-25 -10 -11 1 2 1
10 -25 11 4 1 1
8 -25 -11 160 10 1
8 -25 11 150 9 1
6 -25 -11 315 15 1
-25 -6 -11 334 17 1
-25 -4 -11 2 2 1
-4 25 11 4 3 1
4 -25 11 2 2 1
-25 -4 11 4 3 1
-25 -2 -11 67 5 1
2 -25 -11 64 7 1
2 -25 11 68 6 1
-25 -2 11 73 7 1
-25 0 -11 1298 51 1
0 25 11 1208 47 1
-25 0 11 1253 51 1
0 -25 11 1268 46 1
-25 0 11 1261 52 1
-2 -25 -11 455 21 1
-25 2 -11 485 23 1
-25 2 11 480 23 1
-2 -25 11 422 21 1
-4 -25 -11 48 7 1
-25 4 -11 52 5 1
-25 4 11 55 6 1
-25 4 11 49 6 1
-25 6 -11 141 10 1
-25 6 11 145 10 1
-25 6 11 160 10 1
-6 -25 11 166 9 1
-25 8 -11 12 4 1
-25 8 11 14 4 1
-8 -25 11 16 5 1
-25 8 11 11 5 1
-25 10 -11 2 2 1
-25 10 11 3 2 1
-25 10 11 3 1 1
-25 12 -11 0 1 1
-25 12 11 4 1 1
-26 -9 -11 5 2 1
9 -26 -11 2 2 1
9 -26 11 4 1 1
-26 -7 -11 17 4 1
7 -26 -11 14 2 1
7 -26 11 16 3 1
-26 -5 -11 1 2 1
5 -26 -11 1 1 1
5 -26 11 0 1 1
3 -26 -11 49 5 1
-26 -3 -11 64 5 1
3 -26 11 58 4 1
1 -26 -11 257 14 1
-26 -1 -11 292 15 1
-26 -1 11 307 15 1
-1 -26 -11 8 1 1
-26 1 11 5 2 1
-26 1 11 0 3 1
-1 -26 11 4 1 1
-26 3 -11 273 12 1
-3 -26 -11 270 11 1
-3 -26 11 257 11 1
-26 3 11 266 12 1
-26 3 11 252 12 1
-26 5 -11 1 1 1
-26 5 11 1 2 1
-26 5 11 5 2 1
-5 -26 11 5 1 1
-26 7 -11 463 22 1
-26 7 11 460 22 1
-26 7 11 431 22 1
-7 -26 11 484 20 1
-26 9 -11 140 7 1
-26 9 11 148 8 1
-26 9 11 131 7 1
-27 -6 -11 2 1 1
6 -27 -11 2 1 1
6 -27 11 1 1 1
4 -27 -11 176 9 1
-27 -4 -11 171 10 1
4 -27 11 159 9 1
2 -27 -11 20 4 1
2 -27 11 18 3 1
-27 0 -11 78 6 1
0 -27 -11 66 6 1
0 -27 11 72 5 1
-2 -27 -11 6 1 1
-27 2 -11 6 1 1
-27 2 11 11 2 1
-27 2 11 22 3 1
-2 -27 11 2 1 1
-27 4 -11 1 1 1
-27 4 11 1 2 1
-27 4 11 0 2 1
-4 -27 11 1 1 1
-27 6 -11 18 4 1
-27 6 11 16 5 1
-27 6 11 17 4 1
0 0 -12 238 2 1
0 0 -12 252 2 1
0 0 12 245 1 1
0 0 12 261 1 1
-1 -1 -12 138 4 1
-1 -1 -12 135 4 1
1 1 -12 139 4 1
1 -1 -12 140 4 1
1 1 12 135 4 1
1 -1 12 129 4 1
-1 1 12 137 4 1
1 -1 12 129 3 1
-1 1 12 134 3 1
0 -2 -12 33 5 1
2 0 -12 22 5 1
2 0 -12 20 5 1
-2 0 -12 22 5 1
0 2 -12 24 5 1
0 2 12 33 5 1
2 0 12 17 6 1
0 -2 12 21 6 1
0 2 12 37 6 1
-2 -2 -12 1991 35 1
2 -2 -12 2069 35 1
2 -2 -12 1970 35 1
-2 2 -12 2112 35 1
2 2 -12 1924 35 1
2 2 12 2035 35 1
2 -2 12 2204 35 1
-2 2 12 1967 39 1
-2 2 12 2022 34 1
-2 2 12 2000 34 1
1 -3 -12 280 2 1
3 1 -12 257 2 1
-3 -1 -12 219 2 1
-3 -1 -12 211 2 1
-1 3 -12 220 2 1
-1 3 12 288 1 1
-3 -1 12 241 2 1
-1 3 12 300 2 1
-1 -3 -12 1306 66 1
3 -1 -12 1160 66 1
1 3 -12 1119 66 1
3 -1 -12 1185 66 1
-1 -3 -12 1264 66 1
1 3 12 1221 66 1
-3 3 -12 198 2 1
3 -3 -12 218 1 1
-3 3 12 216 1 1
3 -3 12 168 2 1
-4 -2 -12 1948 114 1
2 -4 -12 2075 114 1
-4 -2 -12 2065 114 1
4 2 -12 1918 114 1
-2 4 12 2064 114 1
-4 -2 12 1967 126 1
2 -4 12 2109 114 1
2 -4 12 2046 114 1
2 -4 12 2002 126 1
0 -4 -12 3 3 1
4 0 -12 2 4 1
0 -4 -12 3 3 1
-4 0 -12 8 3 1
0 4 -12 8 4 1
-4 0 12 3 4 1
0 -4 12 10 3 1
0 4 12 2 4 1
0 4 12 1 3 1
4 0 12 10 3 1
4 -2 -12 358 7 1
4 -2 -12 368 7 1
-2 -4 -12 192 7 1
-2 -4 -12 191 7 1
-4 2 -12 226 7 1
2 4 -12 199 7 1
4 -2 12 222 7 1
2 4 12 177 7 1
-4 2 12 410 8 1
4 -4 -12 102 18 1
-4 -4 -12 73 19 1
-4 -4 -12 68 18 1
-4 4 -12 70 19 1
4 -4 -12 89 18 1
-4 4 12 102 18 1
4 -4 12 52 18 1
-4 -4 12 62 20 1
-4 4 12 94 18 1
4 -4 12 66 20 1
-5 -3 -12 348 13 1
3 -5 -12 390 13 1
5 3 -12 277 13 1
3 -5 12 365 14 1
3 -5 12 380 13 1
-3 5 12 323 13 1
3 -5 12 367 13 1
-5 -1 -12 4136 156 1
-1 5 -12 4453 156 1
-5 -1 -12 4377 156 1
1 -5 -12 4309 156 1
1 -5 -12 4343 156 1
5 1 -12 3931 156 1
5 1 12 4015 156 1
1 -5 12 4147 172 1
-5 -1 12 3986 173 1
-1 5 12 4246 156 1
-1 -5 -12 36 5 1
5 -1 -12 39 5 1
1 5 -12 33 6 1
-5 1 -12 14 5 1
-1 -5 -12 38 5 1
-1 -5 12 41 6 1
-5 1 12 35 6 1
5 -1 12 20 5 1
-3 -5 -12 645 17 1
-5 3 -12 645 17 1
-3 -5 -12 660 16 1
5 -3 -12 647 16 1
-3 -5 12 644 18 1
5 -3 12 619 16 1
5 -5 -12 672 64 1
-5 5 -12 710 64 1
-5 -5 -12 635 64 1
5 -5 -12 671 64 1
-5 -5 -12 708 64 1
5 -5 12 662 64 1
-5 5 12 697 64 1
5 5 12 644 64 1
5 -5 12 753 71 1
-5 5 12 651 64 1
-4 6 -12 4539 171 1
4 -6 -12 4671 171 1
-4 6 12 4637 171 1
4 -6 12 4440 188 1
6 4 12 4300 171 1
-6 -4 12 4202 189 1
4 -6 12 4422 170 1
-6 -2 -12 3009 150 1
-6 -2 -12 2870 150 1
2 -6 -12 3025 150 1
6 2 -12 2891 150 1
-2 6 -12 2876 150 1
-2 6 12 3016 150 1
-6 0 -12 236 11 1
0 -6 -12 243 11 1
0 6 -12 267 11 1
6 0 -12 255 11 1
-6 0 12 256 12 1
-2 -6 -12 5249 238 1
6 -2 -12 5797 238 1
-6 2 -12 5214 238 1
2 6 -12 5155 238 1
-2 -6 12 5262 263 1
-4 -6 -12 870 23 1
-6 4 -12 854 23 1
6 -4 -12 771 23 1
6 -4 -12 812 23 1
-6 -6 -12 635 18 1
-6 -6 -12 637 18 1
6 -6 -12 563 18 1
6 -6 -12 586 18 1
-6 6 12 616 17 1
-6 6 12 619 21 1
-6 -6 12 672 20 1
6 -6 12 605 17 1
-5 7 -12 583 26 1
-7 -5 -12 577 25 1
-7 -5 -12 592 25 1
5 -7 -12 565 25 1
-7 -5 12 594 28 1
-7 -3 -12 673 11 1
3 -7 -12 756 11 1
-7 -3 -12 710 12 1
7 3 -12 674 11 1
3 -7 -12 709 11 1
-3 7 -12 739 12 1
-3 7 12 714 11 1
-7 -3 12 658 13 1
-3 7 12 729 13 1
3 -7 12 725 11 1
1 -7 -12 5044 201 1
-1 7 -12 5102 201 1
7 1 -12 4959 201 1
-7 -1 -12 4888 201 1
-7 -1 -12 5131 201 1
7 1 12 5008 201 1
-7 -1 12 4852 223 1
-1 7 12 5208 201 1
1 -7 12 5234 222 1
1 7 -12 5364 185 1
7 -1 -12 5354 185 1
7 -1 -12 5704 185 1
-1 -7 -12 5233 185 1
-7 1 -12 5811 185 1
-1 -7 -12 5485 185 1
-1 -7 12 5518 205 1
7 -1 12 5501 185 1
7 -3 -12 38963 1443 1
-7 3 -12 37406 1446 1
7 -3 -12 39196 1441 1
7 -3 12 39091 1446 1
-3 -7 12 38140 1597 1
-5 -7 -12 15375 555 1
-7 5 -12 17023 556 1
7 -5 -12 16051 554 1
-5 -7 -12 16501 557 1
7 -5 -12 16271 555 1
-5 -7 12 15752 615 1
7 -5 12 16441 555 1
5 7 12 16521 557 1
-7 5 12 15639 613 1
7 -7 -12 8534 376 1
-7 -7 -12 9086 375 1
7 -7 -12 9070 375 1
7 -7 12 9131 377 1
-7 7 12 8848 416 1
-7 7 12 8629 375 1
-7 7 12 9014 376 1
-7 -7 12 8788 416 1
-7 7 12 8663 416 1
-8 -6 -12 1113 39 1
6 -8 -12 1108 38 1
6 -8 -12 1172 39 1
-6 8 12 1096 38 1
8 6 12 1198 39 1
-6 8 12 1162 45 1
-6 8 12 1169 43 1
-8 -4 -12 8985 356 1
-4 8 -12 9105 357 1
-8 -4 -12 8922 357 1
4 -8 -12 9178 356 1
4 -8 12 8725 356 1
-4 8 12 9077 358 1
2 -8 -12 3901 115 1
-2 8 -12 3855 115 1
-8 -2 -12 3728 115 1
-8 -2 -12 3793 115 1
8 0 -12 1605 65 1
0 -8 -12 1543 66 1
-8 0 -12 1571 66 1
0 8 -12 1650 66 1
0 -8 -12 1597 66 1
0 -8 12 1651 72 1
8 0 12 1616 66 1
0 8 12 1603 66 1
-2 -8 -12 11703 492 1
-2 -8 -12 10841 491 1
-8 2 -12 11206 490 1
8 -2 -12 11174 489 1
-8 2 12 10941 543 1
2 8 12 10816 492 1
-8 4 -12 70 19 1
8 -4 -12 88 19 1
-4 -8 -12 69 19 1
8 -4 -12 84 19 1
4 8 12 63 19 1
8 -4 12 73 19 1
-8 4 12 76 22 1
-8 6 -12 9385 368 1
8 -6 -12 9322 367 1
8 -6 -12 9064 368 1
-6 -8 -12 8801 368 1
-6 -8 -12 8759 368 1
8 -6 12 9239 368 1
-6 -8 12 8967 407 1
-8 6 12 9118 407 1
8 -8 -12 176 16 1
-8 -8 -12 155 16 1
-8 8 -12 176 16 1
-8 8 12 158 18 1
-8 8 12 156 15 1
-8 8 12 177 19 1
-8 -8 12 175 18 1
8 8 12 168 16 1
-7 9 -12 660 35 1
7 -9 -12 675 35 1
7 -9 -12 685 35 1
-9 -7 12 654 39 1
-7 9 12 737 34 1
5 -9 -12 2592 114 1
-9 -5 -12 2677 114 1
-9 -5 -12 2773 114 1
-5 9 -12 2600 114 1
5 -9 12 2675 114 1
-5 9 12 2537 114 1
-5 9 12 2791 130 1
-9 -3 -12 4522 189 1
-9 -3 -12 4585 189 1
3 -9 -12 4400 189 1
-3 9 12 4741 189 1
-1 9 -12 3590 158 1
1 -9 -12 3315 158 1
1 -9 -12 3359 158 1
-9 -1 -12 3152 158 1
-1 9 12 3440 158 1
9 1 12 3393 158 1
1 9 -12 1119 82 1
-1 -9 -12 1073 82 1
-9 1 -12 1132 82 1
-1 -9 -12 1065 82 1
9 -1 -12 1102 81 1
-9 1 12 1201 94 1
1 9 12 1159 82 1
-3 -9 -12 9187 314 1
-9 3 -12 9129 315 1
-3 -9 -12 8641 314 1
9 -3 -12 8330 314 1
-9 3 12 8487 356 1
-3 -9 12 9064 348 1
3 9 12 8575 315 1
-9 5 -12 5406 180 1
-5 -9 -12 5195 179 1
9 -5 -12 5337 179 1
-5 -9 -12 4927 179 1
-9 5 12 5281 199 1
9 -5 12 5055 179 1
5 9 12 4959 179 1
-5 -9 12 5304 198 1
-7 -9 -12 538 17 1
-7 -9 -12 520 16 1
9 -7 -12 490 16 1
-7 -9 12 496 18 1
-9 7 12 471 19 1
9 -7 12 481 17 1
7 9 12 526 16 1
-9 -9 -12 990 29 1
9 -9 -12 1003 29 1
9 -9 -12 932 29 1
-9 9 12 1032 33 1
-9 9 12 983 29 1
-9 9 12 957 34 1
9 -9 12 972 29 1
-10 -8 -12 1344 32 1
8 -10 -12 1242 32 1
-10 -8 -12 1329 32 1
-10 -8 12 1338 36 1
-8 10 12 1302 32 1
8 -10 12 1282 32 1
6 -10 -12 50 6 1
-6 10 -12 58 7 1
-10 -6 -12 52 6 1
-6 10 12 56 8 1
-6 10 12 50 6 1
10 6 12 45 6 1
-6 10 12 52 9 1
4 -10 -12 445 9 1
-4 10 -12 447 10 1
-10 -4 -12 472 9 1
4 -10 -12 445 9 1
-10 -4 12 495 11 1
10 4 12 468 9 1
-4 10 12 430 9 1
-4 10 12 463 13 1
-10 -2 -12 1470 75 1
2 -10 -12 1470 75 1
-10 -2 -12 1484 75 1
-2 10 12 1424 75 1
10 2 12 1567 75 1
0 10 -12 403 16 1
-10 0 -12 353 15 1
0 -10 -12 362 15 1
0 -10 -12 361 15 1
-10 0 -12 330 15 1
-10 0 12 394 17 1
10 0 12 358 15 1
0 10 12 342 17 1
-2 -10 -12 24821 961 1
-10 2 -12 24689 962 1
-2 -10 -12 24777 961 1
-10 2 12 27725 1087 1
10 -2 12 25447 963 1
-4 -10 -12 304 10 1
10 -4 -12 323 11 1
4 10 12 288 10 1
10 -4 12 317 10 1
-6 -10 -12 530 30 1
-6 -10 -12 496 32 1
-6 -10 -12 500 30 1
10 -6 -12 602 31 1
6 10 12 549 30 1
-10 6 12 571 34 1
-10 8 -12 1557 72 1
10 -8 -12 1494 71 1
-8 -10 -12 1636 71 1
-8 -10 -12 1581 71 1
-10 8 -12 1485 80 1
-10 8 12 1609 82 1
-10 8 12 1559 79 1
-10 8 12 1597 80 1
10 -8 12 1579 71 1
-10 -10 -12 403 16 1
-10 -10 -12 376 17 1
-10 10 -12 361 21 1
10 -10 -12 409 17 1
-10 10 -12 390 18 1
-10 10 12 404 16 1
-10 10 12 435 20 1
10 10 12 369 17 1
10 -10 12 377 17 1
-10 10 12 396 19 1
-11 -9 -12 1271 54 1
9 -11 -12 1215 55 1
-9 11 12 1213 61 1
-9 11 12 1214 54 1
11 9 12 1224 55 1
9 -11 12 1304 54 1
-11 -7 -12 423 26 1
7 -11 -12 438 27 1
-11 -7 -12 443 27 1
7 -11 -12 458 27 1
-11 -7 12 454 30 1
-7 11 12 463 30 1
-7 11 12 424 26 1
7 -11 12 485 26 1
-11 -5 -12 95 6 1
5 -11 -12 98 6 1
-5 11 12 95 6 1
-5 11 12 111 8 1
-5 11 12 100 9 1
-11 -3 -12 1144 68 1
3 -11 -12 1162 68 1
3 -11 -12 1127 68 1
-3 11 -12 1119 69 1
-11 -3 -12 1081 68 1
11 3 12 1123 68 1
-3 11 12 1058 78 1
-11 -1 -12 1821 71 1
1 -11 -12 1761 71 1
-1 11 -12 1757 71 1
-11 -1 12 1732 81 1
-11 -1 12 1721 79 1
11 1 12 1878 71 1
-1 -11 -12 3684 112 1
-11 1 -12 3616 113 1
11 -1 12 3674 113 1
-11 1 12 3518 125 1
-3 -11 -12 1810 76 1
-11 3 12 1840 85 1
11 -5 -12 8582 364 1
-5 -11 -12 7801 368 1
-11 5 -12 8155 403 1
-5 -11 -12 8522 364 1
-11 5 -12 7960 364 1
-5 -11 -12 7981 364 1
11 -5 12 8373 364 1
-11 5 12 8492 412 1
-11 5 12 8429 403 1
-7 -11 -12 787 14 1
-7 -11 -12 784 14 1
-11 7 -12 754 18 1
-11 7 -12 823 15 1
11 -7 12 831 15 1
7 11 12 838 15 1
-9 -11 -12 4193 149 1
-11 9 -12 4075 166 1
11 -9 -12 4272 150 1
-9 -11 -12 4104 149 1
-11 9 -12 4255 150 1
9 11 12 4038 150 1
-11 9 12 4284 166 1
11 -9 12 4139 149 1
-11 11 -12 313 17 1
-11 11 -12 301 20 1
-11 -11 -12 294 15 1
-11 -11 -12 282 17 1
11 -11 -12 328 17 1
-11 11 12 312 19 1
11 11 12 317 17 1
11 -11 12 289 16 1
-10 12 -12 1638 60 1
10 -12 -12 1626 59 1
-12 -10 -12 1564 58 1
-10 12 12 1662 66 1
12 10 12 1668 59 1
-10 12 12 1616 58 1
10 -12 12 1590 58 1
-12 -8 -12 185 12 1
-8 12 -12 212 13 1
8 -12 -12 200 13 1
-8 12 12 220 15 1
-8 12 12 190 12 1
-8 12 12 206 15 1
12 8 12 198 13 1
6 -12 -12 2 1 1
-6 12 -12 1 2 1
-12 -6 -12 1 1 1
6 -12 12 1 1 1
-6 12 12 1 2 1
-12 -6 12 2 2 1
-4 12 -12 32 6 1
-12 -4 -12 44 5 1
-12 -4 -12 37 5 1
4 -12 -12 47 5 1
4 -12 -12 44 5 1
-4 12 12 41 6 1
-4 12 12 38 5 1
-12 -2 -12 218 14 1
2 -12 -12 228 14 1
2 -12 -12 234 14 1
-12 -2 -12 221 14 1
-2 12 12 215 16 1
-12 -2 12 207 16 1
-2 12 12 231 15 1
-12 -2 12 198 18 1
2 -12 12 217 16 1
-2 12 12 197 18 1
0 12 -12 2881 97 1
0 -12 -12 2735 96 1
0 -12 -12 2723 96 1
-12 0 -12 2836 96 1
0 12 12 2882 107 1
0 12 12 2641 96 1
-12 0 12 2809 110 1
-2 -12 -12 129 6 1
-12 2 -12 101 7 1
-12 2 -12 107 9 1
-2 -12 -12 116 9 1
-2 -12 -12 121 6 1
2 12 12 148 7 1
-12 2 12 126 10 1
-12 4 -12 595 26 1
-12 4 -12 541 23 1
-4 -12 -12 555 23 1
-4 -12 -12 544 24 1
-4 -12 -12 582 23 1
12 -4 12 540 23 1
-12 4 12 594 27 1
-12 4 12 578 26 1
4 12 12 557 23 1
-12 6 -12 1023 34 1
-12 6 -12 1037 30 1
-6 -12 -12 1054 30 1
-6 -12 -12 980 31 1
12 -6 12 1089 30 1
-12 6 12 1009 33 1
6 12 12 1017 30 1
-12 6 12 1037 33 1
-8 -12 -12 648 31 1
12 -8 -12 605 32 1
-8 -12 -12 657 31 1
-12 8 -12 639 32 1
-12 8 12 585 35 1
12 -8 12 646 31 1
-12 8 12 596 35 1
8 12 12 673 32 1
-10 -12 -12 487 11 1
-10 -12 -12 472 10 1
-12 10 -12 461 14 1
-12 10 -12 484 12 1
10 12 12 477 11 1
-12 10 12 503 13 1
-12 10 12 475 14 1
12 -10 12 469 11 1
-12 12 -12 894 46 1
-12 12 -12 875 50 1
12 -12 -12 923 45 1
-12 -12 -12 966 45 1
-12 12 12 962 50 1
12 12 12 962 45 1
12 -12 12 836 45 1
-13 -11 -12 8 2 1
11 -13 -12 18 2 1
-11 13 -12 7 2 1
-11 13 12 10 3 1
13 11 12 8 2 1
11 -13 12 5 2 1
-11 13 12 9 2 1
11 -13 12 13 2 1
-11 13 12 12 2 1
9 -13 -12 136 6 1
-13 -9 -12 113 4 1
9 -13 12 108 7 1
9 -13 12 98 4 1
13 9 12 105 5 1
-9 13 12 126 7 1
-9 13 12 111 7 1
-7 13 -12 829 49 1
-13 -7 -12 848 48 1
-13 -7 -12 766 47 1
7 -13 -12 821 48 1
7 -13 -12 818 48 1
7 -13 12 887 47 1
-7 13 12 824 48 1
-13 -7 12 902 54 1
7 -13 12 848 49 1
5 -13 -12 12179 497 1
-13 -5 -12 11034 498 1
5 -13 -12 11419 498 1
-5 13 -12 11666 498 1
-13 -5 -12 11466 497 1
5 -13 -12 11038 503 1
-5 13 12 11303 551 1
5 -13 12 11792 503 1
-13 -5 12 10911 551 1
-5 13 12 11354 498 1
-3 13 -12 166 10 1
-13 -3 -12 155 9 1
-13 -3 -12 165 9 1
3 -13 -12 147 9 1
3 -13 -12 158 9 1
3 -13 -12 154 12 1
-3 13 12 135 9 1
-13 -3 12 165 11 1
-3 13 12 129 13 1
13 3 12 152 9 1
3 -13 12 158 10 1
-3 13 12 146 10 1
1 -13 -12 1043 22 1
1 -13 -12 1106 24 1
-13 -1 -12 1022 22 1
1 -13 -12 1111 22 1
-13 -1 12 1095 26 1
1 -13 12 1013 23 1
-1 13 12 1073 27 1
13 1 12 1052 22 1
-1 13 12 1081 25 1
-1 13 12 1051 22 1
-13 1 -12 1964 87 1
-1 -13 -12 2063 78 1
-13 1 -12 2128 78 1
-13 1 -12 1982 78 1
-1 -13 -12 2177 78 1
-1 -13 -12 2033 80 1
-13 1 12 2185 87 1
13 -1 12 2195 78 1
-13 1 12 2030 89 1
-13 3 -12 1655 66 1
-3 -13 -12 1540 68 1
-3 -13 -12 1684 66 1
-3 -13 -12 1607 66 1
-3 -13 12 1654 68 1
-13 3 12 1640 74 1
3 13 12 1647 66 1
-13 5 -12 416 16 1
-5 -13 -12 427 15 1
-13 5 -12 404 14 1
-5 -13 -12 424 13 1
-13 5 12 428 16 1
5 13 12 410 14 1
-13 5 12 375 16 1
-5 -13 12 374 17 1
-13 5 12 378 16 1
13 -7 -12 126 8 1
-13 7 -12 89 9 1
-13 7 -12 90 7 1
-7 -13 -12 111 6 1
-7 -13 -12 116 9 1
-13 7 12 113 8 1
13 -7 12 94 7 1
-13 7 12 122 8 1
7 13 12 111 7 1
-13 9 -12 664 36 1
-9 -13 -12 672 35 1
13 -9 -12 711 36 1
-13 9 -12 673 39 1
-9 -13 -12 641 34 1
-13 9 12 666 39 1
-13 9 12 721 40 1
13 -9 12 690 35 1
-11 -13 -12 2432 102 1
-11 -13 -12 2438 101 1
-13 11 12 2437 114 1
11 13 12 2559 103 1
13 -11 12 2653 103 1
-13 13 -12 402 15 1
-13 13 -12 428 17 1
-13 -13 -12 427 15 1
13 -13 -12 430 15 1
13 -13 12 394 14 1
13 -13 12 406 15 1
13 13 12 421 15 1
-13 13 12 389 17 1
-12 14 -12 1000 42 1
12 -14 -12 1036 42 1
-14 -12 -12 1037 41 1
-12 14 12 1058 40 1
12 -14 12 1055 41 1
-12 14 12 1031 47 1
14 12 12 1009 42 1
12 -14 12 1084 42 1
-12 14 12 1049 47 1
-10 14 -12 267 8 1
-14 -10 -12 259 7 1
10 -14 -12 243 7 1
10 -14 12 251 5 1
-10 14 12 239 6 1
-10 14 12 254 8 1
-10 14 12 268 9 1
-14 -8 -12 103 3 1
8 -14 -12 96 5 1
8 -14 -12 98 4 1
8 -14 12 115 5 1
8 -14 12 94 3 1
-8 14 12 106 4 1
-8 14 12 104 7 1
-8 14 12 106 6 1
14 8 12 109 5 1
-14 -6 -12 836 28 1
6 -14 -12 829 28 1
6 -14 -12 777 31 1
-14 -6 -12 776 28 1
6 -14 -12 843 29 1
-6 14 -12 838 29 1
-14 -6 12 792 32 1
6 -14 12 846 29 1
-6 14 12 859 32 1
-6 14 12 814 33 1
-6 14 12 868 28 1
14 6 12 785 29 1
4 -14 -12 185 20 1
4 -14 -12 196 22 1
-14 -4 -12 202 20 1
-14 -4 -12 199 19 1
-4 14 12 217 20 1
-4 14 12 179 24 1
-4 14 12 190 22 1
4 -14 12 188 20 1
14 4 12 175 20 1
-14 -4 12 194 24 1
-14 -4 12 176 22 1
2 -14 -12 210 10 1
-14 -2 -12 243 12 1
2 -14 -12 234 12 1
-14 -2 -12 224 9 1
2 -14 -12 233 10 1
-14 -2 -12 225 9 1
-14 -2 12 210 13 1
-2 14 12 208 14 1
2 -14 12 226 11 1
-2 14 12 214 10 1
-14 -2 12 191 15 1
-2 14 12 227 11 1
0 -14 -12 1751 74 1
0 -14 -12 1714 72 1
-14 0 -12 1802 72 1
0 -14 -12 1729 72 1
-14 0 -12 1727 72 1
0 14 12 1841 80 1
-14 0 12 1774 81 1
0 14 12 1707 72 1
0 -14 12 1728 73 1
-14 2 -12 1559 46 1
-2 -14 -12 1633 46 1
-14 2 -12 1585 47 1
-2 -14 -12 1520 48 1
-14 2 -12 1540 52 1
2 14 12 1608 52 1
2 14 12 1628 47 1
-14 2 12 1453 52 1
-2 -14 12 1548 48 1
14 -2 12 1565 47 1
-14 4 -12 27 4 1
-14 4 -12 30 7 1
-4 -14 -12 23 7 1
-4 -14 -12 17 4 1
-4 -14 -12 22 4 1
-14 4 12 23 5 1
-4 -14 12 38 9 1
-14 4 12 25 7 1
-14 6 -12 352 20 1
-6 -14 -12 321 18 1
-14 6 -12 351 17 1
-6 -14 -12 348 16 1
-6 -14 -12 334 17 1
6 14 12 342 17 1
-14 6 12 355 20 1
-6 -14 12 321 20 1
14 -6 12 343 17 1
-14 6 12 354 19 1
-14 8 -12 482 20 1
-8 -14 -12 431 16 1
-14 8 -12 433 17 1
-8 -14 -12 464 17 1
8 14 12 448 17 1
14 -8 12 447 17 1
-14 10 -12 1436 54 1
-10 -14 -12 1493 48 1
-10 -14 -12 1492 47 1
14 -10 -12 1472 49 1
-14 10 -12 1541 49 1
10 14 12 1505 48 1
-14 10 12 1571 55 1
14 -10 12 1523 48 1
-14 10 12 1395 54 1
-14 10 12 1478 54 1
-12 -14 -12 15 2 1
14 -12 -12 15 3 1
-14 12 -12 12 2 1
-14 12 -12 16 3 1
-14 12 12 23 4 1
12 14 12 6 3 1
14 -12 12 16 2 1
-14 12 12 16 3 1
-14 12 12 12 2 1
-14 14 -12 402 17 1
14 -14 -12 380 15 1
-14 -14 -12 384 14 1
-14 14 -12 401 15 1
14 -14 12 406 13 1
14 -14 12 394 14 1
14 14 12 353 15 1
-14 14 12 391 17 1
-14 14 12 413 19 1
-15 -13 -12 466 25 1
-13 15 -12 467 26 1
13 -15 12 497 24 1
-13 15 12 451 29 1
13 -15 12 478 25 1
-13 15 12 476 29 1
15 13 12 460 26 1
-11 15 -12 567 25 1
11 -15 -12 599 24 1
11 -15 12 593 25 1
-11 15 12 552 28 1
11 -15 12 566 23 1
-11 15 12 573 23 1
15 11 12 525 24 1
9 -15 -12 2 2 1
9 -15 -12 1 5 1
-15 -9 -12 1 5 1
9 -15 12 0 5 1
-9 15 12 1 3 1
15 9 12 2 6 1
-9 15 12 1 2 1
-15 -7 -12 1 3 1
-7 15 -12 2 6 1
15 7 12 5 5 1
-7 15 12 2 7 1
7 -15 12 4 5 1
-7 15 12 1 4 1
5 -15 -12 1627 57 1
-15 -5 -12 1520 54 1
5 -15 -12 1630 55 1
-5 15 -12 1619 56 1
5 -15 -12 1608 55 1
-15 -5 -12 1627 55 1
15 5 12 1512 55 1
5 -15 12 1593 56 1
-5 15 12 1618 61 1
-5 15 12 1602 55 1
3 -15 -12 367 15 1
3 -15 -12 328 13 1
-15 -3 -12 328 15 1
3 -15 -12 357 13 1
-3 15 -12 357 14 1
-15 -3 -12 326 13 1
-15 -3 -12 337 12 1
-3 15 12 328 13 1
-15 -3 12 349 18 1
-3 15 12 363 17 1
-15 -3 12 346 15 1
3 -15 12 348 14 1
-15 -3 12 354 16 1
-3 15 12 347 15 1
-15 -1 -12 2887 113 1
1 -15 -12 2876 113 1
-15 -1 -12 2964 113 1
1 -15 -12 3019 115 1
-1 15 12 2822 125 1
-15 -1 12 2975 128 1
-1 15 12 2845 113 1
1 -15 12 2899 114 1
-1 -15 -12 856 30 1
-15 1 -12 857 29 1
-15 1 -12 905 33 1
-15 1 -12 830 29 1
-1 -15 -12 907 28 1
-1 -15 -12 839 29 1
1 15 12 860 29 1
1 15 12 887 32 1
-1 -15 12 879 30 1
15 -1 12 875 29 1
-15 3 -12 323 5 1
-3 -15 -12 309 7 1
-3 -15 -12 314 5 1
-3 -15 -12 326 6 1
-15 3 -12 325 7 1
15 -3 12 336 6 1
-15 3 12 305 8 1
-15 3 12 329 7 1
-3 -15 12 305 8 1
3 15 12 339 6 1
-15 3 12 325 8 1
-5 -15 -12 11 2 1
15 -5 12 9 2 1
-15 5 12 13 5 1
5 15 12 8 2 1
-15 5 12 8 3 1
-15 5 12 5 2 1
-5 -15 12 9 3 1
-7 -15 -12 331 13 1
-7 -15 -12 341 16 1
-15 7 -12 335 14 1
-15 7 -12 338 16 1
-7 -15 -12 358 14 1
-15 7 12 320 16 1
15 -7 12 312 14 1
7 15 12 347 14 1
-15 7 12 328 16 1
-7 -15 12 356 18 1
-15 9 -12 184 11 1
-9 -15 -12 202 9 1
-15 9 -12 178 10 1
-9 -15 -12 192 8 1
15 -9 -12 181 11 1
9 15 12 193 10 1
-15 9 12 204 12 1
-15 9 12 170 12 1
15 -9 12 190 9 1
-15 9 12 192 11 1
15 -11 -12 1097 37 1
-15 11 -12 1093 40 1
-11 -15 -12 1097 36 1
-15 11 -12 1078 36 1
11 15 12 1058 36 1
-15 11 12 1032 40 1
-15 13 -12 266 12 1
-13 -15 -12 273 10 1
-15 13 -12 259 11 1
15 -13 12 289 11 1
-15 13 12 255 13 1
-15 13 12 252 11 1
15 -13 12 280 10 1
13 15 12 303 12 1
-15 15 -12 4394 185 1
-15 -15 -12 4494 167 1
15 -15 12 4422 169 1
15 -15 12 4465 167 1
-16 -14 -12 9 5 1
14 -16 12 6 5 1
16 14 12 4 4 1
-16 -12 -12 511 29 1
-12 16 -12 495 29 1
12 -16 -12 481 29 1
12 -16 12 443 27 1
16 12 12 525 29 1
-12 16 12 437 33 1
12 -16 12 464 29 1
-12 16 12 496 27 1
-12 16 12 469 34 1
10 -16 -12 275 16 1
-10 16 -12 290 17 1
-16 -10 -12 282 16 1
10 -16 12 297 14 1
-10 16 12 256 19 1
10 -16 12 304 16 1
-10 16 12 278 15 1
16 10 12 288 16 1
8 -16 -12 1572 74 1
-16 -8 -12 1604 72 1
-8 16 -12 1557 73 1
8 -16 12 1604 73 1
16 8 12 1676 72 1
-8 16 12 1536 72 1
-6 16 -12 59 9 1
-16 -6 -12 52 9 1
6 -16 -12 54 7 1
-16 -6 -12 61 5 1
6 -16 -12 42 10 1
-16 -6 -12 59 7 1
-6 16 12 52 10 1
-6 16 12 55 7 1
16 6 12 58 7 1
-16 -4 -12 440 15 1
-4 16 -12 461 16 1
4 -16 -12 467 15 1
4 -16 -12 466 14 1
-16 -4 -12 458 17 1
-16 -4 -12 460 14 1
4 -16 -12 452 16 1
-16 -4 12 480 17 1
-4 16 12 463 19 1
4 -16 12 475 15 1
-16 -4 12 425 18 1
-4 16 12 469 15 1
-16 -2 -12 1315 47 1
2 -16 -12 1347 50 1
-2 16 -12 1256 49 1
2 -16 -12 1269 48 1
-2 16 12 1353 48 1
-16 -2 12 1193 54 1
-16 -2 12 1290 55 1
2 -16 12 1264 49 1
0 -16 -12 1131 34 1
-16 0 -12 1094 34 1
-16 0 -12 1087 38 1
0 -16 -12 1076 34 1
-16 0 -12 1145 34 1
0 -16 -12 1122 36 1
0 -16 12 1103 35 1
-16 0 12 1083 38 1
0 16 12 1122 38 1
-16 0 12 1036 39 1
16 0 12 1080 34 1
0 16 12 1166 34 1
-2 -16 -12 162 9 1
-16 2 -12 185 9 1
-16 2 -12 189 12 1
-2 -16 -12 169 11 1
-2 -16 -12 165 10 1
-16 2 12 195 12 1
16 -2 12 174 10 1
2 16 12 167 11 1
-2 -16 12 169 11 1
2 16 12 153 9 1
-16 2 12 182 12 1
-4 -16 -12 1526 53 1
-4 -16 -12 1601 54 1
-16 4 -12 1603 60 1
-16 4 -12 1529 53 1
-4 -16 -12 1574 55 1
16 -4 12 1596 54 1
-4 -16 12 1558 55 1
4 16 12 1519 53 1
-16 4 12 1623 61 1
-16 4 12 1628 60 1
-16 6 -12 24 3 1
-6 -16 -12 24 1 1
-6 -16 -12 24 2 1
-16 6 -12 21 2 1
6 16 12 29 2 1
-16 6 12 25 2 1
-16 6 12 33 3 1
-16 6 12 19 2 1
16 -6 12 19 2 1
-6 -16 12 16 3 1
-8 -16 -12 312 15 1
-8 -16 -12 328 12 1
-8 -16 -12 306 13 1
-16 8 -12 316 15 1
-16 8 -12 313 13 1
-16 8 12 347 15 1
-16 8 12 333 16 1
-8 -16 12 334 17 1
8 16 12 309 13 1
-10 -16 -12 57 6 1
-16 10 -12 59 6 1
-16 10 -12 64 8 1
16 -10 -12 47 9 1
10 16 12 49 7 1
-16 10 12 56 9 1
-16 10 12 59 7 1
16 -10 12 54 6 1
-16 10 12 55 8 1
-16 12 -12 891 31 1
-16 12 -12 924 34 1
-12 -16 -12 913 30 1
16 -12 -12 911 31 1
-16 12 12 932 34 1
16 -12 12 945 31 1
-16 12 12 900 35 1
16 -12 12 922 30 1
-14 -16 -12 145 9 1
-16 14 -12 148 10 1
16 -14 -12 156 10 1
16 -14 12 129 9 1
-16 16 -12 1517 61 1
-16 16 -12 1480 56 1
16 -16 -12 1494 56 1
16 16 12 1372 56 1
16 -16 12 1536 56 1
16 -16 12 1430 54 1
-15 17 -12 1194 48 1
15 -17 -12 1252 47 1
15 -17 12 1228 46 1
-15 17 12 1224 53 1
13 -17 12 1363 55 1
-13 17 12 1333 62 1
-11 17 -12 390 18 1
17 11 12 337 18 1
11 -17 12 387 17 1
-11 17 12 409 20 1
-17 -9 -12 314 22 1
9 -17 -12 349 21 1
9 -17 -12 338 19 1
-17 -9 -12 343 19 1
-9 17 -12 304 20 1
9 -17 12 321 19 1
-9 17 12 326 18 1
17 9 12 325 19 1
-9 17 12 343 22 1
-9 17 12 312 22 1
7 -17 -12 2135 86 1
-17 -7 -12 2262 86 1
-7 17 -12 2244 87 1
-17 -7 -12 2298 97 1
7 -17 -12 2310 88 1
-7 17 12 2224 96 1
7 -17 12 2224 87 1
-7 17 12 2320 98 1
-7 17 12 2281 86 1
-5 17 -12 377 24 1
-17 -5 -12 430 23 1
-17 -5 -12 433 26 1
-5 17 12 414 27 1
5 -17 12 368 23 1
-5 17 12 444 26 1
-5 17 12 387 22 1
3 -17 -12 104 5 1
-17 -3 -12 96 4 1
-17 -3 -12 111 7 1
-3 17 -12 103 9 1
3 -17 -12 112 5 1
-17 -3 -12 118 6 1
3 -17 -12 117 8 1
-17 -3 12 88 7 1
-17 -3 12 88 9 1
17 3 12 97 6 1
-3 17 12 99 7 1
-3 17 12 101 5 1
1 -17 -12 21 5 1
-17 -1 -12 20 4 1
-17 -1 -12 21 6 1
-17 -1 -12 18 7 1
1 -17 -12 14 7 1
1 -17 -12 22 4 1
-1 17 12 16 4 1
-17 -1 12 12 9 1
-1 17 12 25 6 1
17 1 12 13 5 1
-17 -1 12 19 6 1
-17 1 -12 2025 82 1
-1 -17 -12 2070 73 1
-17 1 -12 2165 74 1
-1 -17 -12 2118 74 1
-17 1 -12 2123 73 1
-17 1 12 2035 82 1
-1 -17 12 2157 75 1
1 17 12 2108 74 1
17 -1 12 2232 74 1
1 17 12 2140 82 1
-17 1 12 2150 82 1
-17 3 -12 4949 192 1
-3 -17 -12 4916 195 1
-3 -17 -12 4707 192 1
-3 -17 -12 4626 191 1
-17 3 -12 4894 213 1
-17 3 -12 5063 192 1
-3 -17 12 4910 194 1
3 17 12 4871 213 1
17 -3 12 5047 192 1
3 17 12 4571 192 1
-17 3 12 4758 213 1
-5 -17 -12 57 8 1
-5 -17 -12 49 5 1
-17 5 -12 58 8 1
-5 -17 -12 46 6 1
-17 5 -12 57 6 1
-17 5 12 46 8 1
-17 5 12 47 8 1
5 17 12 47 6 1
-5 -17 12 49 9 1
17 -5 12 64 7 1
-17 5 12 64 8 1
-17 7 -12 216 11 1
-7 -17 -12 244 11 1
-17 7 -12 213 13 1
-7 -17 -12 256 13 1
-7 -17 -12 247 9 1
17 -7 12 242 11 1
7 17 12 269 11 1
-17 7 12 268 13 1
-17 7 12 234 13 1
-9 -17 -12 170 10 1
-17 9 -12 150 10 1
-17 9 -12 148 11 1
-17 9 12 173 13 1
9 17 12 153 10 1
17 -9 12 143 10 1
-17 9 12 160 11 1
-17 11 -12 140 10 1
-11 -17 -12 126 9 1
-17 11 -12 124 9 1
17 -11 -12 98 11 1
-17 11 12 134 11 1
-17 11 12 134 10 1
17 -11 12 121 8 1
-17 11 12 126 13 1
17 -11 12 125 9 1
-13 -17 -12 190 13 1
-17 13 -12 185 14 1
-17 13 12 188 19 1
-17 13 12 197 15 1
-17 13 12 186 14 1
17 -13 12 189 13 1
17 -15 -12 988 41 1
-17 15 -12 950 44 1
-17 15 -12 923 40 1
17 -15 12 943 39 1
15 17 12 953 41 1
-17 15 12 975 46 1
17 -15 12 939 40 1
17 -17 -12 117 10 1
-17 17 -12 130 8 1
17 -17 12 111 8 1
-17 17 12 135 7 1
16 -18 -12 4539 176 1
-18 -16 -12 4868 195 1
16 -18 12 4804 177 1
-18 -14 -12 481 22 1
-14 18 -12 420 20 1
14 -18 -12 424 19 1
-14 18 12 436 22 1
14 -18 12 448 19 1
18 14 12 464 22 1
-18 -12 -12 50 7 1
-12 18 12 46 7 1
18 12 12 65 5 1
10 -18 -12 960 26 1
10 -18 -12 924 28 1
-10 18 -12 905 28 1
-18 -10 -12 801 30 1
-10 18 12 927 26 1
18 10 12 883 28 1
10 -18 12 922 27 1
-10 18 12 901 30 1
8 -18 -12 667 34 1
8 -18 -12 701 32 1
-18 -8 -12 617 37 1
-8 18 -12 685 34 1
-8 18 12 689 37 1
8 -18 12 692 33 1
-8 18 12 675 32 1
-6 18 -12 784 33 1
-18 -6 -12 702 36 1
-18 -6 -12 789 31 1
6 -18 -12 771 33 1
6 -18 -12 721 31 1
18 6 12 738 32 1
-6 18 12 775 31 1
-6 18 12 721 36 1
6 -18 12 793 32 1
-4 18 -12 1809 81 1
4 -18 -12 1778 81 1
-18 -4 -12 1817 89 1
-18 -4 -12 1750 79 1
4 -18 -12 1671 79 1
-4 18 12 1812 91 1
-4 18 12 1736 88 1
-4 18 12 1798 80 1
18 4 12 1794 80 1
4 -18 12 1867 81 1
-18 -2 -12 388 14 1
-18 -2 -12 350 18 1
2 -18 -12 358 15 1
-18 -2 -12 405 16 1
2 -18 -12 388 17 1
2 -18 -12 334 15 1
-2 18 12 372 15 1
-18 -2 12 356 19 1
-2 18 12 365 18 1
2 -18 12 322 16 1
-18 -2 12 326 18 1
18 2 12 396 16 1
-18 -2 12 363 18 1
0 -18 -12 1173 42 1
-18 0 -12 1086 43 1
-18 0 -12 1070 48 1
-18 0 -12 1090 42 1
0 -18 -12 1131 44 1
-18 0 12 1133 48 1
0 -18 12 1158 43 1
0 18 12 1121 43 1
0 18 12 1082 47 1
18 0 12 1065 43 1
-18 0 12 1116 48 1
-18 2 -12 10 2 1
-18 2 -12 5 2 1
-18 2 -12 10 3 1
-2 -18 -12 2 1 1
-2 -18 -12 4 2 1
-2 -18 -12 9 2 1
18 -2 12 10 2 1
-2 -18 12 10 2 1
-18 2 12 3 3 1
2 18 12 9 3 1
-18 2 12 11 3 1
2 18 12 4 2 1
-18 2 12 11 2 1
-18 4 -12 41 8 1
-18 4 -12 47 8 1
-4 -18 -12 51 5 1
-18 4 -12 56 6 1
-4 -18 -12 40 8 1
-4 -18 -12 38 6 1
4 18 12 42 8 1
-4 -18 12 56 8 1
-18 4 12 62 9 1
-18 4 12 41 8 1
-18 4 12 48 8 1
18 -4 12 71 7 1
-18 6 -12 44 4 1
-6 -18 -12 36 4 1
-6 -18 -12 38 5 1
-18 6 -12 45 6 1
-6 -18 -12 40 7 1
18 -6 12 46 5 1
6 18 12 39 5 1
-18 6 12 36 7 1
-18 6 12 33 6 1
-6 -18 12 61 9 1
-18 6 12 45 7 1
-8 -18 -12 623 25 1
-18 8 -12 620 28 1
-18 8 -12 622 25 1
-8 -18 -12 640 27 1
8 18 12 636 26 1
-8 -18 12 616 27 1
18 -8 12 597 26 1
-10 -18 -12 4 3 1
-18 10 -12 1 2 1
18 -10 12 1 3 1
18 -10 12 1 2 1
-18 10 12 6 5 1
-18 10 12 1 3 1
-18 10 12 1 2 1
10 18 12 2 3 1
-18 12 -12 3 2 1
-18 12 -12 7 3 1
18 -12 -12 9 5 1
-12 -18 -12 8 3 1
-18 12 12 6 2 1
-18 12 12 6 3 1
18 -12 12 4 2 1
-18 12 12 6 7 1
12 18 12 7 4 1
18 -12 12 7 2 1
-18 14 -12 532 26 1
-14 -18 -12 493 24 1
-18 14 -12 532 24 1
18 -14 12 492 24 1
18 -14 12 484 23 1
14 18 12 471 25 1
-18 16 -12 310 13 1
-18 16 -12 299 13 1
18 -16 -12 282 15 1
18 -16 12 285 12 1
-18 16 12 333 14 1
18 -16 12 295 12 1
-18 -18 -12 112 7 1
-18 18 12 132 7 1
18 -18 12 135 6 1
-19 -17 -12 183 10 1
-17 19 12 169 10 1
-19 -15 -12 44 6 1
-15 19 -12 40 8 1
15 -19 -12 60 8 1
-15 19 12 50 5 1
15 -19 12 55 6 1
-13 19 -12 1336 55 1
-19 -13 -12 1447 61 1
13 -19 -12 1331 54 1
19 13 12 1338 55 1
13 -19 12 1365 54 1
-19 -11 -12 331 20 1
11 -19 -12 293 19 1
-11 19 -12 332 19 1
11 -19 -12 317 17 1
11 -19 12 352 17 1
-11 19 12 324 17 1
19 11 12 325 19 1
-11 19 12 305 20 1
9 -19 -12 959 38 1
9 -19 -12 1022 40 1
-9 19 -12 987 40 1
-19 -9 -12 975 43 1
19 9 12 1005 39 1
-9 19 12 1061 44 1
9 -19 12 981 39 1
-9 19 12 1000 38 1
7 -19 -12 158 8 1
7 -19 -12 150 11 1
-7 19 -12 129 11 1
-19 -7 -12 164 11 1
-7 19 12 162 8 1
7 -19 12 148 9 1
-7 19 12 151 12 1
-5 19 -12 586 26 1
5 -19 -12 624 25 1
-19 -5 -12 628 28 1
5 -19 -12 583 23 1
-5 19 12 576 28 1
5 -19 12 581 24 1
-5 19 12 604 24 1
19 5 12 573 24 1
3 -19 -12 86 7 1
3 -19 -12 82 10 1
-19 -3 -12 59 10 1
-19 -3 12 55 12 1
-3 19 12 74 8 1
-3 19 12 90 12 1
3 -19 12 85 9 1
-19 -3 12 64 12 1
19 3 12 74 9 1
1 -19 -12 792 25 1
-19 -1 -12 820 26 1
-19 -1 -12 889 30 1
-19 -1 12 815 30 1
-19 -1 12 818 30 1
1 -19 12 871 27 1
-1 19 12 862 30 1
19 1 12 780 26 1
-1 19 12 786 26 1
-1 -19 -12 673 27 1
-19 1 -12 668 26 1
-19 1 -12 671 27 1
-19 1 -12 660 30 1
-1 -19 -12 654 26 1
-1 -19 -12 684 28 1
1 19 12 648 27 1
-1 -19 12 698 28 1
-19 1 12 660 31 1
1 19 12 666 30 1
-3 -19 -12 321 12 1
-19 3 -12 283 15 1
-19 3 -12 280 13 1
-19 3 -12 267 15 1
-3 -19 -12 295 15 1
-3 -19 -12 326 14 1
-19 3 12 302 16 1
3 19 12 302 16 1
-3 -19 12 314 15 1
3 19 12 324 14 1
-19 3 12 286 16 1
19 -3 12 298 14 1
-19 5 -12 121 9 1
-19 5 -12 136 8 1
-5 -19 -12 109 5 1
-5 -19 -12 108 9 1
-19 5 -12 131 6 1
-5 -19 -12 124 7 1
-5 -19 12 128 9 1
5 19 12 120 7 1
-19 5 12 134 9 1
19 -5 12 122 7 1
-19 5 12 111 8 1
-19 5 12 97 9 1
-7 -19 -12 99 7 1
-19 7 -12 119 7 1
-19 7 -12 108 10 1
-19 7 -12 102 9 1
-7 -19 -12 105 9 1
-7 -19 12 103 10 1
7 19 12 102 8 1
-19 7 12 101 10 1
-19 7 12 100 8 1
-19 7 12 87 9 1
19 -7 12 120 8 1
-19 9 -12 158 10 1
-19 9 -12 165 8 1
-9 -19 -12 153 9 1
-19 9 12 161 11 1
-19 9 12 162 10 1
-9 -19 12 139 13 1
9 19 12 152 10 1
19 -9 12 164 9 1
19 -9 12 177 10 1
-19 9 12 152 13 1
-19 11 -12 2 2 1
-19 11 -12 0 3 1
-11 -19 -12 7 3 1
-19 11 12 1 7 1
19 -11 12 1 2 1
-19 11 12 5 2 1
11 19 12 7 4 1
-19 11 12 10 3 1
19 -11 12 9 2 1
19 -13 -12 471 24 1
-19 13 -12 558 23 1
-19 13 -12 548 21 1
19 -13 12 542 21 1
-19 13 12 525 23 1
13 19 12 478 23 1
19 -15 -12 347 19 1
-19 15 -12 339 15 1
-19 15 -12 348 15 1
19 -15 12 318 14 1
19 -15 12 329 15 1
-19 15 12 340 16 1
-17 -19 -12 337 18 1
19 -17 12 383 16 1
-19 17 12 362 18 1
-19 -19 -12 249 13 1
-19 19 12 270 14 1
19 -19 12 240 12 1
18 -20 12 166 7 1
-18 20 12 161 9 1
-20 -16 -12 15 5 1
16 -20 12 22 4 1
-16 20 12 27 5 1
14 -20 -12 92 8 1
-14 20 -12 88 10 1
-14 20 12 89 8 1
14 -20 12 92 7 1
-20 -12 -12 505 30 1
-12 20 -12 477 27 1
12 -20 -12 497 26 1
12 -20 12 518 26 1
20 12 12 490 29 1
-20 -10 -12 148 9 1
10 -20 -12 178 6 1
-10 20 -12 163 10 1
10 -20 -12 181 10 1
-10 20 12 192 7 1
-10 20 12 183 9 1
20 10 12 140 12 1
10 -20 12 169 7 1
8 -20 -12 76 6 1
8 -20 -12 86 9 1
-20 -8 -12 109 9 1
8 -20 12 77 7 1
-8 20 12 88 6 1
-8 20 12 81 10 1
6 -20 -12 371 20 1
-6 20 -12 347 22 1
6 -20 -12 379 19 1
-20 -6 -12 378 22 1
-6 20 12 389 19 1
20 6 12 357 20 1
6 -20 12 400 20 1
-20 -4 -12 369 20 1
4 -20 -12 382 16 1
-4 20 -12 375 21 1
4 -20 -12 407 18 1
-20 -4 12 391 21 1
4 -20 12 407 18 1
-4 20 12 390 17 1
20 4 12 362 18 1
2 -20 -12 2205 98 1
-20 -2 -12 2050 109 1
2 -20 -12 2306 100 1
2 -20 12 2243 100 1
-20 -2 12 2343 109 1
-20 -2 12 2182 111 1
-2 20 12 2166 98 1
20 2 12 2183 99 1
0 -20 -12 446 19 1
-20 0 -12 410 20 1
0 -20 -12 435 16 1
0 20 12 467 17 1
20 0 12 445 18 1
-20 0 12 441 20 1
-20 0 12 391 20 1
0 -20 12 428 18 1
-2 -20 -12 1722 57 1
-20 2 -12 1817 56 1
-2 -20 -12 1656 59 1
-2 -20 12 1755 59 1
2 20 12 1799 58 1
-20 2 12 1880 66 1
2 20 12 1681 65 1
-20 2 12 1757 64 1
20 -2 12 1742 58 1
-20 4 -12 328 18 1
-4 -20 -12 286 16 1
-20 4 -12 330 17 1
-20 4 -12 358 15 1
-4 -20 -12 336 17 1
-4 -20 -12 308 14 1
-20 4 12 348 18 1
4 20 12 297 19 1
4 20 12 309 16 1
-20 4 12 354 19 1
20 -4 12 329 16 1
-4 -20 12 348 17 1
-20 6 -12 46 6 1
-6 -20 -12 31 5 1
-6 -20 -12 47 7 1
-20 6 -12 45 6 1
6 20 12 20 5 1
20 -6 12 34 6 1
-6 -20 12 31 3 1
-20 6 12 23 3 1
-20 6 12 40 9 1
-20 6 12 31 6 1
-20 8 -12 89 11 1
-20 8 -12 116 8 1
-8 -20 -12 100 7 1
8 20 12 110 11 1
20 -8 12 99 7 1
20 -8 12 104 9 1
-8 -20 12 115 10 1
-20 8 12 96 9 1
-20 8 12 123 12 1
-20 8 12 123 8 1
-20 10 -12 126 9 1
-20 10 -12 134 8 1
-20 10 12 103 9 1
20 -10 12 141 10 1
20 -10 12 128 8 1
-20 10 12 144 17 1
-20 10 12 112 10 1
-20 12 -12 153 8 1
-20 12 -12 130 8 1
12 20 12 121 12 1
20 -12 12 126 7 1
-20 12 12 157 9 1
-20 12 12 126 8 1
20 -12 12 129 9 1
-20 14 -12 34 8 1
-20 14 -12 43 6 1
20 -14 12 52 7 1
-20 14 12 47 6 1
-20 16 -12 92 8 1
-20 16 12 100 7 1
20 -16 12 110 8 1
-18 -20 -12 4 2 1
20 -18 12 9 2 1
-21 -17 -12 98 7 1
17 -21 12 98 5 1
-17 21 12 98 6 1
-21 -15 -12 272 14 1
15 -21 12 278 12 1
-15 21 12 268 14 1
13 -21 -12 13 6 1
-13 21 -12 3 4 1
-21 -13 -12 4 2 1
-13 21 12 3 2 1
13 -21 12 4 2 1
-11 21 -12 33 5 1
11 -21 -12 29 4 1
11 -21 -12 22 2 1
11 -21 12 43 2 1
-11 21 12 26 3 1
-11 21 12 15 4 1
9 -21 -12 358 22 1
-21 -9 -12 407 25 1
9 -21 -12 357 21 1
9 -21 12 371 21 1
21 9 12 370 24 1
-9 21 12 392 25 1
-9 21 12 367 21 1
7 -21 -12 22 5 1
-21 -7 -12 33 8 1
-7 21 -12 46 11 1
7 -21 -12 28 8 1
21 7 12 23 10 1
-7 21 12 40 6 1
7 -21 12 33 6 1
5 -21 -12 432 18 1
5 -21 -12 453 20 1
-5 21 12 456 19 1
5 -21 12 469 19 1
-21 -3 -12 105 9 1
3 -21 -12 114 9 1
3 -21 12 111 8 1
21 3 12 77 9 1
1 -21 -12 1722 79 1
1 -21 -12 1749 77 1
1 -21 12 1730 78 1
-21 -1 12 1606 88 1
-21 -1 12 1760 86 1
-1 21 12 1699 78 1
-21 1 -12 3086 147 1
-1 -21 -12 3275 135 1
-1 -21 -12 3301 132 1
21 -1 12 3431 133 1
-21 1 12 3069 150 1
-1 -21 12 3251 134 1
-21 1 12 3406 147 1
1 21 12 3212 133 1
-3 -21 -12 27 7 1
21 -3 12 33 8 1
3 21 12 21 6 1
3 21 12 19 6 1
-21 3 12 51 7 1
-21 3 12 50 7 1
-5 -21 -12 21 2 1
-21 5 -12 27 2 1
5 21 12 17 3 1
-21 5 12 1 2 1
-5 -21 12 30 2 1
21 -5 12 14 3 1
5 21 12 9 6 1
-21 5 12 1 3 1
-7 -21 -12 40 7 1
-21 7 -12 28 7 1
-21 7 -12 33 6 1
21 -7 12 34 10 1
-7 -21 12 44 8 1
-21 7 12 39 7 1
-21 7 12 41 7 1
7 21 12 51 13 1
21 -7 12 33 6 1
7 21 12 43 8 1
-21 9 -12 163 10 1
-21 9 -12 164 8 1
-9 -21 12 117 11 1
9 21 12 135 11 1
21 -9 12 141 10 1
-21 9 12 148 9 1
-21 9 12 132 10 1
9 21 12 109 15 1
21 -9 12 156 9 1
-21 11 -12 558 18 1
21 -11 12 540 19 1
21 -11 12 551 18 1
11 21 12 525 20 1
-21 13 -12 337 13 1
-21 13 -12 319 14 1
21 -13 12 295 12 1
21 -13 12 311 13 1
-21 13 12 350 14 1
-21 15 -12 213 9 1
-21 15 12 211 10 1
21 -15 12 203 9 1
-17 -21 -12 315 18 1
21 -17 12 270 16 1
-21 17 12 284 18 1
-22 -16 -12 49 6 1
-16 22 12 54 6 1
16 -22 12 54 5 1
-22 -14 -12 3 2 1
-14 22 12 2 2 1
14 -22 12 2 1 1
-22 -12 -12 78 7 1
12 -22 -12 115 7 1
-12 22 12 116 7 1
12 -22 12 109 7 1
-10 22 -12 186 16 1
10 -22 -12 223 14 1
-22 -10 -12 249 13 1
10 -22 12 212 12 1
-10 22 12 216 13 1
-10 22 12 233 14 1
-8 22 -12 718 37 1
8 -22 -12 811 36 1
-22 -8 -12 821 40 1
8 -22 -12 800 35 1
8 -22 12 790 35 1
22 8 12 739 37 1
-8 22 12 789 35 1
6 -22 -12 221 8 1
6 -22 -12 198 10 1
-22 -6 -12 230 11 1
-6 22 -12 204 15 1
-6 22 12 234 9 1
6 -22 12 191 9 1
22 6 12 181 13 1
4 -22 -12 7 2 1
-22 -4 -12 1 2 1
4 -22 -12 5 2 1
-22 -4 12 1 4 1
-4 22 12 6 2 1
4 -22 12 5 2 1
22 4 12 1 4 1
-22 -2 -12 118 9 1
2 -22 -12 110 9 1
2 -22 -12 107 7 1
-22 -2 12 89 11 1
-22 -2 12 127 11 1
2 -22 12 112 8 1
-2 22 12 127 8 1
-22 0 -12 469 23 1
0 -22 -12 451 19 1
0 -22 -12 479 21 1
0 22 12 445 20 1
0 -22 12 468 20 1
-22 0 12 471 23 1
-2 -22 -12 117 10 1
-22 2 -12 131 10 1
-22 2 12 122 10 1
22 -2 12 132 9 1
2 22 12 150 9 1
-2 -22 12 130 9 1
-22 2 12 107 10 1
-22 4 -12 3 3 1
-4 -22 -12 2 2 1
22 -4 12 4 3 1
4 22 12 1 3 1
-4 -22 12 1 2 1
-22 4 12 0 2 1
-22 4 12 2 3 1
-6 -22 -12 930 37 1
-22 6 -12 959 40 1
-22 6 12 929 41 1
-6 -22 12 924 37 1
6 22 12 900 36 1
22 -6 12 851 36 1
-22 6 12 865 40 1
-22 8 -12 173 9 1
8 22 12 151 10 1
22 -8 12 173 9 1
-8 -22 12 164 11 1
-22 8 12 153 9 1
-22 8 12 157 10 1
-22 10 12 39 2 1
10 22 12 35 5 1
22 -10 12 49 3 1
-22 12 -12 6 2 1
22 -12 12 0 3 1
-22 12 12 7 2 1
-22 12 12 7 1 1
-22 14 -12 586 28 1
-22 14 12 562 29 1
-16 -22 -12 683 30 1
-22 16 12 626 31 1
-15 23 12 0 3 1
-23 -13 -12 4 2 1
-13 23 12 11 3 1
13 -23 12 3 1 1
-23 -11 -12 3 2 1
11 -23 -12 3 3 1
9 -23 -12 13 3 1
-9 23 -12 9 6 1
-23 -9 -12 13 2 1
9 -23 12 22 5 1
-9 23 12 10 4 1
-7 23 -12 23 7 1
7 -23 -12 22 3 1
-7 23 12 19 3 1
23 7 12 24 7 1
7 -23 12 16 2 1
5 -23 -12 8 3 1
-23 -5 -12 18 7 1
23 5 12 7 5 1
5 -23 12 5 2 1
-23 -3 -12 2233 98 1
3 -23 -12 2246 87 1
3 -23 -12 2264 90 1
23 3 12 2158 89 1
3 -23 12 2277 89 1
-3 23 12 2136 88 1
1 -23 -12 652 30 1
1 -23 -12 711 32 1
-23 -1 -12 747 35 1
-23 -1 12 685 35 1
1 -23 12 658 31 1
-1 23 12 635 31 1
23 1 12 645 32 1
-1 -23 -12 787 35 1
-23 1 12 833 38 1
-23 1 12 866 38 1
-1 -23 12 813 34 1
1 23 12 798 34 1
-3 -23 -12 138 9 1
-23 3 -12 110 9 1
23 -3 12 107 10 1
-3 -23 12 135 9 1
-23 3 12 119 10 1
-23 3 12 125 10 1
3 23 12 123 9 1
-5 -23 -12 2 2 1
-23 5 -12 6 2 1
5 23 12 2 3 1
23 -5 12 4 3 1
-23 7 -12 111 10 1
23 -7 12 100 11 1
-23 7 12 118 10 1
7 23 12 103 12 1
-23 7 12 118 10 1
-7 -23 12 109 11 1
-23 9 -12 3 2 1
23 -9 12 9 3 1
-9 -23 12 3 3 1
9 23 12 6 5 1
-23 9 12 5 2 1
-23 11 -12 81 5 1
-23 11 12 94 5 1
-23 11 12 97 6 1
-23 13 -12 1 2 1
-23 13 12 3 2 1
-23 15 -12 47 6 1
-23 15 12 56 4 1
-24 -12 -12 28 4 1
12 -24 12 29 4 1
-24 -10 -12 0 2 1
10 -24 -12 1 2 1
10 -24 12 3 1 1
-24 -8 -12 17 5 1
-24 -6 -12 517 28 1
6 -24 -12 531 26 1
6 -24 -12 468 24 1
6 -24 12 518 25 1
-6 24 12 481 25 1
4 -24 -12 96 9 1
4 -24 -12 108 9 1
-24 -4 -12 96 8 1
4 -24 12 100 8 1
24 4 12 122 13 1
-4 24 12 103 8 1
-24 -2 -12 185 10 1
2 -24 -12 195 10 1
-2 24 12 180 10 1
24 2 12 195 14 1
-24 -2 12 188 10 1
2 -24 12 181 9 1
-24 0 -12 2357 103 1
0 -24 -12 2355 94 1
0 -24 12 2393 93 1
-24 0 12 2220 102 1
0 24 12 2228 92 1
-24 0 12 2353 104 1
24 0 12 2333 93 1
-24 2 -12 32 5 1
-2 -24 -12 33 7 1
-24 2 12 40 6 1
-24 2 12 40 6 1
-2 -24 12 35 6 1
-4 -24 -12 387 19 1
-24 4 -12 411 20 1
-4 -24 12 400 19 1
4 24 12 365 19 1
-24 4 12 408 21 1
-24 6 -12 135 8 1
24 -6 12 120 11 1
-24 6 12 152 9 1
-24 6 12 138 9 1
-24 8 -12 4 2 1
-8 -24 12 5 2 1
-24 8 12 0 2 1
-24 8 12 3 2 1
-24 10 -12 81 7 1
-24 10 12 77 8 1
-24 10 12 89 8 1
-24 12 -12 387 19 1
-24 12 12 413 20 1
-25 -11 -12 38 5 1
11 -25 12 46 4 1
-25 -9 -12 0 2 1
9 -25 -12 3 2 1
-25 -7 -12 146 9 1
7 -25 -12 157 8 1
7 -25 12 135 7 1
5 -25 -12 159 10 1
-25 -5 -12 171 12 1
-25 -3 -12 231 14 1
-25 -3 12 206 14 1
3 -25 12 261 13 1
-3 25 12 222 13 1
-25 -1 -12 36 5 1
1 -25 -12 24 6 1
1 -25 12 39 5 1
-25 -1 12 30 6 1
-1 -25 -12 1299 52 1
-25 1 -12 1260 56 1
-1 -25 12 1275 52 1
-25 1 12 1225 57 1
-3 -25 12 22 4 1
-25 3 12 34 5 1
-25 3 12 25 5 1
-25 5 -12 0 2 1
-25 5 12 1 2 1
-25 5 12 4 2 1
-5 -25 12 4 2 1
-25 7 -12 221 11 1
-25 7 12 200 12 1
-7 -25 12 199 11 1
-25 7 12 214 11 1
-25 9 12 34 2 1
-25 9 12 33 2 1
-25 11 -12 380 18 1
-25 11 12 349 19 1
-26 -8 -12 17 4 1
8 -26 12 24 3 1
-26 -6 -12 80 5 1
6 -26 -12 69 5 1
6 -26 12 62 4 1
4 -26 -12 330 16 1
-26 -4 -12 330 18 1
4 -26 12 335 16 1
-26 -2 -12 392 17 1
2 -26 -12 364 16 1
2 -26 12 356 15 1
0 -26 -12 23 4 1
-26 0 -12 19 4 1
0 -26 12 20 4 1
-2 -26 -12 343 16 1
-26 2 -12 304 17 1
-2 -26 12 325 15 1
-26 4 -12 1027 51 1
-4 -26 12 1007 46 1
-26 4 12 1043 51 1
-26 4 12 997 52 1
-26 6 -12 140 11 1
-26 6 12 144 11 1
-6 -26 12 130 10 1
-26 6 12 141 11 1
-26 8 -12 68 5 1
-8 -26 12 68 7 1
-26 8 12 60 6 1
-26 8 12 63 5 1
-27 -5 -12 307 15 1
5 -27 -12 316 14 1
5 -27 12 293 14 1
3 -27 -12 128 7 1
3 -27 12 132 7 1
-27 -1 -12 114 8 1
1 -27 -12 125 7 1
-27 -1 12 113 9 1
1 -27 12 126 7 1
-27 1 -12 139 9 1
-27 1 12 153 10 1
-1 -27 12 136 8 1
-27 3 -12 257 13 1
-27 3 12 253 13 1
-27 3 12 259 13 1
-3 -27 12 256 11 1
-27 5 -12 205 10 1
-5 -27 12 195 10 1
-27 5 12 207 11 1
-27 5 12 210 11 1
0 -1 -13 1704 44 1
0 1 -13 1597 44 1
1 0 -13 1575 44 1
-1 0 -13 1691 44 1
1 0 -13 1570 44 1
-1 0 -13 1752 44 1
-1 0 13 1586 48 1
1 0 13 1668 43 1
0 1 13 1700 43 1
0 1 13 1739 43 1
1 0 13 1685 43 1
2 1 -13 210 14 1
2 1 -13 197 14 1
1 -2 -13 205 14 1
-2 -1 -13 239 15 1
1 -2 -13 204 14 1
-2 -1 -13 233 15 1
-2 -1 13 259 16 1
1 -2 13 223 14 1
-1 2 13 187 14 1
2 1 13 188 14 1
1 -2 13 217 14 1
2 1 13 184 16 1
-1 2 13 188 14 1
-1 -2 -13 3548 135 1
2 -1 -13 3417 135 1
-2 1 -13 3391 136 1
1 2 -13 3419 135 1
-2 1 13 3459 150 1
1 2 13 3361 135 1
-3 -2 -13 808 12 1
2 -3 -13 845 12 1
-2 3 -13 781 12 1
-3 -2 -13 754 12 1
3 2 -13 809 12 1
2 -3 -13 818 12 1
3 2 13 808 12 1
2 -3 13 772 12 1
2 -3 13 774 12 1
3 0 -13 2733 46 1
3 0 -13 2720 46 1
0 -3 -13 2548 46 1
-3 0 -13 2667 46 1
0 3 -13 2840 46 1
0 3 13 2687 51 1
3 0 13 2492 45 1
0 -3 13 2685 50 1
3 -2 -13 714 10 1
-2 -3 -13 611 10 1
-2 -3 -13 593 10 1
3 -2 -13 682 10 1
-3 2 -13 564 10 1
2 3 -13 580 10 1
3 -2 13 580 11 1
3 -2 13 573 10 1
3 -2 13 576 9 1
-3 2 13 647 11 1
-4 -3 -13 1994 72 1
3 -4 -13 1962 72 1
-3 4 -13 1984 72 1
-4 -3 -13 1959 72 1
-3 4 13 1906 71 1
3 -4 13 1900 71 1
3 -4 13 2085 79 1
-4 -3 13 2055 80 1
4 3 13 1999 72 1
-1 4 -13 4380 155 1
1 -4 -13 4206 155 1
4 1 -13 4018 155 1
-4 -1 -13 4239 155 1
-4 -1 -13 4499 155 1
-4 -1 13 3985 172 1
-1 4 13 4246 155 1
1 -4 13 4299 171 1
-1 -4 -13 60 5 1
4 -1 -13 50 5 1
4 -1 -13 50 4 1
1 4 -13 72 5 1
-4 1 -13 36 5 1
-4 1 13 41 5 1
1 4 13 50 4 1
4 -1 13 47 4 1
-1 -4 13 67 5 1
-4 3 -13 3004 90 1
-3 -4 -13 3079 90 1
4 -3 -13 2953 89 1
-3 -4 -13 2935 90 1
4 -3 13 3007 89 1
-3 -4 13 3141 99 1
-4 3 13 2862 99 1
-4 5 -13 8232 327 1
4 -5 -13 8065 327 1
-5 -4 -13 8184 328 1
-5 -4 -13 7451 327 1
4 -5 -13 8187 327 1
-4 5 13 7897 327 1
4 -5 13 8106 328 1
4 -5 13 7845 362 1
-4 5 13 7869 327 1
2 -5 -13 35 15 1
-5 -2 -13 38 15 1
-5 -2 -13 34 15 1
2 -5 -13 38 15 1
-2 5 13 52 17 1
-2 5 13 46 15 1
2 -5 13 50 16 1
5 0 -13 601 25 1
0 -5 -13 633 25 1
0 5 -13 643 25 1
0 -5 -13 645 25 1
5 0 -13 651 24 1
0 -5 13 676 27 1
5 0 13 650 25 1
-5 2 -13 17771 705 1
5 -2 -13 17276 703 1
2 5 -13 17190 702 1
5 -2 -13 17146 703 1
-2 -5 -13 17448 705 1
5 -2 13 17461 704 1
-5 2 13 16765 781 1
2 5 13 17803 704 1
-2 -5 13 17800 779 1
-4 -5 -13 5433 153 1
-5 4 -13 5533 154 1
5 -4 -13 5033 153 1
-4 -5 -13 5289 153 1
5 -4 13 5192 153 1
-5 6 -13 35 18 1
5 -6 -13 34 18 1
-6 -5 -13 35 18 1
-6 -5 -13 37 18 1
5 -6 13 23 21 1
-5 6 13 38 18 1
6 5 13 36 18 1
5 -6 13 25 17 1
-5 6 13 45 20 1
-5 6 13 40 17 1
-6 -5 13 38 20 1
-5 6 13 32 21 1
-6 -3 -13 846 35 1
-6 -3 -13 878 35 1
3 -6 -13 840 35 1
3 -6 -13 871 35 1
-3 6 -13 984 35 1
6 3 -13 914 35 1
-3 6 13 938 35 1
6 3 13 846 35 1
3 -6 13 1004 34 1
3 -6 13 924 38 1
-1 6 -13 3849 114 1
6 1 -13 3878 114 1
-1 6 13 3821 114 1
-1 6 13 4046 126 1
1 -6 13 3854 126 1
6 1 13 4081 114 1
-6 -1 13 3833 126 1
6 -1 -13 4967 232 1
1 6 -13 5156 233 1
-6 1 -13 5235 233 1
-1 -6 -13 5066 233 1
6 -1 -13 5181 232 1
-1 -6 13 5376 257 1
6 -1 13 5333 232 1
-6 1 13 5363 258 1
-6 3 -13 4150 139 1
6 -3 -13 4317 139 1
-3 -6 -13 4220 139 1
-3 -6 13 4076 154 1
6 -3 13 4336 139 1
6 -5 -13 398 4 1
-5 -6 -13 406 4 1
-6 5 -13 383 4 1
-6 5 13 361 5 1
6 -5 13 400 6 1
6 -5 13 405 3 1
-7 -6 -13 5075 184 1
-7 -6 -13 4797 184 1
6 -7 -13 5275 184 1
6 -7 -13 4778 184 1
-6 7 -13 5146 185 1
6 -7 13 4765 184 1
-7 -6 13 4890 204 1
7 6 13 5087 184 1
-6 7 13 5217 184 1
-4 7 -13 730 17 1
4 -7 -13 698 16 1
-7 -4 -13 684 16 1
7 4 -13 727 16 1
-4 7 13 695 19 1
4 -7 13 673 16 1
7 4 13 741 17 1
-4 7 13 740 16 1
-7 -4 13 755 18 1
-4 7 13 699 20 1
-2 7 -13 1084 32 1
-7 -2 -13 980 32 1
2 -7 -13 1081 32 1
7 2 -13 952 31 1
-2 7 13 979 35 1
-2 7 13 1073 32 1
0 7 -13 541 26 1
7 0 -13 594 26 1
0 -7 -13 539 26 1
0 7 13 564 26 1
0 -7 13 555 28 1
7 -2 -13 4013 169 1
-2 -7 -13 4087 169 1
-7 2 -13 3949 170 1
-2 -7 13 4152 187 1
7 -2 13 3930 169 1
-4 -7 -13 1004 41 1
-4 -7 -13 1047 41 1
-7 4 -13 1006 41 1
7 -4 -13 1049 40 1
-4 -7 13 1072 45 1
7 -6 -13 845 20 1
-6 -7 -13 819 20 1
-6 -7 -13 858 20 1
-7 6 -13 821 20 1
-7 6 13 771 24 1
-7 6 13 772 23 1
-6 -7 13 888 22 1
7 -6 13 818 21 1
6 7 13 830 20 1
7 -8 -13 2045 60 1
-8 -7 -13 2171 60 1
-7 8 -13 2167 60 1
-8 -7 13 2020 66 1
-7 8 13 2160 59 1
-7 8 13 2161 68 1
-5 8 -13 40 3 1
5 -8 -13 99 1 1
-8 -5 -13 25 1 1
-8 -5 -13 25 1 1
-5 8 13 90 2 1
-8 -5 13 28 4 1
-8 -3 -13 2157 84 1
3 -8 -13 2251 83 1
3 -8 -13 2103 83 1
-3 8 -13 2378 84 1
-8 -3 -13 2326 84 1
-8 -3 13 2154 93 1
-3 8 13 2148 95 1
1 -8 -13 6 4 1
-8 -1 -13 2 4 1
1 -8 -13 4 4 1
8 1 -13 3 4 1
-8 -1 -13 4 5 1
-8 -1 13 4 6 1
-1 8 13 4 4 1
-1 8 13 2 6 1
1 -8 13 6 4 1
1 8 -13 1553 59 1
8 -1 -13 1641 58 1
-8 1 -13 1589 59 1
-1 -8 -13 1481 59 1
-1 -8 -13 1553 59 1
-8 1 13 1563 67 1
8 -1 13 1509 59 1
1 8 13 1597 59 1
-3 -8 -13 15 8 1
-3 -8 -13 16 8 1
-8 3 -13 21 9 1
8 -3 -13 25 8 1
-8 3 13 17 11 1
8 -3 13 20 8 1
-3 -8 13 22 9 1
3 8 13 19 8 1
-8 5 -13 3928 125 1
8 -5 -13 3987 124 1
-5 -8 -13 3838 125 1
-5 -8 13 4068 138 1
-8 5 13 4026 139 1
-8 5 13 3705 142 1
8 -7 -13 7924 320 1
7 8 13 8120 320 1
-8 7 13 7496 362 1
-9 -8 -13 1730 68 1
-8 9 -13 1775 68 1
-8 9 13 1799 67 1
-8 9 13 1794 76 1
-6 9 -13 102 15 1
6 -9 -13 88 14 1
-9 -6 -13 119 15 1
6 -9 -13 92 14 1
-9 -6 13 94 16 1
-6 9 13 95 18 1
-6 9 13 81 16 1
9 6 13 103 14 1
-6 9 13 102 14 1
-9 -4 -13 3627 129 1
-4 9 -13 3827 130 1
4 -9 -13 3564 129 1
4 -9 -13 3791 129 1
-9 -4 -13 3747 129 1
9 4 13 3514 129 1
-4 9 13 3961 129 1
-9 -2 -13 50 2 1
-2 9 -13 64 2 1
9 2 13 49 3 1
-2 9 13 47 3 1
-9 0 -13 1885 59 1
0 9 -13 1982 59 1
-9 0 -13 1826 59 1
9 0 13 1849 67 1
-2 -9 -13 388 26 1
-9 2 -13 467 26 1
-2 -9 -13 399 26 1
9 -2 -13 390 25 1
-9 2 13 394 29 1
-9 2 13 395 30 1
9 -4 -13 3100 107 1
-9 4 -13 3145 108 1
-4 -9 -13 3241 108 1
-4 -9 -13 3062 108 1
9 -4 13 3375 108 1
-9 4 13 3259 123 1
-4 -9 13 3376 119 1
-9 4 13 3319 120 1
-6 -9 -13 918 36 1
-6 -9 -13 979 37 1
-9 6 -13 912 37 1
9 -6 -13 993 37 1
-6 -9 13 1011 40 1
-9 6 13 966 41 1
6 9 13 973 37 1
-9 6 13 901 42 1
-9 6 13 1000 41 1
9 -6 13 912 36 1
-9 8 -13 290 10 1
9 -8 -13 295 9 1
-8 -9 -13 281 9 1
-8 -9 -13 285 9 1
-8 -9 13 328 11 1
8 9 13 287 10 1
-9 8 13 304 12 1
-9 8 13 321 12 1
-10 -9 -13 0 1 1
9 -10 -13 1 1 1
9 -10 -13 6 3 1
-10 -9 -13 0 1 1
-9 10 -13 0 2 1
9 -10 13 2 1 1
-9 10 13 1 2 1
-9 10 13 0 3 1
10 9 13 0 2 1
-10 -7 -13 131 4 1
-7 10 -13 91 5 1
7 -10 -13 100 4 1
-7 10 13 79 6 1
-10 -7 13 113 5 1
7 -10 13 110 4 1
-7 10 13 80 7 1
-5 10 -13 3060 133 1
5 -10 -13 2892 132 1
-10 -5 -13 2772 132 1
-10 -5 -13 2775 132 1
5 -10 -13 3110 132 1
-5 10 13 2961 132 1
5 -10 13 3019 131 1
5 -10 13 3063 131 1
3 -10 -13 2119 61 1
-10 -3 -13 2193 62 1
3 -10 -13 2153 61 1
10 3 13 2086 62 1
-10 -3 13 2073 70 1
-3 10 13 2015 70 1
1 -10 -13 727 40 1
1 -10 -13 783 40 1
-10 -1 -13 712 40 1
-1 10 13 743 46 1
-1 10 13 714 40 1
10 1 13 713 40 1
-10 -1 13 783 46 1
-1 10 13 736 45 1
-1 -10 -13 3179 96 1
-10 1 -13 3089 96 1
-10 1 -13 3047 107 1
-10 1 13 3051 106 1
-10 1 13 3094 109 1
1 10 13 3191 95 1
1 10 13 3105 106 1
-10 3 -13 596 24 1
-10 3 -13 612 28 1
-3 -10 -13 582 23 1
-3 -10 -13 564 23 1
-10 3 13 567 27 1
3 10 13 616 23 1
-5 -10 -13 206 10 1
-10 5 -13 237 15 1
10 -5 -13 202 10 1
10 -5 -13 206 11 1
-10 5 -13 201 11 1
-10 5 13 212 13 1
-7 -10 -13 346 24 1
10 -7 -13 350 24 1
-10 7 -13 387 25 1
-7 -10 -13 340 24 1
7 10 13 349 24 1
-10 7 13 361 27 1
-10 7 13 379 28 1
-10 7 13 371 28 1
10 -7 13 354 24 1
-10 9 -13 198 2 1
10 -9 -13 255 2 1
-9 -10 -13 220 1 1
-10 9 13 237 3 1
-10 9 13 256 3 1
-10 9 13 249 2 1
9 10 13 242 2 1
10 -11 -13 22 5 1
-11 -10 -13 15 3 1
-10 11 -13 23 5 1
-10 11 13 22 3 1
11 10 13 15 5 1
-10 11 13 29 6 1
-11 -8 -13 1609 54 1
-11 -8 -13 1554 54 1
8 -11 -13 1684 54 1
8 -11 -13 1644 54 1
-8 11 -13 1512 55 1
11 8 13 1559 54 1
-11 -8 13 1613 60 1
-8 11 13 1545 54 1
-11 -6 -13 456 17 1
6 -11 -13 500 17 1
-11 -6 -13 482 17 1
-6 11 13 495 20 1
11 6 13 472 17 1
-6 11 13 508 17 1
-4 11 -13 4694 192 1
4 -11 -13 4939 192 1
4 -11 -13 4636 191 1
-11 -4 -13 4858 192 1
-11 -4 -13 4762 192 1
-4 11 13 4976 218 1
-11 -4 13 4782 217 1
-4 11 13 4905 192 1
-11 -2 -13 1744 50 1
-11 -2 -13 1657 49 1
-2 11 -13 1805 50 1
2 -11 -13 1733 49 1
2 -11 -13 1719 49 1
-2 11 13 1640 55 1
-2 11 13 1737 49 1
-11 -2 13 1664 55 1
-11 -2 13 1686 57 1
-11 0 -13 5539 251 1
0 -11 -13 5265 250 1
-11 0 -13 5672 251 1
-11 0 13 5642 278 1
0 11 13 5318 284 1
0 11 13 5596 251 1
0 11 13 5098 277 1
-2 -11 -13 1833 76 1
-11 2 -13 1780 85 1
-2 -11 -13 1806 76 1
-11 2 -13 1833 76 1
11 -2 13 1788 76 1
-11 2 13 1811 86 1
-11 2 13 1822 84 1
2 11 13 1744 76 1
-4 -11 -13 1886 80 1
-4 -11 -13 1846 78 1
-4 -11 -13 1878 78 1
-11 4 -13 1952 87 1
11 -4 13 1861 78 1
-11 4 13 1964 87 1
4 11 13 1879 78 1
-11 4 13 1759 89 1
-11 6 -13 1292 63 1
-11 6 -13 1349 57 1
11 -6 -13 1402 56 1
-6 -11 -13 1321 56 1
-6 -11 -13 1421 56 1
-11 6 13 1345 63 1
6 11 13 1354 56 1
11 -6 13 1371 56 1
-8 -11 -13 572 29 1
11 -8 -13 640 29 1
-11 8 -13 624 29 1
-8 -11 -13 592 28 1
8 11 13 604 29 1
-11 8 13 629 33 1
-11 8 13 625 34 1
-10 -11 -13 5 1 1
11 -10 -13 11 2 1
-10 -11 -13 12 2 1
-11 10 -13 3 2 1
-11 10 -13 14 4 1
-11 10 13 11 2 1
-11 10 13 2 2 1
-11 10 13 11 2 1
11 -10 13 8 2 1
-12 -11 -13 624 16 1
-11 12 -13 541 17 1
-12 -11 -13 615 17 1
12 11 13 605 17 1
11 -12 13 624 16 1
-11 12 13 610 20 1
-12 -9 -13 4164 167 1
9 -12 -13 4205 168 1
-9 12 13 4260 186 1
-9 12 13 4303 167 1
-7 12 -13 2818 95 1
7 -12 -13 2777 94 1
-12 -7 -13 2892 94 1
-12 -7 -13 2773 93 1
-7 12 13 2972 104 1
7 -12 13 2781 93 1
12 7 13 3084 94 1
-7 12 13 2931 94 1
-12 -5 -13 1880 72 1
5 -12 -13 1942 74 1
-12 -5 -13 1821 72 1
5 -12 -13 1969 72 1
5 -12 -13 2073 72 1
-5 12 -13 1993 72 1
12 5 13 1961 72 1
-5 12 13 1891 82 1
-12 -5 13 1914 80 1
-5 12 13 2026 72 1
3 -12 -13 160 8 1
-12 -3 -13 159 8 1
3 -12 -13 153 8 1
-12 -3 -13 163 8 1
-3 12 -13 160 9 1
3 -12 -13 157 11 1
-3 12 13 145 8 1
-3 12 13 143 9 1
-12 -3 13 187 12 1
12 3 13 179 8 1
-3 12 13 157 11 1
1 -12 -13 572 28 1
1 -12 -13 560 28 1
-12 -1 -13 522 32 1
-1 12 -13 544 29 1
-12 -1 -13 580 28 1
1 -12 13 548 29 1
-12 -1 13 568 33 1
-1 12 13 509 33 1
-1 12 13 574 32 1
12 1 13 533 28 1
-1 -12 -13 2119 89 1
-12 1 -13 2127 87 1
-12 1 -13 2195 97 1
-1 -12 13 2012 89 1
1 12 13 2087 87 1
1 12 13 2037 99 1
1 12 13 2140 97 1
-3 -12 -13 471 21 1
-12 3 -13 456 24 1
-3 -12 -13 445 23 1
-12 3 -13 475 21 1
-3 -12 -13 486 21 1
-12 3 13 467 25 1
-12 3 13 479 24 1
-12 3 13 486 24 1
3 12 13 480 21 1
12 -3 13 507 21 1
-5 -12 -13 1051 40 1
-12 5 -13 1073 40 1
-5 -12 -13 1050 40 1
-5 -12 -13 1001 42 1
-12 5 -13 1068 45 1
-12 5 13 1072 45 1
12 -5 13 1033 40 1
5 12 13 1045 40 1
-12 5 13 982 46 1
-12 7 -13 6 3 1
-12 7 13 11 5 1
-12 7 13 6 3 1
-12 7 13 6 2 1
7 12 13 37 4 1
-9 -12 -13 845 19 1
-12 9 -13 791 21 1
-12 9 -13 751 23 1
-9 -12 -13 849 20 1
9 12 13 855 20 1
-12 9 13 807 23 1
-12 9 13 843 23 1
12 -9 13 816 20 1
-12 11 -13 167 12 1
-11 -12 -13 168 6 1
-11 -12 -13 182 7 1
-12 11 -13 171 8 1
12 -11 -13 177 8 1
-12 11 13 198 9 1
-12 11 13 191 10 1
11 12 13 168 7 1
-12 11 13 160 9 1
12 -11 13 172 7 1
-13 -12 -13 160 10 1
-12 13 -13 133 11 1
12 -13 13 169 11 1
13 12 13 139 11 1
-12 13 13 143 13 1
12 -13 13 132 9 1
-13 -10 -13 99 7 1
10 -13 -13 99 8 1
-10 13 -13 88 8 1
-13 -10 -13 96 6 1
-10 13 13 89 9 1
13 10 13 96 8 1
-10 13 13 98 9 1
10 -13 13 92 6 1
-10 13 13 96 6 1
10 -13 13 106 8 1
8 -13 -13 125 8 1
-13 -8 -13 116 6 1
8 -13 -13 126 15 1
-8 13 -13 110 9 1
8 -13 13 131 6 1
-8 13 13 116 7 1
-8 13 13 122 9 1
-8 13 13 101 9 1
13 8 13 115 8 1
8 -13 13 142 8 1
-13 -6 -13 270 8 1
6 -13 -13 245 8 1
-13 -6 -13 270 8 1
6 -13 -13 236 13 1
-6 13 13 232 8 1
-13 -6 13 239 10 1
-6 13 13 252 10 1
-13 -4 -13 6812 244 1
4 -13 -13 6896 245 1
4 -13 -13 7105 245 1
-13 -4 -13 6925 244 1
-4 13 13 7395 271 1
-4 13 13 7202 277 1
-4 13 13 6926 245 1
4 -13 13 7474 248 1
-13 -4 13 6810 277 1
-13 -2 -13 1354 56 1
2 -13 -13 1321 56 1
-13 -2 -13 1302 56 1
2 -13 -13 1311 58 1
2 -13 -13 1316 56 1
-2 13 -13 1377 57 1
2 -13 13 1300 57 1
-13 -2 13 1437 64 1
-13 -2 13 1453 63 1
-2 13 13 1340 63 1
-13 0 -13 980 42 1
-13 0 -13 968 47 1
-13 0 -13 1018 42 1
0 -13 -13 1013 43 1
0 -13 13 958 43 1
-13 0 13 1023 48 1
0 13 13 1006 46 1
13 0 13 924 42 1
-13 0 13 990 47 1
-13 2 -13 79 6 1
-2 -13 -13 72 5 1
-2 -13 -13 68 5 1
-2 -13 13 82 9 1
13 -2 13 68 6 1
-13 2 13 58 7 1
-13 2 13 76 8 1
2 13 13 70 7 1
-13 2 13 77 9 1
-4 -13 -13 2546 92 1
-4 -13 -13 2456 94 1
-13 4 -13 2641 92 1
-4 -13 13 2563 94 1
4 13 13 2630 92 1
-13 4 13 2814 102 1
-6 -13 -13 8120 339 1
-13 6 -13 8556 339 1
-6 -13 -13 8274 339 1
-13 6 -13 8545 376 1
-6 -13 -13 8895 343 1
-8 -13 -13 195 8 1
-13 8 -13 191 11 1
-13 8 -13 188 9 1
-8 -13 -13 207 7 1
13 -8 -13 197 9 1
13 -8 13 181 8 1
8 13 13 203 8 1
-13 8 13 189 10 1
-13 8 13 209 10 1
-13 8 13 185 10 1
-13 10 -13 48 10 1
-10 -13 -13 73 5 1
-10 -13 -13 71 6 1
13 -10 -13 70 8 1
-13 10 13 66 8 1
-13 10 13 75 8 1
10 13 13 60 6 1
-13 10 13 60 7 1
13 -12 -13 72 2 1
-12 -13 -13 85 2 1
-13 12 -13 68 4 1
-13 12 -13 85 2 1
-13 12 13 50 2 1
-13 12 13 61 4 1
-13 12 13 90 2 1
12 13 13 104 2 1
13 -12 13 61 2 1
13 -14 -13 609 25 1
-13 14 -13 633 26 1
-14 -13 -13 627 25 1
14 13 13 593 25 1
13 -14 13 634 24 1
-13 14 13 623 29 1
13 -14 13 641 25 1
-13 14 13 640 29 1
11 -14 -13 800 26 1
-11 14 -13 896 27 1
-11 14 13 891 25 1
-11 14 13 820 29 1
11 -14 13 840 26 1
14 11 13 850 26 1
11 -14 13 827 25 1
-11 14 13 893 30 1
-14 -9 -13 826 31 1
-9 14 -13 834 33 1
-14 -9 -13 863 32 1
-9 14 13 853 37 1
-9 14 13 876 37 1
9 -14 13 848 31 1
-9 14 13 805 32 1
14 9 13 836 33 1
7 -14 -13 16 4 1
7 -14 -13 22 2 1
-14 -7 -13 14 3 1
-7 14 13 17 3 1
7 -14 13 17 2 1
-7 14 13 8 6 1
14 7 13 12 4 1
-7 14 13 13 4 1
5 -14 -13 2354 92 1
5 -14 -13 2379 94 1
5 -14 -13 2316 92 1
5 -14 13 2316 93 1
-5 14 13 2337 104 1
-14 -5 13 2405 102 1
-5 14 13 2464 92 1
-5 14 13 2220 102 1
-14 -3 -13 3847 157 1
3 -14 -13 4079 141 1
3 -14 -13 4173 143 1
-14 -3 -13 4156 141 1
3 -14 -13 4094 141 1
-14 -3 -13 3971 141 1
-3 14 13 4305 141 1
3 -14 13 4176 143 1
-14 -3 13 4334 157 1
-3 14 13 3938 160 1
-14 -1 -13 7517 359 1
1 -14 -13 8350 328 1
1 -14 -13 8114 324 1
1 -14 -13 8350 324 1
-14 -1 -13 8308 324 1
-14 -1 -13 7739 324 1
-1 14 13 7841 359 1
1 -14 13 8176 327 1
-1 14 13 7805 324 1
-1 14 13 7802 367 1
14 1 13 7558 324 1
-1 -14 -13 78 7 1
-1 -14 -13 55 4 1
-14 1 -13 45 6 1
-14 1 -13 50 4 1
-1 -14 13 47 7 1
14 -1 13 55 4 1
1 14 13 58 4 1
-14 1 13 50 8 1
1 14 13 74 4 1
-14 1 13 48 7 1
-14 1 13 49 5 1
-3 -14 -13 2421 89 1
-3 -14 -13 2588 91 1
-3 -14 -13 2436 89 1
-14 3 -13 2473 99 1
-3 -14 13 2489 91 1
-14 3 13 2633 102 1
14 -3 13 2569 89 1
-14 3 13 2401 99 1
3 14 13 2405 89 1
-14 5 -13 82 2 1
-5 -14 -13 58 1 1
-5 -14 -13 91 2 1
-5 -14 -13 62 2 1
-14 5 -13 65 2 1
-14 5 13 48 2 1
14 -5 13 54 2 1
5 14 13 66 2 1
-14 5 13 48 2 1
-5 -14 13 45 3 1
-14 5 13 45 3 1
-7 -14 -13 707 27 1
-7 -14 -13 705 28 1
-14 7 -13 732 31 1
-14 7 -13 748 28 1
-7 -14 -13 744 29 1
-14 7 13 694 31 1
7 14 13 725 28 1
-14 7 13 673 31 1
-14 7 13 680 32 1
14 -9 -13 1988 90 1
-14 9 -13 1780 99 1
-9 -14 -13 1831 90 1
-9 -14 -13 1848 89 1
14 -9 13 1955 90 1
-14 9 13 1780 102 1
-14 9 13 1994 100 1
14 -11 -13 6 3 1
-14 11 -13 9 5 1
-14 11 -13 4 4 1
-14 11 13 6 4 1
11 14 13 5 3 1
-14 11 13 19 7 1
14 -11 13 5 4 1
-14 11 13 14 5 1
-13 -14 -13 71 7 1
14 -13 -13 65 8 1
-14 13 -13 70 8 1
-14 13 -13 81 10 1
14 -13 13 63 7 1
13 14 13 54 7 1
-14 13 13 77 8 1
-14 13 13 72 10 1
14 -13 13 71 6 1
-14 15 -13 149 8 1
14 -15 -13 145 9 1
-15 -14 -13 163 9 1
15 14 13 136 9 1
14 -15 13 160 8 1
-14 15 13 146 10 1
-14 15 13 173 14 1
14 -15 13 147 7 1
-15 -12 -13 106 7 1
-12 15 -13 103 7 1
12 -15 -13 120 7 1
12 -15 13 112 5 1
-12 15 13 99 8 1
-12 15 13 90 11 1
15 12 13 101 8 1
12 -15 13 113 7 1
-15 -10 -13 2687 100 1
10 -15 -13 2785 100 1
-10 15 -13 2607 101 1
10 -15 13 2701 99 1
-10 15 13 2667 114 1
-10 15 13 2703 99 1
15 10 13 2890 100 1
-10 15 13 2688 111 1
10 -15 13 2880 101 1
8 -15 -13 235 15 1
8 -15 -13 241 11 1
-8 15 -13 240 12 1
-15 -8 -13 242 11 1
-15 -8 -13 235 9 1
15 8 13 237 11 1
8 -15 13 257 12 1
-8 15 13 254 14 1
-15 -6 -13 1147 55 1
-6 15 -13 1127 57 1
6 -15 -13 1145 58 1
-15 -6 -13 1145 56 1
-6 15 13 1064 56 1
15 6 13 1186 56 1
6 -15 13 1173 57 1
-15 -4 -13 28 3 1
4 -15 -13 51 4 1
4 -15 -13 42 4 1
-4 15 -13 60 8 1
4 -15 -13 38 3 1
-15 -4 -13 35 3 1
-15 -4 13 30 3 1
-4 15 13 37 4 1
4 -15 13 48 5 1
-15 -4 13 34 4 1
-4 15 13 35 4 1
2 -15 -13 197 16 1
2 -15 -13 181 18 1
-15 -2 -13 156 19 1
-2 15 -13 192 18 1
-15 -2 -13 160 16 1
2 -15 -13 192 16 1
-15 -2 -13 182 16 1
-2 15 13 186 16 1
15 2 13 170 16 1
-2 15 13 192 18 1
-2 15 13 182 20 1
2 -15 13 176 17 1
-15 -2 13 167 21 1
-15 -2 13 169 19 1
-15 -2 13 191 19 1
0 -15 -13 109 7 1
0 -15 -13 105 8 1
-15 0 -13 112 7 1
-15 0 -13 111 7 1
0 -15 -13 119 10 1
-15 0 -13 115 10 1
0 -15 13 93 9 1
0 15 13 116 9 1
-15 0 13 100 11 1
-15 0 13 125 10 1
0 15 13 100 7 1
-15 0 13 112 9 1
15 0 13 110 8 1
-15 2 -13 264 7 1
-2 -15 -13 286 8 1
-2 -15 -13 292 10 1
-2 -15 -13 265 7 1
-15 2 13 293 11 1
-2 -15 13 275 10 1
-15 2 13 279 10 1
15 -2 13 242 8 1
-4 -15 -13 109 5 1
-15 4 -13 114 5 1
-4 -15 -13 121 6 1
-4 -15 -13 110 8 1
-15 4 -13 127 8 1
-4 -15 13 103 8 1
-15 4 13 112 8 1
15 -4 13 112 6 1
4 15 13 130 6 1
-15 4 13 117 7 1
-15 6 -13 384 20 1
-15 6 -13 368 18 1
-6 -15 -13 353 18 1
-6 -15 -13 387 19 1
-6 -15 -13 380 17 1
-6 -15 13 356 20 1
6 15 13 404 18 1
-15 6 13 383 20 1
-15 8 -13 135 8 1
-15 8 -13 140 10 1
-8 -15 -13 137 6 1
8 15 13 143 8 1
-15 8 13 148 10 1
-15 8 13 132 9 1
-15 8 13 160 10 1
15 -8 13 127 7 1
-15 10 -13 4 3 1
-15 10 -13 7 3 1
15 -10 -13 6 4 1
15 -10 13 9 4 1
-15 10 13 15 5 1
10 15 13 4 3 1
-15 12 -13 86 6 1
15 -12 -13 87 8 1
-15 12 -13 99 9 1
-15 12 13 67 8 1
15 -12 13 96 7 1
-15 12 13 81 6 1
15 -12 13 76 5 1
-14 -15 -13 656 28 1
-15 14 -13 643 28 1
15 -14 -13 705 29 1
-15 14 -13 696 31 1
15 -14 13 636 27 1
14 15 13 672 28 1
-15 14 13 654 33 1
-15 14 13 661 32 1
15 -14 13 674 28 1
-15 16 -13 112 10 1
15 -16 -13 86 10 1
15 -16 13 93 8 1
16 15 13 99 12 1
15 -16 13 108 9 1
-15 16 13 96 11 1
-13 16 -13 2403 94 1
13 -16 -13 2416 93 1
-16 -13 -13 2321 93 1
16 13 13 2468 94 1
13 -16 13 2471 92 1
-13 16 13 2352 106 1
13 -16 13 2428 94 1
-16 -11 -13 833 37 1
11 -16 -13 871 38 1
-11 16 -13 807 39 1
-11 16 13 816 43 1
11 -16 13 860 38 1
11 -16 13 785 36 1
16 11 13 883 38 1
-11 16 13 817 37 1
-11 16 13 802 43 1
9 -16 -13 81 6 1
-16 -9 -13 71 7 1
-9 16 -13 84 8 1
-9 16 13 77 9 1
-9 16 13 74 6 1
-9 16 13 88 10 1
16 9 13 89 7 1
9 -16 13 83 7 1
7 -16 -13 1 2 1
-7 16 -13 2 3 1
7 -16 -13 2 9 1
16 7 13 1 3 1
7 -16 13 2 2 1
-7 16 13 2 3 1
-7 16 13 0 4 1
-7 16 13 1 8 1
-16 -5 -13 119 7 1
5 -16 -13 107 10 1
-5 16 -13 116 10 1
5 -16 -13 104 7 1
-16 -5 -13 99 9 1
-5 16 13 109 7 1
-5 16 13 107 9 1
-5 16 13 102 11 1
3 -16 -13 574 27 1
3 -16 -13 596 29 1
-16 -3 -13 577 26 1
3 -16 -13 548 27 1
-3 16 -13 583 29 1
3 -16 13 555 28 1
-3 16 13 602 32 1
16 3 13 547 27 1
-3 16 13 570 31 1
1 -16 -13 1 4 1
-16 -1 -13 2 6 1
1 -16 -13 4 7 1
-16 -1 -13 5 5 1
1 -16 -13 3 4 1
-16 -1 13 1 4 1
-16 -1 13 1 4 1
16 1 13 1 5 1
-1 16 13 3 4 1
-16 -1 13 1 6 1
-16 1 -13 178 7 1
-16 1 -13 192 6 1
-1 -16 -13 157 6 1
-1 -16 -13 169 8 1
-16 1 -13 179 8 1
-1 -16 -13 166 6 1
-16 1 13 170 8 1
1 16 13 152 6 1
16 -1 13 160 6 1
-16 1 13 188 8 1
-1 -16 13 194 8 1
1 16 13 153 7 1
-16 3 -13 292 19 1
-16 3 -13 302 16 1
-3 -16 -13 312 18 1
-3 -16 -13 310 16 1
-3 -16 -13 321 16 1
-16 3 -13 330 17 1
-3 -16 13 325 17 1
-16 3 13 323 19 1
3 16 13 322 18 1
-16 3 13 308 19 1
-16 3 13 339 19 1
-5 -16 -13 2245 92 1
-16 5 -13 2174 102 1
-5 -16 -13 2336 92 1
-16 5 -13 2193 92 1
-5 -16 13 2083 94 1
-16 5 13 2187 102 1
-16 5 13 2114 105 1
-16 5 13 2129 103 1
16 -5 13 2139 92 1
5 16 13 2210 92 1
-7 -16 -13 1193 39 1
-16 7 -13 1182 40 1
-16 7 -13 1172 45 1
-7 -16 -13 1269 42 1
-7 -16 -13 1221 40 1
16 -7 13 1235 40 1
-7 -16 13 1166 42 1
7 16 13 1186 40 1
-16 7 13 1179 46 1
-16 7 13 1241 46 1
-16 9 -13 292 14 1
-9 -16 -13 286 13 1
-16 9 -13 276 15 1
-16 9 13 275 15 1
-16 9 13 282 16 1
9 16 13 253 14 1
16 -9 13 273 13 1
-16 11 -13 327 18 1
-11 -16 -13 346 18 1
-16 11 -13 351 20 1
11 16 13 317 18 1
-16 11 13 323 21 1
16 -11 13 312 18 1
-16 11 13 359 20 1
16 -11 13 314 18 1
-16 11 13 338 21 1
-16 13 -13 1018 46 1
16 -13 -13 1018 42 1
-13 -16 -13 992 41 1
-16 13 -13 1042 42 1
16 -13 13 1030 42 1
16 -13 13 1081 41 1
-16 13 13 982 47 1
13 16 13 1013 42 1
-16 15 -13 593 23 1
16 -15 -13 621 24 1
-15 -16 -13 574 22 1
-16 15 -13 602 25 1
16 -15 13 608 21 1
16 -15 13 594 22 1
15 16 13 594 23 1
16 -17 -13 0 4 1
-16 17 -13 0 3 1
16 -17 13 5 3 1
16 -17 13 0 2 1
17 16 13 0 5 1
-14 17 -13 962 37 1
14 -17 -13 913 36 1
17 14 13 906 37 1
14 -17 13 929 36 1
-12 17 13 1716 71 1
12 -17 13 1642 63 1
10 -17 -13 2 5 1
-10 17 -13 0 3 1
10 -17 -13 3 4 1
-17 -10 -13 1 4 1
-10 17 13 4 5 1
17 10 13 0 3 1
-8 17 -13 48 3 1
-17 -8 -13 40 3 1
8 -17 -13 51 3 1
8 -17 -13 37 5 1
-8 17 13 65 3 1
-8 17 13 47 5 1
8 -17 13 37 6 1
-8 17 13 39 4 1
17 8 13 42 3 1
6 -17 -13 2667 105 1
-6 17 -13 2701 106 1
-17 -6 -13 2866 104 1
6 -17 -13 2911 107 1
-17 -6 -13 2731 117 1
-6 17 13 2680 105 1
6 -17 13 2818 106 1
-6 17 13 2983 119 1
17 6 13 2942 105 1
-6 17 13 2790 116 1
4 -17 -13 1370 46 1
4 -17 -13 1332 46 1
-17 -4 -13 1355 45 1
-17 -4 -13 1234 52 1
-17 -4 -13 1329 46 1
-4 17 -13 1225 47 1
4 -17 13 1308 47 1
-4 17 13 1377 51 1
-4 17 13 1342 46 1
-17 -4 13 1230 52 1
-17 -4 13 1303 52 1
-4 17 13 1306 53 1
-17 -2 -13 17 2 1
-17 -2 -13 3 3 1
2 -17 -13 6 2 1
-17 -2 -13 4 1 1
2 -17 -13 9 2 1
17 2 13 17 2 1
-17 -2 13 15 3 1
-17 -2 13 3 3 1
-2 17 13 4 3 1
-2 17 13 20 2 1
2 -17 13 19 2 1
-17 -2 13 15 4 1
-17 0 -13 269 14 1
0 -17 -13 270 14 1
-17 0 -13 263 13 1
0 -17 -13 296 13 1
0 -17 -13 282 16 1
0 17 13 292 14 1
-17 0 13 295 16 1
-17 0 13 284 16 1
-17 0 13 263 17 1
17 0 13 279 14 1
0 17 13 267 16 1
-17 2 -13 42 5 1
-17 2 -13 35 8 1
-2 -17 -13 39 6 1
-17 2 -13 41 7 1
-2 -17 -13 34 8 1
-2 -17 -13 34 5 1
-17 2 13 48 8 1
2 17 13 41 6 1
-17 2 13 36 7 1
17 -2 13 31 6 1
2 17 13 25 7 1
-17 2 13 41 8 1
-4 -17 -13 665 34 1
-17 4 -13 592 32 1
-4 -17 -13 618 32 1
-17 4 -13 629 33 1
-4 -17 -13 607 32 1
-17 4 13 657 36 1
4 17 13 615 32 1
17 -4 13 626 33 1
4 17 13 642 36 1
-17 4 13 612 37 1
-6 -17 -13 354 17 1
-17 6 -13 409 15 1
-17 6 -13 361 17 1
-6 -17 -13 359 14 1
-17 6 13 381 18 1
17 -6 13 380 16 1
6 17 13 379 16 1
-17 6 13 353 18 1
-8 -17 -13 1136 43 1
-17 8 -13 1088 45 1
-8 -17 -13 1122 45 1
-17 8 -13 1091 50 1
-17 8 13 1173 51 1
17 -8 13 1133 45 1
-17 8 13 1067 50 1
-8 -17 13 1126 46 1
-17 10 -13 181 11 1
-10 -17 -13 188 10 1
-17 10 -13 184 9 1
-17 10 13 213 11 1
10 17 13 173 10 1
-17 10 13 200 12 1
17 -10 13 191 9 1
-17 10 13 216 13 1
-17 12 -13 366 20 1
-12 -17 -13 386 19 1
17 -12 -13 384 21 1
-17 12 -13 386 21 1
17 -12 13 375 19 1
17 -12 13 353 19 1
-17 12 13 393 24 1
-17 12 13 357 22 1
12 17 13 353 20 1
17 -14 -13 229 14 1
-14 -17 -13 223 11 1
-17 14 -13 235 11 1
-17 14 -13 221 12 1
14 17 13 220 13 1
17 -14 13 222 10 1
17 -16 -13 33 4 1
17 -16 13 20 2 1
16 17 13 13 5 1
17 -16 13 27 3 1
-17 18 -13 209 12 1
-17 18 13 214 11 1
-15 18 -13 163 11 1
15 -18 13 142 9 1
18 15 13 186 15 1
13 -18 -13 35 7 1
-18 -13 -13 34 8 1
-13 18 -13 71 8 1
-13 18 13 28 8 1
18 13 13 40 10 1
13 -18 13 69 6 1
-18 -11 -13 84 8 1
-11 18 13 60 7 1
11 -18 13 82 6 1
-18 -9 -13 33 3 1
9 -18 -13 24 4 1
-9 18 -13 24 4 1
9 -18 13 16 5 1
-9 18 13 24 4 1
18 9 13 27 3 1
-18 -7 -13 188 11 1
7 -18 -13 195 10 1
-7 18 -13 194 13 1
7 -18 -13 195 12 1
-18 -7 -13 216 13 1
-7 18 13 176 13 1
7 -18 13 203 11 1
-7 18 13 201 10 1
-7 18 13 209 15 1
18 7 13 188 11 1
-5 18 -13 151 11 1
5 -18 -13 147 9 1
-18 -5 -13 137 9 1
5 -18 -13 151 7 1
-18 -5 -13 137 8 1
-5 18 13 129 10 1
-5 18 13 112 11 1
18 5 13 130 8 1
-5 18 13 138 7 1
5 -18 13 149 8 1
-18 -3 -13 2701 97 1
-18 -3 -13 2673 98 1
3 -18 -13 2535 98 1
3 -18 -13 2611 100 1
-18 -3 -13 2686 109 1
-3 18 13 2756 109 1
3 -18 13 2573 99 1
-3 18 13 2712 98 1
18 3 13 2711 98 1
1 -18 -13 417 16 1
1 -18 -13 445 18 1
-18 -1 -13 442 15 1
-18 -1 -13 415 17 1
1 -18 -13 387 16 1
-18 -1 -13 383 19 1
-1 18 13 425 16 1
1 -18 13 409 17 1
18 1 13 432 17 1
-18 -1 13 422 19 1
-1 18 13 402 19 1
-1 -18 -13 40 5 1
-1 -18 -13 52 4 1
-18 1 -13 33 6 1
-18 1 -13 51 4 1
-1 -18 -13 36 7 1
-18 1 13 37 7 1
-18 1 13 59 7 1
1 18 13 59 5 1
18 -1 13 50 5 1
1 18 13 35 7 1
-18 1 13 40 8 1
-3 -18 -13 760 37 1
-18 3 -13 739 40 1
-18 3 -13 808 36 1
-3 -18 -13 743 36 1
-18 3 -13 751 35 1
-3 -18 -13 748 35 1
3 18 13 789 36 1
18 -3 13 794 36 1
-3 -18 13 764 36 1
-18 5 -13 75 9 1
-5 -18 -13 75 9 1
-5 -18 -13 72 7 1
-5 -18 -13 87 6 1
-18 5 -13 90 7 1
-18 5 -13 82 9 1
-18 5 13 78 9 1
-5 -18 13 98 10 1
18 -5 13 89 8 1
5 18 13 81 9 1
-18 5 13 63 9 1
5 18 13 85 8 1
-7 -18 -13 347 15 1
-18 7 -13 353 17 1
-18 7 -13 357 15 1
-7 -18 -13 335 16 1
-18 7 13 335 17 1
7 18 13 340 15 1
-7 -18 13 363 17 1
-18 7 13 398 17 1
-18 9 -13 718 34 1
-18 9 -13 691 31 1
-9 -18 -13 698 31 1
-18 9 13 679 36 1
-18 9 13 635 34 1
9 18 13 707 31 1
-11 -18 -13 2 3 1
-18 11 -13 3 3 1
-18 11 13 7 2 1
-18 11 13 7 2 1
-18 11 13 7 6 1
18 -11 13 11 2 1
-13 -18 -13 8 4 1
-18 13 -13 7 3 1
18 -13 -13 9 5 1
-18 13 -13 3 3 1
-18 13 13 6 3 1
18 -13 13 4 2 1
13 18 13 7 4 1
18 -13 13 1 2 1
-18 15 -13 44 7 1
-18 15 -13 39 7 1
15 18 13 38 6 1
18 -15 13 51 6 1
18 -15 13 34 6 1
-18 17 13 13 2 1
18 -17 13 14 2 1
-19 -18 -13 40 5 1
18 -19 13 50 4 1
-18 19 13 46 5 1
-16 19 -13 46 9 1
-19 -16 -13 65 6 1
-16 19 13 68 5 1
14 -19 -13 290 16 1
-14 19 -13 266 17 1
19 14 13 265 19 1
-14 19 13 274 17 1
12 -19 -13 89 7 1
-19 -12 -13 81 8 1
12 -19 13 101 6 1
-12 19 13 80 8 1
19 12 13 72 11 1
10 -19 -13 338 14 1
-19 -10 -13 324 13 1
-10 19 -13 309 13 1
10 -19 -13 339 10 1
10 -19 13 316 10 1
-10 19 13 337 13 1
-10 19 13 335 10 1
19 10 13 291 12 1
-8 19 -13 25 5 1
8 -19 -13 26 4 1
-8 19 13 32 9 1
19 8 13 28 8 1
-6 19 -13 9 4 1
6 -19 -13 6 3 1
-19 -6 -13 23 3 1
6 -19 -13 7 2 1
19 6 13 23 3 1
-6 19 13 6 4 1
4 -19 -13 613 19 1
-19 -4 -13 651 23 1
-4 19 -13 572 23 1
-4 19 13 642 24 1
19 4 13 574 21 1
-4 19 13 627 20 1
4 -19 13 545 20 1
-19 -2 -13 1796 66 1
2 -19 -13 1751 66 1
-19 -2 -13 1800 74 1
2 -19 -13 1843 68 1
19 2 13 1853 66 1
-19 -2 13 1734 74 1
2 -19 13 1764 67 1
-19 -2 13 1790 75 1
-2 19 13 1702 66 1
-2 19 13 1748 74 1
0 -19 -13 65 3 1
-19 0 -13 97 2 1
0 -19 -13 71 2 1
0 -19 -13 62 3 1
-19 0 -13 93 2 1
-19 0 -13 102 3 1
0 19 13 74 2 1
19 0 13 85 3 1
-19 0 13 71 3 1
-19 0 13 69 4 1
-19 0 13 71 4 1
0 19 13 74 4 1
-2 -19 -13 96 10 1
-2 -19 -13 130 7 1
-19 2 -13 109 7 1
-2 -19 -13 107 8 1
-19 2 -13 113 10 1
-19 2 -13 92 10 1
2 19 13 117 11 1
-2 -19 13 118 9 1
-19 2 13 118 10 1
-19 2 13 128 11 1
19 -2 13 89 8 1
-19 2 13 114 10 1
-19 4 -13 57 8 1
-4 -19 -13 58 5 1
-19 4 -13 61 8 1
-4 -19 -13 58 6 1
-19 4 -13 72 6 1
-4 -19 -13 44 8 1
-19 4 13 44 8 1
-19 4 13 48 8 1
-4 -19 13 55 8 1
4 19 13 59 7 1
19 -4 13 63 7 1
-19 4 13 58 9 1
-19 6 -13 778 35 1
-19 6 -13 763 34 1
-6 -19 -13 756 35 1
-6 -19 -13 746 36 1
-19 6 -13 747 38 1
6 19 13 765 39 1
-19 6 13 809 40 1
-19 6 13 725 38 1
6 19 13 720 35 1
-6 -19 13 793 36 1
-19 8 -13 100 7 1
-19 8 -13 79 9 1
-8 -19 -13 83 8 1
-19 8 13 99 11 1
-19 8 13 86 9 1
8 19 13 101 9 1
-19 8 13 87 9 1
19 -8 13 85 8 1
-8 -19 13 96 12 1
-10 -19 -13 89 7 1
-19 10 -13 105 9 1
-19 10 -13 110 7 1
-19 10 13 104 8 1
19 -10 13 96 8 1
19 -10 13 87 7 1
10 19 13 97 9 1
-19 10 13 114 9 1
-19 10 13 92 13 1
-19 12 -13 1090 45 1
-19 12 -13 1070 41 1
-12 -19 -13 1084 41 1
-19 12 13 1078 45 1
12 19 13 1044 41 1
19 -12 13 991 40 1
19 -12 13 1031 41 1
-19 12 13 1076 47 1
19 -14 -13 16 7 1
-19 14 -13 27 7 1
14 19 13 14 5 1
-19 14 13 23 5 1
-19 16 -13 78 8 1
-19 16 13 51 5 1
19 -16 13 59 5 1
-18 -19 -13 182 11 1
-19 18 13 170 10 1
19 -18 13 174 9 1
-20 -17 -13 188 11 1
-17 20 13 168 10 1
17 -20 13 167 9 1
-20 -15 -13 24 5 1
-15 20 13 22 5 1
15 -20 13 23 4 1
-20 -13 -13 143 9 1
-13 20 -13 126 11 1
13 -20 -13 136 9 1
13 -20 13 154 9 1
20 13 13 142 16 1
-11 20 -13 12 9 1
11 -20 -13 19 6 1
11 -20 -13 20 4 1
-20 -11 -13 4 3 1
11 -20 13 13 5 1
20 11 13 10 6 1
-11 20 13 14 8 1
9 -20 -13 75 5 1
-20 -9 -13 66 7 1
-9 20 -13 55 5 1
9 -20 -13 80 9 1
20 9 13 55 5 1
9 -20 13 73 6 1
-9 20 13 89 9 1
7 -20 -13 107 10 1
7 -20 -13 110 8 1
-7 20 13 99 8 1
-7 20 13 94 12 1
7 -20 13 123 9 1
5 -20 -13 46 6 1
5 -20 -13 44 9 1
-20 -5 -13 56 9 1
-5 20 -13 46 13 1
-5 20 13 52 7 1
20 5 13 60 9 1
5 -20 13 51 7 1
3 -20 -13 405 13 1
3 -20 -13 393 15 1
-20 -3 13 381 18 1
3 -20 13 380 14 1
20 3 13 382 14 1
-3 20 13 391 14 1
-20 -3 13 372 18 1
1 -20 -13 954 27 1
1 -20 -13 943 29 1
-20 -1 13 835 32 1
-1 20 13 906 28 1
-1 20 13 946 33 1
20 1 13 899 29 1
-20 -1 13 808 32 1
1 -20 13 935 29 1
-1 -20 -13 195 12 1
-20 1 -13 209 13 1
-1 -20 -13 208 10 1
1 20 13 196 14 1
-20 1 13 201 13 1
-20 1 13 223 14 1
-20 1 13 190 13 1
1 20 13 192 11 1
-1 -20 13 197 12 1
20 -1 13 203 11 1
-20 3 -13 1824 84 1
-3 -20 -13 1753 75 1
-20 3 -13 1816 76 1
-3 -20 -13 1724 76 1
-3 -20 -13 1829 78 1
-20 3 -13 1900 75 1
3 20 13 1834 85 1
-3 -20 13 1822 77 1
20 -3 13 1728 76 1
3 20 13 1756 76 1
-20 3 13 1875 86 1
-20 5 -13 194 9 1
-5 -20 -13 164 11 1
-20 5 -13 185 12 1
-5 -20 -13 152 9 1
5 20 13 174 10 1
-20 5 13 184 11 1
20 -5 13 178 10 1
5 20 13 148 13 1
-5 -20 13 180 11 1
-20 5 13 181 11 1
-20 7 -13 12 7 1
-7 -20 -13 9 6 1
7 20 13 5 7 1
-7 -20 13 10 9 1
-20 7 13 19 11 1
-20 7 13 17 7 1
20 -7 13 17 6 1
-20 7 13 16 7 1
7 20 13 11 10 1
-9 -20 -13 161 10 1
-20 9 -13 167 13 1
-20 9 -13 173 9 1
-20 9 -13 171 11 1
-20 9 13 175 12 1
9 20 13 167 10 1
20 -9 13 173 10 1
9 20 13 171 14 1
-20 9 13 204 16 1
20 -9 13 177 11 1
-20 11 -13 2 3 1
-20 11 -13 11 3 1
-20 11 13 6 2 1
-20 11 13 0 3 1
11 20 13 4 4 1
20 -11 13 6 3 1
20 -11 13 2 3 1
-20 13 -13 69 8 1
-20 13 -13 77 7 1
20 -13 13 81 7 1
20 -13 13 61 8 1
13 20 13 99 13 1
-20 13 13 83 7 1
-20 15 -13 226 12 1
20 -15 13 220 10 1
-20 15 13 197 12 1
-17 -20 -13 62 6 1
20 -17 13 48 5 1
-20 17 13 58 6 1
-21 -16 -13 22 4 1
-16 21 13 23 5 1
16 -21 13 14 3 1
-21 -14 -13 154 9 1
-14 21 13 153 8 1
14 -21 13 146 7 1
-12 21 -13 628 25 1
-21 -12 -13 683 26 1
12 -21 -13 660 23 1
-12 21 13 699 26 1
12 -21 13 656 23 1
10 -21 -13 46 10 1
-21 -10 -13 48 8 1
10 -21 -13 47 6 1
10 -21 13 44 5 1
-10 21 13 28 7 1
21 10 13 43 12 1
-10 21 13 40 7 1
-21 -8 -13 36 2 1
-8 21 -13 40 5 1
8 -21 -13 34 3 1
21 8 13 22 4 1
8 -21 13 54 2 1
-8 21 13 26 4 1
-21 -6 -13 6 3 1
6 -21 -13 3 2 1
6 -21 -13 3 2 1
-6 21 -13 11 6 1
-6 21 13 13 2 1
6 -21 13 11 2 1
21 6 13 3 4 1
4 -21 -13 7 2 1
4 -21 -13 7 2 1
4 -21 13 19 2 1
-4 21 13 7 2 1
2 -21 -13 1202 53 1
-21 -2 13 1222 57 1
2 -21 13 1227 52 1
-21 -2 13 1199 58 1
-21 0 -13 127 12 1
0 -21 -13 110 12 1
-21 0 13 99 12 1
-21 0 13 104 13 1
0 -21 13 114 10 1
-21 2 -13 315 14 1
-2 -21 -13 313 14 1
-2 -21 13 340 13 1
-21 2 13 280 15 1
-21 2 13 321 15 1
2 21 13 278 17 1
-4 -21 -13 6 3 1
-21 4 -13 11 6 1
-21 4 13 7 3 1
21 -4 13 12 6 1
-21 4 13 7 3 1
4 21 13 4 6 1
-4 -21 13 18 7 1
4 21 13 13 6 1
-21 6 -13 55 7 1
-21 6 -13 45 7 1
-6 -21 -13 46 8 1
6 21 13 57 14 1
6 21 13 67 8 1
-21 6 13 44 8 1
-21 6 13 69 12 1
-6 -21 13 65 9 1
21 -6 13 50 7 1
-21 6 13 42 7 1
-21 8 -13 21 3 1
-21 8 -13 12 3 1
-21 8 13 17 3 1
-8 -21 13 13 3 1
21 -8 13 14 3 1
8 21 13 17 7 1
8 21 13 21 3 1
21 -8 13 2 3 1
-21 8 13 9 2 1
-21 8 13 2 7 1
-21 10 -13 146 10 1
21 -10 13 126 10 1
10 21 13 137 12 1
-21 10 13 153 11 1
21 -10 13 131 9 1
-21 12 13 6 4 1
12 21 13 3 6 1
21 -12 13 12 6 1
-21 12 13 3 4 1
-21 14 -13 106 8 1
21 -14 13 107 7 1
21 -16 13 82 7 1
-21 16 13 80 7 1
-22 -15 -13 28 4 1
15 -22 13 35 4 1
-15 22 13 43 5 1
13 -22 13 35 4 1
-13 22 13 39 6 1
11 -22 -13 88 6 1
-11 22 -13 51 6 1
11 -22 -13 80 8 1
-11 22 13 80 7 1
11 -22 13 65 5 1
9 -22 -13 555 22 1
9 -22 -13 600 24 1
-9 22 -13 541 26 1
-22 -9 -13 594 26 1
22 9 13 575 27 1
-9 22 13 576 23 1
9 -22 13 615 23 1
-22 -7 -13 8 3 1
7 -22 -13 11 2 1
-7 22 -13 2 6 1
7 -22 -13 7 3 1
7 -22 13 6 2 1
22 7 13 4 5 1
5 -22 -13 79 7 1
-22 -5 -13 81 9 1
5 -22 -13 96 9 1
5 -22 13 77 8 1
22 5 13 79 11 1
-5 22 13 83 7 1
-22 -3 -13 233 13 1
3 -22 -13 237 13 1
3 -22 -13 199 10 1
3 -22 13 207 11 1
22 3 13 192 13 1
-3 22 13 218 11 1
-22 -1 -13 584 28 1
1 -22 -13 614 24 1
-22 -1 13 539 29 1
22 1 13 556 26 1
1 -22 13 617 26 1
-1 22 13 627 25 1
-1 -22 -13 554 24 1
-22 1 -13 578 29 1
-1 -22 -13 583 27 1
22 -1 13 573 27 1
1 22 13 574 26 1
-22 1 13 614 30 1
-22 1 13 577 29 1
-1 -22 13 607 26 1
-22 3 -13 432 21 1
-3 -22 -13 493 20 1
-22 3 13 442 21 1
22 -3 13 469 19 1
3 22 13 480 19 1
-22 3 13 435 21 1
-5 -22 -13 13 6 1
-22 5 -13 12 6 1
-22 5 13 9 6 1
22 -5 13 16 7 1
-5 -22 13 13 7 1
5 22 13 11 6 1
-22 5 13 10 7 1
-22 7 -13 379 19 1
22 -7 13 389 18 1
-7 -22 13 397 18 1
-22 7 13 404 19 1
7 22 13 376 18 1
-22 7 13 373 20 1
22 -7 13 358 18 1
-22 9 -13 4 2 1
-22 9 13 4 2 1
9 22 13 6 4 1
-22 11 -13 15 2 1
22 -11 13 13 2 1
22 -11 13 18 3 1
-22 11 13 11 2 1
-22 13 -13 352 17 1
-22 13 13 376 18 1
22 -13 13 372 16 1
-22 15 -13 63 7 1
-22 15 13 61 6 1
-23 -14 -13 1 2 1
-14 23 13 7 3 1
14 -23 13 2 1 1
-23 -12 -13 56 5 1
12 -23 13 70 5 1
-23 -10 -13 70 6 1
10 -23 -13 63 7 1
-8 23 -13 414 22 1
8 -23 -13 459 16 1
-23 -8 -13 477 19 1
-8 23 13 498 17 1
8 -23 13 457 17 1
6 -23 -13 96 9 1
-23 -6 -13 84 7 1
6 -23 -13 83 7 1
6 -23 13 95 7 1
23 6 13 83 13 1
-6 23 13 95 8 1
-23 -4 -13 119 9 1
4 -23 -13 151 7 1
4 -23 -13 131 8 1
23 4 13 149 11 1
4 -23 13 132 7 1
-4 23 13 139 8 1
2 -23 -13 46 7 1
-23 -2 -13 56 7 1
-23 -2 13 59 7 1
2 -23 13 58 6 1
-2 23 13 41 6 1
0 -23 -13 166 10 1
-23 0 -13 186 11 1
0 23 13 147 9 1
0 -23 13 173 10 1
-23 2 -13 0 3 1
-2 -23 -13 1 3 1
2 23 13 4 3 1
23 -2 13 0 4 1
-2 -23 13 1 2 1
-4 -23 -13 77 9 1
-23 4 13 65 8 1
23 -4 13 79 10 1
4 23 13 71 9 1
-4 -23 13 84 9 1
-23 6 -13 100 6 1
6 23 13 107 9 1
23 -6 13 104 8 1
-23 6 13 96 6 1
-23 6 13 113 6 1
-6 -23 13 99 8 1
-23 8 -13 99 7 1
8 23 13 101 10 1
-23 8 13 118 7 1
-8 -23 13 97 7 1
23 -8 13 103 8 1
-23 8 13 106 7 1
-23 10 -13 135 9 1
-23 10 13 122 10 1
-23 12 -13 21 5 1
-23 14 -13 34 6 1
-23 14 13 36 5 1
11 -24 13 64 4 1
-24 -9 -13 177 14 1
9 -24 -13 171 13 1
9 -24 13 160 12 1
7 -24 -13 143 8 1
-24 -7 -13 120 8 1
-24 -5 -13 405 19 1
5 -24 -13 398 17 1
5 -24 -13 440 18 1
-5 24 13 401 17 1
5 -24 13 437 17 1
-24 -3 -13 221 12 1
3 -24 -13 226 12 1
-3 24 13 228 11 1
3 -24 13 229 11 1
24 3 13 230 15 1
1 -24 -13 307 14 1
-24 -1 -13 322 14 1
-24 -1 13 289 14 1
1 -24 13 302 13 1
-1 24 13 294 14 1
24 1 13 280 16 1
-24 1 -13 739 32 1
-1 -24 -13 712 30 1
-1 -24 13 708 30 1
24 -1 13 665 30 1
-24 1 13 717 33 1
-24 1 13 770 32 1
-24 3 13 30 5 1
-3 -24 13 41 6 1
24 -5 13 16 4 1
5 24 13 12 4 1
-24 5 13 15 2 1
-24 5 13 15 2 1
-24 7 -13 1 2 1
-7 -24 13 22 2 1
-24 7 13 2 2 1
-24 7 13 2 2 1
-24 9 -13 359 15 1
-24 9 13 356 15 1
-24 11 -13 691 27 1
-24 11 13 635 28 1
-25 -10 -13 19 4 1
10 -25 13 18 3 1
8 -25 -13 10 2 1
8 -25 13 5 1 1
6 -25 -13 90 6 1
-25 -6 -13 97 7 1
-25 -4 -13 29 5 1
4 -25 13 23 4 1
-25 -2 -13 12 2 1
-25 0 -13 152 9 1
-25 0 13 139 10 1
-25 2 -13 251 11 1
-2 -25 13 243 10 1
-25 2 13 234 11 1
-25 2 13 233 12 1
-25 4 -13 23 4 1
-25 4 13 29 5 1
-25 4 13 22 5 1
-4 -25 13 15 4 1
-25 6 -13 13 2 1
-25 6 13 18 2 1
-25 6 13 18 2 1
-25 8 -13 185 9 1
-25 8 13 170 9 1
-8 -25 13 173 9 1
-25 8 13 159 9 1
-25 10 -13 63 5 1
-25 10 13 53 5 1
-26 -7 -13 44 5 1
7 -26 13 43 4 1
5 -26 -13 19 4 1
-26 -5 -13 22 4 1
5 -26 13 12 3 1
3 -26 -13 53 5 1
-26 -3 -13 63 5 1
3 -26 13 58 5 1
-26 -1 -13 97 7 1
1 -26 -13 116 7 1
-26 -1 13 87 9 1
1 -26 13 99 6 1
-26 1 -13 0 1 1
-26 1 13 31 2 1
-26 1 13 28 3 1
-1 -26 13 9 1 1
-26 3 -13 16 4 1
-26 3 13 8 6 1
-26 3 13 16 5 1
-3 -26 13 12 4 1
-26 5 -13 46 4 1
-5 -26 13 43 5 1
-26 5 13 41 5 1
-26 7 -13 4 2 1
-26 7 13 8 2 1
-7 -26 13 8 2 1
-26 7 13 15 4 1
-27 -2 -13 219 12 1
2 -27 13 199 10 1
-27 0 -13 11 1 1
0 -27 13 11 1 1
-27 0 13 12 3 1
-27 2 -13 0 1 1
-2 -27 13 0 1 1
-27 2 13 2 3 1
-27 2 13 2 2 1
0 0 -14 3387 205 1
0 0 -14 3475 205 1
0 0 14 3229 204 1
0 0 14 3176 227 1
1 1 -14 785 38 1
-1 1 -14 797 38 1
1 -1 -14 808 38 1
-1 -1 -14 780 38 1
1 -1 -14 854 38 1
-1 -1 -14 799 38 1
1 1 -14 769 38 1
1 -1 14 790 37 1
1 1 14 752 37 1
1 -1 14 838 37 1
-1 -1 14 812 42 1
-2 0 -14 738 16 1
0 -2 -14 788 16 1
2 0 -14 598 16 1
0 2 -14 793 16 1
2 0 -14 589 16 1
-2 0 -14 724 16 1
-2 0 14 633 18 1
2 0 14 671 16 1
-2 -2 -14 184 1 1
2 2 -14 207 1 1
-2 2 -14 214 1 1
-2 -2 -14 224 1 1
2 2 14 164 2 1
2 -2 14 194 1 1
2 2 14 196 1 1
-3 -1 -14 1865 64 1
-3 -1 -14 2054 64 1
3 1 -14 1856 64 1
1 -3 -14 2067 64 1
3 1 -14 1956 64 1
-1 3 14 1909 64 1
-1 3 14 1969 71 1
-1 3 14 1966 64 1
3 1 14 1879 64 1
-3 -1 14 1864 71 1
3 -1 -14 196 3 1
1 3 -14 206 4 1
1 3 14 198 3 1
3 -1 14 201 3 1
3 -1 14 215 4 1
-3 3 -14 414 4 1
-3 -3 -14 429 3 1
3 3 -14 372 5 1
3 -3 -14 405 3 1
3 -3 -14 376 3 1
-3 -3 14 400 3 1
3 -3 14 427 2 1
3 -3 14 406 3 1
4 2 -14 71 4 1
2 -4 -14 43 4 1
-4 -2 -14 50 4 1
-2 4 -14 61 5 1
-4 -2 -14 49 5 1
-2 4 14 56 5 1
2 -4 14 58 5 1
-4 -2 14 63 5 1
-2 4 14 51 4 1
-4 0 -14 17 4 1
4 0 -14 52 4 1
0 -4 -14 75 4 1
-4 0 -14 14 4 1
4 0 -14 57 4 1
0 4 -14 58 5 1
0 -4 -14 75 4 1
0 4 14 82 5 1
0 4 14 74 3 1
4 0 14 54 4 1
0 -4 14 65 4 1
-2 -4 -14 14408 561 1
2 4 -14 13582 559 1
-4 2 -14 14145 559 1
4 -2 -14 14696 559 1
4 -2 -14 14230 560 1
-2 -4 14 13219 618 1
-4 2 14 13867 620 1
4 -2 14 14155 560 1
2 4 14 14595 562 1
-4 4 -14 3728 151 1
4 -4 -14 3997 151 1
4 -4 -14 3864 151 1
-4 -4 -14 3786 151 1
-4 -4 -14 3849 151 1
4 -4 14 3916 151 1
-4 -4 14 3999 167 1
4 -4 14 3613 167 1
-3 5 -14 322 15 1
-5 -3 -14 290 14 1
3 -5 -14 330 14 1
5 3 -14 302 14 1
3 -5 -14 314 14 1
3 -5 14 314 15 1
5 3 14 312 14 1
-3 5 14 320 14 1
3 -5 14 306 14 1
-3 5 14 317 14 1
5 1 -14 1287 47 1
1 -5 -14 1268 47 1
-5 -1 -14 1195 47 1
1 -5 -14 1253 47 1
-5 -1 -14 1282 48 1
-5 -1 14 1215 52 1
1 -5 14 1283 52 1
-1 5 14 1188 47 1
-5 1 -14 1185 36 1
5 -1 -14 1154 35 1
-1 -5 -14 1233 36 1
-1 -5 -14 1181 36 1
1 5 -14 1262 36 1
-5 1 14 1191 40 1
-1 -5 14 1163 39 1
1 5 14 1216 35 1
5 -1 14 1211 36 1
-5 3 -14 143 9 1
5 -3 -14 145 9 1
5 -3 -14 141 9 1
-3 -5 -14 118 9 1
-3 -5 -14 118 9 1
5 -3 14 155 10 1
-5 3 14 164 11 1
5 -3 14 138 9 1
5 -5 -14 4210 148 1
-5 5 -14 4210 148 1
5 -5 -14 4090 147 1
-5 -5 -14 4346 148 1
-5 -5 -14 4236 148 1
5 -5 14 3980 163 1
5 5 14 4267 148 1
-5 5 14 4286 164 1
-5 -5 14 4216 163 1
6 4 -14 42 2 1
-6 -4 -14 52 2 1
4 -6 -14 41 2 1
4 -6 -14 34 2 1
-4 6 -14 48 2 1
-4 6 14 31 1 1
-4 6 14 34 2 1
6 4 14 45 2 1
4 -6 14 44 2 1
-6 -4 14 36 2 1
4 -6 14 42 1 1
4 -6 14 39 3 1
4 -6 14 36 2 1
-2 6 -14 772 28 1
-6 -2 -14 786 28 1
-2 6 14 763 27 1
2 -6 14 765 30 1
6 0 -14 1986 84 1
-6 0 -14 1904 85 1
0 6 -14 2151 85 1
-6 0 -14 2075 85 1
0 -6 14 2187 93 1
0 6 14 2026 84 1
0 6 14 2072 94 1
6 -2 -14 155 1 1
-2 -6 -14 184 2 1
-6 2 -14 166 1 1
-2 -6 -14 188 2 1
2 6 14 192 2 1
-6 2 14 148 3 1
6 -2 14 157 2 1
-4 -6 -14 8308 332 1
-6 4 -14 8079 333 1
6 -4 -14 8174 332 1
6 -4 14 8446 333 1
6 -4 14 7968 368 1
4 6 14 8382 333 1
-4 -6 14 8448 368 1
-6 6 -14 4554 161 1
-6 -6 -14 4289 161 1
-6 -6 -14 4459 161 1
6 -6 -14 4461 160 1
6 -6 14 4501 182 1
6 -6 14 4637 177 1
-6 6 14 4374 182 1
6 -6 14 4738 160 1
-6 -6 14 4490 178 1
-7 -5 -14 681 34 1
-7 -5 -14 735 34 1
5 -7 -14 689 34 1
-5 7 -14 734 34 1
5 -7 14 723 37 1
5 -7 14 768 39 1
-5 7 14 738 34 1
7 5 14 681 34 1
5 -7 14 743 34 1
-7 -3 -14 982 32 1
3 -7 -14 962 32 1
3 -7 -14 913 32 1
-7 -3 -14 938 32 1
7 3 -14 927 32 1
-3 7 -14 1009 33 1
-3 7 14 918 37 1
7 3 14 883 32 1
3 -7 14 999 35 1
-3 7 14 994 32 1
1 -7 -14 7 3 1
1 -7 -14 5 3 1
-1 7 -14 10 4 1
-7 -1 -14 9 3 1
-1 7 14 6 3 1
1 -7 14 6 3 1
-1 7 14 7 4 1
-7 -1 14 9 5 1
7 -1 -14 194 14 1
1 7 -14 214 15 1
-1 -7 14 217 16 1
1 7 14 209 14 1
7 -1 14 214 18 1
-7 1 14 187 17 1
-3 -7 -14 415 16 1
-3 -7 -14 401 15 1
7 -3 -14 375 15 1
-7 3 -14 400 16 1
7 -3 14 348 15 1
3 7 14 412 15 1
-3 -7 14 388 17 1
-7 5 -14 494 14 1
7 -5 -14 484 13 1
-5 -7 -14 473 14 1
-5 -7 -14 459 13 1
7 -5 14 485 14 1
-7 5 14 469 17 1
7 -5 14 466 13 1
-7 7 -14 1097 35 1
-7 -7 -14 1083 35 1
-7 -7 14 1066 38 1
7 -7 14 1101 34 1
7 7 14 1075 35 1
-7 7 14 1071 39 1
-6 8 -14 7 1 1
-8 -6 14 16 3 1
-6 8 14 4 2 1
-6 8 14 9 1 1
8 6 14 35 4 1
4 -8 -14 1806 77 1
-8 -4 -14 1806 77 1
8 4 14 1837 87 1
4 -8 14 1949 87 1
-4 8 14 1713 85 1
-4 8 14 1779 76 1
2 -8 -14 105 4 1
-8 -2 -14 102 4 1
-8 -2 -14 104 4 1
8 2 -14 62 4 1
8 2 14 89 4 1
-8 -2 14 69 8 1
8 2 14 87 8 1
-8 -2 14 68 6 1
0 -8 -14 6477 225 1
-8 0 -14 6282 225 1
8 0 -14 6254 224 1
0 8 -14 6358 225 1
-8 0 -14 6011 225 1
8 0 14 6019 255 1
0 8 14 5885 249 1
-8 0 14 5867 255 1
-2 -8 -14 443 14 1
8 -2 -14 499 14 1
-8 2 -14 499 15 1
8 -2 14 432 14 1
-8 2 14 423 16 1
-2 -8 14 608 15 1
8 -2 14 428 17 1
-8 4 -14 6161 203 1
8 -4 -14 5979 202 1
-4 -8 -14 6113 202 1
8 -4 14 5914 202 1
-8 4 14 5875 229 1
-4 -8 14 6012 224 1
-8 6 -14 1071 27 1
8 -6 -14 983 26 1
-6 -8 14 1026 29 1
8 -6 14 1038 28 1
-8 6 14 1050 31 1
-8 8 -14 997 38 1
8 -8 -14 972 37 1
8 -8 -14 912 37 1
-8 -8 -14 1040 37 1
-8 -8 -14 991 37 1
8 8 14 940 37 1
-8 8 14 957 43 1
8 -8 14 989 37 1
-8 -8 14 1013 41 1
7 -9 -14 9936 410 1
7 -9 -14 10357 410 1
-7 9 -14 10216 411 1
7 -9 14 10113 410 1
9 7 14 9569 410 1
-5 9 -14 766 48 1
5 -9 -14 790 47 1
-9 -5 -14 776 47 1
5 -9 -14 767 47 1
-5 9 14 774 54 1
5 -9 14 790 46 1
-5 9 14 767 53 1
3 -9 -14 344 17 1
-9 -3 -14 351 17 1
-3 9 -14 359 18 1
9 3 14 323 21 1
-3 9 14 379 20 1
9 3 14 356 17 1
-9 -1 -14 3296 160 1
1 -9 -14 3674 160 1
-9 -1 -14 3519 160 1
-1 9 -14 3650 161 1
-1 9 14 3255 160 1
-1 -9 -14 4 2 1
-1 -9 -14 8 2 1
-1 -9 14 10 2 1
-9 1 14 8 4 1
-9 3 -14 227 1 1
9 -3 -14 228 1 1
-3 -9 -14 208 1 1
9 -5 -14 236 9 1
-5 -9 -14 270 8 1
9 -5 -14 234 8 1
-5 -9 -14 292 8 1
-9 5 14 261 11 1
9 -5 14 225 8 1
-5 -9 14 311 9 1
-7 -9 -14 285 9 1
9 -7 -14 307 9 1
9 -7 -14 300 10 1
-7 -9 -14 261 9 1
-9 7 -14 276 10 1
9 -7 14 257 9 1
-9 7 14 284 11 1
-7 -9 14 274 10 1
-9 7 14 316 12 1
7 9 14 250 9 1
9 -9 -14 2701 100 1
-9 9 -14 2682 101 1
-9 -9 -14 2686 100 1
-9 -9 -14 2530 100 1
9 -9 -14 2587 100 1
9 9 14 2734 101 1
-9 -9 14 2767 111 1
-9 9 14 2597 112 1
-8 10 -14 1045 39 1
8 -10 -14 1113 38 1
-10 -8 -14 1012 38 1
-10 -8 -14 968 38 1
8 -10 -14 996 38 1
10 8 14 987 38 1
-10 -8 14 1038 42 1
-8 10 14 1023 37 1
-8 10 14 1103 44 1
8 -10 14 995 38 1
-8 10 14 1048 43 1
6 -10 -14 366 11 1
6 -10 -14 393 11 1
-10 -6 -14 368 11 1
-10 -6 14 377 12 1
-6 10 14 378 14 1
-10 -6 14 364 16 1
6 -10 14 385 10 1
-6 10 14 387 11 1
4 -10 -14 5422 226 1
-10 -4 -14 5240 226 1
-10 -4 -14 5191 226 1
4 -10 -14 5306 226 1
-10 -4 14 4766 251 1
-10 -4 14 4841 256 1
-4 10 14 5061 226 1
10 4 14 5259 256 1
-4 10 14 5245 257 1
-10 -2 -14 1796 64 1
-2 10 -14 1800 64 1
2 -10 -14 1791 64 1
2 -10 -14 1653 63 1
-10 -2 -14 1788 64 1
-10 -2 14 1733 73 1
-2 10 14 1705 73 1
-2 10 14 1668 63 1
-10 0 -14 56 9 1
0 -10 -14 76 8 1
0 -10 -14 69 8 1
0 10 14 63 8 1
0 10 14 59 12 1
-2 -10 -14 271 6 1
-10 2 -14 298 10 1
10 -2 14 251 6 1
-10 2 14 306 8 1
-10 2 14 301 7 1
2 10 14 296 6 1
-4 -10 -14 582 26 1
-4 -10 -14 580 26 1
10 -4 -14 549 25 1
-10 4 14 509 30 1
-10 4 14 527 29 1
-6 -10 -14 2757 99 1
10 -6 -14 2833 99 1
-10 6 -14 3012 99 1
-6 -10 -14 2920 99 1
-10 6 -14 2805 110 1
-10 6 14 2731 112 1
-8 -10 -14 4972 200 1
-10 8 -14 5195 201 1
-8 -10 -14 5421 200 1
-10 -10 -14 229 11 1
-10 -10 -14 217 11 1
10 -10 -14 230 12 1
-10 10 -14 226 12 1
10 -10 14 228 11 1
-10 10 14 247 14 1
-10 10 14 232 13 1
-9 11 -14 630 35 1
-11 -9 -14 653 33 1
9 -11 -14 660 34 1
-9 11 14 682 33 1
9 -11 14 616 33 1
11 9 14 692 34 1
7 -11 -14 637 22 1
-11 -7 -14 638 22 1
-11 -7 -14 677 22 1
-7 11 14 650 26 1
-7 11 14 657 22 1
7 -11 14 654 21 1
-7 11 14 694 25 1
-11 -7 14 654 25 1
-11 -5 -14 2550 100 1
5 -11 -14 2515 100 1
-5 11 -14 2644 101 1
-11 -5 -14 2328 100 1
-5 11 14 2431 111 1
-11 -5 14 2453 114 1
-11 -5 14 2427 111 1
-5 11 14 2522 100 1
-11 -3 -14 5 3 1
-3 11 -14 2 2 1
-11 -3 -14 4 3 1
-11 -3 14 0 2 1
-3 11 14 1 3 1
11 3 14 1 2 1
-3 11 14 0 2 1
-3 11 14 1 3 1
-11 -1 -14 6858 258 1
1 -11 -14 6507 258 1
1 -11 -14 6485 262 1
1 -11 -14 6666 258 1
-11 -1 -14 6788 258 1
-1 11 -14 6844 258 1
-1 11 14 6654 286 1
-11 -1 14 6611 292 1
-1 11 14 6916 292 1
-1 11 14 7076 258 1
-11 1 -14 507 24 1
-1 -11 -14 506 25 1
-11 1 -14 498 24 1
-1 -11 -14 565 24 1
-11 1 -14 517 27 1
-1 -11 -14 528 24 1
-11 1 14 518 27 1
1 11 14 485 28 1
11 -1 14 559 24 1
-11 3 -14 391 28 1
-3 -11 -14 367 24 1
-3 -11 -14 349 24 1
-11 3 -14 347 24 1
3 11 14 397 24 1
11 -3 14 344 24 1
-11 3 14 370 27 1
-5 -11 -14 179 9 1
-5 -11 -14 186 9 1
11 -5 -14 196 11 1
-11 5 -14 186 13 1
-11 5 -14 174 10 1
-11 5 14 195 12 1
11 -5 14 194 10 1
5 11 14 200 10 1
-11 5 14 188 11 1
-11 5 14 160 12 1
-11 7 -14 306 19 1
-7 -11 -14 299 15 1
-11 7 14 335 18 1
-11 7 14 319 17 1
7 11 14 286 15 1
11 -9 -14 35 5 1
-11 9 -14 23 2 1
-11 9 -14 34 5 1
-9 -11 -14 32 4 1
-9 -11 -14 25 3 1
-11 9 14 39 6 1
-11 9 14 31 5 1
9 11 14 24 2 1
-11 -11 -14 38 5 1
11 -11 -14 40 7 1
-11 11 -14 57 7 1
-11 -11 -14 40 6 1
11 -11 14 37 5 1
-11 11 14 49 8 1
-11 11 14 48 8 1
11 11 14 42 6 1
-10 12 -14 563 27 1
-12 -10 -14 566 26 1
-12 -10 -14 549 25 1
12 10 14 548 26 1
-10 12 14 550 30 1
10 -12 14 574 25 1
-12 -8 -14 2788 125 1
8 -12 -14 2797 126 1
-8 12 -14 2621 127 1
8 -12 -14 2769 126 1
12 8 14 2835 126 1
8 -12 14 2903 125 1
-12 -8 14 2900 140 1
-8 12 14 2967 126 1
-8 12 14 2867 140 1
6 -12 -14 371 17 1
6 -12 -14 388 17 1
6 -12 -14 367 21 1
-12 -6 -14 393 17 1
-6 12 -14 358 18 1
-12 -6 14 376 19 1
-6 12 14 394 17 1
-6 12 14 360 20 1
-12 -4 -14 1769 59 1
-12 -4 -14 1820 60 1
4 -12 -14 1727 61 1
12 4 14 1732 60 1
-4 12 14 1767 59 1
-4 12 14 1799 66 1
-4 12 14 1755 68 1
-12 -2 -14 93 4 1
2 -12 -14 94 5 1
-2 12 -14 100 6 1
-12 -2 -14 86 4 1
2 -12 -14 100 9 1
-2 12 14 87 6 1
-2 12 14 76 9 1
-2 12 14 78 4 1
-12 -2 14 97 8 1
-12 -2 14 89 6 1
2 -12 14 81 7 1
-12 0 -14 114 5 1
0 -12 -14 125 5 1
0 -12 -14 128 9 1
-12 0 -14 119 5 1
-12 0 14 96 11 1
0 12 14 109 10 1
0 12 14 114 5 1
12 0 14 138 5 1
-12 0 14 82 8 1
-2 -12 -14 259 13 1
-2 -12 -14 283 11 1
-2 -12 -14 254 11 1
-12 2 -14 245 11 1
-12 2 -14 219 14 1
-2 -12 14 248 13 1
-12 2 14 230 14 1
-12 2 14 248 14 1
12 -2 14 243 11 1
2 12 14 266 11 1
-4 -12 -14 1181 41 1
-12 4 -14 1206 47 1
-12 4 -14 1199 42 1
-4 -12 -14 1111 43 1
-4 -12 -14 1151 42 1
4 12 14 1112 42 1
-12 4 14 1165 47 1
12 -4 14 1175 42 1
-12 4 14 1247 48 1
12 -6 -14 884 36 1
-12 6 -14 857 36 1
-12 6 -14 922 40 1
-6 -12 -14 870 35 1
-12 6 14 828 40 1
6 12 14 884 35 1
-12 6 14 863 41 1
-8 -12 -14 359 8 1
-8 -12 -14 361 9 1
-12 8 -14 316 12 1
12 -8 14 325 9 1
-12 8 14 290 11 1
8 12 14 363 9 1
-12 8 14 278 11 1
-12 10 -14 56 12 1
12 -10 -14 74 9 1
-10 -12 -14 67 8 1
-12 10 -14 60 9 1
-12 10 14 76 10 1
-12 10 14 60 9 1
12 -10 14 56 7 1
10 12 14 63 8 1
12 -12 -14 122 8 1
-12 12 -14 141 8 1
-12 -12 -14 148 6 1
-12 -12 -14 136 7 1
-12 12 14 147 9 1
12 -12 14 158 7 1
-12 12 14 139 10 1
12 12 14 126 8 1
-13 -11 -14 314 16 1
11 -13 -14 310 17 1
-11 13 -14 297 17 1
-13 -11 -14 299 15 1
-11 13 14 305 19 1
13 11 14 281 16 1
11 -13 14 326 17 1
11 -13 14 303 15 1
-9 13 -14 1271 44 1
9 -13 -14 1231 43 1
-13 -9 -14 1241 43 1
-9 13 14 1283 43 1
13 9 14 1321 44 1
-9 13 14 1354 50 1
9 -13 14 1310 42 1
-9 13 14 1328 49 1
-13 -7 -14 460 20 1
-7 13 -14 485 22 1
-13 -7 -14 443 21 1
7 -13 -14 480 24 1
7 -13 -14 473 21 1
-13 -7 14 491 24 1
-7 13 14 475 24 1
5 -13 -14 8745 393 1
5 -13 -14 8618 388 1
-13 -5 -14 8846 388 1
-13 -5 -14 8916 388 1
-5 13 14 9292 388 1
13 5 14 9168 388 1
-5 13 14 8720 439 1
5 -13 14 9095 392 1
-13 -3 -14 3019 107 1
3 -13 -14 2853 107 1
-13 -3 -14 3037 107 1
-3 13 -14 2919 108 1
3 -13 -14 2792 109 1
13 3 14 2948 108 1
3 -13 14 2781 109 1
-13 -3 14 2936 122 1
-3 13 14 3036 119 1
1 -13 -14 485 13 1
-13 -1 -14 461 13 1
1 -13 -14 491 15 1
-13 -1 -14 487 13 1
-13 -1 -14 482 15 1
-1 13 14 466 17 1
-13 -1 14 474 15 1
-1 13 14 474 15 1
-13 -1 14 458 16 1
1 -13 14 457 14 1
13 1 14 460 13 1
-1 -13 -14 771 30 1
-13 1 -14 851 30 1
-1 -13 -14 754 32 1
-13 1 -14 828 31 1
13 -1 14 832 31 1
1 13 14 844 36 1
-1 -13 14 829 31 1
1 13 14 849 34 1
-13 1 14 865 35 1
-13 3 -14 1250 42 1
-3 -13 -14 1292 43 1
-3 -13 -14 1241 41 1
-3 -13 -14 1282 42 1
3 13 14 1294 42 1
-3 -13 14 1271 43 1
-13 3 14 1222 47 1
-13 3 14 1313 48 1
-5 -13 -14 344 10 1
-5 -13 -14 344 12 1
-13 5 -14 319 11 1
-13 5 -14 301 13 1
-5 -13 -14 356 11 1
-13 5 14 322 13 1
5 13 14 347 11 1
-5 -13 14 324 15 1
13 -5 14 341 11 1
-13 5 14 303 13 1
13 -7 -14 74 8 1
-13 7 -14 64 6 1
-13 7 -14 57 9 1
-7 -13 -14 62 5 1
-7 -13 -14 61 6 1
7 13 14 57 6 1
-13 7 14 55 7 1
13 -7 14 72 6 1
-13 7 14 77 8 1
-13 7 14 63 8 1
-13 9 -14 176 11 1
-13 9 -14 175 13 1
-9 -13 -14 204 9 1
13 -9 -14 180 12 1
-9 -13 -14 209 10 1
13 -9 14 177 10 1
9 13 14 215 10 1
-13 9 14 204 13 1
-13 9 14 211 13 1
-13 11 -14 467 23 1
-13 11 -14 477 20 1
-11 -13 -14 502 19 1
-13 11 14 472 22 1
11 13 14 506 20 1
13 -11 14 479 19 1
13 -13 -14 1386 44 1
-13 -13 -14 1333 43 1
-13 13 -14 1284 44 1
-13 13 14 1325 49 1
13 -13 14 1344 44 1
-13 13 14 1321 50 1
13 13 14 1345 44 1
12 -14 -14 1092 48 1
-12 14 -14 1167 49 1
-14 -12 -14 1065 47 1
-12 14 14 1159 55 1
14 12 14 1028 48 1
12 -14 14 1091 48 1
12 -14 14 1164 47 1
-12 14 14 1142 54 1
-10 14 -14 25 7 1
-14 -10 -14 27 4 1
-14 -10 -14 28 6 1
-10 14 14 20 7 1
-10 14 14 20 4 1
14 10 14 27 6 1
-10 14 14 23 8 1
10 -14 14 30 6 1
8 -14 -14 242 10 1
-14 -8 -14 290 10 1
-8 14 -14 283 12 1
8 -14 -14 262 15 1
-8 14 14 280 13 1
6 -14 -14 77 6 1
-6 14 -14 78 8 1
-14 -6 -14 97 6 1
-14 -6 -14 93 5 1
6 -14 -14 91 6 1
6 -14 -14 93 11 1
-14 -6 14 85 7 1
-6 14 14 111 7 1
6 -14 14 63 6 1
-6 14 14 95 5 1
-6 14 14 103 8 1
14 6 14 74 6 1
4 -14 -14 0 2 1
4 -14 -14 2 3 1
-14 -4 -14 4 1 1
4 -14 -14 11 2 1
-4 14 14 11 3 1
-4 14 14 5 3 1
-14 -4 14 11 3 1
4 -14 14 1 2 1
14 4 14 5 2 1
-14 -4 14 1 3 1
2 -14 -14 1761 75 1
-14 -2 -14 1740 73 1
-14 -2 -14 1737 73 1
2 -14 -14 1705 73 1
2 -14 -14 1733 73 1
-2 14 14 1634 83 1
2 -14 14 1739 74 1
-2 14 14 1626 73 1
-14 -2 14 1762 83 1
14 2 14 1675 73 1
-2 14 14 1728 81 1
-14 0 -14 41 4 1
0 -14 -14 35 4 1
0 -14 -14 33 4 1
0 -14 -14 48 8 1
-14 0 -14 27 6 1
0 14 14 34 4 1
14 0 14 45 4 1
0 -14 14 33 6 1
-14 0 14 40 7 1
0 14 14 33 11 1
-2 -14 -14 186 12 1
-2 -14 -14 203 10 1
-14 2 -14 196 10 1
-14 2 -14 175 12 1
-2 -14 -14 189 9 1
-2 -14 14 187 11 1
-14 2 14 206 11 1
14 -2 14 205 10 1
-14 2 14 187 13 1
2 14 14 193 10 1
-14 4 -14 946 39 1
-4 -14 -14 1007 39 1
-4 -14 -14 1071 41 1
-14 4 -14 1021 44 1
-4 -14 -14 1083 39 1
-14 4 14 970 45 1
4 14 14 1025 39 1
-4 -14 14 1043 40 1
-14 4 14 1052 44 1
-14 6 -14 180 7 1
-6 -14 -14 139 5 1
-14 6 -14 153 5 1
-14 6 14 122 7 1
6 14 14 144 5 1
-14 6 14 156 6 1
-6 -14 14 141 11 1
14 -6 14 149 4 1
-14 6 14 127 6 1
-8 -14 -14 39 2 1
-14 8 -14 67 3 1
14 -8 -14 42 4 1
-8 -14 -14 25 3 1
8 14 14 40 2 1
-14 8 14 43 2 1
-14 8 14 58 3 1
14 -10 -14 75 10 1
-14 10 -14 86 8 1
-14 10 -14 82 11 1
-10 -14 -14 74 6 1
-14 10 14 76 10 1
-14 10 14 76 9 1
14 -10 14 76 7 1
-14 10 14 94 10 1
10 14 14 73 8 1
-14 12 -14 817 35 1
14 -12 -14 754 32 1
-12 -14 -14 792 31 1
-14 12 -14 797 32 1
-14 12 14 766 36 1
12 14 14 808 32 1
14 -12 14 821 31 1
-14 14 -14 136 9 1
-14 -14 -14 119 9 1
14 -14 -14 125 10 1
14 -14 14 122 9 1
-14 14 14 127 13 1
14 -14 14 126 7 1
14 14 14 112 9 1
-14 14 14 125 11 1
-15 -13 -14 5 3 1
-13 15 -14 15 3 1
13 -15 -14 13 3 1
13 -15 14 9 2 1
-13 15 14 28 3 1
13 -15 14 5 2 1
15 13 14 5 3 1
-13 15 14 10 6 1
11 -15 -14 108 7 1
-15 -11 -14 108 7 1
-11 15 -14 105 8 1
15 11 14 100 8 1
-11 15 14 101 8 1
-11 15 14 113 11 1
11 -15 14 114 5 1
11 -15 14 102 7 1
-15 -9 -14 2813 112 1
-9 15 -14 2578 113 1
-9 15 14 2686 112 1
15 9 14 2742 113 1
9 -15 14 2673 114 1
-9 15 14 2619 125 1
-15 -7 -14 86 8 1
-15 -7 -14 74 6 1
-7 15 -14 66 9 1
7 -15 -14 75 12 1
7 -15 -14 62 7 1
-7 15 14 86 10 1
15 7 14 83 8 1
7 -15 14 72 8 1
-7 15 14 84 10 1
5 -15 -14 1110 48 1
-15 -5 -14 1111 46 1
5 -15 -14 1128 46 1
5 -15 -14 1083 46 1
-5 15 -14 1104 47 1
-15 -5 -14 1072 45 1
15 5 14 1187 46 1
-5 15 14 1081 46 1
-5 15 14 1186 52 1
-15 -5 14 1206 54 1
5 -15 14 1173 47 1
-15 -3 -14 3 3 1
3 -15 -14 1 3 1
-15 -3 -14 1 3 1
-3 15 -14 0 4 1
3 -15 -14 2 4 1
-3 15 14 1 4 1
-3 15 14 1 4 1
15 3 14 0 2 1
-3 15 14 2 5 1
-15 -3 14 2 5 1
-15 -3 14 1 4 1
3 -15 14 0 2 1
1 -15 -14 703 30 1
1 -15 -14 681 31 1
1 -15 -14 705 32 1
-15 -1 -14 737 31 1
-15 -1 -14 708 30 1
-15 -1 14 699 35 1
1 -15 14 761 31 1
15 1 14 713 31 1
-15 -1 14 686 34 1
-1 15 14 700 36 1
-1 15 14 692 31 1
-15 1 -14 3 2 1
-1 -15 -14 8 2 1
-15 1 -14 4 1 1
-15 1 -14 7 2 1
-1 -15 -14 1 2 1
1 15 14 8 2 1
-15 1 14 16 2 1
1 15 14 8 2 1
-1 -15 14 1 2 1
-15 1 14 3 3 1
15 -1 14 7 2 1
-15 1 14 2 3 1
-15 3 -14 2 2 1
-15 3 -14 4 2 1
-3 -15 -14 2 2 1
-15 3 -14 1 2 1
-3 -15 -14 3 2 1
3 15 14 3 2 1
-3 -15 14 7 3 1
-15 3 14 15 2 1
3 15 14 1 1 1
-15 3 14 4 3 1
15 -3 14 1 2 1
-5 -15 -14 21 5 1
-15 5 -14 17 5 1
-5 -15 -14 20 6 1
-5 -15 -14 16 7 1
-15 5 -14 25 8 1
-15 5 14 18 7 1
-15 5 14 26 7 1
-15 5 14 17 8 1
15 -5 14 21 6 1
-5 -15 14 27 10 1
5 15 14 29 5 1
-7 -15 -14 74 4 1
-15 7 -14 69 5 1
-15 7 -14 74 8 1
-15 7 14 69 6 1
7 15 14 65 5 1
15 -7 14 61 4 1
-9 -15 -14 426 17 1
15 -9 -14 407 19 1
-15 9 -14 399 18 1
-15 9 -14 383 20 1
-9 -15 -14 399 16 1
-15 9 14 401 20 1
9 15 14 410 18 1
-15 9 14 418 20 1
-15 9 14 408 20 1
-11 -15 -14 233 2 1
-15 11 -14 306 2 1
15 -11 -14 217 4 1
-15 11 -14 259 3 1
11 15 14 288 2 1
-15 11 14 181 5 1
-15 11 14 235 3 1
-15 11 14 248 2 1
-15 13 -14 0 4 1
15 -13 -14 1 4 1
-15 13 -14 0 3 1
-13 -15 -14 2 3 1
15 -13 14 1 2 1
15 -13 14 2 2 1
13 15 14 1 3 1
-15 13 14 3 3 1
15 -15 -14 393 15 1
-15 15 -14 342 15 1
-15 -15 -14 353 15 1
15 15 14 362 15 1
15 -15 14 356 14 1
15 -15 14 335 13 1
-14 16 -14 6 4 1
14 -16 -14 10 4 1
-16 -14 -14 13 4 1
-14 16 14 8 3 1
16 14 14 17 4 1
14 -16 14 17 5 1
-16 -12 -14 931 34 1
12 -16 -14 974 34 1
-12 16 -14 863 35 1
-12 16 14 889 39 1
-12 16 14 994 39 1
16 12 14 988 35 1
12 -16 14 965 34 1
10 -16 -14 38 6 1
-16 -10 -14 29 7 1
-10 16 -14 38 8 1
-10 16 14 36 5 1
10 -16 14 38 7 1
-10 16 14 35 10 1
16 10 14 38 7 1
-8 16 -14 1472 57 1
8 -16 -14 1514 56 1
-16 -8 -14 1510 56 1
-8 16 14 1555 55 1
8 -16 14 1513 56 1
16 8 14 1518 56 1
-8 16 14 1460 62 1
6 -16 -14 1680 76 1
-16 -6 -14 1741 73 1
6 -16 -14 1739 74 1
-16 -6 -14 1722 74 1
-6 16 -14 1708 75 1
-6 16 14 1680 84 1
-6 16 14 1709 74 1
-6 16 14 1776 83 1
6 -16 14 1740 75 1
4 -16 -14 266 15 1
4 -16 -14 293 17 1
-16 -4 -14 301 15 1
-4 16 -14 288 17 1
-16 -4 -14 285 18 1
4 -16 -14 305 15 1
4 -16 14 265 16 1
-4 16 14 278 15 1
-4 16 14 316 19 1
-4 16 14 299 18 1
-16 -2 -14 2524 101 1
-16 -2 -14 2660 100 1
-16 -2 -14 2499 112 1
2 -16 -14 2675 101 1
2 -16 -14 2719 103 1
2 -16 14 2582 102 1
-2 16 14 2498 101 1
-16 -2 14 2617 112 1
-2 16 14 2427 114 1
16 2 14 2520 101 1
-16 0 -14 308 19 1
0 -16 -14 339 18 1
-16 0 -14 337 17 1
-16 0 -14 325 16 1
0 -16 -14 331 17 1
0 -16 14 364 18 1
0 16 14 327 19 1
-16 0 14 311 20 1
-16 0 14 350 21 1
0 16 14 320 17 1
-2 -16 -14 124 12 1
-16 2 -14 134 13 1
-16 2 -14 140 15 1
-16 2 -14 128 12 1
-2 -16 -14 131 12 1
2 16 14 132 12 1
16 -2 14 125 12 1
2 16 14 141 14 1
-2 -16 14 136 14 1
-16 2 14 142 15 1
-16 4 -14 0 2 1
-16 4 -14 2 3 1
-4 -16 -14 7 2 1
-4 -16 -14 1 2 1
-16 4 -14 0 3 1
-4 -16 14 0 3 1
4 16 14 2 5 1
-16 4 14 0 3 1
-16 4 14 0 2 1
-16 6 -14 392 12 1
-6 -16 -14 391 12 1
-6 -16 -14 345 9 1
-16 6 -14 381 10 1
-6 -16 -14 370 10 1
-6 -16 14 375 13 1
16 -6 14 384 10 1
6 16 14 364 10 1
-16 6 14 381 12 1
-16 8 -14 22 5 1
-8 -16 -14 27 4 1
-16 8 -14 22 7 1
-8 -16 -14 29 5 1
-16 8 14 15 7 1
-16 8 14 32 8 1
16 -8 14 26 5 1
8 16 14 29 5 1
-16 8 14 22 6 1
-16 10 -14 173 11 1
16 -10 -14 198 14 1
-10 -16 -14 198 11 1
-16 10 -14 204 13 1
-16 10 14 181 12 1
10 16 14 192 11 1
16 -10 14 200 11 1
-16 10 14 205 14 1
16 -12 -14 1791 69 1
-16 12 -14 1630 68 1
-16 12 -14 1615 75 1
-12 -16 -14 1744 68 1
-16 12 14 1821 76 1
12 16 14 1678 68 1
-16 12 14 1792 77 1
16 -12 14 1617 68 1
-16 14 -14 21 5 1
-16 14 -14 32 6 1
-16 14 14 27 8 1
16 -14 14 35 6 1
-16 14 14 19 7 1
14 16 14 27 8 1
16 -14 14 42 5 1
16 -16 -14 263 14 1
-16 16 -14 235 12 1
16 -16 14 262 11 1
16 -16 14 257 11 1
-16 16 14 261 13 1
16 16 14 246 14 1
15 -17 -14 529 21 1
-15 17 -14 532 21 1
15 -17 14 561 20 1
17 15 14 528 22 1
-13 17 -14 167 13 1
13 -17 -14 143 12 1
13 -17 14 182 11 1
-13 17 14 157 13 1
17 13 14 140 13 1
11 -17 -14 95 7 1
-17 -11 -14 84 9 1
-11 17 -14 85 9 1
17 11 14 87 9 1
11 -17 14 80 7 1
-11 17 14 73 8 1
-17 -9 -14 197 13 1
-9 17 -14 226 13 1
9 -17 -14 261 15 1
-17 -9 -14 210 11 1
9 -17 -14 246 11 1
-9 17 14 210 13 1
9 -17 14 243 11 1
-9 17 14 232 10 1
17 9 14 225 12 1
-17 -7 -14 268 15 1
7 -17 -14 265 14 1
-7 17 -14 250 14 1
7 -17 -14 288 12 1
7 -17 14 265 12 1
-7 17 14 295 12 1
-7 17 14 279 15 1
17 7 14 265 13 1
-7 17 14 257 15 1
-5 17 -14 668 26 1
-17 -5 -14 675 28 1
5 -17 -14 691 24 1
-17 -5 -14 710 25 1
5 -17 -14 665 26 1
-17 -5 -14 683 23 1
-5 17 14 663 29 1
5 -17 14 689 25 1
-5 17 14 636 24 1
-17 -3 -14 1954 85 1
3 -17 -14 1905 87 1
3 -17 -14 1898 85 1
3 -17 -14 1901 85 1
-3 17 14 1897 96 1
3 -17 14 1849 86 1
-3 17 14 1866 85 1
-3 17 14 1835 94 1
-17 -3 14 1820 94 1
-17 -3 14 1963 96 1
1 -17 -14 728 26 1
-17 -1 -14 688 25 1
1 -17 -14 735 25 1
1 -17 -14 686 24 1
-17 -1 -14 650 28 1
-17 -1 -14 740 24 1
-17 -1 14 685 28 1
-17 -1 14 651 28 1
-1 17 14 666 24 1
-17 -1 14 672 28 1
1 -17 14 707 25 1
-1 17 14 763 28 1
17 1 14 740 25 1
-17 1 -14 58 2 1
-1 -17 -14 64 3 1
-1 -17 -14 43 2 1
-17 1 -14 56 3 1
-17 1 -14 63 3 1
-1 -17 -14 74 4 1
17 -1 14 73 5 1
-17 1 14 55 3 1
-17 1 14 45 3 1
1 17 14 58 4 1
-17 1 14 57 4 1
1 17 14 70 4 1
-1 -17 14 52 3 1
-3 -17 -14 234 14 1
-17 3 -14 197 14 1
-3 -17 -14 200 12 1
-3 -17 -14 216 11 1
-17 3 -14 225 13 1
-17 3 -14 223 12 1
-17 3 14 231 15 1
17 -3 14 191 12 1
-17 3 14 212 14 1
3 17 14 207 14 1
-3 -17 14 245 13 1
3 17 14 198 12 1
-17 3 14 235 15 1
-17 5 -14 435 14 1
-5 -17 -14 408 14 1
-17 5 -14 456 16 1
-5 -17 -14 415 13 1
-17 5 -14 459 15 1
-5 -17 -14 442 16 1
5 17 14 394 14 1
17 -5 14 468 14 1
-5 -17 14 456 15 1
-17 5 14 444 16 1
-17 5 14 432 16 1
5 17 14 412 16 1
-17 7 -14 22 2 1
-7 -17 -14 90 2 1
-7 -17 -14 79 2 1
-17 7 -14 12 3 1
-17 7 14 84 2 1
17 -7 14 22 2 1
7 17 14 75 2 1
-17 7 14 67 2 1
-17 9 -14 2 3 1
-17 9 -14 2 2 1
-9 -17 -14 4 2 1
-17 9 14 4 4 1
17 -9 14 1 2 1
-17 9 14 4 3 1
9 17 14 7 2 1
-17 9 14 2 2 1
-17 11 -14 105 6 1
-11 -17 -14 124 6 1
-17 11 -14 105 8 1
-17 11 14 132 11 1
17 -11 14 112 7 1
-17 11 14 116 7 1
-17 11 14 94 7 1
11 17 14 91 7 1
-17 13 -14 62 9 1
17 -13 -14 98 11 1
-17 13 -14 60 7 1
-13 -17 -14 76 7 1
17 -13 14 86 5 1
-17 13 14 71 7 1
-17 13 14 89 16 1
17 -13 14 69 7 1
-17 15 -14 191 12 1
17 -15 -14 221 16 1
-15 -17 -14 179 14 1
15 17 14 194 15 1
17 -15 14 208 12 1
17 -15 14 195 11 1
-17 15 14 212 14 1
17 -17 -14 213 14 1
-17 17 -14 235 12 1
16 -18 -14 238 13 1
-18 -16 -14 262 13 1
-16 18 -14 218 13 1
16 -18 14 248 12 1
-16 18 14 257 13 1
-18 -14 -14 829 35 1
-14 18 -14 807 32 1
14 -18 -14 752 31 1
18 14 14 780 32 1
14 -18 14 849 31 1
12 -18 -14 815 32 1
-18 -12 -14 838 36 1
12 -18 14 804 32 1
-12 18 14 808 36 1
10 -18 -14 1026 36 1
-18 -10 -14 1014 39 1
10 -18 14 1056 34 1
18 10 14 1035 35 1
-10 18 14 1002 33 1
-10 18 14 1076 39 1
8 -18 -14 138 13 1
8 -18 -14 139 10 1
-18 -8 -14 156 12 1
-8 18 14 129 13 1
-8 18 14 130 16 1
18 8 14 173 11 1
-8 18 14 145 10 1
8 -18 14 134 11 1
-18 -6 -14 325 13 1
6 -18 -14 306 14 1
-6 18 -14 302 15 1
-18 -6 -14 297 15 1
6 -18 -14 336 12 1
-6 18 14 355 17 1
-6 18 14 322 12 1
-6 18 14 338 16 1
18 6 14 298 13 1
6 -18 14 338 13 1
-18 -4 -14 428 21 1
-18 -4 -14 458 23 1
4 -18 -14 541 24 1
-4 18 -14 481 25 1
4 -18 -14 518 22 1
-4 18 14 548 27 1
18 4 14 459 23 1
-4 18 14 477 26 1
-18 -4 14 478 27 1
-4 18 14 486 22 1
4 -18 14 503 23 1
-18 -2 -14 399 18 1
2 -18 -14 371 15 1
2 -18 -14 374 16 1
-18 -2 -14 393 15 1
2 -18 -14 378 14 1
-2 18 14 362 15 1
-18 -2 14 315 18 1
2 -18 14 372 15 1
-18 -2 14 330 19 1
-18 -2 14 336 17 1
0 -18 -14 590 28 1
0 -18 -14 636 29 1
-18 0 -14 676 27 1
-18 0 -14 672 28 1
-18 0 -14 634 31 1
0 -18 -14 667 27 1
-18 0 14 676 32 1
0 18 14 629 31 1
18 0 14 592 28 1
0 18 14 588 28 1
0 -18 14 642 28 1
-18 0 14 664 32 1
-2 -18 -14 72 5 1
-18 2 -14 65 6 1
-18 2 -14 85 4 1
-18 2 -14 68 6 1
-2 -18 -14 66 7 1
-2 -18 14 92 6 1
18 -2 14 71 5 1
2 18 14 59 7 1
-18 2 14 70 7 1
2 18 14 80 5 1
-18 2 14 61 4 1
-18 2 14 70 7 1
-4 -18 -14 26 5 1
-18 4 -14 29 7 1
-18 4 -14 32 8 1
-18 4 -14 31 5 1
-4 -18 -14 22 6 1
-4 -18 14 27 8 1
-18 4 14 24 8 1
4 18 14 28 8 1
4 18 14 26 6 1
-18 4 14 22 8 1
18 -4 14 33 6 1
-6 -18 -14 430 19 1
-18 6 -14 436 21 1
-18 6 -14 464 20 1
-6 -18 -14 420 17 1
-18 6 -14 423 18 1
-6 -18 -14 447 20 1
-18 6 14 466 22 1
-18 6 14 441 21 1
6 18 14 421 19 1
-6 -18 14 453 20 1
6 18 14 446 21 1
-18 6 14 462 22 1
-8 -18 -14 1147 47 1
-18 8 -14 1180 52 1
-18 8 -14 1177 47 1
-8 -18 14 1118 49 1
8 18 14 1123 47 1
-18 8 14 1101 54 1
-18 8 14 1140 52 1
-18 10 -14 283 14 1
-10 -18 -14 276 12 1
-18 10 14 311 15 1
18 -10 14 287 13 1
-18 10 14 315 17 1
-18 10 14 287 14 1
-18 12 -14 7 3 1
-18 12 -14 8 3 1
-12 -18 -14 10 3 1
12 18 14 9 4 1
-18 12 14 3 3 1
18 -12 14 4 2 1
-18 12 14 11 8 1
-18 14 -14 280 13 1
18 -14 -14 245 18 1
-14 -18 -14 241 14 1
-18 14 14 278 15 1
18 -14 14 247 12 1
18 -14 14 261 13 1
14 18 14 248 15 1
18 -16 -14 1041 46 1
-18 16 -14 1002 45 1
-18 16 14 1044 50 1
18 -16 14 1003 44 1
-18 -18 -14 269 14 1
18 -18 14 281 12 1
-18 18 14 248 14 1
-19 -17 -14 293 15 1
17 -19 14 284 12 1
-17 19 14 315 14 1
-15 19 -14 367 21 1
-15 19 14 408 22 1
15 -19 14 389 20 1
-19 -13 -14 3 3 1
13 -19 -14 0 3 1
-13 19 -14 12 4 1
13 -19 14 6 2 1
19 13 14 2 5 1
-19 -11 -14 67 3 1
-11 19 -14 14 4 1
11 -19 -14 71 2 1
11 -19 14 24 2 1
19 11 14 32 5 1
-11 19 14 71 3 1
9 -19 -14 213 9 1
9 -19 -14 232 13 1
-19 -9 -14 227 11 1
-9 19 -14 190 12 1
19 9 14 221 11 1
-9 19 14 238 9 1
-9 19 14 233 12 1
9 -19 14 189 9 1
-7 19 -14 83 4 1
7 -19 -14 61 3 1
7 -19 -14 82 2 1
-19 -7 -14 86 3 1
-7 19 14 64 2 1
-7 19 14 100 4 1
19 7 14 62 3 1
5 -19 -14 10 8 1
-19 -5 -14 18 7 1
5 -19 -14 14 5 1
-5 19 14 15 11 1
19 5 14 17 7 1
-5 19 14 21 12 1
5 -19 14 20 6 1
-5 19 14 17 5 1
-19 -3 -14 15 4 1
3 -19 -14 6 2 1
3 -19 -14 23 3 1
-19 -3 -14 10 3 1
3 -19 14 13 2 1
19 3 14 9 3 1
-3 19 14 11 2 1
-19 -3 14 28 4 1
1 -19 -14 60 2 1
1 -19 -14 47 2 1
1 -19 -14 32 2 1
-19 -1 -14 15 2 1
-19 -1 -14 11 4 1
-19 -1 14 32 4 1
-1 19 14 36 2 1
1 -19 14 40 2 1
19 1 14 15 2 1
-19 -1 14 32 3 1
-19 -1 14 21 3 1
-1 -19 -14 425 18 1
-19 1 -14 468 18 1
-1 -19 -14 417 17 1
-19 1 -14 486 20 1
-19 1 -14 441 17 1
19 -1 14 403 18 1
-1 -19 14 433 18 1
-19 1 14 429 21 1
-19 1 14 424 21 1
1 19 14 412 18 1
-3 -19 -14 69 6 1
-19 3 -14 86 8 1
-3 -19 -14 61 5 1
-19 3 -14 72 5 1
-3 -19 -14 65 8 1
-19 3 -14 73 8 1
-19 3 14 72 8 1
19 -3 14 86 6 1
-3 -19 14 72 7 1
-19 3 14 58 9 1
3 19 14 61 6 1
3 19 14 76 9 1
-19 3 14 69 8 1
-5 -19 -14 140 7 1
-5 -19 -14 139 9 1
-19 5 -14 145 9 1
-19 5 -14 132 8 1
-5 -19 -14 141 6 1
-19 5 -14 143 6 1
19 -5 14 121 7 1
5 19 14 159 10 1
5 19 14 151 7 1
-5 -19 14 162 10 1
-19 5 14 157 9 1
-19 5 14 142 10 1
-19 7 -14 425 19 1
-19 7 -14 423 22 1
-7 -19 -14 465 19 1
-19 7 -14 444 21 1
-19 7 14 464 23 1
7 19 14 452 20 1
-7 -19 14 484 21 1
7 19 14 472 23 1
-19 7 14 458 22 1
-19 7 14 399 22 1
-19 9 -14 77 7 1
-19 9 -14 59 8 1
-9 -19 -14 69 7 1
-19 9 14 78 12 1
19 -9 14 64 6 1
9 19 14 65 8 1
-19 9 14 77 8 1
-19 9 14 66 8 1
-19 11 -14 460 24 1
-19 11 -14 444 22 1
-11 -19 -14 426 22 1
19 -11 14 435 22 1
-19 11 14 453 25 1
19 -11 14 423 22 1
-19 11 14 417 24 1
11 19 14 420 23 1
-19 11 14 409 28 1
-19 13 -14 37 7 1
-19 13 -14 39 7 1
-13 -19 -14 31 9 1
19 -13 14 41 6 1
13 19 14 39 10 1
-19 15 14 1 2 1
19 -15 14 4 3 1
-17 -19 -14 323 18 1
19 -17 14 323 16 1
-19 17 14 326 18 1
-19 -19 -14 295 14 1
-19 19 14 298 14 1
19 -19 14 292 12 1
-20 -18 -14 98 6 1
-18 20 14 83 6 1
18 -20 14 72 5 1
-20 -16 -14 102 7 1
-16 20 14 94 7 1
16 -20 14 91 6 1
14 -20 -14 52 7 1
-20 -14 -14 47 5 1
-14 20 -14 47 10 1
-14 20 14 41 5 1
14 -20 14 46 5 1
-12 20 -14 2 4 1
12 -20 -14 4 3 1
12 -20 14 2 2 1
20 12 14 3 6 1
10 -20 -14 10 4 1
-10 20 -14 32 5 1
10 -20 -14 7 2 1
-10 20 14 9 3 1
-10 20 14 12 3 1
20 10 14 10 5 1
10 -20 14 32 2 1
-20 -8 -14 0 3 1
-8 20 -14 0 5 1
8 -20 -14 5 3 1
8 -20 -14 14 2 1
8 -20 14 5 2 1
-8 20 14 1 3 1
-8 20 14 7 4 1
20 8 14 2 4 1
-20 -6 -14 112 11 1
6 -20 -14 117 9 1
6 -20 -14 125 11 1
-6 20 14 122 14 1
20 6 14 109 10 1
-6 20 14 128 9 1
6 -20 14 127 10 1
4 -20 -14 691 24 1
-20 -4 -14 694 26 1
4 -20 -14 706 23 1
4 -20 14 733 23 1
20 4 14 684 23 1
-4 20 14 657 23 1
-20 -2 -14 861 41 1
2 -20 -14 877 36 1
2 -20 -14 901 38 1
-20 -2 14 922 41 1
-20 -2 14 926 42 1
20 2 14 935 37 1
-2 20 14 881 42 1
-2 20 14 885 36 1
2 -20 14 892 37 1
0 -20 -14 97 7 1
0 -20 -14 108 10 1
-20 0 -14 103 10 1
-20 0 14 93 11 1
0 -20 14 92 9 1
0 20 14 121 13 1
20 0 14 96 9 1
0 20 14 117 8 1
-20 0 14 120 11 1
-20 0 14 100 11 1
-2 -20 -14 83 7 1
-20 2 -14 69 6 1
-20 2 -14 70 10 1
-20 2 -14 90 8 1
-2 -20 -14 71 6 1
-2 -20 -14 66 9 1
2 20 14 71 6 1
-2 -20 14 86 8 1
20 -2 14 76 7 1
-20 2 14 90 9 1
2 20 14 79 11 1
-20 2 14 83 9 1
-20 2 14 89 9 1
-20 4 -14 1733 78 1
-20 4 -14 1691 86 1
-20 4 -14 1696 76 1
-4 -20 -14 1723 76 1
-4 -20 -14 1791 77 1
-4 -20 -14 1806 79 1
4 20 14 1805 78 1
4 20 14 1752 86 1
-20 4 14 1789 87 1
-4 -20 14 1840 78 1
-20 4 14 1865 88 1
-6 -20 -14 28 3 1
-20 6 -14 37 5 1
-20 6 -14 31 3 1
6 20 14 49 6 1
-20 6 14 24 3 1
6 20 14 35 6 1
-6 -20 14 23 3 1
-20 6 14 29 5 1
20 -6 14 24 3 1
-20 6 14 23 3 1
-8 -20 -14 20 5 1
-20 8 -14 21 7 1
-20 8 -14 28 5 1
-20 8 -14 15 5 1
8 20 14 20 6 1
20 -8 14 26 5 1
-20 8 14 21 6 1
8 20 14 15 4 1
-8 -20 14 26 10 1
-20 8 14 23 7 1
-20 8 14 23 7 1
-20 10 -14 51 6 1
-20 10 -14 42 8 1
-10 -20 -14 46 7 1
20 -10 14 40 7 1
10 20 14 32 7 1
-20 10 14 27 9 1
20 -10 14 46 6 1
10 20 14 37 8 1
-20 10 14 30 7 1
-20 12 -14 114 7 1
-20 12 -14 106 7 1
20 -12 14 100 7 1
-20 12 14 108 7 1
20 -12 14 90 8 1
-20 14 -14 100 8 1
-20 14 -14 90 9 1
20 -14 14 89 7 1
-20 14 14 106 8 1
20 -14 14 87 9 1
20 -16 14 64 5 1
-20 16 14 58 5 1
-18 -20 -14 0 2 1
20 -18 14 0 1 1
-21 -15 -14 947 47 1
-15 21 14 1058 47 1
15 -21 14 979 42 1
-21 -13 -14 8 2 1
-13 21 14 8 2 1
11 -21 -14 7 3 1
-11 21 -14 1 5 1
-21 -11 -14 1 2 1
11 -21 14 1 2 1
21 11 14 1 6 1
-11 21 14 1 3 1
9 -21 -14 27 6 1
-21 -9 -14 27 8 1
-9 21 -14 18 6 1
9 -21 -14 39 9 1
21 9 14 26 11 1
9 -21 14 32 6 1
-9 21 14 18 7 1
-9 21 14 36 7 1
-7 21 -14 38 6 1
-21 -7 -14 41 7 1
7 -21 -14 36 5 1
7 -21 -14 30 4 1
7 -21 14 53 5 1
21 7 14 23 5 1
5 -21 -14 163 9 1
-21 -5 -14 201 12 1
21 5 14 155 12 1
5 -21 14 157 10 1
-5 21 14 177 10 1
3 -21 -14 26 5 1
-21 -3 -14 34 7 1
3 -21 -14 40 8 1
-3 21 14 31 6 1
21 3 14 22 7 1
3 -21 14 40 6 1
1 -21 -14 36 2 1
1 -21 -14 31 2 1
-21 -1 -14 25 3 1
-21 -1 14 38 4 1
-21 -1 14 32 3 1
1 -21 14 46 2 1
-1 21 14 48 2 1
21 1 14 54 3 1
-1 -21 -14 484 22 1
-21 1 -14 436 23 1
-1 -21 -14 469 19 1
21 -1 14 427 21 1
-21 1 14 428 24 1
-1 -21 14 478 21 1
-3 -21 -14 12 7 1
-21 3 -14 11 7 1
-3 -21 -14 13 5 1
21 -3 14 12 6 1
-3 -21 14 21 7 1
-21 3 14 19 7 1
3 21 14 32 13 1
-21 3 14 28 10 1
3 21 14 23 6 1
-21 3 14 13 7 1
-21 5 -14 402 17 1
-21 5 -14 409 20 1
5 21 14 433 24 1
-21 5 14 414 22 1
-21 5 14 386 20 1
5 21 14 398 18 1
21 -5 14 414 18 1
-5 -21 14 432 19 1
-21 7 -14 551 30 1
-21 7 -14 578 27 1
-7 -21 14 579 28 1
7 21 14 515 28 1
-21 7 14 554 31 1
21 -7 14 561 28 1
-21 7 14 486 33 1
-21 9 -14 2 3 1
9 21 14 1 3 1
-21 9 14 2 2 1
21 -9 14 2 3 1
21 -9 14 0 3 1
-21 9 14 2 2 1
-21 11 -14 4 4 1
21 -11 14 19 3 1
11 21 14 19 4 1
21 -11 14 11 3 1
-21 11 14 12 2 1
-21 11 14 20 2 1
-21 13 -14 183 11 1
21 -13 14 161 10 1
-21 13 14 162 12 1
21 -15 14 138 7 1
-21 15 14 120 8 1
-22 -14 -14 31 5 1
-14 22 14 44 6 1
14 -22 14 39 4 1
-22 -12 -14 101 8 1
-12 22 14 103 8 1
12 -22 14 99 6 1
10 -22 -14 175 9 1
-22 -10 -14 174 10 1
-10 22 -14 204 15 1
10 -22 14 185 9 1
-10 22 14 162 11 1
-22 -8 -14 303 15 1
8 -22 -14 358 15 1
8 -22 -14 324 14 1
22 8 14 298 18 1
-8 22 14 349 15 1
8 -22 14 334 14 1
6 -22 -14 101 10 1
-22 -6 -14 110 11 1
6 -22 -14 93 8 1
22 6 14 104 12 1
-6 22 14 105 9 1
6 -22 14 111 9 1
-22 -4 -14 215 14 1
4 -22 -14 231 12 1
4 -22 -14 242 14 1
-4 22 14 240 13 1
4 -22 14 238 12 1
22 4 14 224 14 1
-22 -2 -14 4 3 1
2 -22 -14 1 3 1
22 2 14 3 4 1
-2 22 14 4 2 1
-22 -2 14 2 4 1
-22 -2 14 4 4 1
2 -22 14 4 2 1
-22 0 -14 1667 71 1
0 -22 -14 1698 65 1
0 -22 -14 1628 63 1
-22 0 14 1609 72 1
0 22 14 1722 64 1
0 -22 14 1708 65 1
-22 0 14 1745 71 1
-22 2 -14 452 22 1
-2 -22 -14 463 21 1
-22 2 14 479 23 1
22 -2 14 477 21 1
2 22 14 447 20 1
-2 -22 14 472 20 1
-4 -22 -14 125 10 1
-22 4 -14 112 10 1
-22 4 14 128 10 1
-22 4 14 120 10 1
22 -4 14 102 10 1
-4 -22 14 135 10 1
4 22 14 113 9 1
-22 6 -14 6 2 1
-6 -22 14 5 3 1
22 -6 14 0 3 1
22 -6 14 6 3 1
6 22 14 1 3 1
-22 8 -14 19 5 1
-22 8 14 17 5 1
-8 -22 14 21 4 1
22 -8 14 21 3 1
8 22 14 19 4 1
22 -8 14 32 7 1
-22 8 14 17 5 1
-22 10 -14 742 33 1
-22 10 14 704 34 1
22 -10 14 725 30 1
-22 10 14 706 33 1
10 22 14 723 31 1
-22 12 -14 339 18 1
22 -12 14 318 17 1
-22 14 -14 51 6 1
22 -14 14 61 6 1
-22 14 14 46 4 1
-23 -13 -14 129 9 1
13 -23 14 153 8 1
-13 23 14 129 10 1
-23 -11 -14 2 2 1
11 -23 14 3 1 1
-23 -9 -14 71 6 1
-23 -7 -14 159 9 1
7 -23 -14 159 8 1
-7 23 14 171 10 1
7 -23 14 137 8 1
23 7 14 135 15 1
5 -23 -14 117 6 1
5 -23 -14 130 8 1
-23 -5 -14 116 6 1
5 -23 14 127 6 1
23 5 14 110 12 1
-5 23 14 143 7 1
3 -23 -14 17 2 1
3 -23 -14 22 3 1
3 -23 14 15 2 1
23 3 14 13 4 1
-23 -1 -14 414 18 1
1 -23 -14 427 15 1
1 -23 14 441 16 1
-23 -1 14 415 17 1
-1 23 14 422 16 1
-1 -23 -14 65 8 1
23 -1 14 38 8 1
-1 -23 14 82 7 1
-23 1 14 54 7 1
-23 1 14 67 7 1
1 23 14 57 7 1
-3 -23 -14 1797 71 1
-23 3 14 1740 79 1
-3 -23 14 1744 70 1
23 -3 14 1766 70 1
-23 3 14 1877 77 1
3 23 14 1683 70 1
-23 5 -14 58 5 1
5 23 14 61 7 1
-23 5 14 74 6 1
-23 5 14 56 6 1
23 -5 14 44 8 1
-5 -23 14 58 7 1
-23 7 -14 9 2 1
-23 7 14 24 2 1
7 23 14 40 4 1
-7 -23 14 18 2 1
-23 7 14 27 2 1
23 -7 14 9 3 1
-23 9 -14 149 9 1
-23 9 14 136 9 1
-23 9 14 149 9 1
-23 11 -14 28 4 1
-23 13 -14 309 17 1
-23 13 14 326 18 1
-24 -12 -14 93 7 1
12 -24 14 114 6 1
10 -24 14 80 6 1
-24 -8 -14 27 4 1
8 -24 14 20 2 1
6 -24 -14 6 2 1
-24 -6 -14 6 2 1
-24 -4 -14 5 5 1
-4 24 14 11 7 1
4 -24 14 8 5 1
2 -24 -14 730 27 1
-24 -2 -14 704 29 1
2 -24 14 659 26 1
-2 24 14 677 26 1
24 2 14 637 28 1
-24 0 -14 274 11 1
0 -24 -14 265 11 1
0 -24 14 292 10 1
24 0 14 262 13 1
0 24 14 245 11 1
-24 2 -14 273 14 1
-24 2 14 268 14 1
2 24 14 264 14 1
-2 -24 14 278 14 1
-24 2 14 267 15 1
-24 4 -14 18 4 1
-24 4 14 13 5 1
24 -4 14 10 4 1
4 24 14 11 4 1
-24 4 14 21 5 1
-24 6 -14 272 12 1
-24 6 14 285 12 1
-24 6 14 253 12 1
-6 -24 14 283 11 1
-24 8 -14 270 14 1
-24 8 14 249 15 1
-8 -24 14 244 14 1
-24 10 -14 2 2 1
-24 10 14 3 2 1
-24 12 14 18 4 1
-25 -9 -14 78 5 1
9 -25 14 91 4 1
-25 -7 -14 3 2 1
7 -25 14 2 1 1
5 -25 -14 0 2 1
-25 -5 -14 1 2 1
5 -25 14 1 1 1
3 -25 -14 122 7 1
-25 -3 -14 112 8 1
3 -25 14 106 7 1
1 -25 -14 150 7 1
-25 -1 -14 155 8 1
1 -25 14 159 7 1
-25 1 -14 492 21 1
-1 -25 14 480 19 1
-25 1 14 455 21 1
-25 1 14 453 20 1
-25 3 -14 136 7 1
-3 -25 14 136 6 1
-25 3 14 127 8 1
-25 3 14 150 7 1
-25 5 -14 1 1 1
-5 -25 14 0 2 1
-25 5 14 1 2 1
-25 5 14 1 2 1
-25 7 -14 1 2 1
-25 7 14 4 2 1
-7 -25 14 0 2 1
-25 7 14 4 2 1
-25 9 -14 388 20 1
-25 9 14 373 21 1
-26 -6 -14 8 2 1
6 -26 14 6 1 1
-26 -4 -14 61 6 1
4 -26 14 76 5 1
-26 -2 -14 531 28 1
2 -26 14 571 26 1
-26 0 -14 206 9 1
0 -26 14 214 9 1
-26 2 -14 4 2 1
-26 2 14 3 2 1
-26 2 14 5 3 1
-2 -26 14 5 1 1
-26 4 -14 41 4 1
-26 4 14 32 5 1
-4 -26 14 37 4 1
-26 4 14 43 5 1
-26 6 -14 1 2 1
-6 -26 14 0 2 1
-26 6 14 0 2 1
-26 6 14 2 2 1
-1 0 -15 3425 141 1
1 0 -15 3536 141 1
0 -1 -15 3783 141 1
0 1 -15 3716 141 1
1 0 -15 3761 142 1
0 1 -15 3792 141 1
0 -1 -15 3717 141 1
1 0 15 3658 141 1
1 0 15 3685 141 1
0 1 15 3657 141 1
1 -2 -15 444 27 1
1 -2 -15 427 27 1
2 1 -15 443 27 1
-2 -1 -15 393 27 1
-2 -1 -15 415 27 1
-1 2 -15 407 27 1
2 1 -15 455 27 1
1 2 -15 1843 64 1
-1 -2 -15 1887 64 1
-1 -2 -15 1905 64 1
-2 1 -15 1966 64 1
2 -1 -15 1695 64 1
2 -1 -15 1882 64 1
2 -1 15 1937 64 1
1 2 15 1796 64 1
-1 -2 15 1713 71 1
2 -1 15 1980 64 1
-3 -2 -15 11 9 1
-2 3 -15 10 9 1
3 2 -15 15 9 1
2 -3 -15 9 9 1
-3 -2 -15 12 9 1
3 2 15 14 8 1
3 0 -15 893 44 1
0 -3 -15 794 44 1
0 3 -15 812 44 1
-3 0 -15 870 44 1
3 0 -15 899 44 1
-3 0 -15 879 44 1
0 3 15 772 44 1
3 0 15 915 44 1
-3 0 15 944 49 1
0 -3 15 741 49 1
3 -2 -15 2689 82 1
2 3 -15 2562 82 1
-3 2 -15 2587 83 1
-2 -3 -15 2741 83 1
-2 -3 -15 2566 82 1
3 -2 15 2656 91 1
2 3 15 2609 82 1
3 -2 15 2512 82 1
-2 -3 15 2730 91 1
3 -2 15 2608 82 1
-3 4 -15 17 3 1
-4 -3 -15 8 2 1
4 3 -15 15 3 1
3 -4 -15 16 3 1
-3 4 15 20 2 1
-4 -3 15 16 3 1
-3 4 15 21 2 1
3 -4 15 13 2 1
3 -4 15 14 6 1
-1 4 -15 878 28 1
-4 -1 -15 791 28 1
4 1 -15 788 28 1
4 1 -15 826 27 1
4 1 15 826 27 1
1 -4 15 858 30 1
-1 4 15 866 27 1
-1 -4 -15 350 16 1
4 -1 -15 328 16 1
4 -1 -15 338 16 1
-4 1 -15 337 16 1
-1 -4 -15 345 16 1
4 -1 15 298 17 1
-1 -4 15 346 17 1
1 4 15 342 16 1
4 -1 15 312 16 1
4 -3 -15 6302 255 1
-4 3 -15 6730 255 1
-3 -4 -15 6400 255 1
4 -3 15 6605 255 1
4 -3 15 6438 282 1
-3 -4 15 6675 282 1
-4 5 -15 9639 350 1
4 -5 -15 9572 350 1
5 4 -15 9423 349 1
-5 -4 -15 9442 350 1
4 -5 15 9254 350 1
4 -5 15 9254 350 1
-4 5 15 9477 350 1
4 -5 15 9188 396 1
-4 5 15 9902 349 1
5 2 -15 1639 61 1
2 -5 -15 1639 61 1
-5 -2 -15 1567 61 1
-2 5 -15 1564 62 1
-5 -2 -15 1589 62 1
2 -5 15 1572 68 1
5 0 -15 892 23 1
-5 0 -15 978 24 1
0 -5 -15 957 23 1
0 5 -15 980 24 1
-5 0 -15 926 24 1
0 5 15 944 23 1
5 0 15 951 27 1
5 -2 -15 124 14 1
5 -2 -15 134 13 1
-2 -5 -15 135 14 1
-5 2 -15 155 14 1
2 5 15 160 13 1
-2 -5 15 137 15 1
5 -2 15 136 13 1
5 -4 -15 1926 80 1
-5 4 -15 1918 80 1
-4 -5 -15 1970 80 1
5 -4 15 1914 80 1
-5 4 15 1989 89 1
4 5 15 1956 80 1
5 -4 15 1893 88 1
5 -6 -15 7341 261 1
5 -6 -15 6982 262 1
-6 -5 -15 7036 262 1
-5 6 -15 7211 262 1
-6 -5 -15 6546 262 1
6 5 -15 7006 261 1
-5 6 15 7491 261 1
-5 6 15 7332 261 1
5 -6 15 7183 261 1
3 -6 -15 178 17 1
-3 6 -15 200 17 1
6 3 -15 177 16 1
-6 -3 -15 188 17 1
3 -6 -15 181 17 1
-3 6 15 184 16 1
6 3 15 172 20 1
-6 -3 15 194 19 1
-6 -1 -15 724 12 1
-1 6 -15 695 13 1
6 1 -15 703 12 1
1 -6 -15 707 12 1
-6 -1 -15 695 13 1
6 1 15 677 15 1
6 1 15 683 12 1
1 -6 15 695 13 1
-6 -1 15 696 15 1
-1 6 15 705 12 1
-6 -1 15 703 14 1
6 -1 -15 2046 94 1
1 6 -15 1984 94 1
-1 -6 -15 1875 94 1
6 -1 -15 1928 94 1
-6 1 15 2120 107 1
1 6 15 1902 94 1
-1 -6 15 2046 104 1
6 -1 15 1912 107 1
-6 3 -15 37 3 1
6 -3 -15 36 2 1
-3 -6 -15 36 2 1
-3 -6 15 29 3 1
6 -3 15 39 5 1
6 -3 15 36 2 1
-6 3 15 36 6 1
3 6 15 48 2 1
6 -5 -15 416 8 1
6 -5 -15 419 7 1
-6 5 -15 425 8 1
6 -5 15 395 10 1
-6 5 15 378 9 1
-6 5 15 376 10 1
6 -5 15 394 8 1
6 -7 -15 1226 45 1
-6 7 -15 1194 46 1
7 6 -15 1183 45 1
-7 -6 -15 1185 46 1
-7 -6 15 1238 50 1
6 -7 15 1201 45 1
4 -7 -15 67 6 1
-7 -4 -15 83 6 1
7 4 -15 69 6 1
-7 -4 -15 77 6 1
-4 7 -15 81 7 1
-4 7 15 62 9 1
-7 -4 15 72 7 1
4 -7 15 69 9 1
-4 7 15 70 5 1
-7 -4 15 61 10 1
2 -7 -15 745 35 1
7 2 -15 680 35 1
2 -7 -15 734 35 1
-2 7 -15 734 35 1
-7 -2 -15 654 35 1
7 2 15 708 35 1
-7 -2 15 619 39 1
-2 7 15 733 35 1
2 -7 15 747 38 1
0 7 -15 11497 440 1
-7 0 -15 10882 440 1
7 0 -15 11383 439 1
0 -7 -15 11025 440 1
0 -7 -15 11620 441 1
0 7 15 11170 442 1
-2 -7 -15 1093 41 1
-7 2 -15 990 41 1
7 -2 -15 951 40 1
-2 -7 -15 1101 41 1
-7 2 15 950 46 1
-2 -7 15 1099 45 1
7 -4 -15 121 1 1
7 -4 -15 104 2 1
-4 -7 -15 159 1 1
-7 4 -15 102 1 1
-4 -7 15 96 1 1
-7 4 15 109 2 1
-7 4 15 97 2 1
7 -4 15 102 2 1
7 -4 15 84 1 1
-6 -7 -15 676 22 1
-7 6 -15 751 22 1
7 -6 -15 769 22 1
7 -6 -15 765 22 1
6 7 15 693 27 1
7 -6 15 734 24 1
-7 6 15 754 25 1
7 -8 -15 263 11 1
7 -8 -15 248 11 1
-7 8 -15 258 12 1
-8 -7 -15 233 11 1
-8 -7 -15 214 11 1
-7 8 15 239 13 1
7 -8 15 256 11 1
8 7 15 245 16 1
-7 8 15 235 14 1
-8 -7 15 271 13 1
8 7 15 259 11 1
-8 -5 -15 461 15 1
-5 8 -15 481 15 1
5 -8 -15 467 14 1
-8 -5 -15 468 15 1
5 -8 -15 515 15 1
-5 8 15 487 17 1
-5 8 15 506 18 1
-5 8 15 500 14 1
5 -8 15 465 14 1
-8 -5 15 477 16 1
3 -8 -15 2494 80 1
-8 -3 -15 2601 80 1
8 3 15 2576 80 1
-3 8 15 2620 80 1
-8 -3 15 2718 91 1
-3 8 15 2547 89 1
3 -8 15 2532 91 1
-8 -3 15 2549 89 1
8 1 -15 755 34 1
-8 -1 -15 748 34 1
-8 -1 -15 763 34 1
-1 8 -15 804 35 1
1 -8 -15 779 34 1
1 -8 -15 828 34 1
1 -8 15 791 37 1
-8 -1 15 768 40 1
-1 8 15 767 38 1
8 1 15 754 39 1
-1 8 15 787 34 1
1 -8 15 719 39 1
8 1 15 778 34 1
8 -1 -15 1006 24 1
-1 -8 -15 1078 24 1
-1 -8 -15 1095 24 1
1 8 15 1021 27 1
8 -1 15 1009 24 1
1 8 15 1029 29 1
8 -1 15 999 28 1
-1 -8 15 1040 26 1
1 8 15 1023 24 1
-3 -8 -15 992 34 1
-3 -8 -15 1070 34 1
-3 -8 15 1053 38 1
-8 3 15 1070 39 1
3 8 15 1050 34 1
8 -3 15 982 39 1
-8 5 -15 303 20 1
-5 -8 -15 316 19 1
8 -5 15 319 21 1
5 8 15 326 19 1
8 -5 15 292 19 1
-8 7 -15 26 3 1
8 -7 -15 15 3 1
8 -7 -15 20 4 1
-8 7 15 12 5 1
7 8 15 33 4 1
8 -7 15 27 3 1
-8 7 15 21 6 1
-7 -8 15 29 4 1
7 8 15 32 11 1
-9 -8 -15 1214 32 1
-8 9 -15 1155 33 1
8 -9 -15 1179 32 1
-9 -8 -15 1197 32 1
8 -9 -15 1238 32 1
9 8 15 1258 32 1
9 8 15 1239 38 1
-9 -8 15 1171 36 1
-8 9 15 1203 36 1
8 -9 15 1251 32 1
-8 9 15 1169 37 1
-6 9 -15 1539 44 1
-9 -6 -15 1575 43 1
6 -9 -15 1527 43 1
6 -9 -15 1569 43 1
-9 -6 -15 1577 43 1
-9 -6 15 1443 48 1
9 6 15 1597 43 1
-6 9 15 1482 43 1
4 -9 -15 843 35 1
-4 9 -15 822 35 1
-9 -4 -15 782 35 1
-9 -4 -15 788 35 1
4 -9 -15 791 35 1
-9 -4 15 792 40 1
-4 9 15 792 35 1
9 4 15 810 35 1
-4 9 15 818 39 1
-9 -4 15 804 39 1
2 -9 -15 146 13 1
-9 -2 -15 166 13 1
-2 9 -15 155 14 1
2 -9 -15 145 13 1
-9 -2 15 160 16 1
2 -9 15 136 16 1
9 2 15 153 16 1
-2 9 15 116 16 1
-9 -2 15 155 15 1
-2 9 15 131 13 1
0 -9 -15 49 2 1
-9 0 -15 162 2 1
-9 0 15 207 2 1
0 9 15 50 3 1
-9 0 15 219 2 1
0 -9 15 139 3 1
9 0 15 175 2 1
0 9 15 51 2 1
0 9 15 51 3 1
-2 -9 -15 844 28 1
9 -2 -15 897 27 1
2 9 15 831 28 1
9 -2 15 907 28 1
-9 2 15 970 32 1
-2 -9 15 942 30 1
-9 2 15 956 31 1
-9 4 -15 3058 142 1
9 -4 -15 3114 141 1
9 -4 -15 2876 142 1
-4 -9 -15 3143 141 1
-4 -9 -15 3073 141 1
4 9 15 3209 161 1
-9 4 15 3010 157 1
-4 -9 15 3176 156 1
9 -4 15 2957 141 1
-6 -9 -15 851 26 1
9 -6 -15 922 27 1
-6 -9 15 838 29 1
9 -6 15 820 26 1
-9 6 15 824 30 1
9 -6 15 832 29 1
-8 -9 -15 30 4 1
-8 -9 -15 32 4 1
9 -8 -15 11 4 1
-9 8 -15 17 5 1
-9 8 15 12 7 1
9 -8 15 11 4 1
8 9 15 18 5 1
-8 -9 15 11 5 1
-9 8 15 14 6 1
-10 -9 -15 21 2 1
9 -10 -15 5 2 1
-9 10 -15 26 2 1
9 -10 -15 8 1 1
-10 -9 15 13 2 1
-9 10 15 10 2 1
-9 10 15 20 3 1
-7 10 -15 1723 73 1
-10 -7 -15 1706 72 1
7 -10 -15 1794 72 1
10 7 15 1722 82 1
-10 -7 15 1649 80 1
7 -10 15 1729 71 1
-7 10 15 1708 71 1
10 7 15 1709 72 1
-5 10 -15 660 37 1
-10 -5 -15 601 37 1
5 -10 -15 697 37 1
5 -10 -15 668 37 1
-5 10 15 614 42 1
-10 -5 15 617 41 1
10 5 15 664 37 1
-5 10 15 643 36 1
10 5 15 613 42 1
-10 -5 15 645 43 1
3 -10 -15 943 51 1
-3 10 -15 971 51 1
3 -10 -15 933 51 1
-10 -3 -15 947 51 1
-10 -3 -15 1004 51 1
-10 -3 15 894 57 1
-3 10 15 904 51 1
10 3 15 1020 51 1
-3 10 15 916 58 1
-10 -1 -15 117 5 1
1 -10 -15 101 4 1
-10 -1 -15 104 4 1
1 -10 15 105 8 1
-1 10 15 130 8 1
-10 -1 15 120 6 1
-1 10 15 127 4 1
10 1 15 121 4 1
-10 -1 15 90 7 1
-1 -10 -15 861 29 1
-1 -10 -15 866 27 1
-1 -10 -15 895 27 1
-10 1 -15 858 31 1
-10 1 -15 845 27 1
-10 1 -15 876 27 1
1 10 15 903 27 1
1 10 15 956 30 1
10 -1 15 906 27 1
-1 -10 15 847 32 1
-3 -10 -15 1569 42 1
-10 3 -15 1497 48 1
-3 -10 -15 1588 42 1
-10 3 -15 1599 43 1
10 -3 15 1496 42 1
-5 -10 -15 2953 117 1
-10 5 -15 3086 117 1
-10 5 -15 2896 130 1
10 -5 -15 2932 116 1
-5 -10 -15 3121 117 1
10 -5 15 2766 117 1
5 10 15 2878 133 1
5 10 15 2876 117 1
-7 -10 -15 72 3 1
-7 -10 -15 86 3 1
10 -7 -15 111 3 1
10 -7 -15 109 4 1
-10 7 -15 82 5 1
10 -7 15 93 3 1
-10 7 15 94 5 1
-10 7 15 98 6 1
-10 9 -15 634 28 1
-9 -10 -15 594 27 1
-9 -10 -15 579 27 1
10 -9 -15 599 28 1
-10 9 15 589 32 1
10 -9 15 604 27 1
-11 -10 -15 986 42 1
-11 -10 -15 989 41 1
10 -11 -15 1042 42 1
-10 11 15 1102 48 1
-10 11 15 1088 47 1
10 -11 15 970 41 1
-11 -8 -15 602 17 1
-8 11 -15 626 18 1
8 -11 -15 585 17 1
-11 -8 -15 616 17 1
8 -11 -15 601 17 1
11 8 15 603 17 1
-11 -8 15 616 19 1
-8 11 15 619 20 1
-8 11 15 635 16 1
8 -11 15 608 16 1
6 -11 -15 7801 298 1
-6 11 -15 8180 299 1
6 -11 -15 8310 298 1
-11 -6 -15 8144 298 1
-11 -6 -15 7706 298 1
11 6 15 8027 298 1
-11 -6 15 7323 337 1
-11 -4 -15 1030 24 1
-4 11 -15 1021 25 1
4 -11 -15 1042 24 1
-11 -4 -15 972 24 1
4 -11 -15 999 27 1
4 -11 -15 1002 24 1
-4 11 15 1057 28 1
-11 -4 15 986 27 1
-11 -4 15 957 29 1
-4 11 15 1075 24 1
-2 11 -15 4389 145 1
-11 -2 -15 4398 144 1
2 -11 -15 4144 146 1
-11 -2 15 4267 160 1
-11 -2 15 4263 163 1
-2 11 15 4233 163 1
11 2 15 4177 144 1
-11 0 -15 9 3 1
-11 0 -15 7 7 1
0 -11 -15 6 3 1
0 -11 -15 8 4 1
-11 0 -15 9 4 1
0 -11 -15 7 8 1
0 11 15 6 3 1
0 11 15 4 8 1
-11 0 15 16 7 1
-11 0 15 11 5 1
-11 2 -15 30 7 1
-2 -11 -15 25 7 1
-11 2 -15 36 10 1
-2 -11 -15 31 10 1
-11 2 15 39 12 1
2 11 15 38 12 1
2 11 15 44 9 1
2 11 15 41 7 1
-11 2 15 28 9 1
-4 -11 -15 49 3 1
-11 4 -15 56 5 1
-11 4 -15 65 9 1
-11 4 15 40 5 1
11 -4 15 56 4 1
4 11 15 54 5 1
4 11 15 54 4 1
-11 4 15 47 7 1
-11 4 15 44 6 1
11 -6 -15 413 17 1
-11 6 -15 443 21 1
-6 -11 -15 432 16 1
-11 6 -15 462 17 1
11 -6 15 415 17 1
-11 6 15 436 20 1
6 11 15 436 17 1
-11 6 15 416 20 1
-8 -11 -15 932 40 1
-11 8 -15 888 41 1
-8 -11 -15 948 40 1
-11 8 15 928 45 1
11 -8 15 877 40 1
8 11 15 930 40 1
-11 8 15 911 45 1
11 -10 -15 2 3 1
-10 -11 -15 2 1 1
-10 -11 -15 2 2 1
-11 10 -15 7 2 1
11 -10 15 1 1 1
-11 10 15 2 3 1
10 11 15 2 2 1
-11 10 15 0 3 1
-12 -11 -15 136 7 1
11 -12 -15 147 8 1
-12 -11 -15 122 5 1
-11 12 -15 147 8 1
-11 12 15 133 9 1
11 -12 15 139 5 1
12 11 15 130 7 1
-11 12 15 118 9 1
9 -12 -15 316 14 1
-12 -9 -15 294 14 1
-9 12 -15 322 15 1
-9 12 15 321 16 1
12 9 15 323 14 1
9 -12 15 341 13 1
-9 12 15 313 13 1
7 -12 -15 1968 96 1
-12 -7 -15 2013 96 1
-7 12 -15 2108 97 1
-12 -7 -15 2066 96 1
-7 12 15 1906 110 1
-7 12 15 2112 96 1
12 7 15 1967 96 1
-12 -7 15 1877 107 1
-7 12 15 1861 107 1
5 -12 -15 1182 40 1
-12 -5 -15 1236 38 1
5 -12 -15 1308 38 1
5 -12 -15 1205 38 1
-5 12 -15 1310 39 1
-5 12 15 1196 43 1
-5 12 15 1228 37 1
12 5 15 1322 38 1
-12 -3 -15 4916 165 1
-3 12 -15 4878 166 1
3 -12 -15 4540 168 1
3 -12 -15 4816 165 1
-3 12 15 4883 165 1
12 3 15 4497 165 1
-12 -1 -15 414 37 1
1 -12 -15 404 32 1
-12 -1 -15 364 32 1
1 -12 -15 415 32 1
-12 -1 -15 388 32 1
-12 -1 15 392 37 1
12 1 15 389 32 1
1 -12 15 374 33 1
-1 12 15 374 32 1
-1 -12 -15 1643 65 1
-12 1 -15 1685 65 1
-12 1 -15 1726 73 1
-1 -12 -15 1663 65 1
-1 -12 -15 1641 67 1
-12 1 -15 1564 65 1
-12 1 15 1702 74 1
-1 -12 15 1716 66 1
1 12 15 1694 74 1
1 12 15 1688 65 1
12 -1 15 1633 65 1
-12 1 15 1751 73 1
1 12 15 1707 72 1
-3 -12 -15 1095 41 1
-3 -12 -15 1100 43 1
-12 3 -15 1040 46 1
-3 -12 15 1066 43 1
-12 3 15 1101 47 1
3 12 15 1019 48 1
-12 3 15 1032 46 1
3 12 15 1126 41 1
12 -3 15 1006 41 1
-12 5 -15 25 4 1
-5 -12 -15 19 4 1
-5 -12 -15 24 4 1
-12 5 15 20 6 1
5 12 15 16 4 1
12 -5 15 20 4 1
-12 5 15 20 5 1
-5 -12 15 13 5 1
12 -7 -15 558 27 1
-7 -12 -15 530 26 1
-12 7 -15 553 27 1
-7 -12 -15 551 26 1
-12 7 15 518 29 1
-12 7 15 527 30 1
7 12 15 576 26 1
-9 -12 -15 323 19 1
-9 -12 -15 312 18 1
-12 9 -15 344 23 1
12 -9 -15 315 19 1
-12 9 -15 319 19 1
9 12 15 290 19 1
-12 9 15 345 21 1
12 -9 15 329 18 1
-12 9 15 326 21 1
12 -11 -15 36 7 1
-11 -12 -15 35 4 1
-11 -12 -15 39 6 1
-12 11 -15 38 7 1
-12 11 15 32 7 1
12 -11 15 38 5 1
-12 11 15 41 8 1
11 12 15 33 6 1
12 -13 -15 1330 57 1
-13 -12 -15 1339 55 1
-12 13 -15 1281 57 1
-13 -12 -15 1357 56 1
13 12 15 1363 57 1
12 -13 15 1329 56 1
12 -13 15 1368 57 1
-10 13 -15 45 3 1
10 -13 -15 55 6 1
-13 -10 -15 50 3 1
-10 13 15 64 6 1
-10 13 15 49 4 1
13 10 15 53 5 1
8 -13 -15 91 5 1
-13 -8 -15 66 4 1
-13 -8 -15 84 5 1
8 -13 -15 74 5 1
-8 13 -15 98 6 1
-8 13 15 75 7 1
13 8 15 60 5 1
-8 13 15 78 4 1
-13 -6 -15 672 21 1
6 -13 -15 658 24 1
-6 13 -15 694 23 1
6 -13 -15 667 21 1
6 -13 -15 666 21 1
-6 13 15 641 21 1
-13 -6 15 669 24 1
-6 13 15 640 25 1
-6 13 15 646 24 1
13 6 15 661 21 1
-4 13 -15 2607 93 1
4 -13 -15 2422 92 1
4 -13 -15 2466 92 1
-13 -4 -15 2523 91 1
-4 13 15 2385 91 1
-13 -4 15 2555 104 1
4 -13 15 2508 93 1
13 4 15 2519 92 1
-13 -4 15 2613 102 1
-13 -2 -15 10 5 1
2 -13 -15 5 9 1
2 -13 -15 10 5 1
-13 -2 -15 11 5 1
-2 13 15 14 9 1
13 2 15 10 5 1
-2 13 15 14 5 1
-13 -2 15 4 8 1
-2 13 15 10 6 1
0 -13 -15 235 6 1
-13 0 -15 210 9 1
-13 0 -15 215 6 1
0 -13 -15 235 10 1
-13 0 -15 219 6 1
0 -13 -15 216 7 1
13 0 15 222 7 1
0 13 15 223 6 1
-13 0 15 206 9 1
0 13 15 240 12 1
0 -13 15 210 8 1
-13 2 -15 1345 61 1
-2 -13 -15 1298 60 1
-2 -13 -15 1288 60 1
-2 -13 -15 1264 62 1
-13 2 -15 1257 67 1
-13 2 -15 1339 60 1
-13 2 15 1273 68 1
2 13 15 1275 60 1
-13 2 15 1351 67 1
-2 -13 15 1256 61 1
2 13 15 1225 69 1
-13 4 -15 854 42 1
-4 -13 -15 863 41 1
-4 -13 -15 876 43 1
-13 4 -15 886 47 1
-4 -13 -15 880 41 1
-4 -13 15 880 43 1
-13 4 15 878 48 1
4 13 15 928 41 1
-13 4 15 867 46 1
13 -4 15 832 41 1
-6 -13 -15 44 9 1
-13 6 -15 43 12 1
-6 -13 -15 44 9 1
-13 6 -15 49 10 1
13 -6 15 42 9 1
-13 6 15 44 11 1
6 13 15 37 9 1
-13 6 15 56 11 1
-13 8 -15 79 7 1
-8 -13 -15 95 7 1
-8 -13 -15 93 6 1
-13 8 -15 87 11 1
13 -8 -15 87 10 1
-13 8 15 81 8 1
8 13 15 98 7 1
13 -8 15 72 6 1
-13 8 15 75 9 1
-13 8 15 77 9 1
-13 10 -15 988 41 1
-10 -13 -15 986 36 1
-10 -13 -15 934 35 1
-13 10 -15 924 37 1
-13 10 15 1003 42 1
-13 10 15 926 40 1
13 -10 15 1027 36 1
10 13 15 953 36 1
13 -12 -15 637 35 1
-12 -13 -15 571 34 1
-12 -13 -15 591 32 1
-13 12 -15 606 35 1
-13 12 15 621 39 1
13 -12 15 615 33 1
-13 12 15 629 39 1
-14 -13 -15 0 3 1
13 -14 -15 1 3 1
-13 14 -15 6 3 1
13 -14 15 2 2 1
-13 14 15 8 5 1
13 -14 15 1 2 1
14 13 15 6 3 1
-13 14 15 1 2 1
-11 14 -15 17 3 1
-14 -11 -15 1 3 1
11 -14 -15 5 3 1
11 -14 15 4 2 1
-11 14 15 9 4 1
14 11 15 1 3 1
11 -14 15 2 2 1
-11 14 15 7 3 1
-14 -9 -15 189 11 1
-9 14 -15 179 14 1
9 -14 -15 182 13 1
-9 14 15 187 15 1
9 -14 15 197 13 1
14 9 15 190 13 1
-9 14 15 204 15 1
-14 -7 -15 6756 258 1
7 -14 -15 7056 258 1
-14 -7 -15 6806 258 1
-7 14 -15 6643 259 1
7 -14 -15 6862 262 1
7 -14 -15 6851 258 1
-7 14 15 7048 258 1
-14 -7 15 7310 286 1
-5 14 -15 749 33 1
-14 -5 -15 795 31 1
-14 -5 -15 737 31 1
5 -14 -15 722 31 1
5 -14 -15 749 33 1
-14 -5 15 755 37 1
5 -14 15 789 32 1
-5 14 15 729 31 1
-5 14 15 723 36 1
-14 -5 15 771 35 1
3 -14 -15 1483 69 1
-3 14 -15 1581 70 1
3 -14 -15 1544 69 1
3 -14 -15 1670 71 1
-14 -3 -15 1509 68 1
-14 -3 -15 1515 69 1
-3 14 15 1471 78 1
3 -14 15 1569 70 1
-3 14 15 1569 69 1
1 -14 -15 100 9 1
1 -14 -15 80 5 1
-14 -1 -15 69 6 1
1 -14 -15 87 6 1
-14 -1 -15 70 8 1
-14 -1 -15 81 5 1
14 1 15 85 6 1
-1 14 15 80 5 1
-14 -1 15 66 7 1
-1 14 15 83 7 1
1 -14 15 59 7 1
-14 1 -15 95 7 1
-1 -14 -15 69 4 1
-14 1 -15 82 4 1
-14 1 -15 89 5 1
-1 -14 -15 85 7 1
1 14 15 90 4 1
-14 1 15 71 5 1
-14 1 15 79 6 1
-1 -14 15 68 7 1
1 14 15 84 5 1
14 -1 15 77 4 1
-3 -14 -15 1580 65 1
-14 3 -15 1558 73 1
-14 3 -15 1603 65 1
-3 -14 -15 1617 67 1
-3 -14 -15 1640 65 1
-14 3 -15 1579 65 1
-3 -14 15 1644 66 1
3 14 15 1617 72 1
3 14 15 1607 65 1
-14 3 15 1713 74 1
-5 -14 -15 395 13 1
-14 5 -15 389 14 1
-5 -14 -15 409 13 1
-14 5 15 422 16 1
5 14 15 405 13 1
-14 5 15 435 16 1
14 -5 15 414 14 1
-5 -14 15 389 16 1
-14 7 -15 22 8 1
-7 -14 -15 16 4 1
-7 -14 -15 15 5 1
-14 7 -15 25 6 1
-14 7 15 30 7 1
7 14 15 21 5 1
-14 7 15 16 7 1
-14 7 15 25 7 1
-14 9 -15 0 4 1
14 -9 -15 1 4 1
-9 -14 -15 1 2 1
-14 9 -15 0 2 1
14 -9 15 1 2 1
9 14 15 1 2 1
-14 9 15 0 3 1
-14 9 15 2 4 1
-11 -14 -15 100 7 1
-14 11 -15 101 12 1
-14 11 -15 114 8 1
14 -11 -15 90 10 1
-14 11 15 99 10 1
11 14 15 93 8 1
14 -11 15 103 6 1
-14 11 15 102 9 1
-13 -14 -15 364 14 1
14 -13 -15 364 15 1
-14 13 -15 351 15 1
14 -13 15 393 13 1
13 14 15 386 15 1
14 -13 15 411 15 1
14 -15 -15 116 12 1
-15 -14 -15 144 11 1
-14 15 -15 138 12 1
-14 15 15 122 12 1
14 -15 15 132 11 1
15 14 15 141 12 1
-14 15 15 126 17 1
14 -15 15 108 9 1
12 -15 -15 15 7 1
-12 15 -15 15 8 1
-15 -12 -15 9 6 1
-12 15 15 13 7 1
12 -15 15 23 6 1
15 12 15 9 7 1
-12 15 15 13 12 1
10 -15 -15 611 25 1
-10 15 -15 618 26 1
-15 -10 -15 603 24 1
-10 15 15 670 29 1
10 -15 15 653 25 1
15 10 15 603 25 1
-10 15 15 652 28 1
-10 15 15 631 23 1
-8 15 -15 925 38 1
8 -15 -15 936 37 1
8 -15 -15 930 39 1
-15 -8 -15 953 36 1
-15 -8 -15 933 37 1
-8 15 15 928 42 1
-8 15 15 994 43 1
15 8 15 972 37 1
-8 15 15 912 36 1
8 -15 15 957 38 1
6 -15 -15 2160 65 1
-15 -6 -15 2213 64 1
-15 -6 -15 2247 65 1
-6 15 -15 2179 66 1
6 -15 -15 2126 65 1
6 -15 -15 2086 67 1
15 6 15 2088 65 1
-6 15 15 2222 65 1
-15 -6 15 2239 72 1
-6 15 15 2180 72 1
6 -15 15 2192 66 1
-15 -4 -15 4811 182 1
-15 -4 -15 4969 183 1
4 -15 -15 4890 186 1
4 -15 -15 4674 183 1
-15 -4 -15 4737 203 1
-4 15 15 5091 203 1
-4 15 15 4860 183 1
-4 15 15 4971 207 1
-15 -2 -15 57 2 1
-15 -2 -15 54 3 1
-15 -2 15 59 3 1
2 -15 15 85 2 1
-2 15 15 81 2 1
15 2 15 58 2 1
-2 15 15 63 4 1
-15 -2 15 65 3 1
0 -15 -15 1840 62 1
0 -15 -15 1892 65 1
0 -15 -15 1835 63 1
-15 0 -15 1740 62 1
-15 0 -15 1899 70 1
-15 0 -15 1801 63 1
0 -15 15 1831 64 1
15 0 15 1825 63 1
0 15 15 1762 63 1
-15 0 15 1798 70 1
-15 0 15 1831 71 1
-2 -15 -15 45 5 1
-15 2 -15 40 7 1
-15 2 -15 31 4 1
-2 -15 -15 39 4 1
-2 -15 -15 45 7 1
-15 2 -15 29 5 1
-15 2 15 45 7 1
-2 -15 15 36 7 1
-15 2 15 35 6 1
-15 2 15 42 8 1
15 -2 15 39 5 1
2 15 15 40 4 1
-15 4 -15 1 2 1
-15 4 -15 1 3 1
-4 -15 -15 2 2 1
-15 4 15 1 3 1
-15 4 15 1 3 1
-15 4 15 1 3 1
4 15 15 1 2 1
-4 -15 15 2 3 1
-15 6 -15 119 8 1
-6 -15 -15 96 7 1
-6 -15 -15 115 7 1
-15 6 15 109 9 1
-15 6 15 101 9 1
-15 6 15 123 10 1
15 -6 15 131 8 1
-6 -15 15 95 12 1
6 15 15 122 7 1
-15 8 -15 1156 40 1
-15 8 -15 1121 36 1
-8 -15 -15 1149 36 1
-8 -15 -15 1124 35 1
-15 8 15 1135 41 1
15 -8 15 1057 36 1
-15 8 15 1079 41 1
8 15 15 1071 36 1
-15 8 15 1098 40 1
-15 10 -15 95 13 1
-10 -15 -15 88 10 1
-10 -15 -15 96 8 1
-15 10 -15 91 10 1
15 -10 -15 104 13 1
-15 10 15 81 11 1
10 15 15 82 10 1
15 -10 15 82 9 1
-15 10 15 105 12 1
15 -12 -15 273 16 1
-15 12 -15 258 17 1
-15 12 -15 244 14 1
-12 -15 -15 240 14 1
-15 12 15 279 18 1
-15 12 15 260 17 1
12 15 15 257 14 1
15 -12 15 273 14 1
15 -12 15 232 13 1
15 -14 -15 4 4 1
-15 14 -15 4 3 1
15 -14 15 6 2 1
-15 14 15 5 7 1
-15 14 15 2 3 1
14 15 15 2 3 1
15 -14 15 9 6 1
15 -16 -15 0 4 1
-15 16 -15 0 3 1
15 -16 15 0 2 1
-15 16 15 1 3 1
16 15 15 1 4 1
13 -16 -15 116 9 1
-16 -13 -15 128 9 1
-13 16 -15 132 10 1
16 13 15 130 10 1
-13 16 15 128 10 1
-13 16 15 128 17 1
13 -16 15 141 9 1
11 -16 -15 738 25 1
-16 -11 -15 719 25 1
-11 16 -15 685 26 1
-11 16 15 667 28 1
16 11 15 720 25 1
-11 16 15 671 29 1
11 -16 15 679 25 1
9 -16 -15 165 16 1
-16 -9 -15 183 12 1
9 -16 -15 172 11 1
-9 16 -15 156 13 1
-9 16 15 189 11 1
-9 16 15 181 15 1
9 -16 15 175 12 1
16 9 15 183 12 1
-9 16 15 185 14 1
7 -16 -15 189 13 1
-7 16 -15 212 12 1
-16 -7 -15 182 9 1
-16 -7 -15 168 7 1
7 -16 -15 206 9 1
16 7 15 188 9 1
-7 16 15 180 8 1
-7 16 15 215 12 1
-7 16 15 174 11 1
7 -16 15 224 9 1
-16 -5 -15 13 3 1
-5 16 -15 24 5 1
-16 -5 -15 15 2 1
-16 -5 -15 19 3 1
5 -16 -15 13 2 1
-5 16 15 9 2 1
-5 16 15 14 4 1
-5 16 15 9 3 1
5 -16 15 14 2 1
-16 -5 15 9 4 1
16 5 15 20 3 1
3 -16 -15 2447 99 1
-16 -3 -15 2238 98 1
3 -16 -15 2392 99 1
-16 -3 -15 2395 99 1
-16 -3 -15 2256 110 1
-3 16 15 2358 112 1
3 -16 15 2315 100 1
-3 16 15 2260 110 1
-16 -1 -15 319 11 1
-16 -1 -15 313 14 1
-16 -1 -15 295 12 1
1 -16 -15 358 11 1
1 -16 -15 341 11 1
-16 -1 15 361 13 1
16 1 15 332 12 1
-1 16 15 320 13 1
-16 -1 15 311 14 1
-1 16 15 337 11 1
-16 1 -15 1 2 1
-1 -16 -15 1 2 1
-16 1 -15 1 2 1
-1 -16 -15 1 2 1
-1 -16 -15 4 3 1
-16 1 -15 1 2 1
16 -1 15 4 2 1
-16 1 15 1 3 1
1 16 15 1 3 1
-16 1 15 2 3 1
1 16 15 2 2 1
-16 1 15 1 2 1
-16 3 -15 240 18 1
-3 -16 -15 218 17 1
-16 3 -15 213 16 1
-3 -16 -15 216 15 1
-16 3 -15 212 15 1
-3 -16 -15 190 15 1
-3 -16 15 205 17 1
-16 3 15 195 18 1
3 16 15 237 18 1
3 16 15 247 16 1
16 -3 15 212 16 1
-16 3 15 182 18 1
-5 -16 -15 10 2 1
-16 5 -15 11 2 1
-16 5 -15 2 3 1
-5 -16 -15 11 2 1
-16 5 15 4 3 1
16 -5 15 2 2 1
5 16 15 10 3 1
-16 5 15 9 3 1
-5 -16 15 16 3 1
5 16 15 8 2 1
-16 5 15 9 3 1
-7 -16 -15 1486 62 1
-16 7 -15 1377 63 1
-16 7 -15 1422 69 1
-16 7 15 1528 70 1
-16 7 15 1332 71 1
-16 7 15 1382 69 1
16 -7 15 1459 62 1
-16 9 -15 221 8 1
-16 9 -15 245 11 1
-9 -16 -15 208 6 1
-9 -16 -15 207 8 1
-16 9 15 223 10 1
-16 9 15 195 9 1
9 16 15 188 8 1
16 -9 15 201 7 1
-16 9 15 206 11 1
-11 -16 -15 818 32 1
-16 11 -15 857 33 1
-16 11 -15 874 36 1
11 16 15 829 33 1
16 -11 15 875 32 1
-16 11 15 809 37 1
16 -13 -15 10 5 1
-16 13 -15 8 3 1
16 -13 15 6 2 1
16 -13 15 9 2 1
-16 13 15 16 7 1
-16 13 15 19 6 1
13 16 15 4 3 1
-16 15 -15 11 3 1
16 -15 15 13 6 1
16 -15 15 11 6 1
-16 15 15 8 3 1
15 16 15 9 4 1
-16 17 -15 285 15 1
16 -17 -15 331 17 1
17 16 15 300 18 1
16 -17 15 329 14 1
-16 17 15 314 16 1
14 -17 -15 2104 79 1
-14 17 -15 1978 80 1
17 14 15 1934 80 1
14 -17 15 2066 80 1
-14 17 15 1929 90 1
12 -17 -15 42 7 1
-12 17 -15 40 9 1
-17 -12 -15 28 9 1
12 -17 15 42 7 1
-12 17 15 36 8 1
-17 -10 -15 40 4 1
-10 17 -15 24 4 1
10 -17 -15 18 2 1
10 -17 15 15 2 1
-10 17 15 30 2 1
-10 17 15 41 6 1
-10 17 15 41 3 1
17 10 15 19 3 1
-17 -8 -15 26 7 1
8 -17 -15 33 5 1
8 -17 -15 29 11 1
-8 17 -15 28 9 1
-17 -8 -15 23 8 1
17 8 15 26 7 1
8 -17 15 37 6 1
-8 17 15 25 5 1
-8 17 15 28 11 1
-8 17 15 24 8 1
-17 -6 -15 261 8 1
-17 -6 -15 266 12 1
6 -17 -15 264 13 1
-6 17 -15 282 13 1
6 -17 -15 281 10 1
-17 -6 -15 270 10 1
6 -17 15 312 10 1
-6 17 15 262 13 1
17 6 15 248 10 1
-6 17 15 273 9 1
4 -17 -15 3 8 1
-17 -4 -15 3 6 1
4 -17 -15 6 5 1
4 -17 -15 2 5 1
-17 -4 -15 3 4 1
-17 -4 15 5 7 1
17 4 15 5 5 1
-4 17 15 4 8 1
-4 17 15 3 10 1
4 -17 15 6 6 1
-17 -2 -15 127 4 1
-17 -2 -15 131 6 1
2 -17 -15 122 8 1
2 -17 -15 116 6 1
2 -17 -15 123 5 1
-17 -2 -15 109 8 1
17 2 15 122 6 1
-2 17 15 116 8 1
-17 -2 15 103 9 1
2 -17 15 119 6 1
-17 -2 15 107 7 1
-2 17 15 117 5 1
0 -17 -15 363 19 1
-17 0 -15 384 19 1
-17 0 -15 431 22 1
0 -17 -15 385 19 1
-17 0 -15 384 18 1
0 -17 -15 407 21 1
0 17 15 429 22 1
-17 0 15 407 22 1
0 17 15 383 19 1
-17 0 15 443 22 1
0 -17 15 372 20 1
-17 2 -15 121 10 1
-2 -17 -15 132 7 1
-17 2 -15 128 8 1
-2 -17 -15 142 8 1
-17 2 -15 133 9 1
-2 -17 -15 138 10 1
-17 2 15 137 10 1
-17 2 15 132 10 1
2 17 15 142 10 1
17 -2 15 132 8 1
-17 2 15 151 11 1
-2 -17 15 128 9 1
2 17 15 137 8 1
-4 -17 -15 490 22 1
-17 4 -15 509 21 1
-4 -17 -15 518 20 1
-4 -17 -15 491 21 1
-17 4 -15 517 24 1
-17 4 -15 532 22 1
4 17 15 485 21 1
-17 4 15 495 24 1
17 -4 15 497 21 1
4 17 15 482 24 1
-17 4 15 527 24 1
-4 -17 15 534 22 1
-6 -17 -15 37 4 1
-17 6 -15 42 5 1
-6 -17 -15 39 5 1
-17 6 -15 33 7 1
6 17 15 29 5 1
17 -6 15 30 5 1
-17 6 15 35 7 1
-6 -17 15 50 9 1
-17 6 15 36 7 1
-17 8 -15 399 21 1
-8 -17 -15 376 21 1
-17 8 -15 397 24 1
-8 -17 -15 389 20 1
17 -8 15 442 21 1
8 17 15 384 21 1
-17 8 15 405 25 1
-17 8 15 419 24 1
-17 10 -15 256 14 1
-17 10 -15 260 16 1
-10 -17 -15 257 14 1
10 17 15 262 14 1
-17 10 15 295 17 1
-17 10 15 269 16 1
-17 10 15 280 18 1
17 -10 15 263 14 1
17 -12 -15 428 24 1
-17 12 -15 415 21 1
-17 12 -15 409 23 1
-12 -17 -15 459 21 1
17 -12 15 422 20 1
-17 12 15 454 26 1
17 -12 15 412 21 1
12 17 15 418 21 1
-17 14 -15 472 20 1
17 -14 -15 503 23 1
17 -14 15 461 19 1
17 -14 15 480 19 1
14 17 15 461 21 1
-17 14 15 451 22 1
-17 16 -15 428 20 1
17 -16 -15 441 22 1
17 -16 15 449 19 1
16 17 15 412 22 1
-17 16 15 471 22 1
-18 -17 -15 107 8 1
17 -18 15 121 7 1
-17 18 15 138 8 1
15 -18 -15 823 33 1
-15 18 -15 827 33 1
-18 -15 -15 872 36 1
15 -18 15 881 32 1
-15 18 15 893 36 1
13 -18 -15 91 8 1
-18 -13 -15 98 8 1
-13 18 -15 87 9 1
18 13 15 91 10 1
-13 18 15 77 8 1
-11 18 -15 11 4 1
11 -18 -15 7 2 1
-18 -11 -15 6 2 1
11 -18 15 11 2 1
18 11 15 6 3 1
-11 18 15 13 3 1
-9 18 -15 49 5 1
-18 -9 -15 39 8 1
9 -18 -15 58 5 1
9 -18 15 51 6 1
-9 18 15 38 8 1
-18 -7 -15 232 11 1
7 -18 -15 239 10 1
-7 18 -15 227 14 1
-18 -7 -15 212 13 1
7 -18 -15 255 13 1
7 -18 15 235 11 1
18 7 15 222 11 1
-7 18 15 245 16 1
-7 18 15 223 13 1
-7 18 15 240 10 1
-18 -5 -15 537 23 1
5 -18 -15 530 21 1
-18 -5 -15 534 20 1
-5 18 -15 543 23 1
5 -18 -15 521 19 1
5 -18 15 531 20 1
-5 18 15 522 19 1
18 5 15 550 20 1
-5 18 15 544 24 1
-18 -3 -15 10 3 1
3 -18 -15 12 4 1
3 -18 -15 9 2 1
-18 -3 -15 5 3 1
3 -18 -15 9 3 1
3 -18 15 9 2 1
-18 -3 15 11 4 1
-3 18 15 8 2 1
-18 -1 -15 0 2 1
-18 -1 -15 1 3 1
-18 -1 -15 1 2 1
1 -18 -15 11 2 1
1 -18 -15 13 3 1
1 -18 -15 11 2 1
18 1 15 0 2 1
-18 -1 15 3 4 1
-18 -1 15 2 3 1
1 -18 15 32 2 1
-1 18 15 9 2 1
-18 -1 15 2 3 1
-1 18 15 3 4 1
-1 -18 -15 845 42 1
-18 1 -15 924 43 1
-1 -18 -15 861 45 1
-1 -18 -15 815 43 1
-18 1 -15 904 48 1
1 18 15 869 48 1
18 -1 15 890 43 1
-1 -18 15 870 44 1
1 18 15 813 43 1
-3 -18 -15 14 4 1
-18 3 -15 18 7 1
-3 -18 -15 15 7 1
-18 3 -15 17 7 1
-3 -18 -15 23 5 1
-18 3 -15 14 4 1
-18 3 15 18 7 1
-18 3 15 13 7 1
-3 -18 15 24 7 1
3 18 15 16 5 1
18 -3 15 13 5 1
-18 3 15 25 7 1
-18 5 -15 17 2 1
-5 -18 -15 27 4 1
-18 5 -15 25 3 1
-18 5 -15 11 3 1
-18 5 15 13 3 1
18 -5 15 19 2 1
5 18 15 14 4 1
-18 5 15 13 4 1
5 18 15 11 2 1
-18 5 15 16 3 1
-18 7 -15 458 21 1
-7 -18 -15 424 21 1
-7 -18 -15 437 19 1
-18 7 -15 432 23 1
-18 7 -15 471 22 1
-18 7 15 471 24 1
7 18 15 436 24 1
-7 -18 15 452 23 1
18 -7 15 477 21 1
-18 7 15 497 25 1
7 18 15 445 21 1
-9 -18 -15 367 14 1
-18 9 -15 350 16 1
-18 9 15 365 17 1
-18 9 15 359 18 1
-18 9 15 359 16 1
-11 -18 -15 35 5 1
-18 11 -15 29 4 1
-18 11 -15 27 3 1
-18 11 15 20 3 1
18 -11 15 30 3 1
11 18 15 22 3 1
-18 11 15 32 7 1
18 -11 15 30 3 1
-18 13 -15 218 13 1
18 -13 15 219 13 1
18 -13 15 204 12 1
13 18 15 215 14 1
-18 15 -15 1994 80 1
18 -15 -15 2058 82 1
18 -15 15 2148 80 1
15 18 15 2017 81 1
18 -15 15 1961 79 1
-18 17 15 4 2 1
18 -17 15 8 1 1
-19 -18 -15 53 5 1
-18 19 15 71 5 1
18 -19 15 58 4 1
-19 -16 -15 7 2 1
-16 19 15 9 2 1
16 -19 15 13 3 1
14 -19 -15 199 13 1
-14 19 -15 230 15 1
-19 -14 -15 227 13 1
19 14 15 232 16 1
-14 19 15 240 13 1
14 -19 15 227 12 1
-12 19 -15 31 10 1
12 -19 -15 54 7 1
-19 -12 -15 52 9 1
12 -19 15 37 6 1
19 12 15 35 11 1
10 -19 -15 465 17 1
-10 19 -15 473 20 1
-19 -10 -15 458 20 1
10 -19 15 460 17 1
19 10 15 458 19 1
-10 19 15 488 20 1
-8 19 -15 0 5 1
-19 -8 -15 1 3 1
8 -19 -15 0 3 1
8 -19 -15 1 2 1
-8 19 15 1 3 1
8 -19 15 0 2 1
19 8 15 1 3 1
6 -19 -15 5 2 1
-19 -6 -15 4 3 1
-6 19 -15 4 5 1
6 -19 -15 4 3 1
6 -19 15 4 2 1
19 6 15 2 3 1
-6 19 15 4 4 1
-6 19 15 4 7 1
-6 19 15 4 2 1
4 -19 -15 50 9 1
-19 -4 -15 65 8 1
-19 -4 -15 54 8 1
4 -19 -15 63 6 1
-4 19 15 75 12 1
4 -19 15 50 7 1
19 4 15 56 7 1
-4 19 15 64 6 1
-19 -2 -15 1947 77 1
-19 -2 -15 1911 69 1
2 -19 -15 1870 69 1
-19 -2 -15 1913 68 1
2 -19 -15 1909 69 1
-2 19 15 1849 77 1
-19 -2 15 1769 77 1
-2 19 15 1956 69 1
2 -19 15 1855 70 1
-19 -2 15 1828 78 1
19 2 15 1943 69 1
-19 0 -15 301 13 1
0 -19 -15 305 12 1
-19 0 -15 312 11 1
0 -19 -15 342 14 1
0 -19 -15 321 11 1
-19 0 -15 304 14 1
-19 0 15 309 14 1
-19 0 15 306 14 1
0 19 15 307 15 1
0 19 15 316 12 1
0 -19 15 300 12 1
-19 0 15 336 15 1
19 0 15 301 12 1
-19 2 -15 532 23 1
-19 2 -15 489 24 1
-2 -19 -15 538 22 1
-2 -19 -15 523 21 1
-19 2 -15 536 21 1
-2 -19 -15 541 23 1
-19 2 15 491 25 1
19 -2 15 510 22 1
-19 2 15 454 25 1
-19 2 15 497 25 1
2 19 15 530 22 1
-2 -19 15 530 22 1
2 19 15 571 25 1
-19 4 -15 12 5 1
-19 4 -15 13 8 1
-19 4 -15 17 6 1
4 19 15 23 9 1
-19 4 15 7 8 1
19 -4 15 15 5 1
-19 4 15 7 7 1
-19 6 -15 1950 71 1
-19 6 -15 1883 78 1
-19 6 -15 1889 70 1
-6 -19 -15 1823 70 1
-6 -19 -15 1799 68 1
-19 6 15 1823 80 1
-19 6 15 1919 79 1
-6 -19 15 1866 71 1
6 19 15 1757 70 1
6 19 15 1803 78 1
-19 8 -15 276 13 1
-19 8 -15 275 14 1
-8 -19 -15 265 13 1
-19 8 -15 268 15 1
8 19 15 283 13 1
19 -8 15 254 13 1
8 19 15 260 16 1
-19 8 15 277 14 1
-19 8 15 293 17 1
-10 -19 -15 247 11 1
-19 10 -15 243 10 1
-19 10 -15 233 12 1
-19 10 15 244 12 1
19 -10 15 234 11 1
19 -10 15 219 10 1
-19 10 15 251 12 1
-19 10 15 233 17 1
10 19 15 217 11 1
-19 12 -15 268 12 1
-12 -19 -15 230 11 1
-19 12 -15 251 11 1
19 -12 15 241 11 1
-19 12 15 262 13 1
19 -12 15 235 10 1
12 19 15 243 13 1
-19 14 -15 41 7 1
-19 14 15 37 5 1
19 -14 15 39 7 1
19 -16 15 2 1 1
-19 16 15 2 2 1
-18 -19 -15 18 4 1
-19 18 15 20 4 1
19 -18 15 9 1 1
-17 20 15 99 7 1
17 -20 15 94 6 1
-20 -15 -15 300 14 1
15 -20 15 328 13 1
-15 20 15 317 14 1
13 -20 -15 28 4 1
-13 20 -15 29 6 1
-13 20 15 32 5 1
11 -20 -15 285 13 1
-11 20 -15 250 16 1
20 11 15 264 16 1
11 -20 15 268 13 1
-20 -9 -15 450 20 1
9 -20 -15 439 17 1
-9 20 15 449 17 1
-9 20 15 498 21 1
20 9 15 420 19 1
9 -20 15 432 17 1
-7 20 -15 55 13 1
7 -20 -15 53 9 1
-20 -7 -15 42 8 1
7 -20 -15 50 6 1
20 7 15 50 8 1
-7 20 15 53 7 1
7 -20 15 45 7 1
-7 20 15 47 10 1
-20 -5 -15 165 15 1
5 -20 -15 229 15 1
5 -20 -15 204 12 1
20 5 15 201 14 1
-5 20 15 201 13 1
5 -20 15 220 13 1
3 -20 -15 4 3 1
-20 -3 -15 0 3 1
-3 20 15 0 7 1
-20 -3 15 2 4 1
3 -20 15 0 2 1
1 -20 -15 17 3 1
-20 -1 -15 6 7 1
-20 -1 15 14 4 1
-1 20 15 13 6 1
-20 -1 15 9 3 1
1 -20 15 27 2 1
20 1 15 17 3 1
-20 1 -15 169 10 1
-20 1 -15 155 9 1
-1 -20 -15 187 7 1
-1 -20 -15 206 7 1
-1 -20 -15 187 9 1
-1 -20 15 222 8 1
-20 1 15 154 10 1
20 -1 15 152 8 1
1 20 15 199 12 1
-20 1 15 186 10 1
-20 1 15 158 10 1
-3 -20 -15 154 11 1
-20 3 -15 152 12 1
-20 3 -15 164 11 1
-3 -20 -15 167 10 1
-20 3 15 135 12 1
-20 3 15 149 12 1
-3 -20 15 162 11 1
3 20 15 182 14 1
-5 -20 -15 1063 44 1
-20 5 -15 1087 45 1
-20 5 -15 1087 43 1
-20 5 -15 1044 48 1
-5 -20 -15 1032 42 1
5 20 15 1047 50 1
-20 5 15 1140 50 1
-20 5 15 1149 50 1
-20 5 15 1106 49 1
20 -5 15 1100 44 1
5 20 15 1006 44 1
-5 -20 15 1118 45 1
-20 7 -15 64 8 1
-20 7 -15 69 7 1
-7 -20 -15 53 7 1
-20 7 -15 79 11 1
-20 7 15 60 12 1
-7 -20 15 77 10 1
-20 7 15 61 8 1
7 20 15 71 8 1
-20 7 15 57 9 1
20 -7 15 49 7 1
7 20 15 72 13 1
-20 9 -15 868 37 1
-20 9 -15 883 41 1
-9 -20 -15 823 38 1
-20 9 15 788 41 1
9 20 15 806 38 1
20 -9 15 878 38 1
-20 9 15 868 44 1
-20 11 -15 7 6 1
-20 11 -15 13 2 1
-11 -20 -15 25 4 1
20 -11 15 14 2 1
20 -11 15 14 3 1
11 20 15 4 4 1
-20 13 -15 381 20 1
-20 13 -15 397 21 1
20 -15 15 19 2 1
-20 15 15 24 2 1
-17 -20 -15 6 2 1
20 -17 15 8 2 1
-21 -16 -15 162 11 1
16 -21 15 161 9 1
-16 21 15 154 10 1
-21 -14 -15 33 5 1
14 -21 15 30 4 1
-14 21 15 36 5 1
-21 -12 -15 45 5 1
12 -21 -15 51 7 1
12 -21 15 41 5 1
-12 21 15 44 6 1
-10 21 -15 9 6 1
10 -21 -15 5 3 1
-21 -10 -15 3 2 1
21 10 15 6 5 1
10 -21 15 6 2 1
-21 -8 -15 162 13 1
8 -21 -15 156 13 1
8 -21 -15 138 11 1
-8 21 15 166 11 1
-8 21 15 135 12 1
8 -21 15 147 11 1
21 8 15 167 14 1
6 -21 -15 714 25 1
-21 -6 -15 773 27 1
6 -21 -15 689 23 1
-6 21 15 724 24 1
21 6 15 715 25 1
6 -21 15 704 24 1
4 -21 -15 28 5 1
4 -21 -15 23 8 1
-21 -4 -15 39 7 1
21 4 15 31 8 1
4 -21 15 28 6 1
-4 21 15 34 6 1
2 -21 -15 21 8 1
-21 -2 -15 25 8 1
2 -21 -15 14 5 1
-2 21 15 17 6 1
2 -21 15 14 6 1
21 2 15 8 7 1
-21 -2 15 15 10 1
0 -21 -15 21 5 1
0 -21 -15 20 8 1
-21 0 -15 13 8 1
-21 0 15 15 9 1
0 -21 15 19 7 1
-21 0 15 20 10 1
21 0 15 9 7 1
0 21 15 16 6 1
-2 -21 -15 0 2 1
-21 2 -15 0 2 1
-2 -21 -15 0 2 1
21 -2 15 3 3 1
-21 2 15 1 3 1
-2 -21 15 1 2 1
2 21 15 0 2 1
2 21 15 3 7 1
-21 2 15 0 3 1
-21 4 -15 471 23 1
-21 4 -15 495 19 1
-21 4 15 480 23 1
4 21 15 477 20 1
4 21 15 484 26 1
-4 -21 15 537 21 1
21 -4 15 456 21 1
-21 4 15 479 25 1
-21 4 15 513 23 1
-21 6 -15 144 11 1
-21 6 -15 156 9 1
-6 -21 -15 152 10 1
-21 6 15 179 15 1
-21 6 15 126 11 1
21 -6 15 159 10 1
-6 -21 15 162 11 1
-21 6 15 139 11 1
6 21 15 150 10 1
6 21 15 127 17 1
-21 8 -15 4 3 1
21 -8 15 1 3 1
8 21 15 0 3 1
-21 8 15 1 3 1
21 -8 15 2 3 1
-8 -21 15 0 3 1
-21 10 -15 483 23 1
-21 10 -15 451 22 1
-21 10 15 475 25 1
21 -10 15 463 22 1
10 21 15 428 23 1
-21 12 -15 92 6 1
21 -12 15 72 5 1
-21 12 15 65 6 1
21 -14 15 3 2 1
-21 14 15 4 2 1
21 -16 15 178 10 1
-21 16 15 194 11 1
-22 -15 -15 369 17 1
-15 22 15 341 16 1
15 -22 15 343 15 1
-22 -13 -15 237 11 1
-13 22 15 220 11 1
13 -22 15 242 9 1
-22 -11 -15 8 2 1
11 -22 15 6 1 1
-11 22 15 2 3 1
-22 -9 -15 47 5 1
9 -22 -15 36 6 1
9 -22 15 54 6 1
7 -22 -15 187 10 1
7 -22 -15 206 12 1
-22 -7 -15 178 11 1
22 7 15 180 14 1
-7 22 15 209 11 1
7 -22 15 214 10 1
5 -22 -15 34 5 1
-22 -5 -15 48 7 1
5 -22 -15 42 8 1
22 5 15 43 9 1
5 -22 15 48 6 1
3 -22 -15 137 9 1
-22 -3 -15 124 12 1
3 -22 -15 153 11 1
3 -22 15 138 10 1
22 3 15 118 11 1
1 -22 -15 1664 68 1
1 -22 -15 1776 71 1
-1 22 15 1611 69 1
1 -22 15 1632 70 1
22 1 15 1649 70 1
-1 -22 -15 31 2 1
-1 -22 -15 48 2 1
-22 1 -15 23 3 1
1 22 15 35 3 1
-22 1 15 49 3 1
-22 1 15 36 3 1
22 -1 15 42 3 1
-1 -22 15 45 2 1
-22 3 -15 2 2 1
-22 3 15 5 4 1
22 -3 15 8 3 1
3 22 15 18 3 1
-3 -22 15 13 2 1
-22 3 15 4 3 1
-5 -22 15 10 3 1
22 -5 15 2 3 1
5 22 15 20 3 1
-22 7 -15 306 15 1
22 -7 15 283 15 1
-22 7 15 278 15 1
-22 7 15 260 15 1
-7 -22 15 308 15 1
7 22 15 253 15 1
22 -7 15 292 14 1
-22 9 -15 28 5 1
22 -9 15 41 7 1
-22 9 15 41 5 1
9 22 15 39 9 1
22 -9 15 38 6 1
-22 11 -15 57 6 1
22 -11 15 72 6 1
-22 11 15 54 6 1
-22 13 -15 272 15 1
-22 13 15 245 15 1
22 -13 15 286 13 1
-22 15 15 105 7 1
-23 -12 -15 177 9 1
12 -23 15 180 8 1
-23 -10 -15 18 2 1
-23 -8 -15 17 4 1
-23 -6 -15 30 5 1
23 6 15 19 5 1
6 -23 15 25 5 1
4 -23 -15 66 2 1
4 -23 -15 51 3 1
-23 -4 -15 36 2 1
4 -23 15 42 2 1
-4 23 15 39 3 1
2 -23 -15 12 2 1
2 -23 -15 5 3 1
-2 23 15 10 3 1
2 -23 15 9 2 1
23 2 15 7 4 1
-23 0 -15 171 10 1
0 -23 -15 176 10 1
0 -23 -15 184 11 1
0 23 15 179 10 1
0 -23 15 184 10 1
-23 0 15 185 10 1
23 0 15 172 11 1
-23 0 15 173 11 1
-23 2 -15 133 6 1
-2 -23 15 125 7 1
23 -2 15 122 9 1
2 23 15 101 7 1
-23 2 15 126 7 1
-23 2 15 115 7 1
-23 4 -15 1177 58 1
-23 4 15 1183 58 1
-4 -23 15 1241 53 1
-23 6 -15 436 20 1
23 -6 15 412 19 1
6 23 15 432 19 1
-23 6 15 440 20 1
-6 -23 15 462 18 1
-23 8 -15 55 5 1
-23 8 15 72 5 1
-23 8 15 71 6 1
-23 10 -15 222 11 1
-23 10 15 220 11 1
-23 12 -15 363 20 1
-23 12 15 354 21 1
-24 -11 -15 499 24 1
11 -24 15 467 22 1
-24 -9 -15 159 10 1
9 -24 15 165 9 1
-24 -7 -15 102 7 1
7 -24 15 93 5 1
-24 -5 -15 1 2 1
-24 -3 -15 11 5 1
-3 24 15 18 7 1
-24 -1 -15 540 20 1
-1 24 15 491 18 1
1 -24 15 532 18 1
24 1 15 531 21 1
-24 1 -15 510 19 1
1 24 15 467 18 1
-24 1 15 520 20 1
-24 1 15 476 19 1
24 -1 15 445 19 1
-24 3 -15 549 25 1
-24 3 15 543 25 1
-3 -24 15 519 23 1
-24 5 -15 114 7 1
-24 5 15 97 7 1
-24 5 15 112 7 1
-5 -24 15 109 7 1
-24 7 -15 9 2 1
-24 7 15 9 2 1
-24 7 15 11 2 1
-24 9 -15 1 2 1
-24 9 15 2 2 1
-24 11 -15 19 5 1
-24 11 15 14 4 1
-25 -8 -15 82 7 1
8 -25 15 77 6 1
-25 -6 -15 61 5 1
6 -25 15 56 4 1
-25 -4 -15 182 10 1
4 -25 15 174 9 1
-25 -2 -15 249 11 1
2 -25 15 252 10 1
-25 0 -15 7 4 1
0 -25 15 8 4 1
-25 2 -15 324 16 1
-25 2 15 289 16 1
-25 2 15 315 16 1
-2 -25 15 297 14 1
-25 4 -15 2 1 1
-4 -25 15 22 2 1
-25 4 15 0 2 1
-25 4 15 0 2 1
-25 6 -15 10 2 1
-25 6 15 7 2 1
-25 6 15 4 2 1
-6 -25 15 18 2 1
-25 8 -15 394 22 1
-25 8 15 417 23 1
5 -26 15 19 3 1
-26 -3 -15 353 16 1
3 -26 15 334 14 1
-26 -1 -15 130 8 1
1 -26 15 112 7 1
-26 1 -15 24 4 1
-1 -26 15 20 4 1
-26 3 -15 0 1 1
-3 -26 15 0 1 1
-26 3 15 3 2 1
-26 3 15 0 3 1
-26 5 -15 181 10 1
-5 -26 15 199 9 1
-26 5 15 171 10 1
0 0 -16 135 12 1
-1 1 -16 29 2 1
1 -1 -16 41 1 1
1 1 -16 46 2 1
-1 -1 -16 37 2 1
1 1 16 40 1 1
1 -1 16 29 2 1
-1 1 16 39 2 1
2 0 -16 15 6 1
0 -2 -16 11 6 1
-2 0 -16 2 6 1
0 2 -16 4 6 1
0 -2 -16 15 6 1
-2 0 -16 2 6 1
2 0 16 2 6 1
0 2 16 10 5 1
2 0 16 2 5 1
2 0 16 3 6 1
-2 0 16 16 6 1
0 2 16 9 6 1
-2 -2 -16 217 25 1
-2 -2 -16 233 25 1
2 -2 -16 289 25 1
-2 2 -16 261 25 1
2 2 -16 265 25 1
2 2 -16 263 25 1
-2 -2 16 201 28 1
2 -2 16 295 24 1
3 1 -16 3774 175 1
-3 -1 -16 3602 175 1
1 -3 -16 3701 175 1
3 1 -16 3553 175 1
-3 -1 -16 3709 176 1
-1 3 -16 3875 176 1
-1 3 16 3825 175 1
1 -3 16 3671 199 1
-1 3 16 3631 175 1
3 1 16 3912 175 1
-1 -3 -16 6306 234 1
3 -1 16 6450 233 1
1 3 16 6137 233 1
3 -3 -16 1237 54 1
-3 -3 -16 1235 54 1
-3 3 -16 1263 54 1
-3 -3 -16 1326 54 1
3 3 -16 1327 54 1
3 3 16 1288 54 1
3 -3 16 1187 62 1
-3 3 16 1254 60 1
3 -3 16 1210 60 1
-3 -3 16 1270 60 1
-2 4 -16 812 32 1
2 -4 -16 759 31 1
2 -4 -16 767 31 1
-4 -2 -16 761 31 1
4 2 -16 726 31 1
-4 -2 -16 750 31 1
2 -4 16 747 36 1
4 2 16 743 31 1
-4 0 -16 2306 110 1
0 -4 -16 2285 110 1
-4 0 -16 2181 110 1
4 0 -16 2327 110 1
4 0 -16 2156 110 1
4 0 16 2023 125 1
4 0 16 2253 110 1
0 4 16 2238 122 1
-4 0 16 2126 125 1
4 -2 -16 471 40 1
-4 2 -16 400 40 1
-2 -4 -16 413 40 1
-2 -4 -16 377 40 1
4 -2 16 394 44 1
4 -2 16 415 39 1
-2 -4 16 400 44 1
2 4 16 350 46 1
-4 2 16 460 44 1
2 4 16 344 39 1
4 -4 -16 2119 111 1
-4 -4 -16 2086 111 1
-4 -4 -16 2159 111 1
-4 4 -16 2044 111 1
4 4 16 2099 111 1
4 -4 16 1932 126 1
4 -4 16 1932 110 1
-4 -4 16 1869 126 1
-4 -4 16 2074 123 1
4 4 16 1941 126 1
4 -4 16 2201 122 1
4 -4 16 2206 110 1
-5 -3 -16 1062 22 1
5 3 -16 1188 21 1
3 -5 -16 1084 22 1
-5 -3 -16 1096 22 1
3 -5 16 1078 25 1
-3 5 16 1057 25 1
5 3 16 1107 25 1
3 -5 16 1144 23 1
-1 5 -16 801 20 1
-5 -1 -16 822 20 1
-5 -1 -16 784 20 1
5 1 -16 810 19 1
1 -5 -16 774 19 1
5 1 16 747 19 1
1 -5 16 802 21 1
-1 5 16 738 23 1
-1 -5 -16 3361 143 1
1 5 -16 3447 143 1
5 -1 -16 3248 143 1
-1 -5 -16 3196 143 1
-5 1 -16 3319 143 1
5 -1 -16 3459 143 1
5 -1 16 3494 143 1
5 -1 16 3209 162 1
1 5 16 3378 158 1
1 5 16 3151 143 1
-5 1 16 3411 158 1
5 -3 -16 2493 118 1
-5 3 -16 2569 118 1
-3 -5 -16 2604 118 1
3 5 16 2440 134 1
5 -3 16 2470 130 1
5 -3 16 2481 117 1
-3 -5 16 2422 130 1
-5 -5 -16 601 32 1
-5 -5 -16 593 32 1
5 5 16 579 37 1
5 -5 16 564 36 1
-5 5 16 566 36 1
5 -5 16 582 31 1
5 -5 16 615 35 1
-6 -4 -16 976 32 1
4 -6 -16 928 32 1
-6 -4 -16 936 32 1
-4 6 -16 911 32 1
6 4 -16 948 39 1
-6 -4 16 895 35 1
-4 6 16 923 31 1
-4 6 16 952 31 1
4 -6 16 956 35 1
6 4 16 919 32 1
-6 -4 16 913 37 1
6 2 -16 1789 53 1
-6 -2 -16 1692 53 1
-2 6 -16 1740 54 1
-6 -2 -16 1688 53 1
2 -6 -16 1662 53 1
6 2 16 1749 61 1
2 -6 16 1688 58 1
-6 -2 16 1776 59 1
6 2 16 1715 53 1
-2 6 16 1665 53 1
-6 0 -16 10885 402 1
0 6 -16 10983 402 1
-6 0 -16 10331 401 1
0 -6 -16 10708 401 1
-6 0 16 10418 444 1
0 6 16 10420 445 1
0 -6 16 11379 444 1
0 6 16 11304 455 1
-6 0 16 11526 455 1
0 -6 16 10674 455 1
6 0 16 10532 401 1
-6 2 -16 695 20 1
-2 -6 -16 683 20 1
6 -2 -16 676 20 1
6 -2 -16 672 20 1
-2 -6 -16 694 20 1
2 6 16 692 20 1
6 -2 16 711 24 1
-2 -6 16 725 22 1
-6 2 16 675 23 1
2 6 16 672 24 1
6 -2 16 697 20 1
-2 -6 16 722 24 1
-6 4 -16 578 28 1
6 -4 -16 567 28 1
6 -4 -16 582 28 1
-4 -6 -16 573 28 1
6 -4 16 552 32 1
-6 4 16 578 32 1
4 6 16 612 28 1
-4 -6 16 644 31 1
6 -4 16 570 27 1
6 -6 -16 768 35 1
-6 -6 -16 797 36 1
-6 6 -16 810 36 1
-6 -6 16 777 39 1
6 -6 16 792 39 1
6 6 16 781 41 1
6 -6 16 780 35 1
6 -6 16 780 41 1
6 6 16 798 35 1
-5 7 -16 4738 169 1
-7 -5 -16 4636 169 1
7 5 -16 4514 168 1
5 -7 -16 4478 169 1
5 -7 16 4448 191 1
7 5 16 4736 169 1
5 -7 16 4738 186 1
-5 7 16 4676 168 1
-5 7 16 4448 168 1
-7 -5 16 4410 187 1
5 -7 16 4777 168 1
-3 7 -16 4687 200 1
7 3 -16 4611 199 1
3 -7 -16 4609 200 1
-7 -3 16 4464 226 1
-3 7 16 4238 221 1
3 -7 16 4495 220 1
-7 -1 -16 1111 44 1
1 -7 -16 1038 44 1
-1 7 -16 1066 44 1
7 1 -16 1114 43 1
7 1 16 989 43 1
-7 1 -16 300 4 1
-1 -7 -16 251 4 1
7 -1 -16 295 4 1
1 7 16 259 5 1
-1 -7 16 301 4 1
-7 1 16 285 6 1
7 -1 16 291 7 1
7 -1 16 274 3 1
-1 -7 16 289 8 1
-7 1 16 285 6 1
1 7 16 259 7 1
1 7 16 269 3 1
-3 -7 -16 1981 67 1
7 -3 -16 1890 67 1
7 -3 -16 1887 67 1
-3 -7 -16 2000 67 1
7 -3 16 1923 77 1
-3 -7 16 1891 74 1
3 7 16 1968 77 1
-5 -7 -16 214 14 1
-7 5 -16 237 14 1
7 -5 -16 203 14 1
7 -5 -16 202 14 1
7 -5 16 197 14 1
7 -5 16 182 16 1
5 7 16 204 14 1
-7 -7 -16 1274 54 1
7 -7 -16 1298 54 1
-7 7 -16 1268 55 1
7 -7 -16 1261 54 1
-7 -7 -16 1193 54 1
7 7 16 1236 62 1
7 7 16 1192 54 1
-7 -7 16 1136 60 1
6 -8 -16 1099 37 1
6 -8 -16 1176 37 1
-8 -6 -16 1206 37 1
-8 -6 -16 1182 37 1
-6 8 -16 1210 38 1
-6 8 16 1170 36 1
6 -8 16 1164 36 1
-8 -6 16 1235 41 1
-6 8 16 1169 36 1
-6 8 16 1111 43 1
-8 -4 -16 747 13 1
-8 -4 -16 706 13 1
4 -8 -16 711 13 1
4 -8 -16 723 13 1
-8 -4 16 738 16 1
-4 8 16 676 16 1
-4 8 16 734 15 1
4 -8 16 726 16 1
8 4 16 769 16 1
2 -8 -16 0 3 1
-8 -2 -16 0 3 1
-8 -2 -16 1 3 1
-2 8 16 1 4 1
8 2 16 2 4 1
2 -8 16 0 3 1
2 -8 16 0 6 1
8 2 16 1 6 1
-8 0 -16 657 14 1
-8 0 -16 657 14 1
8 0 -16 694 13 1
0 -8 -16 627 14 1
0 -8 -16 602 14 1
0 8 16 653 17 1
-8 0 16 692 16 1
0 -8 16 640 17 1
0 8 16 597 16 1
0 -8 16 638 15 1
-8 2 -16 2829 104 1
8 -2 -16 2882 104 1
-2 -8 -16 2865 104 1
2 8 16 2714 104 1
2 8 16 2877 116 1
-8 2 16 2825 119 1
2 8 16 2865 119 1
-8 2 16 3016 116 1
-4 -8 -16 486 25 1
-8 4 -16 515 26 1
8 -4 -16 496 25 1
8 -4 -16 518 26 1
-4 -8 -16 503 25 1
-4 -8 16 507 28 1
-4 -8 16 463 30 1
8 -4 16 532 29 1
4 8 16 504 30 1
4 8 16 477 25 1
-8 6 -16 3965 144 1
-6 -8 -16 3851 143 1
8 -6 -16 3707 143 1
-6 -8 -16 3744 143 1
6 8 16 3605 143 1
-6 -8 16 3760 158 1
8 -6 16 3947 143 1
8 -6 16 3712 158 1
6 8 16 3808 163 1
-8 6 16 3483 159 1
8 -8 -16 2492 115 1
-8 8 -16 2467 116 1
-8 -8 -16 2384 115 1
-8 -8 16 2509 128 1
-8 8 16 2556 128 1
-7 9 -16 278 12 1
7 -9 -16 252 11 1
7 -9 -16 272 12 1
9 7 16 282 12 1
-7 9 16 263 14 1
-9 -7 16 295 13 1
9 7 16 257 16 1
7 -9 16 244 11 1
5 -9 -16 614 27 1
5 -9 -16 628 27 1
-9 -5 -16 556 27 1
-9 -5 -16 585 27 1
-9 -5 16 560 30 1
-5 9 16 627 31 1
9 5 16 551 32 1
9 5 16 553 27 1
-5 9 16 630 27 1
-9 -3 -16 1926 48 1
-9 -3 -16 2002 48 1
3 -9 -16 2042 48 1
3 -9 16 1893 55 1
-9 -3 16 2020 55 1
9 3 16 1934 55 1
-9 -3 16 1960 54 1
1 -9 -16 2797 105 1
9 1 16 2509 105 1
1 -9 16 2636 119 1
-9 -1 16 2524 116 1
-1 -9 -16 424 10 1
-1 -9 -16 390 10 1
-9 1 -16 375 14 1
-9 1 -16 358 11 1
9 -1 16 343 13 1
1 9 16 380 10 1
1 9 16 394 12 1
-9 1 16 368 12 1
-1 -9 16 382 14 1
-9 1 16 362 13 1
1 9 16 402 14 1
-3 -9 -16 197 10 1
9 -3 -16 221 9 1
-3 -9 -16 201 10 1
-9 3 16 226 12 1
-3 -9 16 199 10 1
3 9 16 179 10 1
9 -3 16 201 10 1
-9 3 16 206 12 1
-3 -9 16 177 14 1
-9 5 -16 25 2 1
9 -5 -16 26 3 1
-9 5 16 15 2 1
-5 -9 16 24 3 1
9 -5 16 31 3 1
-9 5 16 23 3 1
5 9 16 26 4 1
-9 7 -16 269 15 1
-7 -9 -16 259 14 1
-7 -9 -16 234 14 1
9 -7 -16 269 14 1
7 9 16 250 19 1
9 -7 16 238 14 1
-9 7 16 225 17 1
-9 -9 -16 566 22 1
-9 9 -16 515 23 1
-9 -9 -16 561 22 1
-9 9 16 558 25 1
9 9 16 508 27 1
9 -9 16 549 21 1
9 9 16 574 22 1
-9 -9 16 560 24 1
-10 -8 -16 833 26 1
-8 10 -16 862 27 1
8 -10 -16 864 26 1
-10 -8 -16 865 25 1
-10 -8 16 885 29 1
10 8 16 860 26 1
8 -10 16 853 25 1
-8 10 16 816 29 1
10 8 16 828 31 1
-10 -6 -16 15184 619 1
-6 10 -16 15893 620 1
6 -10 -16 15182 620 1
6 -10 -16 14746 619 1
-6 10 16 15020 686 1
10 6 16 14616 620 1
-10 -6 16 15015 686 1
-6 10 16 15004 619 1
10 6 16 14552 701 1
-10 -4 -16 5023 208 1
4 -10 -16 5352 208 1
-10 -4 -16 5441 209 1
-4 10 16 5000 231 1
-4 10 16 4929 236 1
10 4 16 5252 209 1
10 4 16 5020 236 1
-4 10 16 5434 208 1
-10 -4 16 5105 231 1
-2 10 -16 340 18 1
-10 -2 -16 320 17 1
-10 -2 -16 326 17 1
-10 -2 16 330 20 1
2 -10 16 330 20 1
-10 -2 16 326 21 1
-2 10 16 326 21 1
-2 10 16 311 17 1
10 2 16 307 17 1
10 2 16 328 21 1
0 -10 -16 2695 104 1
-10 0 -16 2584 104 1
-10 0 -16 2568 104 1
0 -10 16 2806 118 1
0 10 16 2695 118 1
-10 0 16 2548 118 1
0 10 16 2530 115 1
-10 2 -16 2548 89 1
-10 2 -16 2676 80 1
-2 -10 -16 2733 80 1
-2 -10 -16 2655 79 1
2 10 16 2762 89 1
-10 2 16 2499 91 1
2 10 16 2580 79 1
-10 2 16 2529 89 1
2 10 16 2538 91 1
-2 -10 16 2598 91 1
-10 4 -16 176 10 1
10 -4 -16 153 4 1
-4 -10 -16 141 4 1
-10 4 -16 131 4 1
-4 -10 -16 125 3 1
-10 4 16 132 8 1
-10 4 16 144 5 1
4 10 16 148 10 1
-4 -10 16 129 4 1
10 -4 16 132 3 1
-10 4 16 154 6 1
4 10 16 135 4 1
-10 6 -16 2940 114 1
10 -6 -16 3046 114 1
10 -6 -16 2911 113 1
-6 -10 -16 3057 114 1
-10 6 16 3084 130 1
6 10 16 2879 114 1
6 10 16 2885 130 1
-6 -10 16 3124 126 1
10 -6 16 2941 114 1
-10 6 16 3101 127 1
-10 8 -16 1100 49 1
-8 -10 -16 999 48 1
10 -8 -16 1070 48 1
-10 8 16 1028 54 1
-10 -10 -16 1 3 1
-10 -10 -16 2 4 1
-10 10 -16 2 5 1
10 10 16 3 4 1
-10 10 16 1 6 1
-10 10 16 1 6 1
10 -10 16 5 3 1
9 -11 -16 4 6 1
-9 11 -16 10 7 1
-11 -9 -16 5 5 1
-11 -9 -16 7 5 1
-9 11 16 8 7 1
-9 11 16 8 7 1
9 -11 16 10 4 1
7 -11 -16 177 7 1
7 -11 -16 170 6 1
-11 -7 -16 208 7 1
-7 11 -16 180 8 1
-7 11 16 202 8 1
-11 -7 16 180 8 1
-7 11 16 174 9 1
-7 11 16 178 6 1
11 7 16 208 7 1
5 -11 -16 1651 50 1
5 -11 -16 1589 50 1
-11 -5 -16 1658 50 1
5 -11 -16 1517 52 1
-5 11 -16 1654 51 1
-5 11 16 1587 50 1
-11 -5 16 1635 56 1
11 5 16 1608 50 1
-5 11 16 1632 58 1
-11 -3 -16 621 35 1
3 -11 -16 611 37 1
-11 -3 -16 626 35 1
-3 11 -16 702 36 1
3 -11 -16 695 35 1
-3 11 16 656 41 1
-11 -3 16 684 41 1
11 3 16 651 35 1
-11 -3 16 606 39 1
1 -11 -16 5 3 1
1 -11 -16 5 3 1
1 -11 -16 4 3 1
-11 -1 -16 4 4 1
-11 -1 -16 1 3 1
-1 11 16 3 3 1
-11 -1 16 5 7 1
-11 -1 16 6 5 1
-1 11 16 5 3 1
-1 11 16 1 3 1
11 1 16 1 3 1
-1 -11 -16 450 14 1
-11 1 -16 430 14 1
-1 -11 -16 435 14 1
-11 1 -16 413 14 1
-1 -11 16 444 16 1
1 11 16 467 18 1
1 11 16 438 14 1
1 11 16 444 16 1
-1 -11 16 444 18 1
-3 -11 -16 1122 25 1
-3 -11 -16 1050 25 1
-11 3 -16 1114 29 1
-11 3 -16 1099 25 1
3 11 16 1042 25 1
3 11 16 1047 30 1
-11 3 16 1032 28 1
-3 -11 16 1030 27 1
-11 3 16 1132 29 1
3 11 16 1072 28 1
-11 3 16 1024 29 1
-5 -11 -16 2699 128 1
-11 5 -16 2686 128 1
-11 5 -16 2635 142 1
-5 -11 -16 2630 128 1
5 11 16 2586 145 1
-11 5 16 2662 142 1
5 11 16 2601 128 1
11 -5 16 2833 128 1
-11 7 -16 1056 41 1
-7 -11 -16 1003 41 1
-7 -11 -16 1012 40 1
11 -7 -16 1084 41 1
7 11 16 1012 41 1
11 -7 16 1062 41 1
-11 7 16 1020 47 1
-9 -11 -16 240 12 1
-9 -11 -16 236 11 1
11 -9 -16 243 13 1
-11 9 -16 252 13 1
11 -9 16 253 11 1
9 11 16 215 12 1
-11 9 16 243 14 1
-11 -11 -16 603 23 1
11 -11 -16 592 24 1
-11 -11 -16 592 23 1
-11 11 -16 616 24 1
-11 11 16 607 27 1
11 -11 16 620 23 1
11 11 16 612 24 1
-11 11 16 591 28 1
-12 -10 -16 41 5 1
10 -12 -16 23 7 1
-10 12 -16 47 7 1
-12 -10 -16 32 4 1
10 -12 16 52 4 1
-10 12 16 44 7 1
-10 12 16 36 7 1
8 -12 -16 1317 43 1
-12 -8 -16 1422 43 1
-12 -8 -16 1409 43 1
-8 12 -16 1424 44 1
-8 12 16 1407 42 1
-12 -8 16 1457 48 1
12 8 16 1404 43 1
-8 12 16 1466 49 1
-12 -6 -16 261 8 1
-12 -6 -16 243 9 1
6 -12 -16 244 9 1
-6 12 -16 246 10 1
6 -12 -16 226 14 1
12 6 16 275 9 1
-12 -6 16 260 10 1
-6 12 16 278 11 1
-6 12 16 255 8 1
-6 12 16 267 10 1
-4 12 -16 494 17 1
-12 -4 -16 420 15 1
4 -12 -16 421 16 1
4 -12 -16 409 18 1
4 -12 -16 465 16 1
-12 -4 16 462 19 1
2 -12 -16 18720 744 1
-12 -2 -16 19569 735 1
2 -12 -16 18942 736 1
-12 -2 -16 19892 740 1
-12 -2 16 20529 817 1
-12 -2 16 18734 833 1
12 2 16 18852 736 1
-12 0 -16 1635 56 1
0 -12 -16 1871 56 1
-12 0 -16 1801 63 1
-12 0 -16 1746 57 1
0 -12 -16 1750 58 1
0 12 16 1823 56 1
-12 0 16 1709 64 1
0 -12 16 1764 58 1
0 12 16 1866 65 1
12 0 16 1768 57 1
-2 -12 -16 17 3 1
-12 2 -16 15 4 1
-2 -12 -16 16 4 1
-12 2 -16 12 3 1
-2 -12 16 28 8 1
2 12 16 12 3 1
-12 2 16 8 3 1
-12 2 16 6 2 1
2 12 16 12 4 1
2 12 16 11 3 1
-12 2 16 10 4 1
-12 4 -16 1723 73 1
-4 -12 -16 1621 73 1
-4 -12 -16 1614 73 1
-12 4 -16 1657 81 1
12 -4 16 1700 73 1
4 12 16 1689 73 1
-12 4 16 1613 83 1
-4 -12 16 1706 74 1
-12 4 16 1616 81 1
-6 -12 -16 319 13 1
-12 6 -16 314 13 1
-12 6 -16 321 16 1
-6 -12 -16 315 12 1
-12 6 16 305 15 1
6 12 16 337 13 1
-12 6 16 284 15 1
-8 -12 -16 1596 67 1
-8 -12 -16 1593 66 1
-12 8 -16 1622 68 1
-12 8 16 1516 75 1
12 -8 16 1550 67 1
-12 8 16 1470 74 1
-12 8 16 1521 76 1
8 12 16 1605 67 1
12 -10 -16 211 17 1
-12 10 -16 225 16 1
-10 -12 -16 209 16 1
-10 -12 -16 200 15 1
10 12 16 185 16 1
-12 10 16 244 19 1
-12 10 16 237 19 1
12 -10 16 203 15 1
-12 -12 -16 33 2 1
12 -12 -16 46 3 1
-12 -12 -16 28 1 1
-12 12 -16 27 3 1
12 12 16 45 2 1
12 -12 16 39 2 1
-12 12 16 46 2 1
-12 12 16 19 4 1
-11 13 -16 1213 47 1
-13 -11 -16 1215 44 1
-13 -11 -16 1256 46 1
11 -13 16 1274 44 1
13 11 16 1216 46 1
-11 13 16 1208 52 1
-11 13 16 1190 51 1
9 -13 -16 197 14 1
-9 13 -16 208 15 1
-13 -9 -16 229 14 1
-13 -9 -16 200 12 1
-9 13 16 198 16 1
-9 13 16 234 16 1
13 9 16 220 14 1
7 -13 -16 2 2 1
7 -13 -16 9 4 1
-7 13 -16 9 3 1
-13 -7 16 8 3 1
-7 13 16 10 3 1
-7 13 16 10 3 1
13 7 16 10 2 1
5 -13 -16 2381 95 1
5 -13 -16 2397 93 1
5 -13 -16 2561 93 1
-13 -5 -16 2412 93 1
-5 13 -16 2326 94 1
-13 -5 -16 2394 93 1
-5 13 16 2582 106 1
-5 13 16 2453 104 1
13 5 16 2451 93 1
-13 -5 16 2480 104 1
3 -13 -16 8 3 1
-13 -3 -16 28 2 1
-13 -3 -16 15 2 1
3 -13 -16 22 2 1
-3 13 -16 12 3 1
3 -13 -16 18 2 1
-3 13 16 19 2 1
3 -13 16 9 2 1
-13 -3 16 12 3 1
-3 13 16 17 3 1
-13 -3 16 16 3 1
-3 13 16 12 2 1
-13 -1 -16 2834 116 1
1 -13 -16 2854 104 1
1 -13 -16 2965 106 1
-13 -1 -16 2776 104 1
1 -13 -16 2919 104 1
-13 -1 -16 2775 104 1
1 -13 16 2969 105 1
-13 -1 16 2963 118 1
-1 13 16 3021 116 1
-1 13 16 2784 104 1
-1 -13 -16 2462 95 1
-13 1 -16 2568 95 1
-13 1 -16 2590 95 1
-13 1 -16 2558 106 1
-1 -13 -16 2574 97 1
-1 -13 -16 2562 95 1
1 13 16 2492 108 1
1 13 16 2575 95 1
-1 -13 16 2566 96 1
-3 -13 -16 502 24 1
-3 -13 -16 506 23 1
-13 3 -16 533 24 1
-13 3 -16 557 27 1
-13 3 16 529 27 1
3 13 16 504 24 1
13 -3 16 515 24 1
-3 -13 16 526 25 1
-13 3 16 536 27 1
-13 3 16 486 27 1
-5 -13 -16 369 12 1
-5 -13 -16 344 12 1
-13 5 -16 364 16 1
-13 5 -16 364 13 1
-13 5 16 338 15 1
13 -5 16 355 12 1
-13 5 16 391 15 1
5 13 16 364 12 1
-13 5 16 345 15 1
-5 -13 16 360 16 1
-13 7 -16 538 20 1
-7 -13 -16 511 17 1
-7 -13 -16 488 16 1
-13 7 -16 491 17 1
-13 7 16 510 20 1
13 -7 16 501 17 1
7 13 16 499 17 1
-9 -13 -16 278 8 1
13 -9 -16 301 12 1
-9 -13 -16 266 9 1
-13 9 -16 275 10 1
-13 9 16 293 12 1
9 13 16 264 9 1
13 -9 16 284 9 1
-13 11 -16 428 17 1
-11 -13 -16 413 16 1
-11 -13 -16 417 15 1
11 13 16 439 17 1
-13 11 16 411 19 1
-13 11 16 413 19 1
-13 13 -16 75 3 1
-13 -13 -16 89 2 1
13 -13 -16 68 3 1
13 13 16 65 3 1
13 -13 16 75 2 1
13 -13 16 101 2 1
-13 13 16 105 2 1
-13 13 16 78 5 1
12 -14 -16 3 3 1
-12 14 -16 11 3 1
-14 -12 -16 6 3 1
-12 14 16 1 4 1
12 -14 16 1 2 1
14 12 16 11 3 1
12 -14 16 6 2 1
-10 14 -16 15 7 1
-14 -10 -16 11 5 1
-14 -10 -16 12 4 1
10 -14 -16 17 6 1
-10 14 16 17 7 1
10 -14 16 20 6 1
-10 14 16 27 9 1
14 10 16 15 6 1
-14 -8 -16 5238 205 1
8 -14 -16 4944 206 1
-8 14 -16 5007 207 1
-14 -8 -16 5052 206 1
14 8 16 5138 206 1
-8 14 16 5141 229 1
-8 14 16 5043 234 1
-8 14 16 4992 205 1
8 -14 16 5057 208 1
-14 -6 -16 47 5 1
-6 14 -16 54 8 1
6 -14 -16 49 11 1
-14 -6 -16 41 6 1
6 -14 -16 34 6 1
-6 14 16 43 8 1
-6 14 16 53 7 1
6 -14 16 64 6 1
14 6 16 50 6 1
4 -14 -16 1220 37 1
-14 -4 -16 1224 36 1
4 -14 -16 1217 35 1
-4 14 -16 1187 37 1
4 -14 -16 1193 35 1
-4 14 16 1211 35 1
4 -14 16 1200 36 1
-4 14 16 1236 41 1
-4 14 16 1216 40 1
-14 -4 16 1175 40 1
14 4 16 1221 36 1
-14 -2 -16 1180 44 1
-14 -2 -16 1172 45 1
2 -14 -16 1228 44 1
2 -14 -16 1270 46 1
-14 -2 -16 1216 50 1
2 -14 -16 1230 45 1
2 -14 16 1213 45 1
14 2 16 1229 45 1
-14 -2 16 1153 50 1
-2 14 16 1183 44 1
-14 0 -16 91 8 1
-14 0 -16 84 9 1
0 -14 -16 96 11 1
0 -14 -16 104 8 1
-14 0 -16 87 10 1
0 14 16 86 10 1
-14 0 16 96 11 1
0 14 16 92 13 1
0 -14 16 106 10 1
-14 0 16 89 10 1
0 14 16 110 8 1
-14 2 -16 161 6 1
-2 -14 -16 178 5 1
-14 2 -16 190 8 1
-14 2 -16 172 5 1
2 14 16 170 7 1
-2 -14 16 168 8 1
-14 2 16 162 9 1
14 -2 16 169 5 1
-14 2 16 199 7 1
2 14 16 172 5 1
-14 4 -16 2543 119 1
-4 -14 -16 2501 107 1
-4 -14 -16 2517 107 1
-14 4 -16 2477 107 1
-14 4 16 2676 119 1
4 14 16 2545 107 1
-14 4 16 2667 122 1
-4 -14 16 2498 108 1
-14 4 16 2582 119 1
-6 -14 -16 2 2 1
-14 6 -16 2 2 1
-6 -14 -16 3 2 1
-14 6 -16 1 3 1
-6 -14 16 14 4 1
-14 6 16 3 3 1
-14 6 16 3 2 1
6 14 16 4 2 1
14 -6 16 2 2 1
-14 6 16 4 3 1
-14 8 -16 207 11 1
-8 -14 -16 214 7 1
-14 8 -16 222 9 1
-8 -14 -16 199 8 1
-14 8 16 198 10 1
8 14 16 206 8 1
-14 8 16 215 10 1
14 -8 16 205 8 1
-14 8 16 189 10 1
-10 -14 -16 156 9 1
-14 10 -16 144 13 1
-10 -14 -16 136 7 1
-14 10 -16 137 9 1
14 -10 -16 119 11 1
-14 10 16 130 11 1
10 14 16 133 9 1
-14 10 16 130 11 1
14 -10 16 129 8 1
-12 -14 -16 441 19 1
-14 12 -16 462 20 1
14 -12 -16 454 20 1
12 14 16 424 19 1
14 -12 16 479 18 1
-14 12 16 438 22 1
-14 -14 -16 242 13 1
-14 14 16 224 18 1
-14 14 16 201 15 1
14 -14 16 214 13 1
-15 -13 -16 468 22 1
-13 15 16 445 27 1
-13 15 16 504 26 1
13 -15 16 468 23 1
11 -15 -16 342 13 1
-11 15 -16 288 14 1
-15 -11 -16 311 13 1
11 -15 16 317 13 1
-11 15 16 277 16 1
15 11 16 300 13 1
-9 15 -16 824 41 1
-15 -9 -16 751 39 1
-15 -9 -16 779 40 1
-9 15 16 845 45 1
15 9 16 763 40 1
-9 15 16 790 46 1
9 -15 16 845 41 1
-9 15 16 799 39 1
-15 -7 -16 1150 50 1
7 -15 -16 1171 52 1
-7 15 -16 1154 51 1
-15 -7 -16 1076 49 1
-7 15 16 1169 56 1
7 -15 16 1155 51 1
15 7 16 1086 50 1
-7 15 16 1208 50 1
5 -15 -16 577 18 1
5 -15 -16 588 21 1
-15 -5 -16 518 21 1
-15 -5 -16 565 18 1
5 -15 -16 544 18 1
-5 15 -16 555 20 1
5 -15 16 554 19 1
-15 -5 16 536 21 1
-5 15 16 551 18 1
-15 -5 16 547 22 1
-5 15 16 545 21 1
3 -15 -16 1452 65 1
-15 -3 -16 1468 64 1
3 -15 -16 1510 64 1
-15 -3 -16 1446 65 1
3 -15 -16 1497 66 1
-15 -3 16 1449 73 1
-3 15 16 1532 74 1
15 3 16 1478 65 1
1 -15 -16 890 32 1
-15 -1 -16 894 31 1
1 -15 -16 841 30 1
1 -15 -16 846 30 1
-15 -1 -16 856 34 1
-15 -1 -16 880 30 1
-15 -1 16 939 35 1
15 1 16 919 30 1
-1 15 16 922 34 1
1 -15 16 935 31 1
-1 15 16 907 30 1
-15 -1 16 901 34 1
-1 -15 -16 562 26 1
-1 -15 -16 551 27 1
-1 -15 -16 547 25 1
-15 1 -16 519 26 1
-15 1 -16 537 26 1
-1 -15 16 566 26 1
1 15 16 560 25 1
-15 1 16 541 29 1
-15 3 -16 218 11 1
-3 -15 -16 203 10 1
-15 3 -16 205 13 1
-15 3 -16 200 10 1
3 15 16 221 12 1
-15 3 16 196 12 1
15 -3 16 210 10 1
-15 3 16 238 13 1
3 15 16 203 10 1
-3 -15 16 211 12 1
-5 -15 -16 1318 52 1
-15 5 -16 1207 52 1
-15 5 -16 1321 58 1
-5 -15 -16 1287 51 1
5 15 16 1246 51 1
-5 -15 16 1336 53 1
-15 5 16 1234 57 1
5 15 16 1338 58 1
-7 -15 -16 4343 170 1
-15 7 -16 4408 190 1
-7 -15 -16 4261 171 1
-15 7 -16 4271 172 1
-15 7 16 4253 190 1
7 15 16 4286 171 1
15 -7 16 4135 171 1
-15 9 -16 70 10 1
-9 -15 -16 59 7 1
-15 9 -16 80 7 1
-9 -15 -16 67 6 1
15 -9 16 79 7 1
9 15 16 58 7 1
-15 9 16 81 9 1
-15 9 16 80 8 1
-15 11 -16 916 26 1
15 -11 -16 967 28 1
-11 -15 -16 897 26 1
-15 11 16 853 30 1
-15 11 16 910 30 1
15 -11 16 869 25 1
11 15 16 899 26 1
-13 -15 -16 244 14 1
-15 13 -16 213 15 1
15 -13 16 237 14 1
-15 13 16 225 19 1
15 -15 -16 901 39 1
-15 -15 -16 911 38 1
-15 15 -16 951 39 1
15 15 16 911 39 1
-15 15 16 966 44 1
15 -15 16 941 38 1
-14 16 -16 109 10 1
-16 -14 -16 127 10 1
14 -16 -16 128 10 1
-14 16 16 112 9 1
16 14 16 134 10 1
14 -16 16 107 8 1
-12 16 -16 1158 54 1
12 -16 -16 1092 53 1
-16 -12 -16 1075 53 1
12 -16 16 1171 53 1
16 12 16 1038 54 1
-12 16 16 1136 60 1
-12 16 16 1089 60 1
10 -16 -16 632 26 1
-16 -10 -16 671 26 1
-10 16 -16 674 28 1
16 10 16 645 27 1
10 -16 16 714 27 1
-10 16 16 725 31 1
8 -16 -16 605 18 1
-16 -8 -16 611 17 1
-8 16 -16 626 20 1
-16 -8 -16 628 18 1
8 -16 -16 605 21 1
16 8 16 670 19 1
-8 16 16 624 21 1
-8 16 16 604 17 1
8 -16 16 607 18 1
-16 -6 -16 442 25 1
6 -16 -16 431 25 1
-6 16 -16 394 27 1
6 -16 -16 424 27 1
-16 -6 -16 420 24 1
-6 16 16 417 29 1
6 -16 16 424 26 1
-6 16 16 416 29 1
-6 16 16 432 25 1
-16 -6 16 413 29 1
16 6 16 466 26 1
4 -16 -16 6980 255 1
4 -16 -16 6623 252 1
4 -16 -16 6756 252 1
-16 -4 -16 7096 252 1
-16 -4 -16 6916 280 1
-16 -4 16 6538 279 1
4 -16 16 6947 255 1
-4 16 16 7110 285 1
-16 -4 16 7111 285 1
-4 16 16 6903 279 1
-4 16 16 7130 252 1
-16 -2 -16 119 13 1
-16 -2 -16 130 11 1
-16 -2 -16 142 10 1
2 -16 -16 155 13 1
2 -16 -16 139 11 1
2 -16 -16 153 11 1
-2 16 16 152 11 1
-16 -2 16 112 13 1
-2 16 16 131 15 1
2 -16 16 122 12 1
16 2 16 129 11 1
-16 -2 16 113 13 1
-2 16 16 121 13 1
0 -16 -16 376 18 1
-16 0 -16 380 19 1
-16 0 -16 378 18 1
0 -16 -16 388 20 1
-16 0 -16 392 21 1
0 -16 -16 351 19 1
-16 0 16 399 22 1
0 -16 16 324 19 1
-2 -16 -16 378 15 1
-16 2 -16 391 13 1
-2 -16 -16 382 12 1
-2 -16 -16 382 13 1
-16 2 -16 397 15 1
-16 2 -16 391 13 1
-2 -16 16 393 14 1
2 16 16 352 13 1
16 -2 16 375 13 1
2 16 16 365 15 1
-16 2 16 344 15 1
-4 -16 -16 611 19 1
-16 4 -16 613 19 1
-16 4 -16 586 19 1
-16 4 -16 591 21 1
-4 -16 -16 573 18 1
-16 4 16 618 22 1
4 16 16 603 21 1
-4 -16 16 618 20 1
-16 4 16 643 22 1
4 16 16 599 19 1
-16 4 16 646 22 1
16 -4 16 638 19 1
-6 -16 -16 238 10 1
-16 6 -16 225 13 1
-16 6 -16 225 11 1
-6 -16 -16 240 9 1
-6 -16 16 249 14 1
6 16 16 246 10 1
-16 6 16 262 13 1
-16 6 16 224 12 1
6 16 16 270 12 1
16 -6 16 234 10 1
-16 8 -16 7 2 1
-8 -16 -16 6 2 1
-8 -16 -16 3 2 1
-16 8 -16 2 3 1
-16 8 16 2 4 1
16 -8 16 3 2 1
-16 8 16 2 3 1
-16 8 16 14 3 1
8 16 16 5 2 1
-16 10 -16 601 27 1
-10 -16 -16 580 24 1
-16 10 -16 569 24 1
-10 -16 -16 586 22 1
16 -10 16 604 24 1
10 16 16 607 24 1
-16 10 16 630 28 1
-16 12 -16 15 3 1
-12 -16 -16 27 3 1
-16 12 16 27 3 1
16 -12 16 22 2 1
-16 12 16 32 6 1
12 16 16 11 3 1
16 -12 16 21 2 1
16 -14 -16 91 12 1
-14 -16 -16 81 8 1
-16 14 -16 97 9 1
14 16 16 84 9 1
16 -14 16 88 8 1
16 -14 16 89 7 1
-16 14 16 56 18 1
-16 14 16 81 9 1
16 -16 -16 257 16 1
-16 16 -16 287 14 1
16 -16 16 305 13 1
16 16 16 308 16 1
-16 16 16 292 15 1
15 -17 -16 173 13 1
-15 17 -16 145 12 1
-15 17 16 183 12 1
17 15 16 152 14 1
15 -17 16 179 11 1
13 -17 -16 265 14 1
-13 17 -16 265 15 1
17 13 16 239 14 1
13 -17 16 279 13 1
-13 17 16 285 15 1
-17 -11 -16 45 4 1
-11 17 -16 47 5 1
17 11 16 35 4 1
11 -17 16 52 6 1
-11 17 16 30 3 1
-11 17 16 49 8 1
-9 17 -16 173 17 1
9 -17 -16 190 15 1
-17 -9 -16 162 15 1
-17 -9 -16 192 18 1
17 9 16 165 16 1
-9 17 16 201 20 1
-9 17 16 197 18 1
-9 17 16 178 14 1
9 -17 16 189 15 1
-17 -7 -16 114 3 1
7 -17 -16 131 3 1
-17 -7 -16 114 3 1
-7 17 -16 107 4 1
7 -17 -16 109 2 1
17 7 16 109 2 1
7 -17 16 101 2 1
-7 17 16 105 5 1
-7 17 16 131 3 1
-7 17 16 100 2 1
-17 -5 -16 1211 34 1
5 -17 -16 1150 29 1
-17 -5 -16 1219 28 1
5 -17 -16 1178 31 1
5 -17 -16 1189 30 1
-17 -5 -16 1199 30 1
17 5 16 1175 30 1
-5 17 16 1157 29 1
5 -17 16 1139 30 1
3 -17 -16 111 10 1
-17 -3 -16 108 8 1
3 -17 -16 89 7 1
3 -17 16 122 8 1
-3 17 16 104 12 1
17 3 16 116 7 1
-3 17 16 106 10 1
-17 -1 -16 742 30 1
1 -17 -16 731 31 1
-17 -1 -16 738 29 1
1 -17 -16 709 29 1
-17 -1 -16 728 34 1
-17 -1 16 708 34 1
-1 17 16 753 30 1
1 -17 16 742 30 1
-17 -1 16 644 34 1
-17 1 -16 68 5 1
-17 1 -16 79 8 1
-1 -17 -16 57 5 1
-17 1 -16 77 7 1
-1 -17 16 64 7 1
1 17 16 63 5 1
17 -1 16 72 6 1
-17 1 16 60 8 1
-17 1 16 59 7 1
-17 1 16 61 9 1
1 17 16 58 7 1
-17 3 -16 408 26 1
-3 -17 -16 379 22 1
-3 -17 -16 385 23 1
-3 -17 -16 406 25 1
-17 3 -16 415 24 1
-17 3 -16 390 23 1
-17 3 16 394 27 1
-17 3 16 420 26 1
17 -3 16 401 23 1
-3 -17 16 432 24 1
3 17 16 412 26 1
3 17 16 390 23 1
-17 5 -16 671 31 1
-5 -17 -16 654 27 1
-17 5 -16 659 28 1
-5 -17 -16 651 28 1
-17 5 -16 667 28 1
-5 -17 16 598 29 1
17 -5 16 663 28 1
-17 5 16 619 32 1
5 17 16 610 28 1
-17 5 16 691 32 1
-7 -17 -16 588 19 1
-7 -17 -16 592 20 1
-17 7 -16 527 23 1
-17 7 -16 566 20 1
-17 7 16 576 23 1
17 -7 16 552 20 1
-7 -17 16 606 22 1
7 17 16 585 23 1
7 17 16 601 20 1
-17 9 -16 194 13 1
-9 -17 -16 215 13 1
-17 9 -16 213 15 1
-17 9 16 164 16 1
-17 9 16 187 15 1
17 -9 16 178 12 1
9 17 16 197 13 1
-17 9 16 180 15 1
-17 11 -16 2959 123 1
-17 11 -16 2872 111 1
-11 -17 -16 2910 111 1
11 17 16 2868 111 1
-17 11 16 2835 124 1
17 -11 16 2866 111 1
17 -11 16 2888 112 1
-17 13 -16 321 17 1
17 -13 -16 355 21 1
-13 -17 -16 336 17 1
13 17 16 316 18 1
-17 13 16 283 25 1
17 -13 16 345 16 1
17 -13 16 339 17 1
17 -15 -16 32 6 1
-15 -17 -16 30 5 1
-17 15 -16 18 3 1
15 17 16 15 5 1
17 -15 16 23 2 1
17 -17 16 113 6 1
-17 17 16 114 7 1
-18 -16 -16 164 12 1
16 -18 16 193 11 1
-16 18 16 199 12 1
14 -18 -16 56 9 1
-14 18 -16 55 10 1
-18 -14 -16 65 7 1
-14 18 16 57 7 1
18 14 16 45 11 1
14 -18 16 73 7 1
-18 -12 -16 823 32 1
12 -18 -16 769 28 1
-12 18 16 813 32 1
18 12 16 785 29 1
-18 -10 -16 94 10 1
-10 18 -16 127 12 1
10 -18 -16 118 8 1
10 -18 16 131 8 1
18 10 16 108 10 1
-10 18 16 127 10 1
-18 -8 -16 23 7 1
-18 -8 -16 17 4 1
8 -18 -16 48 4 1
-8 18 -16 34 5 1
-8 18 16 55 3 1
-8 18 16 51 3 1
8 -18 16 25 2 1
-8 18 16 48 7 1
6 -18 -16 2 2 1
6 -18 -16 8 3 1
-6 18 -16 7 5 1
-18 -6 -16 13 3 1
-18 -6 -16 13 3 1
-6 18 16 1 5 1
-6 18 16 1 4 1
6 -18 16 7 2 1
-6 18 16 8 2 1
4 -18 -16 25 8 1
-18 -4 -16 23 7 1
-18 -4 -16 19 5 1
4 -18 -16 25 5 1
-18 -4 -16 23 7 1
4 -18 16 23 6 1
-4 18 16 24 5 1
-4 18 16 26 10 1
-18 -4 16 23 10 1
-18 -4 16 33 7 1
-4 18 16 33 10 1
18 4 16 20 6 1
2 -18 -16 1438 56 1
-18 -2 -16 1555 56 1
2 -18 -16 1537 58 1
-18 -2 -16 1503 63 1
2 -18 -16 1414 56 1
2 -18 16 1497 57 1
-2 18 16 1487 56 1
-2 18 16 1499 63 1
18 2 16 1449 57 1
-18 0 -16 50 4 1
0 -18 -16 58 5 1
0 -18 -16 49 5 1
-18 0 -16 50 7 1
-18 0 -16 47 7 1
18 0 16 60 5 1
0 18 16 66 8 1
0 18 16 56 5 1
-18 0 16 60 7 1
0 -18 16 40 6 1
-18 0 16 72 7 1
-18 0 16 52 10 1
-18 2 -16 768 24 1
-2 -18 -16 768 26 1
-18 2 -16 801 25 1
-18 2 -16 773 28 1
-2 -18 -16 757 24 1
-18 2 16 808 28 1
-18 2 16 773 28 1
18 -2 16 796 25 1
2 18 16 731 28 1
2 18 16 750 24 1
-18 2 16 772 28 1
-18 4 -16 787 28 1
-18 4 -16 746 32 1
-4 -18 -16 659 27 1
-4 -18 -16 653 28 1
-18 4 -16 744 29 1
-18 4 16 734 32 1
-18 4 16 732 32 1
18 -4 16 766 29 1
4 18 16 743 32 1
-4 -18 16 657 29 1
4 18 16 686 28 1
-18 6 -16 818 35 1
-6 -18 -16 790 32 1
-18 6 -16 844 32 1
-18 6 -16 826 31 1
-6 -18 -16 774 30 1
6 18 16 812 32 1
18 -6 16 808 32 1
-6 -18 16 794 33 1
-18 6 16 810 36 1
-18 6 16 796 36 1
-8 -18 -16 380 16 1
-18 8 -16 353 18 1
-18 8 16 336 18 1
-18 8 16 384 19 1
8 18 16 371 18 1
-18 8 16 402 19 1
-18 10 -16 232 12 1
-10 -18 -16 252 13 1
-18 10 -16 220 15 1
-18 10 16 241 15 1
18 -10 16 250 12 1
10 18 16 244 13 1
-18 10 16 241 18 1
-18 12 -16 225 15 1
-12 -18 -16 260 16 1
18 -12 16 243 15 1
12 18 16 235 16 1
-18 12 16 246 23 1
18 -12 16 235 15 1
-18 14 -16 1648 67 1
-14 -18 -16 1585 67 1
18 -14 16 1713 66 1
18 -14 16 1772 67 1
-18 14 16 1728 76 1
14 18 16 1563 67 1
-18 16 16 12 5 1
-18 -18 -16 7 2 1
-18 18 16 6 2 1
18 -18 16 6 1 1
-19 -17 -16 3 2 1
-17 19 16 8 2 1
17 -19 16 2 1 1
-19 -15 -16 207 13 1
-15 19 16 194 12 1
15 -19 16 206 11 1
-19 -13 -16 706 33 1
-13 19 -16 646 31 1
13 -19 -16 627 30 1
19 13 16 689 31 1
-13 19 16 703 33 1
13 -19 16 681 29 1
-19 -11 -16 77 12 1
-11 19 -16 98 13 1
11 -19 -16 89 11 1
11 -19 16 99 10 1
19 11 16 66 12 1
-9 19 -16 84 13 1
9 -19 -16 84 9 1
-19 -9 -16 52 11 1
9 -19 16 93 9 1
-9 19 16 68 11 1
19 9 16 76 11 1
-9 19 16 63 9 1
7 -19 -16 64 5 1
7 -19 -16 63 8 1
-19 -7 -16 159 7 1
7 -19 16 7 6 1
19 7 16 168 7 1
-7 19 16 67 9 1
-19 -5 -16 190 15 1
5 -19 -16 220 15 1
-19 -5 -16 180 14 1
-5 19 16 199 17 1
5 -19 16 248 13 1
-5 19 16 215 19 1
3 -19 -16 111 8 1
3 -19 -16 113 10 1
-19 -3 -16 123 11 1
-19 -3 -16 119 10 1
-3 19 16 113 14 1
19 3 16 113 9 1
-3 19 16 100 8 1
-19 -3 16 106 12 1
3 -19 16 105 9 1
1 -19 -16 154 7 1
-19 -1 -16 163 10 1
1 -19 -16 149 8 1
-19 -1 -16 154 10 1
1 -19 -16 150 10 1
-19 -1 16 159 10 1
-1 19 16 162 12 1
-19 -1 16 157 10 1
19 1 16 131 8 1
1 -19 16 140 8 1
-1 19 16 155 8 1
-19 1 -16 124 10 1
-1 -19 -16 125 11 1
-1 -19 -16 114 8 1
-19 1 -16 127 10 1
-1 -19 -16 119 8 1
-19 1 -16 127 8 1
-19 1 16 116 12 1
1 19 16 118 8 1
-1 -19 16 122 9 1
1 19 16 136 12 1
-19 1 16 115 11 1
-19 1 16 122 11 1
19 -1 16 134 9 1
-3 -19 -16 183 9 1
-19 3 -16 217 9 1
-3 -19 -16 185 8 1
-19 3 -16 194 10 1
-19 3 -16 213 11 1
-19 3 16 177 11 1
-3 -19 16 173 10 1
-19 3 16 196 11 1
-19 3 16 195 11 1
3 19 16 183 9 1
19 -3 16 213 9 1
3 19 16 188 12 1
-5 -19 -16 1302 45 1
-19 5 -16 1330 46 1
-5 -19 -16 1286 46 1
-19 5 -16 1287 51 1
5 19 16 1318 51 1
-5 -19 16 1348 46 1
-19 5 16 1373 52 1
-19 5 16 1349 51 1
-19 7 -16 26 8 1
-19 7 -16 39 7 1
-19 7 -16 41 6 1
-7 -19 -16 49 6 1
-19 7 16 35 6 1
-19 7 16 39 7 1
19 -7 16 34 6 1
7 19 16 31 6 1
7 19 16 45 10 1
-19 7 16 51 7 1
-7 -19 16 58 10 1
-19 9 -16 4 2 1
-19 9 -16 8 4 1
-19 9 -16 11 3 1
-9 -19 -16 11 3 1
-19 9 16 9 3 1
9 19 16 7 3 1
-19 9 16 4 3 1
-19 9 16 6 6 1
19 -9 16 11 2 1
9 19 16 2 5 1
-19 11 -16 687 25 1
-11 -19 -16 644 25 1
-19 11 16 616 29 1
19 -11 16 710 25 1
11 19 16 658 26 1
19 -11 16 727 25 1
-13 -19 -16 15 4 1
13 19 16 22 4 1
19 -13 16 12 2 1
-19 15 16 3 2 1
-17 -19 -16 157 9 1
-19 17 16 145 9 1
19 -17 16 161 7 1
-20 -16 -16 2 2 1
-16 20 16 5 2 1
16 -20 16 7 1 1
-20 -14 -16 310 15 1
-14 20 16 323 15 1
14 -20 16 338 13 1
12 -20 -16 108 9 1
-20 -12 -16 115 9 1
-12 20 -16 104 13 1
20 12 16 122 13 1
-12 20 16 119 8 1
12 -20 16 103 8 1
-10 20 -16 72 14 1
10 -20 -16 113 9 1
-10 20 16 99 9 1
20 10 16 114 12 1
10 -20 16 97 9 1
-8 20 -16 84 15 1
8 -20 -16 125 8 1
-20 -8 -16 132 10 1
-8 20 16 119 9 1
-8 20 16 104 11 1
8 -20 16 124 8 1
20 8 16 137 11 1
-20 -6 -16 3 3 1
6 -20 -16 1 3 1
6 -20 -16 4 2 1
6 -20 16 1 2 1
20 6 16 4 3 1
-6 20 16 3 4 1
-20 -4 -16 2 2 1
4 -20 -16 2 2 1
4 -20 -16 5 3 1
20 4 16 3 3 1
4 -20 16 13 2 1
-4 20 16 3 2 1
-20 -2 -16 891 43 1
2 -20 -16 926 38 1
2 -20 -16 970 40 1
-2 20 16 893 45 1
2 -20 16 891 39 1
-2 20 16 976 39 1
20 2 16 963 39 1
-20 0 -16 453 22 1
-20 0 -16 435 24 1
0 -20 -16 493 22 1
0 -20 -16 465 20 1
0 -20 -16 467 21 1
0 -20 16 475 21 1
0 20 16 429 26 1
0 20 16 450 21 1
-20 0 16 487 24 1
-2 -20 -16 41 2 1
-20 2 -16 24 2 1
-20 2 -16 19 4 1
-20 2 -16 24 2 1
-2 -20 -16 25 2 1
-2 -20 16 43 2 1
-20 2 16 26 3 1
-20 2 16 37 3 1
-20 2 16 22 4 1
2 20 16 41 5 1
20 -2 16 39 2 1
2 20 16 30 2 1
-20 4 -16 44 5 1
-4 -20 -16 31 2 1
-4 -20 -16 24 2 1
-20 4 -16 56 2 1
-20 4 -16 53 3 1
20 -4 16 69 2 1
-20 4 16 49 5 1
-4 -20 16 17 3 1
4 20 16 33 2 1
-20 4 16 38 3 1
4 20 16 31 5 1
-20 4 16 43 3 1
-20 6 -16 132 8 1
-20 6 -16 116 10 1
-20 6 -16 109 11 1
-6 -20 -16 117 8 1
-20 6 16 113 10 1
6 20 16 121 9 1
-6 -20 16 118 10 1
20 -6 16 118 8 1
-20 6 16 117 10 1
-20 8 -16 51 8 1
-20 8 -16 56 7 1
-8 -20 -16 53 7 1
-20 8 16 50 8 1
-20 8 16 46 8 1
8 20 16 49 14 1
8 20 16 50 8 1
-20 8 16 41 14 1
20 -8 16 60 7 1
-20 10 -16 1139 45 1
-10 -20 -16 1144 45 1
-20 10 -16 1194 46 1
20 -10 16 1189 45 1
-20 12 -16 268 14 1
-20 12 -16 287 15 1
-20 12 -16 254 18 1
-12 -20 -16 262 15 1
-20 12 16 282 15 1
20 -12 16 279 14 1
20 -14 16 500 21 1
-20 14 16 507 24 1
20 -16 16 10 1 1
-20 16 16 6 2 1
-21 -15 -16 127 8 1
-15 21 16 140 8 1
15 -21 16 132 7 1
-21 -13 -16 363 20 1
-13 21 16 324 20 1
13 -21 16 360 18 1
-21 -11 -16 150 11 1
11 -21 -16 160 11 1
11 -21 16 146 10 1
-11 21 16 148 11 1
-9 21 -16 29 15 1
-21 -9 -16 15 5 1
9 -21 -16 21 6 1
-9 21 16 21 7 1
9 -21 16 14 5 1
-21 -7 -16 17 3 1
7 -21 -16 18 2 1
-7 21 16 12 3 1
21 7 16 34 4 1
7 -21 16 19 2 1
5 -21 -16 84 9 1
5 -21 -16 74 7 1
-21 -5 -16 69 9 1
-5 21 16 74 8 1
21 5 16 73 10 1
5 -21 16 68 8 1
-21 -3 -16 280 15 1
3 -21 -16 287 14 1
3 -21 -16 272 12 1
-3 21 16 296 13 1
21 3 16 269 14 1
3 -21 16 277 13 1
-21 -1 -16 804 33 1
1 -21 -16 840 28 1
1 -21 -16 848 30 1
1 -21 16 825 29 1
-1 21 16 815 29 1
-21 -1 16 795 33 1
-1 -21 -16 558 21 1
-21 1 -16 553 24 1
-21 1 16 634 25 1
21 -1 16 552 22 1
-1 -21 16 560 22 1
-21 1 16 576 25 1
-3 -21 -16 181 9 1
-21 3 -16 186 12 1
21 -3 16 195 11 1
3 21 16 179 10 1
-21 3 16 194 13 1
-21 3 16 205 15 1
3 21 16 174 17 1
-3 -21 16 201 11 1
-21 3 16 165 12 1
-5 -21 -16 93 7 1
-21 5 -16 80 7 1
-21 5 -16 90 8 1
5 21 16 87 16 1
-21 5 16 93 9 1
-5 -21 16 109 9 1
5 21 16 90 7 1
21 -5 16 91 8 1
-21 5 16 100 9 1
-7 -21 -16 1156 44 1
-21 7 -16 1190 43 1
21 -7 16 1200 44 1
7 21 16 1127 44 1
-7 -21 16 1226 44 1
-21 9 -16 1316 62 1
-21 9 -16 1331 56 1
21 -9 16 1373 57 1
-21 9 16 1423 65 1
9 21 16 1270 57 1
21 -9 16 1394 57 1
21 -11 16 33 5 1
21 -11 16 49 7 1
21 -13 16 384 17 1
-21 13 16 443 20 1
-22 -14 -16 249 16 1
-14 22 16 253 16 1
14 -22 16 269 14 1
-22 -12 -16 42 5 1
-12 22 16 45 6 1
-22 -10 -16 2 2 1
-10 22 16 4 3 1
8 -22 -16 503 24 1
22 8 16 515 27 1
8 -22 16 520 25 1
-22 -6 -16 257 15 1
-6 22 16 243 14 1
22 6 16 237 16 1
6 -22 16 235 13 1
4 -22 -16 185 10 1
4 -22 -16 194 12 1
22 4 16 187 13 1
4 -22 16 173 11 1
-4 22 16 181 11 1
2 -22 -16 18 3 1
22 2 16 20 4 1
2 -22 16 33 5 1
0 -22 -16 15 2 1
0 -22 16 5 2 1
0 22 16 11 3 1
-22 2 -16 7 2 1
-2 -22 -16 2 3 1
-22 2 16 8 3 1
2 22 16 10 2 1
-2 -22 16 9 2 1
22 -2 16 7 3 1
4 22 16 98 8 1
22 -4 16 111 9 1
-4 -22 16 101 9 1
22 -6 16 5 3 1
-6 -22 16 0 3 1
-22 8 -16 20 5 1
-22 8 16 21 5 1
22 -8 16 30 6 1
-22 10 -16 7 2 1
-22 10 16 8 2 1
-22 12 -16 6 6 1
22 -14 16 156 9 1
-22 14 16 138 9 1
-23 -11 -16 997 53 1
11 -23 16 1046 48 1
-23 -9 -16 128 8 1
9 -23 16 98 6 1
-23 -7 -16 216 10 1
-23 -5 -16 15 5 1
5 -23 -16 29 7 1
5 -23 16 27 6 1
23 5 16 17 11 1
-23 -3 -16 411 21 1
3 -23 -16 429 19 1
23 3 16 417 21 1
3 -23 16 432 20 1
-3 23 16 416 20 1
-23 -1 -16 102 8 1
23 1 16 84 10 1
1 -23 16 89 8 1
-1 23 16 99 8 1
-1 -23 16 770 27 1
1 23 16 713 26 1
-23 3 16 11 3 1
23 -3 16 0 3 1
3 23 16 5 3 1
-23 5 -16 682 27 1
5 23 16 622 25 1
-23 5 16 670 28 1
23 -5 16 609 25 1
-23 5 16 701 27 1
-23 7 -16 178 10 1
-23 7 16 171 10 1
23 -7 16 182 10 1
-7 -23 16 182 10 1
-23 9 -16 6 2 1
23 -9 16 6 2 1
-23 9 16 4 2 1
-23 11 16 312 17 1
23 -11 16 311 15 1
-24 -10 -16 93 8 1
10 -24 16 99 7 1
-24 -8 -16 62 6 1
8 -24 16 83 6 1
-24 -6 -16 84 7 1
6 -24 16 68 6 1
-24 -4 -16 37 5 1
4 -24 16 30 4 1
-24 -2 -16 307 13 1
2 -24 16 270 12 1
-24 0 -16 127 8 1
0 -24 16 113 7 1
-24 0 16 107 9 1
-24 2 -16 157 9 1
-2 -24 16 131 8 1
-24 2 16 151 9 1
-24 2 16 149 10 1
-24 4 -16 56 5 1
-24 4 16 41 5 1
-24 4 16 50 6 1
-4 -24 16 51 5 1
-24 6 -16 349 15 1
-24 6 16 338 16 1
-6 -24 16 376 14 1
-24 8 -16 732 32 1
-24 8 16 676 33 1
-24 10 -16 205 10 1
-24 10 16 174 11 1
-25 -7 -16 1120 60 1
7 -25 16 1078 54 1
-25 -5 -16 135 8 1
5 -25 16 134 7 1
-25 -3 -16 81 6 1
3 -25 16 89 6 1
-25 -1 -16 71 5 1
1 -25 16 78 4 1
-25 1 -16 39 5 1
-25 1 16 18 6 1
-1 -25 16 26 4 1
-25 3 -16 268 12 1
-3 -25 16 265 11 1
-25 3 16 272 13 1
-25 5 -16 217 11 1
-25 5 16 194 11 1
-5 -25 16 218 10 1
-25 7 -16 23 4 1
-25 7 16 24 4 1
-26 -4 -16 343 17 1
4 -26 16 337 15 1
-26 -2 -16 157 10 1
2 -26 16 179 8 1
-26 0 -16 177 9 1
0 -26 16 156 8 1
-26 2 -16 33 4 1
-26 2 16 17 6 1
-2 -26 16 23 4 1
-26 4 -16 16 4 1
-4 -26 16 21 4 1
0 1 -17 1463 47 1
1 0 -17 1352 47 1
1 0 -17 1334 47 1
0 1 -17 1461 47 1
0 -1 -17 1371 47 1
0 -1 -17 1431 47 1
-1 0 -17 1350 47 1
-1 0 -17 1307 47 1
1 0 17 1325 52 1
-1 0 17 1295 54 1
1 -2 -17 2454 94 1
2 1 -17 2509 94 1
-2 -1 -17 2528 94 1
-1 2 -17 2454 94 1
1 -2 -17 2541 94 1
-2 -1 -17 2529 94 1
2 1 -17 2594 94 1
-1 2 17 2645 107 1
2 1 17 2469 93 1
-2 -1 17 2541 107 1
2 -1 -17 3070 123 1
1 2 -17 2926 123 1
-2 1 -17 2890 123 1
2 -1 -17 3151 124 1
-1 -2 -17 2999 123 1
-1 -2 -17 3010 123 1
-2 1 -17 3091 124 1
1 2 17 3083 123 1
2 -1 17 3117 123 1
2 -1 17 2965 136 1
-2 1 17 3120 137 1
-1 -2 17 3023 136 1
2 -1 17 3070 123 1
2 -1 17 2845 140 1
2 -3 -17 1479 64 1
-3 -2 -17 1439 64 1
2 -3 -17 1331 63 1
-3 -2 -17 1345 63 1
-2 3 -17 1434 64 1
3 2 -17 1406 63 1
-2 3 17 1326 70 1
3 2 17 1487 73 1
3 2 17 1321 63 1
-3 0 -17 2863 84 1
0 -3 -17 2780 84 1
0 -3 -17 2871 84 1
3 0 -17 2859 84 1
-3 0 -17 2762 84 1
0 3 -17 2913 84 1
0 3 17 2951 83 1
0 -3 17 3023 93 1
-3 0 17 2982 95 1
3 -2 -17 153 5 1
-2 -3 -17 173 5 1
2 3 -17 189 5 1
2 3 -17 179 6 1
-3 2 -17 160 5 1
2 3 17 181 4 1
3 -2 17 169 5 1
-2 -3 17 173 8 1
3 -2 17 169 5 1
2 3 17 170 6 1
-3 2 17 165 6 1
3 -2 17 176 7 1
-3 2 17 148 7 1
-2 -3 17 178 5 1
3 -2 17 158 4 1
3 -4 -17 1491 77 1
-3 4 -17 1527 77 1
3 -4 -17 1489 77 1
-4 -3 17 1506 88 1
3 -4 17 1515 85 1
-4 -3 17 1449 85 1
-3 4 17 1540 88 1
3 -4 17 1403 87 1
4 1 -17 561 17 1
1 -4 -17 509 18 1
-4 -1 -17 511 18 1
-1 4 -17 606 18 1
-4 -1 -17 534 18 1
4 1 17 545 21 1
1 -4 17 578 21 1
-4 -1 17 542 20 1
1 -4 17 542 19 1
-1 4 17 552 21 1
-4 -1 17 561 21 1
4 1 17 527 20 1
1 4 -17 2 2 1
-4 1 -17 9 1 1
4 -1 -17 1 2 1
-1 -4 -17 4 1 1
-1 -4 17 1 3 1
-4 1 17 0 2 1
4 -1 17 8 5 1
1 4 17 4 2 1
4 -1 17 10 1 1
1 4 17 2 2 1
-4 1 17 0 2 1
-1 -4 17 1 2 1
-3 -4 -17 1560 82 1
-4 3 -17 1549 82 1
4 -3 -17 1512 82 1
-3 -4 -17 1482 82 1
-4 3 17 1545 94 1
-3 -4 17 1479 91 1
3 4 17 1470 82 1
4 -3 17 1582 81 1
5 4 -17 279 7 1
-4 5 -17 288 8 1
-5 -4 -17 277 7 1
4 -5 -17 320 7 1
-4 5 17 313 10 1
-5 -4 17 258 9 1
4 -5 17 289 8 1
-5 -4 17 263 10 1
5 4 17 288 10 1
2 -5 -17 2 3 1
-5 -2 -17 3 2 1
5 2 -17 3 2 1
-2 5 -17 3 4 1
2 -5 17 2 3 1
5 2 17 2 2 1
-5 -2 17 6 2 1
-2 5 17 2 1 1
-2 5 17 2 3 1
5 2 17 3 2 1
-5 0 -17 424 25 1
0 -5 -17 479 25 1
-5 0 -17 480 25 1
5 0 -17 476 24 1
0 5 -17 484 25 1
0 -5 17 460 29 1
-5 0 17 478 28 1
0 -5 17 470 27 1
0 5 17 488 24 1
5 0 17 473 24 1
-5 0 17 470 29 1
-2 -5 -17 1120 40 1
-5 2 -17 1092 40 1
5 -2 -17 1119 40 1
5 -2 -17 1062 40 1
-2 -5 -17 1059 40 1
-5 2 17 1092 45 1
-5 2 17 1127 46 1
5 -2 17 1114 44 1
5 -2 17 1085 40 1
-2 -5 17 1093 44 1
-2 -5 17 1133 46 1
5 -2 17 1133 46 1
-4 -5 -17 893 26 1
-4 -5 -17 907 25 1
-5 4 -17 886 26 1
5 -4 17 918 28 1
-4 -5 17 838 30 1
5 -4 17 900 25 1
-5 4 17 858 30 1
5 -6 -17 136 8 1
5 -6 -17 146 7 1
6 5 -17 168 8 1
-6 -5 -17 144 7 1
-5 6 -17 151 8 1
5 -6 17 147 7 1
5 -6 17 153 8 1
-5 6 17 153 9 1
5 -6 17 142 10 1
6 5 17 172 11 1
-6 -5 17 152 9 1
6 5 17 164 8 1
-6 -5 17 145 11 1
-3 6 -17 25 7 1
3 -6 -17 24 6 1
-6 -3 -17 29 6 1
6 3 -17 28 6 1
3 -6 -17 24 6 1
3 -6 17 21 8 1
3 -6 17 30 6 1
-6 -3 17 27 7 1
-3 6 17 15 8 1
-3 6 17 23 5 1
-3 6 17 21 7 1
6 3 17 26 9 1
6 3 17 24 6 1
-6 -1 -17 60 4 1
1 -6 -17 56 4 1
1 -6 -17 53 4 1
-6 -1 -17 64 5 1
6 1 17 63 7 1
1 -6 17 50 7 1
-6 -1 17 58 7 1
-6 -1 17 52 6 1
-1 6 17 54 7 1
1 -6 17 64 5 1
-1 6 17 54 6 1
-1 6 17 57 4 1
6 -1 -17 690 18 1
-1 -6 -17 728 19 1
1 6 17 717 18 1
-1 -6 17 698 22 1
1 6 17 749 21 1
6 -1 17 747 22 1
-6 3 -17 2589 108 1
6 -3 -17 2565 107 1
-3 -6 -17 2614 107 1
6 -3 -17 2521 107 1
-6 3 17 2563 122 1
-3 -6 17 2338 122 1
6 -3 17 2646 119 1
3 6 17 2386 107 1
-3 -6 17 2629 119 1
-5 -6 -17 229 15 1
6 -5 -17 219 15 1
-6 5 -17 248 15 1
6 -5 17 242 16 1
5 6 17 260 19 1
-6 5 17 246 17 1
6 -5 17 261 18 1
5 6 17 236 15 1
-5 -6 17 217 17 1
6 -5 17 261 15 1
-7 -6 -17 273 10 1
-6 7 -17 298 10 1
6 -7 -17 267 9 1
7 6 -17 250 9 1
6 -7 -17 286 10 1
-7 -6 -17 256 9 1
6 -7 17 299 12 1
7 6 17 276 10 1
7 6 17 278 13 1
6 -7 17 290 9 1
-7 -6 17 277 11 1
-6 7 17 275 12 1
-7 -4 -17 152 7 1
-4 7 -17 150 7 1
4 -7 -17 134 6 1
-7 -4 -17 160 6 1
7 4 -17 149 6 1
-4 7 17 143 5 1
-4 7 17 134 9 1
4 -7 17 141 8 1
-7 -4 17 142 7 1
4 -7 17 144 6 1
-2 7 -17 14 7 1
2 -7 -17 27 5 1
-7 -2 -17 14 5 1
7 2 -17 14 5 1
2 -7 -17 19 5 1
-7 -2 -17 11 5 1
-2 7 17 15 7 1
-2 7 17 16 8 1
-7 -2 17 12 7 1
-2 7 17 25 5 1
2 -7 17 20 6 1
0 -7 -17 147 10 1
-7 0 -17 129 10 1
7 0 -17 140 10 1
-7 0 -17 133 11 1
7 0 17 136 13 1
0 -7 17 133 13 1
0 7 17 151 12 1
0 7 17 148 13 1
7 0 17 126 10 1
-2 -7 -17 63 4 1
7 -2 -17 51 4 1
-2 -7 -17 58 4 1
-7 2 -17 60 4 1
-7 2 17 52 6 1
7 -2 17 49 6 1
-2 -7 17 52 4 1
2 7 17 64 7 1
2 7 17 57 5 1
2 7 17 50 4 1
7 -2 17 54 4 1
-2 -7 17 51 7 1
-7 2 17 40 5 1
-7 4 -17 171 4 1
7 -4 -17 172 5 1
-4 -7 -17 177 3 1
7 -4 -17 182 3 1
4 7 17 165 3 1
7 -4 17 160 6 1
-7 4 17 154 6 1
-4 -7 17 181 8 1
7 -4 17 176 3 1
-4 -7 17 200 4 1
7 -4 17 160 4 1
4 7 17 207 8 1
-6 -7 -17 432 20 1
-7 6 -17 483 21 1
7 -6 -17 449 20 1
7 -6 -17 476 21 1
6 7 17 424 24 1
-7 6 17 455 24 1
7 -6 17 489 22 1
7 -6 17 474 20 1
6 7 17 457 20 1
-6 -7 17 469 23 1
-6 -7 17 444 24 1
-8 -7 -17 1116 51 1
7 -8 -17 1105 50 1
7 -8 -17 1106 51 1
-8 -7 -17 1117 51 1
-8 -7 17 1035 56 1
7 -8 17 1198 50 1
-7 8 17 1095 57 1
-5 8 -17 93 10 1
-8 -5 -17 87 9 1
-8 -5 -17 82 9 1
5 -8 -17 97 9 1
5 -8 17 92 12 1
8 5 17 91 9 1
-8 -5 17 104 11 1
-5 8 17 95 11 1
-5 8 17 89 8 1
-8 -3 -17 272 9 1
-8 -3 -17 258 9 1
3 -8 -17 273 9 1
-3 8 -17 261 10 1
8 3 17 258 9 1
-3 8 17 257 8 1
-3 8 17 240 10 1
8 3 17 283 12 1
-8 -3 17 285 10 1
-8 -3 17 261 12 1
3 -8 17 250 11 1
-8 -1 -17 331 11 1
1 -8 -17 334 11 1
-1 8 -17 306 12 1
8 1 -17 331 11 1
1 -8 -17 325 11 1
8 1 17 348 11 1
-8 -1 17 338 14 1
-1 8 17 324 11 1
-8 -1 17 328 13 1
-1 8 17 328 14 1
1 -8 17 310 14 1
8 1 17 309 14 1
-8 1 -17 119 8 1
-8 1 -17 136 8 1
-1 -8 -17 150 8 1
1 8 17 148 9 1
1 8 17 133 7 1
-1 -8 17 140 11 1
8 -1 17 127 8 1
-1 -8 17 123 8 1
-8 1 17 129 9 1
1 8 17 161 11 1
8 -3 -17 235 8 1
-8 3 -17 230 8 1
-3 -8 -17 254 8 1
-8 3 17 235 10 1
3 8 17 239 8 1
3 8 17 251 10 1
3 8 17 246 12 1
-3 -8 17 227 12 1
-3 -8 17 247 9 1
8 -5 -17 38 3 1
8 -5 -17 44 5 1
-5 -8 -17 27 4 1
-5 -8 -17 34 3 1
8 -5 17 39 4 1
-8 5 17 27 5 1
-8 5 17 33 6 1
-5 -8 17 55 9 1
-5 -8 17 38 5 1
5 8 17 46 4 1
5 8 17 36 9 1
8 -5 17 39 3 1
-8 7 -17 1030 42 1
8 -7 -17 1104 41 1
-7 -8 -17 1060 41 1
8 -7 -17 1084 41 1
-7 -8 17 1096 45 1
-8 7 17 1006 46 1
7 8 17 1065 41 1
-7 -8 17 964 47 1
8 -7 17 1024 40 1
-9 -8 -17 71 4 1
-9 -8 -17 65 4 1
-8 9 -17 63 6 1
8 -9 -17 64 3 1
9 8 17 85 10 1
9 8 17 54 4 1
8 -9 17 70 3 1
-8 9 17 71 6 1
6 -9 -17 1479 67 1
-6 9 -17 1463 68 1
-9 -6 -17 1485 67 1
6 -9 -17 1349 67 1
-9 -6 -17 1410 67 1
9 6 17 1492 67 1
9 6 17 1524 77 1
-9 -6 17 1434 76 1
4 -9 -17 637 28 1
-9 -4 -17 676 28 1
-9 -4 -17 633 28 1
-9 -4 17 636 31 1
9 4 17 617 32 1
-4 9 17 609 27 1
9 4 17 620 28 1
-9 -2 -17 1149 35 1
-2 9 -17 1237 36 1
-9 -2 -17 1160 35 1
9 2 17 1157 35 1
-2 9 17 1119 35 1
-9 0 -17 529 13 1
-9 0 -17 539 13 1
0 -9 -17 489 13 1
0 -9 17 493 16 1
9 0 17 559 13 1
9 0 17 542 16 1
0 9 17 499 16 1
0 9 17 492 13 1
-9 0 17 570 16 1
0 9 17 486 15 1
-9 2 -17 22 10 1
-2 -9 -17 40 4 1
9 -2 -17 28 4 1
-2 -9 -17 39 3 1
-9 2 -17 20 5 1
-2 -9 17 30 8 1
-2 -9 17 32 4 1
-9 2 17 25 5 1
-9 2 17 28 6 1
2 9 17 39 8 1
9 -2 17 21 4 1
9 -2 17 25 6 1
-4 -9 -17 5523 200 1
-4 -9 -17 5397 200 1
-9 4 -17 5663 200 1
-9 4 17 5419 222 1
-4 -9 17 6048 221 1
-9 4 17 5751 227 1
9 -4 17 5547 200 1
4 9 17 5533 200 1
9 -4 17 5459 221 1
-4 -9 17 5618 226 1
9 -6 -17 629 32 1
9 -6 17 567 31 1
-6 -9 17 617 35 1
6 9 17 623 37 1
9 -8 -17 834 40 1
9 -8 -17 822 40 1
-8 -9 -17 727 40 1
-8 -9 -17 772 40 1
-9 8 -17 791 41 1
8 9 17 769 47 1
8 9 17 737 40 1
9 -8 17 812 40 1
-9 8 17 773 45 1
-9 8 17 872 47 1
-8 -9 17 807 44 1
9 -10 -17 2314 80 1
-9 10 -17 2392 81 1
-10 -9 -17 2417 80 1
9 -10 -17 2451 80 1
-10 -9 -17 2421 80 1
10 9 17 2310 80 1
9 -10 17 2490 79 1
-10 -9 17 2463 89 1
-10 -7 -17 844 30 1
-7 10 -17 829 31 1
7 -10 -17 818 30 1
-7 10 17 857 35 1
-10 -7 17 833 34 1
10 7 17 833 35 1
-10 -5 -17 12 4 1
5 -10 -17 17 5 1
5 -10 -17 14 4 1
-10 -5 17 8 8 1
-5 10 17 13 4 1
10 5 17 11 5 1
10 5 17 25 8 1
-5 10 17 19 7 1
-10 -5 17 14 5 1
-3 10 -17 161 7 1
-10 -3 -17 157 5 1
-10 -3 -17 169 5 1
3 -10 -17 170 4 1
-3 10 17 133 8 1
-10 -3 17 164 6 1
-10 -3 17 141 8 1
10 3 17 156 5 1
10 3 17 165 8 1
-3 10 17 151 4 1
1 -10 -17 1237 56 1
-10 -1 -17 1291 57 1
-10 -1 -17 1267 57 1
10 1 17 1234 56 1
-10 -1 17 1204 63 1
-1 -10 -17 802 36 1
-10 1 -17 861 36 1
-1 -10 -17 820 36 1
-10 1 -17 870 36 1
-10 1 -17 793 41 1
10 -1 17 848 36 1
-10 1 17 808 41 1
1 10 17 884 36 1
-1 -10 17 823 41 1
-10 1 17 807 40 1
-10 3 -17 277 12 1
-3 -10 -17 245 6 1
-10 3 -17 252 7 1
-3 -10 -17 249 6 1
-3 -10 17 278 7 1
3 10 17 253 6 1
-3 -10 17 276 12 1
-10 3 17 277 8 1
3 10 17 275 10 1
10 -3 17 274 6 1
-10 3 17 261 9 1
-3 -10 17 241 12 1
-5 -10 -17 144 4 1
-5 -10 -17 130 5 1
10 -5 -17 154 5 1
-10 5 -17 140 5 1
5 10 17 127 4 1
-10 5 17 147 6 1
-10 5 17 116 6 1
10 -5 17 135 4 1
5 10 17 148 10 1
-7 -10 -17 1 4 1
-7 -10 -17 3 4 1
10 -7 -17 1 4 1
-10 7 -17 5 5 1
7 10 17 1 4 1
-10 7 17 1 5 1
10 -7 17 5 3 1
-7 -10 17 1 5 1
7 10 17 9 11 1
10 -9 -17 226 9 1
-10 9 -17 214 10 1
10 -9 -17 223 10 1
-9 -10 -17 196 8 1
-9 -10 -17 193 9 1
10 -9 17 216 8 1
-10 9 17 244 11 1
9 10 17 197 9 1
10 -11 -17 37 3 1
-10 11 -17 61 6 1
-11 -10 -17 51 5 1
-11 -10 -17 45 4 1
-10 11 17 48 7 1
-10 11 17 61 7 1
10 -11 17 49 3 1
8 -11 -17 75 5 1
-8 11 -17 56 6 1
-11 -8 -17 81 5 1
-11 -8 17 82 6 1
-8 11 17 57 6 1
-8 11 17 70 7 1
-6 11 -17 3560 124 1
-11 -6 -17 3500 123 1
6 -11 -17 3603 123 1
-11 -6 -17 3577 123 1
-11 -6 17 3449 139 1
-11 -6 17 3416 136 1
11 6 17 3472 123 1
-6 11 17 3506 140 1
-6 11 17 3432 136 1
4 -11 -17 2896 88 1
-11 -4 -17 2769 89 1
-4 11 17 3035 88 1
-11 -4 17 2897 98 1
11 4 17 2929 88 1
-11 -4 17 2847 100 1
2 -11 -17 53 6 1
-11 -2 -17 49 5 1
-2 11 17 41 8 1
-11 -2 17 39 9 1
-2 11 17 49 7 1
-2 11 17 48 5 1
0 -11 -17 851 44 1
-11 0 -17 853 49 1
-11 0 -17 839 44 1
-11 0 -17 849 44 1
-11 0 17 928 49 1
0 11 17 854 43 1
11 0 17 879 44 1
0 -11 17 849 50 1
-2 -11 -17 6 2 1
-11 2 -17 1 3 1
-11 2 -17 1 2 1
2 11 17 2 1 1
-2 -11 17 4 3 1
-11 2 17 1 4 1
-11 2 17 1 2 1
11 -2 17 1 1 1
-2 -11 17 8 4 1
-11 2 17 2 2 1
2 11 17 3 3 1
-4 -11 -17 1049 40 1
-11 4 -17 1141 45 1
-4 -11 -17 1092 40 1
-11 4 -17 1135 40 1
-11 4 17 1109 45 1
4 11 17 1130 40 1
4 11 17 1118 47 1
-4 -11 17 1022 42 1
-6 -11 -17 39 6 1
-11 6 -17 46 7 1
-6 -11 -17 39 5 1
-11 6 17 38 8 1
-11 6 17 42 8 1
11 -6 17 37 5 1
6 11 17 41 6 1
6 11 17 46 13 1
-8 -11 -17 592 18 1
-11 8 -17 591 19 1
-8 -11 -17 617 19 1
-11 8 17 570 22 1
11 -8 17 634 18 1
-10 -11 -17 319 13 1
11 -10 -17 310 14 1
-10 -11 -17 301 12 1
-11 10 -17 330 14 1
-11 10 17 302 16 1
11 -10 17 344 12 1
10 11 17 322 13 1
-11 12 -17 29 8 1
-12 -11 -17 43 4 1
11 -12 -17 43 7 1
-12 -11 -17 44 5 1
-11 12 17 48 8 1
12 11 17 47 6 1
11 -12 17 30 4 1
-11 12 17 47 8 1
-12 -9 -17 54 8 1
9 -12 -17 51 9 1
-9 12 -17 56 10 1
12 9 17 55 9 1
-9 12 17 50 11 1
7 -12 -17 1266 53 1
-7 12 -17 1290 54 1
7 -12 -17 1245 53 1
-12 -7 -17 1215 53 1
-7 12 17 1290 52 1
-12 -7 17 1306 59 1
-7 12 17 1214 59 1
12 7 17 1274 53 1
-5 12 -17 167 13 1
5 -12 -17 137 10 1
-12 -5 -17 140 10 1
5 -12 -17 161 10 1
-12 -5 -17 138 10 1
-5 12 17 169 13 1
-5 12 17 150 9 1
-12 -5 17 152 12 1
12 5 17 148 10 1
-12 -3 -17 1630 53 1
3 -12 -17 1575 53 1
3 -12 -17 1526 53 1
-3 12 -17 1658 54 1
-12 -3 -17 1591 53 1
-3 12 17 1513 53 1
-3 12 17 1567 61 1
-12 -3 17 1601 59 1
-12 -1 -17 853 39 1
-12 -1 -17 832 35 1
1 -12 -17 854 35 1
-12 -1 -17 830 35 1
1 -12 -17 761 35 1
1 -12 17 821 36 1
-12 -1 17 774 39 1
12 1 17 773 35 1
-1 12 17 826 35 1
-1 12 17 778 40 1
-1 12 17 863 39 1
-12 -1 17 767 40 1
-1 -12 -17 207 13 1
-12 1 -17 192 13 1
-12 1 -17 190 16 1
-12 1 -17 198 13 1
-12 1 17 188 15 1
12 -1 17 187 13 1
1 12 17 205 13 1
1 12 17 220 15 1
-1 -12 17 220 14 1
1 12 17 194 16 1
-12 3 -17 138 10 1
-3 -12 -17 123 7 1
-12 3 -17 137 7 1
-3 -12 -17 125 7 1
-3 -12 17 106 10 1
3 12 17 108 12 1
3 12 17 127 7 1
-12 3 17 133 9 1
-12 3 17 142 9 1
-12 3 17 135 11 1
12 -3 17 123 7 1
-12 5 -17 4 5 1
-5 -12 -17 2 4 1
-5 -12 -17 2 4 1
-12 5 -17 6 9 1
-5 -12 17 7 5 1
-12 5 17 2 6 1
-12 5 17 2 7 1
-12 5 17 7 6 1
5 12 17 6 4 1
12 -5 17 5 4 1
-7 -12 -17 637 17 1
-7 -12 -17 615 18 1
-12 7 -17 660 18 1
7 12 17 645 18 1
12 -7 17 672 17 1
-12 7 17 628 21 1
-9 -12 -17 26 6 1
-9 -12 -17 23 5 1
12 -9 -17 36 9 1
-12 9 -17 33 7 1
9 12 17 26 6 1
12 -9 17 32 5 1
-11 -12 -17 79 4 1
-11 -12 -17 96 6 1
12 -11 -17 113 8 1
-12 11 -17 93 7 1
-12 11 17 110 8 1
11 12 17 87 6 1
-12 11 17 97 8 1
12 -11 17 88 5 1
-13 -12 -17 45 5 1
-13 -12 -17 47 4 1
-12 13 -17 32 7 1
12 -13 -17 49 7 1
12 -13 17 27 4 1
-12 13 17 36 7 1
13 12 17 40 5 1
-12 13 17 46 9 1
-13 -10 -17 19 2 1
10 -13 -17 14 3 1
-10 13 -17 23 3 1
-13 -10 -17 23 2 1
13 10 17 21 2 1
-10 13 17 16 4 1
-13 -8 -17 10 2 1
8 -13 -17 19 2 1
-13 -8 17 16 3 1
-8 13 17 9 3 1
13 8 17 16 2 1
-8 13 17 19 3 1
6 -13 -17 0 2 1
6 -13 -17 0 3 1
13 6 17 1 2 1
-6 13 17 0 3 1
4 -13 -17 259 14 1
4 -13 -17 271 14 1
-13 -4 -17 208 14 1
-13 -4 -17 216 15 1
13 4 17 236 15 1
-4 13 17 252 17 1
-4 13 17 251 17 1
-4 13 17 263 14 1
-13 -4 17 239 18 1
4 -13 17 242 15 1
2 -13 -17 29 2 1
2 -13 -17 15 2 1
-13 -2 -17 61 2 1
-13 -2 -17 48 2 1
-2 13 17 16 3 1
-2 13 17 21 1 1
0 -13 -17 9 2 1
0 -13 -17 9 2 1
-13 0 -17 11 2 1
-13 0 -17 9 2 1
0 -13 17 11 2 1
-13 0 17 8 3 1
-13 0 17 9 2 1
0 13 17 15 2 1
0 13 17 9 3 1
0 13 17 9 1 1
-13 2 -17 1 3 1
-2 -13 -17 1 2 1
-2 -13 -17 3 2 1
-2 -13 17 2 3 1
13 -2 17 1 2 1
2 13 17 1 2 1
2 13 17 1 4 1
-13 2 17 0 4 1
2 13 17 1 3 1
-13 2 17 0 3 1
-13 2 17 1 3 1
-4 -13 -17 8 2 1
-13 4 -17 4 3 1
-4 -13 -17 6 2 1
-13 4 -17 2 2 1
-13 4 17 8 3 1
4 13 17 3 3 1
13 -4 17 1 3 1
-4 -13 17 6 4 1
-13 4 17 2 3 1
4 13 17 3 2 1
-13 4 17 2 3 1
-13 6 -17 1231 51 1
-6 -13 -17 1259 46 1
-6 -13 -17 1209 45 1
-13 6 -17 1192 46 1
-13 6 17 1256 51 1
-13 6 17 1302 51 1
13 -6 17 1239 45 1
-13 8 -17 374 15 1
-8 -13 -17 329 14 1
-8 -13 -17 342 14 1
8 13 17 336 14 1
-13 8 17 363 17 1
13 -8 17 396 14 1
-10 -13 -17 13 2 1
13 -10 -17 24 4 1
-13 10 -17 12 3 1
-13 10 17 18 4 1
-13 10 17 30 7 1
13 -10 17 12 2 1
10 13 17 10 2 1
13 -12 -17 146 10 1
-13 12 -17 129 9 1
-12 -13 -17 135 8 1
-12 -13 -17 134 6 1
-13 12 17 128 11 1
12 13 17 142 8 1
-13 12 17 129 10 1
13 -12 17 141 7 1
-14 -13 -17 28 6 1
13 -14 -17 27 8 1
13 -14 17 27 6 1
14 13 17 25 6 1
-13 14 17 21 6 1
-13 14 17 26 7 1
-11 14 -17 29 3 1
-14 -11 -17 21 4 1
-14 -11 -17 21 3 1
11 -14 -17 10 3 1
-11 14 17 15 3 1
11 -14 17 22 2 1
14 11 17 19 3 1
-11 14 17 18 5 1
-14 -9 -17 651 19 1
-9 14 -17 606 20 1
9 -14 -17 616 19 1
-14 -9 -17 631 17 1
9 -14 17 673 19 1
14 9 17 650 19 1
-9 14 17 689 22 1
-9 14 17 622 22 1
-7 14 -17 1246 47 1
7 -14 -17 1226 45 1
-14 -7 -17 1239 45 1
7 -14 -17 1190 45 1
-14 -7 -17 1242 44 1
-7 14 17 1280 51 1
14 7 17 1197 45 1
-14 -7 17 1170 50 1
7 -14 17 1229 46 1
-7 14 17 1274 44 1
5 -14 -17 124 7 1
-14 -5 -17 139 6 1
-14 -5 -17 135 7 1
5 -14 -17 148 11 1
5 -14 -17 122 7 1
-5 14 17 120 10 1
14 5 17 145 7 1
-5 14 17 112 6 1
-5 14 17 116 9 1
-14 -3 -17 3252 138 1
3 -14 -17 3352 137 1
-14 -3 -17 3134 137 1
3 -14 -17 3402 140 1
3 -14 -17 3500 138 1
3 -14 17 3305 139 1
14 3 17 3352 138 1
-3 14 17 3450 137 1
1 -14 -17 791 33 1
-14 -1 -17 782 31 1
-14 -1 -17 796 35 1
-14 -1 -17 781 32 1
1 -14 -17 787 31 1
1 -14 -17 777 31 1
14 1 17 750 31 1
-14 -1 17 813 36 1
1 -14 17 819 32 1
-1 14 17 812 31 1
-14 -1 17 836 35 1
-14 1 -17 159 10 1
-14 1 -17 178 9 1
-1 -14 -17 176 9 1
-1 -14 -17 168 9 1
-1 -14 17 167 11 1
14 -1 17 167 9 1
1 14 17 164 14 1
-14 1 17 182 11 1
1 14 17 176 9 1
-14 3 -17 77 6 1
-14 3 -17 77 9 1
-3 -14 -17 76 6 1
-3 -14 -17 88 5 1
-14 3 -17 71 7 1
14 -3 17 84 6 1
-3 -14 17 95 9 1
3 14 17 86 7 1
-14 3 17 72 7 1
3 14 17 75 5 1
-14 5 -17 231 10 1
-5 -14 -17 232 9 1
-14 5 -17 251 12 1
-5 -14 -17 237 9 1
14 -5 17 241 9 1
5 14 17 245 9 1
5 14 17 217 11 1
-14 5 17 231 12 1
-14 5 17 226 12 1
-5 -14 17 223 13 1
-14 7 -17 196 9 1
-7 -14 -17 178 9 1
-14 7 -17 202 12 1
-7 -14 -17 178 8 1
-14 7 17 174 11 1
-14 7 17 200 11 1
-14 7 17 206 11 1
14 -7 17 198 8 1
7 14 17 184 8 1
-9 -14 -17 128 8 1
-14 9 -17 148 10 1
-9 -14 -17 121 9 1
9 14 17 128 9 1
14 -9 17 162 9 1
14 -11 -17 47 10 1
-14 11 -17 48 8 1
-11 -14 -17 64 7 1
-11 -14 -17 59 5 1
14 -11 17 47 6 1
11 14 17 61 7 1
-14 11 17 50 9 1
-14 11 17 55 10 1
-14 13 -17 100 11 1
-13 -14 -17 112 9 1
14 -13 -17 107 12 1
14 -13 17 101 7 1
13 14 17 102 9 1
14 -13 17 105 9 1
-14 13 17 118 11 1
-14 13 17 126 14 1
-14 15 -17 15 4 1
14 -15 -17 16 4 1
-15 -14 -17 18 4 1
14 -15 17 17 2 1
-14 15 17 28 3 1
-14 15 17 50 7 1
15 14 17 19 3 1
-15 -12 -17 24 6 1
-12 15 17 13 7 1
12 -15 17 16 6 1
-12 15 17 7 3 1
-15 -10 -17 6 3 1
10 -15 -17 4 3 1
-15 -10 -17 6 2 1
-10 15 -17 8 4 1
10 -15 17 8 2 1
-10 15 17 5 3 1
-10 15 17 7 5 1
-15 -8 -17 494 19 1
-15 -8 -17 500 20 1
-8 15 -17 471 22 1
8 -15 -17 551 21 1
-8 15 17 524 19 1
8 -15 17 467 21 1
15 8 17 525 20 1
-15 -6 -17 2497 82 1
-6 15 -17 2317 84 1
-15 -6 -17 2386 81 1
6 -15 -17 2395 82 1
-6 15 17 2538 92 1
-6 15 17 2409 82 1
6 -15 17 2496 83 1
15 6 17 2434 82 1
-15 -6 17 2535 92 1
-15 -4 -17 2304 93 1
4 -15 -17 2325 93 1
-15 -4 -17 2351 104 1
-15 -4 -17 2302 93 1
15 4 17 2260 93 1
-4 15 17 2168 93 1
-15 -4 17 2157 106 1
-15 -4 17 2345 104 1
4 -15 17 2324 94 1
-15 -2 -17 96 7 1
-15 -2 -17 75 6 1
2 -15 -17 79 5 1
2 -15 17 86 6 1
-2 15 17 73 7 1
-15 -2 17 84 7 1
-15 -2 17 102 8 1
-2 15 17 91 9 1
-2 15 17 94 5 1
15 2 17 103 5 1
0 -15 -17 19 4 1
0 -15 -17 27 7 1
-15 0 -17 16 4 1
0 15 17 14 5 1
0 15 17 17 4 1
-15 0 17 22 6 1
-15 0 17 29 7 1
15 0 17 19 5 1
-15 2 -17 80 5 1
-15 2 -17 67 7 1
-2 -15 -17 82 5 1
-15 2 -17 58 6 1
-2 -15 -17 71 4 1
15 -2 17 76 5 1
-15 2 17 84 10 1
-2 -15 17 105 8 1
-15 2 17 74 6 1
2 15 17 75 5 1
-15 2 17 87 7 1
2 15 17 73 7 1
-15 4 -17 311 12 1
-4 -15 -17 297 9 1
-15 4 -17 300 10 1
-15 4 -17 280 10 1
-4 -15 -17 284 10 1
-15 4 17 299 12 1
-4 -15 17 326 12 1
-15 4 17 320 12 1
15 -4 17 282 9 1
4 15 17 299 9 1
-15 6 -17 209 12 1
-15 6 -17 203 9 1
-6 -15 -17 249 9 1
-6 -15 -17 245 8 1
6 15 17 245 10 1
-15 6 17 248 11 1
6 15 17 245 9 1
-15 6 17 223 11 1
-15 6 17 249 11 1
15 -6 17 221 9 1
-6 -15 17 245 13 1
-8 -15 -17 3 2 1
-15 8 -17 6 2 1
-8 -15 -17 3 2 1
-15 8 -17 5 4 1
8 15 17 4 2 1
-15 8 17 4 3 1
-10 -15 -17 29 4 1
-15 10 -17 37 6 1
-10 -15 -17 19 3 1
-15 10 17 11 4 1
-15 10 17 12 3 1
15 -10 17 21 2 1
-12 -15 -17 37 6 1
15 -12 -17 33 10 1
-15 12 17 26 7 1
-15 12 17 22 6 1
-14 -15 -17 471 20 1
15 -14 -17 429 21 1
-15 14 -17 467 20 1
14 15 17 456 20 1
15 -14 17 459 19 1
-15 14 17 484 23 1
-15 14 17 480 26 1
15 -16 -17 84 11 1
-16 -15 -17 68 10 1
-15 16 -17 59 9 1
16 15 17 76 10 1
15 -16 17 72 7 1
13 -16 -17 26 8 1
-16 -13 -17 18 7 1
-13 16 -17 30 9 1
16 13 17 28 8 1
-13 16 17 12 9 1
-16 -11 -17 1113 49 1
-11 16 17 1230 56 1
11 -16 17 1168 50 1
-11 16 17 1292 56 1
9 -16 -17 3 3 1
-9 16 -17 5 4 1
-16 -9 -17 4 3 1
9 -16 17 4 2 1
16 9 17 2 3 1
-9 16 17 3 3 1
-16 -7 -17 2 3 1
-7 16 -17 8 5 1
7 -16 -17 1 3 1
-16 -7 -17 1 3 1
-7 16 17 3 3 1
-7 16 17 2 2 1
-7 16 17 3 5 1
16 7 17 1 3 1
7 -16 17 1 2 1
-5 16 -17 24 5 1
5 -16 -17 23 2 1
-16 -5 -17 3 3 1
-16 -5 -17 6 2 1
5 -16 -17 10 2 1
5 -16 -17 23 3 1
-16 -5 17 9 4 1
-5 16 17 12 2 1
5 -16 17 11 2 1
-5 16 17 7 4 1
-16 -5 17 4 4 1
16 5 17 6 2 1
-5 16 17 6 3 1
3 -16 -17 19 5 1
3 -16 -17 18 8 1
-16 -3 -17 15 4 1
3 -16 -17 18 5 1
-16 -3 -17 17 6 1
16 3 17 16 5 1
-3 16 17 28 8 1
-16 -3 17 13 6 1
1 -16 -17 3 2 1
-16 -1 -17 4 3 1
1 -16 -17 4 2 1
-16 -1 -17 4 2 1
-16 -1 -17 6 3 1
1 -16 -17 1 2 1
-1 16 17 11 3 1
-16 -1 17 14 3 1
-16 -1 17 14 3 1
1 -16 17 12 2 1
16 1 17 3 2 1
-1 16 17 1 4 1
-1 16 17 3 2 1
-1 -16 -17 64 5 1
-1 -16 -17 61 5 1
-16 1 -17 68 6 1
-16 1 -17 81 5 1
-16 1 -17 73 8 1
1 16 17 83 8 1
-1 -16 17 62 7 1
-16 1 17 75 7 1
16 -1 17 94 6 1
-16 1 17 73 7 1
-16 1 17 62 10 1
-16 3 -17 82 7 1
-3 -16 -17 76 6 1
-16 3 -17 81 8 1
-3 -16 -17 69 7 1
-16 3 -17 81 9 1
3 16 17 88 9 1
-16 3 17 76 10 1
-16 3 17 64 8 1
16 -3 17 91 7 1
-16 3 17 73 9 1
-3 -16 17 79 9 1
3 16 17 85 7 1
-16 5 -17 20 7 1
-5 -16 -17 24 5 1
-16 5 -17 20 8 1
-5 -16 -17 25 6 1
-16 5 -17 26 6 1
16 -5 17 25 6 1
5 16 17 38 8 1
-16 5 17 35 8 1
-5 -16 17 21 10 1
5 16 17 35 6 1
-16 5 17 23 9 1
-7 -16 -17 5 2 1
-7 -16 -17 4 2 1
-16 7 -17 15 3 1
-16 7 -17 13 2 1
-16 7 17 14 4 1
7 16 17 3 3 1
16 -7 17 18 2 1
-16 7 17 21 3 1
-16 7 17 24 3 1
7 16 17 4 2 1
-16 9 -17 418 26 1
-16 9 -17 393 23 1
-9 -16 -17 419 21 1
-9 -16 -17 396 22 1
-16 9 17 432 27 1
9 16 17 448 22 1
16 -9 17 464 22 1
-16 9 17 396 26 1
-16 11 -17 21 6 1
-11 -16 -17 28 6 1
-16 11 17 11 6 1
16 -11 17 22 5 1
-16 11 17 22 7 1
-13 -16 -17 50 7 1
-16 13 -17 51 7 1
-16 13 17 34 8 1
-16 13 17 33 7 1
16 -13 17 48 6 1
13 16 17 60 8 1
16 -13 17 37 6 1
-16 15 -17 0 3 1
-15 -16 -17 1 4 1
16 -15 -17 2 6 1
15 16 17 4 4 1
16 -15 17 3 2 1
-16 17 17 24 4 1
-14 17 -17 6 4 1
14 -17 -17 12 4 1
17 14 17 11 4 1
-12 17 -17 16 5 1
-17 -12 -17 16 4 1
12 -17 -17 19 4 1
-12 17 17 18 7 1
17 12 17 18 4 1
-17 -10 -17 65 8 1
10 -17 -17 60 7 1
-17 -10 -17 55 8 1
-10 17 -17 56 10 1
-10 17 17 59 8 1
17 10 17 63 8 1
10 -17 17 52 7 1
-8 17 -17 124 12 1
-17 -8 -17 147 10 1
8 -17 -17 144 8 1
-17 -8 -17 158 9 1
-8 17 17 136 8 1
-8 17 17 133 13 1
17 8 17 164 9 1
-8 17 17 124 10 1
8 -17 17 130 8 1
-17 -6 -17 272 21 1
-17 -6 -17 269 19 1
-6 17 -17 280 22 1
6 -17 -17 295 18 1
6 -17 17 282 19 1
17 6 17 264 18 1
-6 17 17 293 18 1
-6 17 17 307 22 1
4 -17 -17 922 33 1
4 -17 -17 935 35 1
4 -17 -17 915 33 1
-17 -4 -17 949 38 1
-17 -4 -17 909 33 1
-17 -4 -17 934 32 1
-4 17 17 1000 38 1
-17 -4 17 848 38 1
-4 17 17 935 33 1
17 4 17 916 33 1
-17 -4 17 967 38 1
4 -17 17 932 34 1
-4 17 17 954 38 1
-17 -2 -17 14 4 1
-17 -2 -17 12 3 1
2 -17 17 6 2 1
-17 -2 17 10 3 1
17 2 17 15 5 1
-2 17 17 15 5 1
-17 -2 17 11 3 1
0 -17 -17 0 3 1
-17 0 -17 0 3 1
-17 0 -17 0 3 1
0 -17 -17 0 2 1
0 -17 17 0 2 1
-17 0 17 0 3 1
0 17 17 7 3 1
0 17 17 0 2 1
-17 0 17 0 3 1
17 0 17 0 2 1
-2 -17 -17 28 4 1
-17 2 -17 20 6 1
-17 2 -17 26 5 1
-17 2 -17 18 7 1
-2 -17 -17 23 5 1
-17 2 17 24 7 1
-17 2 17 25 10 1
2 17 17 18 4 1
-2 -17 17 27 7 1
-17 2 17 30 7 1
-4 -17 -17 387 17 1
-4 -17 -17 380 16 1
-17 4 -17 428 19 1
-17 4 -17 409 17 1
-17 4 -17 403 16 1
4 17 17 390 19 1
4 17 17 382 16 1
-17 4 17 431 20 1
-17 4 17 415 20 1
17 -4 17 410 17 1
-4 -17 17 394 18 1
-17 4 17 412 19 1
-17 6 -17 513 26 1
-6 -17 -17 564 25 1
-17 6 -17 562 27 1
-17 6 -17 549 29 1
-6 -17 -17 530 26 1
-17 6 17 575 30 1
-6 -17 17 534 27 1
17 -6 17 508 26 1
6 17 17 552 26 1
-17 6 17 582 29 1
-8 -17 -17 29 3 1
-17 8 -17 27 4 1
-17 8 17 20 3 1
-17 8 17 20 3 1
-17 8 17 28 5 1
8 17 17 37 6 1
-17 10 -17 287 16 1
-10 -17 -17 291 13 1
-17 10 -17 275 13 1
17 -10 17 315 13 1
-17 10 17 261 18 1
-17 10 17 288 16 1
-12 -17 -17 102 8 1
-17 12 -17 99 8 1
12 17 17 96 8 1
-17 12 17 107 9 1
-17 12 17 77 15 1
17 -12 17 109 8 1
17 -12 17 119 7 1
-17 14 -17 71 9 1
-14 -17 -17 64 9 1
14 17 17 77 9 1
17 -14 17 70 7 1
-17 16 -17 1 4 1
-17 16 17 0 2 1
-18 -17 -17 372 16 1
17 -18 17 373 14 1
-17 18 17 359 16 1
-18 -15 -17 8 2 1
-15 18 17 8 2 1
-13 18 -17 190 14 1
13 -18 -17 176 12 1
13 -18 17 189 10 1
18 13 17 199 13 1
-13 18 17 169 11 1
-18 -11 -17 1 3 1
-11 18 -17 0 5 1
11 -18 -17 1 3 1
-11 18 17 0 3 1
11 -18 17 2 2 1
18 11 17 2 4 1
9 -18 -17 132 7 1
-9 18 -17 88 12 1
-18 -9 -17 118 8 1
-18 -9 -17 135 9 1
-9 18 17 109 9 1
-9 18 17 99 16 1
18 9 17 147 8 1
9 -18 17 95 7 1
-18 -7 -17 153 8 1
-18 -7 -17 148 9 1
-7 18 -17 86 13 1
-7 18 17 122 14 1
-7 18 17 145 10 1
7 -18 17 122 7 1
5 -18 -17 67 9 1
-18 -5 -17 91 7 1
5 -18 -17 80 6 1
-18 -5 -17 75 5 1
-18 -5 -17 91 8 1
-5 18 17 92 11 1
-5 18 17 70 10 1
-5 18 17 78 6 1
5 -18 17 66 6 1
18 5 17 90 7 1
-18 -3 -17 25 3 1
3 -18 -17 19 3 1
3 -18 -17 17 2 1
-18 -3 -17 27 3 1
3 -18 -17 19 2 1
18 3 17 50 2 1
-18 -3 17 23 3 1
-18 -3 17 23 3 1
3 -18 17 42 2 1
-3 18 17 14 5 1
-3 18 17 16 2 1
-3 18 17 37 4 1
1 -18 -17 30 5 1
-18 -1 -17 23 6 1
1 -18 -17 18 7 1
-18 -1 -17 20 7 1
1 -18 -17 18 5 1
-18 -1 -17 24 4 1
-18 -1 17 24 7 1
-1 18 17 29 5 1
18 1 17 38 5 1
-1 18 17 35 9 1
1 -18 17 27 6 1
-18 1 -17 76 8 1
-18 1 -17 80 9 1
-1 -18 -17 83 7 1
-18 1 -17 86 6 1
-1 -18 -17 86 6 1
1 18 17 90 6 1
-18 1 17 99 11 1
1 18 17 99 10 1
-1 -18 17 89 8 1
18 -1 17 83 7 1
-18 1 17 91 9 1
-18 1 17 76 9 1
-18 3 -17 80 6 1
-18 3 -17 81 8 1
-3 -18 -17 93 6 1
-3 -18 -17 84 6 1
-18 3 -17 85 8 1
3 18 17 92 6 1
-18 3 17 99 9 1
18 -3 17 103 7 1
-3 -18 17 76 8 1
-18 3 17 92 10 1
-18 3 17 67 8 1
3 18 17 95 9 1
-5 -18 -17 328 14 1
-18 5 -17 352 16 1
-18 5 -17 364 15 1
-18 5 -17 334 17 1
-5 -18 -17 312 15 1
18 -5 17 359 15 1
-5 -18 17 317 16 1
5 18 17 320 18 1
5 18 17 349 15 1
-18 5 17 320 18 1
-7 -18 -17 171 8 1
-18 7 -17 202 10 1
-18 7 -17 193 10 1
7 18 17 163 11 1
-18 7 17 194 10 1
-18 7 17 205 10 1
-18 7 17 228 12 1
-9 -18 -17 52 6 1
-18 9 -17 49 9 1
-18 9 -17 50 6 1
-18 9 17 73 12 1
9 18 17 38 10 1
-18 9 17 52 8 1
9 18 17 45 7 1
18 -9 17 41 6 1
-18 11 -17 571 23 1
-11 -18 -17 608 23 1
-18 11 17 629 27 1
11 18 17 622 23 1
18 -11 17 643 22 1
-13 -18 -17 85 9 1
-18 13 -17 82 8 1
18 -13 17 85 7 1
-18 13 17 93 7 1
18 -13 17 84 8 1
-18 15 -17 0 4 1
-17 -18 -17 71 6 1
-18 17 17 54 5 1
18 -17 17 62 5 1
-19 -16 -17 163 11 1
16 -19 17 178 9 1
-16 19 17 167 10 1
-19 -14 -17 52 6 1
-14 19 17 46 6 1
-12 19 -17 3 6 1
-19 -12 -17 15 2 1
12 -19 -17 3 3 1
12 -19 17 9 2 1
19 12 17 15 4 1
-12 19 17 5 2 1
-10 19 -17 334 21 1
10 -19 -17 364 18 1
10 -19 17 340 18 1
19 10 17 360 19 1
-8 19 -17 151 15 1
8 -19 -17 171 8 1
-19 -8 -17 146 11 1
19 8 17 142 10 1
-8 19 17 142 9 1
-8 19 17 164 11 1
8 -19 17 153 9 1
-19 -6 -17 4 5 1
6 -19 -17 9 2 1
-19 -6 -17 0 3 1
-6 19 17 9 8 1
-6 19 17 3 4 1
-6 19 17 2 2 1
19 6 17 0 3 1
6 -19 17 7 2 1
4 -19 -17 86 9 1
-19 -4 -17 91 8 1
-19 -4 -17 78 9 1
-4 19 17 64 6 1
4 -19 17 65 6 1
19 4 17 82 8 1
-4 19 17 52 12 1
-19 -2 -17 723 32 1
-19 -2 -17 735 27 1
2 -19 -17 730 30 1
-19 -2 -17 727 29 1
2 -19 -17 699 29 1
-2 19 17 736 33 1
2 -19 17 701 29 1
-19 -2 17 690 33 1
-19 -2 17 651 33 1
-19 0 -17 27 8 1
0 -19 -17 35 7 1
0 -19 -17 36 6 1
-19 0 -17 34 9 1
-19 0 -17 36 6 1
0 -19 17 39 8 1
0 19 17 39 11 1
-19 0 17 42 10 1
0 19 17 37 7 1
19 0 17 28 7 1
-19 2 -17 195 9 1
-19 2 -17 201 10 1
-2 -19 -17 194 9 1
-19 2 -17 195 10 1
2 19 17 199 12 1
-2 -19 17 177 9 1
-19 2 17 196 12 1
-19 2 17 180 11 1
-19 2 17 212 11 1
-19 4 -17 14 4 1
-19 4 -17 13 3 1
-19 4 -17 22 5 1
-4 -19 -17 18 5 1
-19 4 17 9 5 1
-4 -19 17 5 3 1
4 19 17 7 3 1
19 -4 17 18 5 1
4 19 17 4 5 1
-19 4 17 13 3 1
-19 4 17 6 3 1
-6 -19 -17 195 10 1
-19 6 -17 180 12 1
-19 6 -17 183 12 1
-6 -19 -17 182 9 1
-19 6 -17 201 10 1
6 19 17 207 14 1
-19 6 17 209 14 1
6 19 17 203 10 1
-6 -19 17 197 12 1
19 -6 17 202 10 1
-19 6 17 190 12 1
-19 8 -17 34 5 1
-19 8 -17 40 6 1
-8 -19 -17 26 3 1
-19 8 -17 49 7 1
-19 8 17 54 7 1
19 -8 17 44 5 1
8 19 17 33 3 1
8 19 17 40 6 1
-19 8 17 36 6 1
-19 10 -17 54 6 1
-19 10 -17 60 10 1
19 -10 17 72 6 1
19 -10 17 69 7 1
10 19 17 45 7 1
-19 10 17 65 8 1
-12 -19 -17 73 9 1
-19 12 -17 83 8 1
-19 12 17 94 8 1
12 19 17 98 10 1
19 -12 17 81 8 1
19 -12 17 106 8 1
-14 -19 -17 153 12 1
19 -14 17 119 6 1
-19 16 17 4 2 1
19 -16 17 4 1 1
-20 -15 -17 9 2 1
-15 20 17 13 2 1
15 -20 17 20 3 1
-20 -13 -17 29 5 1
-13 20 17 12 5 1
13 -20 17 20 4 1
11 -20 -17 352 15 1
11 -20 17 397 14 1
20 11 17 342 17 1
-11 20 17 396 16 1
9 -20 -17 200 10 1
-9 20 -17 164 17 1
9 -20 17 197 10 1
-9 20 17 224 11 1
20 9 17 206 12 1
-20 -7 -17 278 16 1
7 -20 -17 295 13 1
7 -20 17 283 13 1
20 7 17 280 15 1
-7 20 17 274 13 1
5 -20 -17 1 2 1
-20 -5 -17 7 3 1
20 5 17 0 3 1
-5 20 17 0 2 1
5 -20 17 3 2 1
3 -20 -17 5 2 1
-20 -3 -17 2 2 1
-3 20 17 5 2 1
-20 -3 17 2 4 1
20 3 17 4 3 1
-3 20 17 6 7 1
3 -20 17 5 2 1
-20 -1 -17 22 5 1
-20 -1 -17 30 7 1
1 -20 -17 29 4 1
-20 -1 17 25 8 1
1 -20 17 22 6 1
-20 -1 17 37 8 1
20 1 17 22 6 1
-1 20 17 21 7 1
-1 20 17 30 5 1
-20 1 -17 15 5 1
-1 -20 -17 22 4 1
-1 -20 17 21 6 1
1 20 17 19 6 1
-20 1 17 28 9 1
1 20 17 24 5 1
-20 3 -17 5 2 1
-3 -20 -17 4 2 1
-20 3 -17 5 3 1
-3 -20 -17 4 2 1
-20 3 -17 7 5 1
3 20 17 9 5 1
3 20 17 7 2 1
-20 3 17 8 3 1
-20 3 17 6 5 1
-3 -20 17 5 2 1
20 -3 17 7 3 1
-20 5 -17 29 7 1
-20 5 -17 28 6 1
-5 -20 -17 50 6 1
-5 -20 -17 27 5 1
-20 5 -17 31 9 1
5 20 17 41 6 1
-20 5 17 40 8 1
-5 -20 17 49 8 1
-20 5 17 37 8 1
5 20 17 26 7 1
-20 7 -17 731 30 1
-7 -20 -17 780 30 1
-20 7 -17 693 33 1
-20 7 17 760 37 1
-20 7 17 735 35 1
-20 7 17 778 34 1
7 20 17 729 36 1
7 20 17 712 30 1
20 -7 17 700 30 1
-20 9 -17 436 23 1
-9 -20 -17 456 21 1
-20 9 -17 483 22 1
-20 9 -17 429 20 1
9 20 17 454 21 1
20 -9 17 468 21 1
20 -9 17 463 20 1
-20 11 -17 53 8 1
-20 11 -17 61 7 1
-11 -20 -17 56 8 1
-20 11 -17 41 7 1
-20 11 17 66 6 1
20 -11 17 55 7 1
11 20 17 37 8 1
-20 13 -17 1 7 1
-20 13 17 3 2 1
20 -15 17 13 1 1
-20 15 17 7 2 1
14 -21 17 29 4 1
-14 21 17 31 5 1
-21 -12 -17 99 8 1
12 -21 17 91 7 1
-12 21 17 102 8 1
-21 -10 -17 157 8 1
10 -21 -17 166 9 1
-10 21 17 183 9 1
10 -21 17 169 8 1
-21 -8 -17 173 10 1
8 -21 -17 152 9 1
-8 21 -17 199 20 1
21 8 17 192 12 1
-8 21 17 171 11 1
8 -21 17 165 9 1
6 -21 -17 161 9 1
21 6 17 174 11 1
-6 21 17 160 9 1
6 -21 17 164 9 1
-21 -4 -17 135 10 1
4 -21 -17 151 7 1
21 4 17 151 10 1
-4 21 17 151 8 1
4 -21 17 142 8 1
2 -21 -17 256 14 1
-21 -2 -17 244 17 1
-2 21 17 242 15 1
21 2 17 251 16 1
2 -21 17 242 15 1
-21 0 -17 24 7 1
0 -21 -17 29 5 1
21 0 17 25 6 1
0 21 17 24 6 1
0 -21 17 36 6 1
-21 0 17 41 8 1
-2 -21 -17 737 32 1
-21 2 -17 760 36 1
2 21 17 818 33 1
-21 2 17 756 37 1
-2 -21 17 766 33 1
21 -2 17 728 33 1
-21 2 17 826 37 1
-21 2 17 763 38 1
2 21 17 751 40 1
-4 -21 -17 138 9 1
-21 4 -17 142 10 1
4 21 17 145 9 1
21 -4 17 135 9 1
-21 4 17 127 11 1
-4 -21 17 165 10 1
-21 4 17 147 15 1
-21 6 -17 5 3 1
-6 -21 -17 2 3 1
6 21 17 1 3 1
-6 -21 17 5 3 1
21 -6 17 8 3 1
-21 6 17 2 2 1
-21 8 -17 4 2 1
-21 8 -17 5 3 1
-8 -21 -17 1 3 1
8 21 17 1 3 1
21 -8 17 5 3 1
21 -8 17 3 3 1
-21 10 -17 20 2 1
21 -10 17 13 2 1
21 -10 17 8 3 1
10 21 17 21 4 1
-21 10 17 10 2 1
-21 12 17 66 6 1
21 -12 17 58 5 1
-21 14 17 42 5 1
21 -14 17 40 5 1
-22 -13 -17 0 2 1
-13 22 17 8 3 1
13 -22 17 10 1 1
-22 -11 -17 103 6 1
-11 22 17 94 8 1
11 -22 17 77 5 1
-22 -9 -17 5 2 1
-22 -7 -17 2 2 1
7 -22 -17 4 3 1
7 -22 17 4 2 1
22 7 17 3 5 1
-22 -5 -17 173 9 1
5 -22 -17 158 9 1
22 5 17 171 12 1
5 -22 17 167 9 1
-5 22 17 155 10 1
-22 -3 -17 255 10 1
3 -22 -17 231 9 1
22 3 17 207 11 1
3 -22 17 239 9 1
-3 22 17 236 9 1
1 -22 -17 56 6 1
-1 22 17 59 6 1
-22 -1 17 48 7 1
22 1 17 50 7 1
1 -22 17 71 6 1
-22 1 -17 257 13 1
-1 -22 -17 265 12 1
1 22 17 257 12 1
-22 1 17 255 13 1
22 -1 17 242 13 1
-1 -22 17 283 12 1
-22 3 -17 86 7 1
-22 3 17 82 8 1
-22 3 17 87 7 1
-3 -22 17 94 8 1
3 22 17 109 8 1
-22 5 -17 597 28 1
5 22 17 563 26 1
-22 5 17 585 29 1
-5 -22 17 616 27 1
22 -5 17 587 27 1
-22 7 -17 79 6 1
22 -7 17 79 8 1
-22 7 17 77 7 1
-22 9 -17 42 6 1
-22 9 17 45 5 1
22 -11 17 42 5 1
22 -13 17 17 2 1
-22 13 17 26 4 1
-23 -12 -17 26 4 1
12 -23 17 29 3 1
-23 -10 -17 74 6 1
10 -23 17 73 5 1
-23 -8 -17 85 7 1
8 -23 17 78 6 1
-23 -6 -17 110 7 1
-23 -4 -17 45 6 1
4 -23 17 50 6 1
-23 -2 -17 19 2 1
2 -23 17 11 2 1
23 2 17 7 4 1
-2 23 17 10 3 1
0 23 17 10 3 1
23 0 17 9 4 1
0 -23 17 8 2 1
-23 0 17 9 3 1
-23 2 -17 49 6 1
-23 2 17 50 6 1
2 23 17 41 7 1
23 -2 17 47 8 1
-23 4 17 7 2 1
23 -4 17 1 3 1
-4 -23 17 1 2 1
4 23 17 1 3 1
-23 6 -17 6 2 1
-23 6 17 8 2 1
-6 -23 17 6 2 1
-23 8 -17 96 7 1
-23 8 17 76 7 1
23 -8 17 107 7 1
23 -12 17 110 8 1
-23 12 17 108 8 1
9 -24 17 43 4 1
-24 -7 -17 121 7 1
7 -24 17 126 6 1
-24 -5 -17 246 12 1
5 -24 17 217 10 1
-24 -3 -17 1 2 1
3 -24 17 5 1 1
-24 -1 -17 11 4 1
-24 1 -17 385 18 1
-1 -24 17 387 16 1
-24 1 17 357 18 1
-24 3 -17 40 4 1
-3 -24 17 39 4 1
-24 3 17 33 5 1
-24 5 -17 49 5 1
-24 5 17 48 5 1
-24 7 -17 6 2 1
-24 7 17 1 2 1
-24 9 -17 166 8 1
-24 9 17 133 8 1
-25 -6 -17 0 2 1
6 -25 17 1 1 1
4 -25 17 19 3 1
-25 -2 -17 3 2 1
2 -25 17 4 1 1
-25 0 -17 290 16 1
0 -25 17 274 14 1
-25 2 -17 93 7 1
-2 -25 17 95 6 1
-25 4 -17 36 4 1
-4 -25 17 34 5 1
-25 4 17 23 5 1
-25 6 -17 1 2 1
-6 -25 17 8 2 1
-25 6 17 6 2 1
0 0 18 3602 201 1
1 1 -18 6 1 1
-1 -1 -18 10 1 1
-1 1 -18 5 1 1
-1 -1 -18 4 3 1
-1 1 18 4 2 1
1 1 18 15 2 1
-1 -1 18 10 2 1
-1 -1 18 5 2 1
-1 1 18 2 2 1
1 -1 18 10 2 1
1 1 18 12 2 1
-2 0 -18 294 18 1
0 -2 -18 274 18 1
0 2 -18 255 18 1
2 0 -18 261 18 1
0 2 -18 250 18 1
0 -2 -18 259 18 1
-2 0 -18 246 18 1
2 0 18 265 21 1
2 0 18 272 17 1
-2 0 18 260 20 1
0 -2 18 264 21 1
-2 0 18 283 21 1
2 -2 -18 1627 76 1
-2 2 -18 1536 76 1
-2 -2 -18 1632 76 1
-2 -2 -18 1635 76 1
-2 2 -18 1530 76 1
2 -2 18 1491 86 1
2 2 18 1556 75 1
-2 2 18 1640 84 1
-2 2 18 1699 87 1
-3 -1 -18 6249 228 1
1 -3 -18 6052 228 1
1 -3 -18 6236 228 1
-1 3 -18 6424 228 1
3 1 -18 6007 228 1
1 -3 18 6076 252 1
3 1 18 5769 227 1
-3 -1 18 6189 258 1
3 1 18 5764 258 1
-1 3 18 6284 253 1
-1 3 18 6360 259 1
-3 1 -18 310 24 1
1 3 -18 316 24 1
3 -1 -18 321 23 1
3 -1 -18 313 24 1
-3 1 -18 307 24 1
1 3 -18 321 24 1
-1 -3 -18 324 24 1
-3 1 18 295 27 1
-3 1 18 326 26 1
-1 -3 18 296 27 1
3 -1 18 315 27 1
-1 -3 18 284 26 1
3 -1 18 319 23 1
1 3 18 315 23 1
-3 -3 -18 4395 151 1
-3 -3 -18 4230 151 1
3 -3 -18 4325 150 1
-3 3 -18 4381 151 1
3 -3 -18 4436 151 1
3 3 -18 4490 150 1
-3 3 18 4057 167 1
3 3 18 4036 171 1
-3 -3 18 4235 167 1
-3 -3 18 4337 171 1
3 -3 18 4048 166 1
3 3 18 4318 150 1
4 2 -18 6698 224 1
-4 -2 -18 6170 224 1
2 -4 -18 6086 224 1
2 -4 -18 6396 224 1
2 -4 18 6208 248 1
4 2 18 6414 224 1
4 2 18 6216 254 1
-2 4 18 6641 248 1
-4 -2 18 6625 248 1
-4 -2 18 6520 254 1
-2 4 18 6631 254 1
2 -4 18 6778 254 1
0 4 -18 1300 58 1
4 0 -18 1459 57 1
0 -4 -18 1420 58 1
0 -4 -18 1285 57 1
-4 0 -18 1364 58 1
4 0 18 1335 64 1
0 4 18 1309 66 1
4 0 18 1398 66 1
0 -4 18 1385 66 1
-4 2 -18 1088 43 1
4 -2 -18 1096 43 1
-2 -4 -18 1061 43 1
4 -2 -18 1062 43 1
2 4 18 970 47 1
4 -2 18 971 49 1
2 4 18 1059 42 1
-2 -4 18 1007 49 1
4 4 -18 2718 120 1
-4 4 -18 2847 120 1
4 -4 -18 2879 120 1
-4 -4 -18 2554 120 1
-4 -4 -18 2793 120 1
4 -4 -18 2635 120 1
-4 4 18 2718 133 1
-4 4 18 2741 136 1
4 4 18 2904 133 1
4 4 18 2888 137 1
-4 -4 18 2678 133 1
4 -4 18 2718 132 1
4 4 18 2634 120 1
-5 -3 -18 363 8 1
3 -5 -18 370 8 1
-3 5 -18 337 9 1
-5 -3 -18 381 8 1
5 3 -18 379 8 1
3 -5 -18 336 8 1
-5 -3 18 350 11 1
-5 -3 18 380 10 1
3 -5 18 341 9 1
-3 5 18 331 9 1
5 3 18 339 11 1
5 3 18 357 8 1
-1 5 -18 402 25 1
1 -5 -18 365 25 1
1 -5 -18 422 25 1
-5 -1 -18 394 25 1
-5 -1 -18 415 25 1
5 1 18 438 28 1
-1 5 18 387 29 1
5 1 18 375 29 1
-1 5 18 402 24 1
-5 -1 18 410 28 1
-1 5 18 402 28 1
-1 -5 -18 1072 36 1
-5 1 -18 1017 36 1
-5 1 -18 1067 36 1
5 -1 -18 1032 35 1
-1 -5 -18 1012 36 1
-1 -5 18 1077 39 1
-1 -5 18 1071 41 1
-5 1 18 1015 40 1
1 5 18 994 35 1
5 -1 18 1063 35 1
1 5 18 1062 40 1
5 -1 18 1082 41 1
-5 1 18 957 41 1
-5 3 -18 1135 59 1
-3 -5 -18 1121 59 1
5 -3 -18 1190 59 1
5 -3 -18 1151 59 1
3 5 18 1241 59 1
-5 3 18 1176 67 1
-3 -5 18 1299 67 1
3 5 18 1223 67 1
5 -5 -18 205 21 1
-5 5 -18 217 22 1
-5 -5 -18 201 21 1
5 -5 18 220 20 1
-5 -5 18 198 25 1
-5 5 18 226 25 1
5 5 18 179 21 1
-5 -5 18 187 24 1
6 4 -18 4779 217 1
-4 6 -18 4769 218 1
4 -6 -18 4483 217 1
-6 -4 -18 4757 217 1
4 -6 -18 4761 217 1
-6 -4 18 4776 246 1
-4 6 18 4922 241 1
6 4 18 4644 246 1
4 -6 18 4575 240 1
-4 6 18 4751 246 1
-6 -2 -18 2118 77 1
2 -6 -18 2041 76 1
-6 -2 -18 2179 77 1
-2 6 -18 2235 77 1
6 2 -18 2117 76 1
6 2 18 1997 76 1
-2 6 18 2177 76 1
2 -6 18 1998 87 1
2 -6 18 2189 84 1
-2 6 18 1951 87 1
-6 0 -18 2266 82 1
0 -6 -18 2266 81 1
-6 0 -18 2079 82 1
0 -6 -18 2249 82 1
6 0 18 2134 93 1
0 -6 18 2151 90 1
0 -6 18 2084 93 1
6 0 18 2097 90 1
6 0 18 2215 81 1
-6 0 18 2216 90 1
-6 0 18 2173 93 1
-2 -6 -18 630 23 1
-6 2 -18 633 23 1
-2 -6 -18 688 23 1
2 6 18 644 23 1
-2 -6 18 649 27 1
6 -2 18 620 22 1
2 6 18 669 26 1
-2 -6 18 629 25 1
6 -4 -18 1247 40 1
-6 4 -18 1195 40 1
-4 -6 -18 1136 40 1
-4 -6 18 1216 44 1
-6 4 18 1261 46 1
6 -4 18 1150 39 1
-4 -6 18 1248 46 1
-6 -6 -18 1461 62 1
6 6 -18 1554 62 1
-6 6 -18 1571 63 1
-6 -6 -18 1481 62 1
6 -6 18 1561 71 1
6 -6 18 1514 68 1
-6 -6 18 1451 69 1
5 -7 -18 2820 109 1
7 5 -18 2720 109 1
5 -7 -18 2608 109 1
-7 -5 18 2646 121 1
-7 -5 18 2636 124 1
5 -7 18 2642 124 1
-5 7 18 2919 124 1
-5 7 18 2929 121 1
3 -7 -18 1767 74 1
-3 7 -18 1874 74 1
7 3 -18 1785 73 1
3 -7 -18 1910 74 1
-3 7 18 1900 73 1
-7 -3 18 1793 84 1
3 -7 18 1833 81 1
-3 7 18 1875 84 1
3 -7 18 1805 84 1
7 3 18 1763 74 1
7 3 18 1815 84 1
1 -7 -18 2343 87 1
-1 7 -18 2241 87 1
-7 -1 -18 2218 87 1
7 1 -18 2318 86 1
1 -7 -18 2329 87 1
-7 -1 18 2321 96 1
7 1 18 2225 86 1
1 -7 18 2192 98 1
1 -7 18 2385 95 1
-1 7 18 2464 86 1
-7 1 -18 1319 69 1
-7 1 -18 1397 69 1
7 -1 -18 1489 68 1
-1 -7 -18 1377 69 1
-1 -7 18 1421 76 1
-1 -7 18 1322 78 1
-7 3 -18 139 7 1
-3 -7 -18 130 7 1
-3 -7 -18 136 7 1
7 -3 -18 133 7 1
-3 -7 18 131 8 1
3 7 18 133 7 1
3 7 18 145 10 1
3 7 18 120 8 1
7 -3 18 116 9 1
-3 -7 18 112 10 1
-7 3 18 127 8 1
7 -3 18 129 7 1
7 -3 18 130 8 1
-7 3 18 139 9 1
7 -5 -18 756 31 1
-5 -7 -18 746 32 1
-5 -7 -18 781 32 1
7 -5 -18 766 32 1
-5 -7 18 815 37 1
7 -5 18 806 31 1
5 7 18 807 37 1
-7 5 18 802 36 1
-5 -7 18 791 35 1
5 7 18 794 32 1
7 -5 18 740 36 1
-7 -7 -18 1565 54 1
7 -7 -18 1563 54 1
7 7 -18 1546 53 1
7 7 18 1549 54 1
7 -7 18 1515 53 1
-7 -7 18 1494 61 1
-7 7 18 1462 61 1
-7 -7 18 1515 59 1
6 -8 -18 730 34 1
6 -8 -18 741 35 1
-8 -6 -18 718 34 1
-6 8 -18 725 35 1
8 6 18 704 34 1
-6 8 18 707 39 1
8 6 18 725 40 1
-8 -4 -18 392 20 1
-4 8 -18 407 20 1
4 -8 -18 367 19 1
-8 -4 -18 395 20 1
4 -8 18 439 23 1
-4 8 18 392 22 1
8 4 18 363 23 1
8 4 18 375 19 1
2 -8 -18 27 1 1
-8 -2 -18 30 2 1
-2 8 -18 17 2 1
-8 -2 -18 35 1 1
2 -8 -18 33 1 1
2 -8 18 34 2 1
-8 -2 18 25 2 1
8 2 18 25 1 1
-2 8 18 35 2 1
-2 8 18 33 1 1
-8 -2 18 25 2 1
-2 8 18 30 2 1
8 2 18 33 2 1
8 0 -18 163 5 1
0 -8 -18 168 5 1
-8 0 -18 167 5 1
0 -8 -18 169 5 1
-8 0 -18 167 5 1
-8 0 18 152 6 1
0 -8 18 188 8 1
0 8 18 178 6 1
-8 0 18 170 8 1
0 8 18 161 5 1
8 0 18 172 7 1
8 0 18 164 5 1
8 -2 -18 112 7 1
-8 2 -18 111 7 1
-2 -8 -18 110 6 1
2 8 18 91 9 1
8 -2 18 99 6 1
2 8 18 117 6 1
8 -2 18 113 9 1
2 8 18 98 8 1
-2 -8 18 118 7 1
-8 2 18 100 9 1
-8 2 18 120 8 1
-2 -8 18 120 10 1
-4 -8 -18 190 8 1
8 -4 -18 179 7 1
-8 4 -18 173 9 1
-4 -8 -18 195 8 1
8 -4 18 162 10 1
4 8 18 178 11 1
-8 4 18 173 10 1
4 8 18 179 8 1
8 -4 18 181 8 1
-8 4 18 174 10 1
8 -4 18 159 7 1
8 -6 -18 9 1 1
-8 6 18 8 2 1
6 8 18 8 3 1
-6 -8 18 10 4 1
-8 -8 -18 1259 48 1
8 -8 -18 1145 48 1
-8 -8 -18 1230 48 1
-8 8 -18 1189 49 1
8 -8 -18 1165 47 1
-8 -8 18 1162 55 1
8 -8 18 1167 47 1
-8 8 18 1083 53 1
-7 9 -18 1889 79 1
-9 -7 -18 2002 78 1
7 -9 -18 1947 78 1
-9 -7 -18 2063 78 1
7 -9 -18 1942 78 1
-7 9 18 1853 87 1
9 7 18 2010 89 1
9 7 18 1938 78 1
-9 -7 18 1836 89 1
-9 -7 18 1990 87 1
5 -9 -18 1693 58 1
-9 -5 -18 1540 58 1
5 -9 -18 1607 58 1
-9 -5 18 1673 66 1
-5 9 18 1700 57 1
9 5 18 1640 66 1
3 -9 -18 13578 512 1
3 -9 -18 13639 511 1
-9 -3 -18 13704 512 1
-3 9 -18 13532 513 1
-9 -3 -18 13494 512 1
3 -9 18 13515 579 1
-3 9 18 13178 511 1
9 3 18 13415 512 1
9 3 18 13977 579 1
1 -9 -18 3782 163 1
-9 -1 -18 3766 164 1
1 -9 -18 3894 163 1
-9 -1 -18 4026 164 1
9 1 18 3860 163 1
-9 -1 18 3937 185 1
1 -9 18 3938 185 1
9 1 18 3680 185 1
-1 9 18 3751 185 1
-1 9 18 3737 163 1
-9 1 -18 245 19 1
-1 -9 -18 276 15 1
-9 1 -18 283 15 1
-9 1 -18 273 16 1
1 9 18 302 19 1
-9 1 18 275 18 1
9 -1 18 285 15 1
9 -1 18 287 18 1
-9 1 18 291 18 1
1 9 18 315 15 1
1 9 18 299 17 1
-3 -9 -18 432 17 1
-3 -9 -18 444 17 1
-9 3 -18 497 18 1
9 -3 -18 455 17 1
9 -3 18 492 19 1
-3 -9 18 433 21 1
3 9 18 491 19 1
3 9 18 467 21 1
-3 -9 18 474 18 1
-9 3 18 461 20 1
-9 3 18 475 20 1
3 9 18 453 17 1
-5 -9 -18 0 2 1
9 -5 -18 2 2 1
-9 5 -18 1 2 1
-5 -9 -18 0 2 1
-5 -9 18 0 2 1
-9 5 18 1 2 1
5 9 18 0 1 1
9 -5 18 2 2 1
9 -5 18 0 1 1
5 9 18 0 3 1
9 -7 -18 43 6 1
-7 -9 -18 28 5 1
-7 -9 -18 38 5 1
9 -7 -18 44 5 1
-9 7 -18 34 6 1
-9 7 18 46 7 1
-7 -9 18 42 6 1
-9 7 18 42 7 1
7 9 18 55 11 1
7 9 18 40 5 1
9 -9 -18 1262 44 1
-9 9 -18 1203 45 1
9 -9 -18 1258 44 1
-9 -9 -18 1148 44 1
-9 -9 -18 1226 44 1
-9 9 18 1231 50 1
9 9 18 1144 44 1
9 -9 18 1207 43 1
-9 -9 18 1210 49 1
-8 10 -18 399 13 1
-10 -8 -18 386 11 1
8 -10 -18 390 12 1
-10 -8 -18 435 12 1
-8 10 18 431 14 1
-8 10 18 420 15 1
10 8 18 410 16 1
-10 -8 18 416 14 1
10 8 18 385 12 1
-6 10 -18 1881 85 1
6 -10 -18 1904 84 1
-10 -6 -18 1924 84 1
-10 -6 -18 1937 84 1
-6 10 18 1906 94 1
10 6 18 1803 84 1
-10 -6 18 1845 93 1
10 6 18 1984 96 1
-10 -6 18 1943 96 1
-10 -4 -18 4600 201 1
4 -10 -18 5016 201 1
-10 -4 -18 4673 201 1
4 -10 -18 4773 201 1
-4 10 -18 5051 202 1
-10 -4 18 4737 228 1
-4 10 18 4627 223 1
-4 10 18 5069 201 1
10 4 18 4726 228 1
-4 10 18 5095 228 1
10 4 18 4981 201 1
-10 -2 -18 1500 60 1
2 -10 -18 1514 60 1
-10 -2 18 1622 68 1
-2 10 18 1467 66 1
10 2 18 1576 68 1
2 -10 18 1540 68 1
-2 10 18 1459 59 1
0 -10 -18 1680 77 1
-10 0 -18 1542 77 1
0 10 18 1601 77 1
0 -10 18 1698 88 1
10 0 18 1599 88 1
0 10 18 1741 86 1
-10 2 -18 77 10 1
-10 2 -18 79 6 1
-2 -10 -18 86 6 1
-2 -10 -18 83 6 1
-10 2 18 80 7 1
10 -2 18 72 5 1
-2 -10 18 73 10 1
2 10 18 92 7 1
-4 -10 -18 2 5 1
-10 4 -18 1 5 1
-4 -10 -18 1 5 1
4 10 18 1 10 1
-4 -10 18 4 5 1
-4 -10 18 0 10 1
-4 -10 18 1 12 1
4 10 18 1 4 1
10 -4 18 3 5 1
10 -4 18 3 4 1
-10 4 18 2 6 1
4 10 18 2 6 1
-6 -10 -18 760 27 1
-6 -10 -18 808 26 1
-10 6 -18 752 27 1
10 -6 -18 808 26 1
6 10 18 742 32 1
10 -6 18 795 26 1
6 10 18 789 27 1
-6 -10 18 818 29 1
-10 6 18 759 31 1
-10 6 18 719 30 1
-10 8 -18 54 6 1
10 -8 -18 37 7 1
-8 -10 -18 51 5 1
-8 -10 -18 44 4 1
8 10 18 48 11 1
8 10 18 44 4 1
10 -8 18 35 4 1
-10 8 18 49 7 1
-8 -10 18 46 6 1
-10 8 18 47 6 1
-10 -10 -18 22 5 1
10 -10 -18 28 7 1
-10 10 -18 25 6 1
-10 10 18 19 7 1
10 -10 18 18 3 1
-9 11 -18 2839 118 1
9 -11 -18 2951 117 1
9 -11 -18 2884 116 1
-11 -9 -18 2986 117 1
-11 -9 -18 2994 116 1
-9 11 18 3053 130 1
11 9 18 2768 117 1
-11 -9 18 3000 129 1
7 -11 -18 761 36 1
-7 11 -18 784 37 1
-11 -7 -18 799 36 1
7 -11 -18 769 35 1
11 7 18 770 36 1
-11 -7 18 735 41 1
-7 11 18 768 40 1
-11 -5 -18 3846 121 1
5 -11 -18 3915 121 1
5 -11 -18 3935 121 1
-11 -5 18 3946 134 1
-11 -5 18 3784 137 1
11 5 18 3997 121 1
-11 -3 -18 1178 53 1
3 -11 -18 1130 52 1
-3 11 -18 1219 54 1
-11 -3 -18 1108 53 1
-3 11 18 1192 60 1
-3 11 18 1214 52 1
-11 -3 18 1132 60 1
-3 11 18 1170 59 1
-11 -3 18 1182 59 1
-11 -1 -18 106 11 1
-11 -1 -18 109 8 1
-11 -1 18 104 9 1
-11 -1 18 121 10 1
11 1 18 112 8 1
-1 11 18 120 9 1
-11 1 -18 1178 33 1
-1 -11 -18 1113 33 1
-11 1 -18 1176 33 1
-1 -11 18 1145 38 1
1 11 18 1088 37 1
-1 -11 18 1162 34 1
11 -1 18 1109 33 1
-3 -11 -18 667 29 1
-3 -11 -18 721 30 1
-11 3 -18 700 30 1
3 11 18 666 29 1
11 -3 18 721 29 1
3 11 18 696 35 1
-11 3 18 712 34 1
-3 -11 18 657 35 1
-3 -11 18 654 31 1
3 11 18 741 33 1
-11 5 -18 203 10 1
-5 -11 -18 207 10 1
-5 -11 -18 189 10 1
11 -5 18 212 9 1
5 11 18 204 14 1
-11 5 18 200 12 1
-11 5 18 240 12 1
-11 7 -18 64 6 1
-7 -11 -18 66 5 1
-7 -11 -18 56 5 1
-11 7 18 42 7 1
7 11 18 77 12 1
-11 7 18 51 7 1
7 11 18 57 5 1
11 -7 18 56 4 1
-11 9 -18 560 22 1
-9 -11 -18 586 22 1
-9 -11 -18 536 21 1
-11 9 18 504 25 1
-11 9 18 511 25 1
11 -9 18 575 21 1
9 11 18 532 21 1
-11 -11 -18 438 17 1
-11 -11 -18 401 16 1
11 -11 -18 392 18 1
-11 11 -18 422 18 1
11 -11 18 411 16 1
11 11 18 379 17 1
-11 11 18 409 20 1
-10 12 -18 18 4 1
-12 -10 -18 10 2 1
10 -12 -18 12 3 1
12 10 18 16 3 1
-10 12 18 19 4 1
-8 12 -18 5334 195 1
-12 -8 -18 5281 193 1
-12 -8 -18 5069 194 1
8 -12 -18 5625 193 1
-12 -8 18 5455 215 1
-8 12 18 5636 220 1
-12 -6 -18 333 17 1
6 -12 -18 353 17 1
6 -12 -18 333 17 1
-6 12 -18 338 18 1
-6 12 18 345 15 1
-12 -6 18 347 19 1
-12 -6 18 329 20 1
12 6 18 314 16 1
-6 12 18 310 19 1
-12 -4 -18 0 2 1
-12 -4 -18 1 2 1
-4 12 18 2 2 1
12 4 18 3 2 1
-4 12 18 2 3 1
-12 -4 18 2 3 1
-4 12 18 4 3 1
-12 -2 -18 1938 83 1
2 -12 -18 2052 83 1
2 -12 -18 1907 83 1
-12 -2 -18 2025 83 1
12 2 18 1924 83 1
-2 12 18 2009 83 1
-2 12 18 2109 92 1
-12 0 -18 3 2 1
-12 0 -18 10 2 1
-12 0 -18 3 3 1
0 -12 -18 5 2 1
-12 0 18 8 3 1
12 0 18 2 2 1
0 -12 18 1 3 1
0 12 18 0 3 1
-12 0 18 2 2 1
0 12 18 1 1 1
-2 -12 -18 1 2 1
-12 2 -18 1 2 1
-12 2 -18 1 3 1
-2 -12 -18 0 2 1
-12 2 18 1 2 1
2 12 18 2 4 1
2 12 18 4 5 1
2 12 18 0 2 1
-12 2 18 1 3 1
-2 -12 18 3 3 1
-4 -12 -18 123 7 1
-4 -12 -18 107 7 1
-12 4 -18 114 8 1
-12 4 -18 139 12 1
-4 -12 18 113 12 1
-12 4 18 112 10 1
4 12 18 126 9 1
12 -4 18 117 7 1
4 12 18 114 7 1
-6 -12 -18 638 29 1
-12 6 -18 639 30 1
-6 -12 -18 603 30 1
-12 6 18 669 34 1
-12 6 18 640 35 1
6 12 18 644 29 1
12 -6 18 652 29 1
-8 -12 -18 307 14 1
-8 -12 -18 314 13 1
-12 8 -18 329 15 1
8 12 18 332 14 1
-12 8 18 302 17 1
12 -8 18 333 13 1
-12 8 18 312 17 1
-10 -12 -18 18 4 1
-12 10 -18 26 6 1
12 -10 -18 19 9 1
-10 -12 -18 30 5 1
-12 10 18 19 7 1
-12 10 18 22 7 1
10 12 18 16 5 1
12 -10 18 25 4 1
-12 -12 -18 180 11 1
12 -12 -18 203 13 1
-12 -12 -18 179 10 1
-12 12 -18 191 13 1
12 12 18 202 12 1
12 -12 18 196 10 1
-12 12 18 196 15 1
-12 12 18 163 14 1
-13 -11 -18 525 25 1
-13 -11 -18 496 24 1
11 -13 -18 534 26 1
-11 13 -18 522 26 1
-11 13 18 523 29 1
-11 13 18 557 29 1
-9 13 -18 136 10 1
9 -13 -18 118 9 1
-9 13 18 111 10 1
13 9 18 133 9 1
-9 13 18 130 11 1
-7 13 -18 1375 57 1
-13 -7 -18 1431 56 1
-13 -7 -18 1357 55 1
7 -13 -18 1329 56 1
7 -13 -18 1347 56 1
13 7 18 1355 56 1
-7 13 18 1421 63 1
-13 -7 18 1374 62 1
-5 13 -18 32173 1176 1
-13 -5 -18 31193 1175 1
-13 -5 -18 30903 1175 1
5 -13 -18 29494 1176 1
5 -13 -18 32117 1176 1
-5 13 18 32634 1175 1
-13 -5 18 31568 1300 1
-5 13 18 29922 1300 1
13 5 18 31812 1175 1
-13 -5 18 30208 1328 1
-5 13 18 32386 1329 1
3 -13 -18 1326 65 1
3 -13 -18 1417 65 1
-13 -3 -18 1305 65 1
-13 -3 -18 1362 65 1
-3 13 18 1371 65 1
-13 -3 18 1392 74 1
13 3 18 1279 65 1
-13 -3 18 1383 73 1
3 -13 18 1249 66 1
-13 -1 -18 118 5 1
-13 -1 -18 126 7 1
1 -13 -18 107 4 1
1 -13 -18 110 4 1
-13 -1 -18 118 4 1
13 1 18 106 4 1
-13 -1 18 122 7 1
-13 -1 18 114 5 1
1 -13 18 117 6 1
-13 1 -18 181 10 1
-13 1 -18 178 10 1
-1 -13 -18 192 10 1
-13 1 -18 184 13 1
-1 -13 -18 199 10 1
1 13 18 218 12 1
13 -1 18 202 10 1
-13 1 18 179 12 1
-1 -13 18 178 11 1
-13 1 18 201 12 1
1 13 18 201 13 1
1 13 18 206 10 1
-3 -13 -18 102 7 1
-13 3 -18 111 9 1
-13 3 -18 95 8 1
-3 -13 -18 112 8 1
3 13 18 107 7 1
13 -3 18 109 8 1
-13 3 18 108 12 1
3 13 18 114 13 1
-13 3 18 96 9 1
-3 -13 18 112 11 1
-13 5 -18 66 2 1
-5 -13 -18 57 2 1
5 13 18 53 2 1
-5 -13 18 50 4 1
-13 5 18 104 3 1
-13 5 18 72 3 1
5 13 18 60 3 1
13 -5 18 76 2 1
-7 -13 -18 2 2 1
-13 7 -18 2 2 1
-7 -13 -18 2 2 1
-13 7 18 3 3 1
13 -7 18 4 2 1
7 13 18 0 2 1
-13 7 18 5 3 1
-9 -13 -18 55 5 1
-9 -13 -18 51 6 1
-13 9 -18 60 7 1
9 13 18 49 6 1
-13 9 18 70 9 1
13 -9 18 60 6 1
-13 9 18 60 9 1
-13 11 -18 9 3 1
-11 -13 -18 8 2 1
13 -11 -18 0 4 1
-11 -13 -18 14 2 1
-13 11 18 11 3 1
11 13 18 4 2 1
-13 11 18 1 4 1
13 -11 18 9 2 1
-13 -13 -18 1 3 1
13 -13 -18 4 4 1
-13 -13 -18 1 2 1
-13 13 -18 2 3 1
13 -13 18 0 2 1
-13 13 18 1 3 1
-13 13 18 0 5 1
13 13 18 7 2 1
-12 14 -18 199 14 1
-14 -12 -18 183 12 1
12 -14 -18 227 13 1
-12 14 18 186 14 1
12 -14 18 209 12 1
14 12 18 188 12 1
-12 14 18 203 16 1
10 -14 -18 113 7 1
-10 14 -18 110 8 1
-14 -10 -18 131 5 1
-14 -10 -18 130 6 1
-10 14 18 114 7 1
10 -14 18 124 6 1
-10 14 18 133 10 1
14 10 18 123 6 1
8 -14 -18 3043 108 1
-14 -8 -18 3017 107 1
-8 14 -18 2967 109 1
-14 -8 -18 2988 107 1
14 8 18 2907 107 1
-8 14 18 3098 120 1
8 -14 18 3076 109 1
6 -14 -18 626 17 1
-14 -6 -18 602 17 1
6 -14 -18 580 16 1
-14 -6 18 594 20 1
14 6 18 542 16 1
-6 14 18 577 15 1
-14 -6 18 611 19 1
6 -14 18 568 17 1
-14 -4 -18 218 9 1
-14 -4 -18 207 8 1
4 -14 -18 203 9 1
4 -14 -18 203 9 1
-4 14 18 201 8 1
-14 -4 18 189 10 1
-4 14 18 202 11 1
-14 -4 18 200 12 1
2 -14 -18 1046 36 1
-14 -2 -18 1078 36 1
-14 -2 -18 1102 36 1
-14 -2 -18 1117 41 1
-2 14 18 1117 36 1
14 2 18 1080 36 1
-14 -2 18 1004 40 1
-2 14 18 1032 41 1
-14 -2 18 1076 41 1
-14 0 -18 813 31 1
0 -14 -18 739 27 1
-14 0 -18 753 28 1
-14 0 -18 727 27 1
0 -14 -18 790 27 1
0 -14 18 783 28 1
0 14 18 762 27 1
14 0 18 725 27 1
0 14 18 755 31 1
-14 0 18 815 31 1
-14 2 -18 503 18 1
-14 2 -18 528 18 1
-2 -14 -18 482 18 1
-14 2 -18 547 21 1
-2 -14 -18 506 17 1
-14 2 18 513 20 1
2 14 18 553 20 1
-2 -14 18 502 19 1
14 -2 18 514 18 1
2 14 18 492 17 1
-14 4 -18 504 23 1
-14 4 -18 465 22 1
-4 -14 -18 476 22 1
-4 -14 -18 469 22 1
-14 4 18 487 26 1
14 -4 18 508 22 1
4 14 18 505 25 1
-4 -14 18 489 24 1
4 14 18 486 22 1
-14 6 -18 356 15 1
-6 -14 -18 344 14 1
-6 -14 -18 365 15 1
-14 6 -18 367 18 1
-14 6 18 343 17 1
14 -6 18 348 15 1
6 14 18 353 17 1
6 14 18 371 15 1
-14 6 18 331 18 1
-8 -14 -18 90 6 1
-14 8 -18 65 6 1
-8 -14 -18 87 5 1
14 -8 18 69 5 1
8 14 18 70 5 1
-10 -14 -18 1431 60 1
-14 10 -18 1501 61 1
-10 -14 -18 1446 59 1
14 -10 18 1523 59 1
10 14 18 1580 60 1
14 -12 -18 281 15 1
-14 12 -18 248 13 1
-12 -14 -18 250 12 1
-12 -14 -18 253 10 1
14 -12 18 243 10 1
-14 12 18 256 14 1
-14 12 18 249 16 1
12 14 18 276 12 1
-14 -14 -18 37 6 1
-14 14 -18 27 7 1
14 -14 -18 22 5 1
14 -14 18 31 6 1
-14 14 18 19 7 1
14 14 18 36 7 1
-14 14 18 23 7 1
13 -15 -18 250 16 1
-13 15 -18 280 17 1
-15 -13 -18 298 15 1
-13 15 18 248 21 1
15 13 18 293 15 1
-13 15 18 285 18 1
13 -15 18 263 15 1
-15 -11 -18 790 31 1
-11 15 -18 683 32 1
11 -15 18 729 31 1
-11 15 18 772 35 1
-9 15 -18 30 9 1
-15 -9 -18 197 4 1
9 -15 -18 75 6 1
9 -15 18 38 5 1
-9 15 18 75 10 1
-9 15 18 92 7 1
15 9 18 187 5 1
-15 -7 -18 104 9 1
7 -15 -18 111 9 1
-7 15 -18 115 13 1
-15 -7 -18 86 8 1
7 -15 -18 99 9 1
-7 15 18 112 8 1
7 -15 18 127 9 1
15 7 18 93 9 1
-7 15 18 107 11 1
-5 15 -18 2025 81 1
-15 -5 -18 2064 79 1
5 -15 -18 2067 79 1
-15 -5 -18 1959 88 1
-5 15 18 2072 90 1
5 -15 18 2192 80 1
-15 -5 18 2048 90 1
-5 15 18 1946 78 1
-15 -3 -18 954 36 1
-15 -3 -18 949 40 1
3 -15 -18 944 35 1
-15 -3 -18 943 35 1
3 -15 -18 958 36 1
3 -15 18 945 36 1
-15 -3 18 909 40 1
-3 15 18 966 35 1
-3 15 18 953 41 1
-3 15 18 949 40 1
-15 -3 18 908 40 1
15 3 18 1023 36 1
-15 -1 -18 2385 102 1
-15 -1 -18 2347 102 1
1 -15 -18 2388 102 1
1 -15 -18 2306 102 1
-15 -1 18 2493 113 1
-1 15 18 2490 116 1
1 -15 18 2514 103 1
-15 -1 18 2504 116 1
-1 15 18 2320 101 1
-15 1 -18 22 3 1
-15 1 -18 22 3 1
-1 -15 -18 22 2 1
-1 -15 18 38 3 1
1 15 18 28 5 1
1 15 18 22 3 1
-15 1 18 24 3 1
-3 -15 -18 187 7 1
-15 3 -18 193 8 1
-15 3 -18 187 9 1
-15 3 -18 181 10 1
-3 -15 -18 175 8 1
-15 3 18 173 11 1
3 15 18 200 8 1
-3 -15 18 196 10 1
-15 3 18 208 10 1
15 -3 18 196 8 1
-15 3 18 215 10 1
3 15 18 202 10 1
-5 -15 -18 94 7 1
-15 5 -18 91 8 1
-5 -15 -18 90 6 1
-15 5 -18 95 10 1
-15 5 -18 90 7 1
15 -5 18 79 7 1
-5 -15 18 92 11 1
5 15 18 87 7 1
-15 5 18 101 10 1
-15 5 18 87 9 1
-7 -15 -18 50 5 1
-15 7 -18 69 6 1
-15 7 -18 54 10 1
-7 -15 -18 66 6 1
-15 7 18 69 8 1
15 -7 18 67 5 1
7 15 18 67 6 1
7 15 18 83 7 1
-15 7 18 77 8 1
-9 -15 -18 287 16 1
-15 9 -18 280 16 1
-9 -15 -18 287 15 1
15 -9 18 319 15 1
-15 9 18 326 19 1
-15 9 18 304 19 1
9 15 18 309 16 1
-11 -15 -18 198 11 1
-11 -15 -18 192 9 1
-15 11 18 186 14 1
-15 11 18 190 13 1
15 -11 18 197 10 1
-13 -15 -18 306 15 1
15 -13 -18 330 18 1
-15 13 -18 327 16 1
15 -13 18 308 15 1
13 15 18 305 15 1
-15 13 18 344 18 1
-15 13 18 322 21 1
15 -13 18 310 14 1
15 -15 -18 12 5 1
-15 15 -18 19 4 1
-15 -15 -18 6 4 1
15 -15 18 17 5 1
15 15 18 21 8 1
14 -16 -18 77 10 1
-14 16 -18 76 10 1
-16 -14 -18 63 9 1
14 -16 18 64 7 1
16 14 18 64 9 1
12 -16 -18 32 8 1
-16 -12 -18 48 8 1
-12 16 -18 64 10 1
16 12 18 58 8 1
-12 16 18 50 8 1
12 -16 18 58 7 1
-16 -10 -18 1260 49 1
-10 16 18 1284 56 1
-16 -8 -18 137 3 1
-16 -8 -18 106 3 1
-16 -8 -18 137 2 1
-8 16 -18 119 5 1
-8 16 18 145 3 1
8 -16 18 99 2 1
-8 16 18 93 5 1
16 8 18 87 3 1
6 -16 -18 1089 48 1
6 -16 -18 1042 48 1
-16 -6 -18 1215 48 1
-16 -6 -18 1178 47 1
-6 16 18 1121 47 1
-6 16 18 1033 54 1
6 -16 18 1042 48 1
16 6 18 1186 48 1
-16 -6 18 1073 54 1
4 -16 -18 865 35 1
-16 -4 -18 805 40 1
4 -16 -18 831 35 1
-16 -4 -18 862 36 1
-4 16 18 811 35 1
-16 -4 18 874 40 1
-16 -4 18 839 40 1
4 -16 18 853 36 1
-4 16 18 837 41 1
-16 -2 -18 1018 34 1
-16 -2 -18 1032 38 1
2 -16 -18 1011 33 1
-16 -2 -18 1007 33 1
2 -16 -18 1034 33 1
16 2 18 989 33 1
-2 16 18 1052 39 1
-2 16 18 1016 33 1
2 -16 18 997 34 1
-16 0 -18 138 8 1
-16 0 -18 144 7 1
0 -16 -18 148 7 1
0 -16 -18 151 7 1
-16 0 -18 152 10 1
0 16 18 150 7 1
0 16 18 170 9 1
0 16 18 153 13 1
16 0 18 143 7 1
-16 0 18 155 9 1
0 -16 18 156 8 1
-16 2 -18 8 7 1
-16 2 -18 7 5 1
-16 2 -18 9 6 1
-2 -16 -18 12 5 1
-16 2 18 5 7 1
16 -2 18 2 5 1
-2 -16 18 14 7 1
-16 2 18 7 5 1
2 16 18 9 5 1
2 16 18 3 4 1
-4 -16 -18 1477 52 1
-16 4 -18 1453 59 1
-16 4 -18 1497 53 1
-4 -16 -18 1456 53 1
-16 4 -18 1488 53 1
-16 4 18 1557 61 1
4 16 18 1545 53 1
16 -4 18 1421 53 1
4 16 18 1534 60 1
-16 4 18 1398 59 1
-4 -16 18 1478 54 1
-6 -16 -18 97 8 1
-16 6 -18 98 12 1
-16 6 -18 100 10 1
-6 -16 -18 91 9 1
-16 6 -18 103 9 1
-16 6 18 91 12 1
16 -6 18 108 9 1
-16 6 18 112 12 1
-6 -16 18 112 13 1
6 16 18 95 11 1
6 16 18 109 9 1
-16 8 -18 728 36 1
-8 -16 -18 692 32 1
-16 8 -18 720 32 1
-8 -16 -18 684 31 1
8 16 18 724 32 1
16 -8 18 779 32 1
8 16 18 727 37 1
-16 8 18 801 37 1
-10 -16 -18 273 12 1
-16 10 18 262 15 1
-16 10 18 315 16 1
-12 -16 -18 102 9 1
-16 12 -18 94 9 1
12 16 18 100 9 1
16 -12 18 82 8 1
16 -12 18 105 9 1
-16 12 18 115 11 1
-16 12 18 101 15 1
-14 -16 -18 381 16 1
-16 14 -18 376 17 1
16 -14 18 391 16 1
14 16 18 411 17 1
-16 16 -18 5 4 1
16 16 18 6 5 1
-16 16 18 6 2 1
16 -16 18 8 2 1
-15 17 -18 1 4 1
17 15 18 11 4 1
-15 17 18 5 2 1
15 -17 18 9 2 1
13 -17 -18 51 9 1
-13 17 -18 67 10 1
-13 17 18 62 6 1
17 13 18 50 8 1
13 -17 18 58 6 1
-17 -11 -18 187 9 1
-17 -11 -18 201 10 1
-11 17 -18 182 12 1
-11 17 18 207 10 1
17 11 18 199 9 1
11 -17 18 189 8 1
-11 17 18 207 18 1
-9 17 -18 10 5 1
-17 -9 -18 55 4 1
-17 -9 -18 43 7 1
17 9 18 39 6 1
-9 17 18 4 7 1
-9 17 18 5 3 1
9 -17 18 13 5 1
-17 -7 -18 68 6 1
-7 17 -18 42 6 1
-17 -7 -18 92 3 1
-17 -7 -18 98 2 1
-7 17 18 86 3 1
-7 17 18 93 3 1
-7 17 18 90 6 1
-17 -5 -18 633 23 1
-17 -5 -18 609 20 1
5 -17 -18 637 19 1
-17 -5 -18 601 18 1
5 -17 -18 636 20 1
5 -17 18 582 20 1
17 5 18 562 20 1
-5 17 18 607 23 1
-17 -5 18 586 23 1
-5 17 18 603 19 1
-17 -3 -18 76 9 1
3 -17 -18 53 6 1
-17 -3 -18 68 7 1
3 -17 -18 55 6 1
17 3 18 62 7 1
-17 -3 18 64 10 1
3 -17 18 47 7 1
-3 17 18 49 6 1
-3 17 18 71 11 1
-3 17 18 55 10 1
-17 -3 18 57 8 1
-17 -1 -18 719 34 1
-17 -1 -18 739 31 1
-17 -1 -18 767 30 1
1 -17 -18 761 30 1
1 -17 -18 754 30 1
1 -17 18 771 31 1
-17 -1 18 698 35 1
-17 -1 18 763 34 1
-1 17 18 744 35 1
-1 -17 -18 120 5 1
-1 -17 -18 108 4 1
-17 1 -18 68 4 1
-17 1 -18 68 6 1
-1 -17 18 147 6 1
1 17 18 105 7 1
1 17 18 104 4 1
17 -1 18 67 5 1
-17 1 18 136 7 1
-17 1 18 129 7 1
-17 3 -18 7 3 1
-17 3 -18 3 2 1
-3 -17 -18 1 2 1
-3 -17 -18 1 2 1
-17 3 -18 2 3 1
-17 3 18 2 4 1
-17 3 18 6 2 1
-17 3 18 6 3 1
17 -3 18 3 2 1
-3 -17 18 6 3 1
3 17 18 1 4 1
3 17 18 2 2 1
-17 5 -18 515 25 1
-5 -17 -18 488 21 1
-5 -17 -18 525 23 1
-17 5 -18 540 23 1
-17 5 -18 477 22 1
5 17 18 523 22 1
5 17 18 498 26 1
-17 5 18 533 26 1
17 -5 18 554 22 1
-17 5 18 524 26 1
-5 -17 18 539 24 1
-17 7 -18 9 3 1
-7 -17 -18 11 2 1
-17 7 -18 9 2 1
-17 7 -18 9 3 1
-7 -17 -18 6 2 1
-17 7 18 4 4 1
17 -7 18 11 2 1
-17 7 18 9 3 1
7 17 18 6 2 1
-9 -17 -18 122 8 1
-17 9 -18 105 9 1
-17 9 -18 123 12 1
-9 -17 -18 104 7 1
-17 9 18 115 11 1
9 17 18 117 9 1
-17 9 18 118 13 1
9 17 18 130 11 1
17 -9 18 112 8 1
-11 -17 -18 725 29 1
-17 11 -18 708 30 1
-17 11 18 747 35 1
-17 11 18 718 34 1
11 17 18 711 29 1
17 -11 18 679 28 1
-17 13 -18 159 9 1
-13 -17 -18 170 9 1
13 17 18 193 10 1
17 -13 18 181 9 1
17 -13 18 165 9 1
-15 -17 -18 6 5 1
-17 15 -18 1 4 1
15 17 18 0 4 1
17 -15 18 0 2 1
-17 15 18 0 2 1
-17 -17 -18 14 4 1
-17 17 18 16 4 1
-18 -16 -18 109 7 1
16 -18 18 97 6 1
-16 18 18 103 7 1
-14 18 -18 103 11 1
-18 -14 -18 135 7 1
-14 18 18 106 7 1
14 -18 18 118 7 1
12 -18 -18 248 14 1
-12 18 -18 252 17 1
18 12 18 236 15 1
12 -18 18 268 13 1
10 -18 -18 315 13 1
-18 -10 -18 333 16 1
10 -18 18 282 13 1
18 10 18 324 14 1
-10 18 18 307 16 1
8 -18 -18 73 7 1
-8 18 -18 46 13 1
-18 -8 -18 55 9 1
-18 -8 -18 52 8 1
18 8 18 72 8 1
8 -18 18 45 7 1
-8 18 18 49 16 1
-8 18 18 55 8 1
6 -18 -18 12 2 1
-18 -6 -18 47 3 1
-18 -6 -18 47 3 1
-6 18 18 17 6 1
6 -18 18 72 2 1
-6 18 18 9 3 1
18 6 18 43 3 1
4 -18 -18 213 9 1
-18 -4 -18 236 11 1
-18 -4 -18 218 10 1
-18 -4 -18 201 8 1
4 -18 -18 194 9 1
18 4 18 215 9 1
-18 -4 18 217 11 1
-4 18 18 174 13 1
-4 18 18 178 13 1
4 -18 18 225 9 1
-18 -4 18 189 13 1
-4 18 18 200 9 1
-18 -2 -18 1373 58 1
2 -18 -18 1206 52 1
2 -18 -18 1297 52 1
-18 -2 -18 1365 52 1
-2 18 18 1275 52 1
-2 18 18 1299 59 1
-18 -2 18 1319 59 1
18 2 18 1340 52 1
2 -18 18 1281 53 1
-18 -2 18 1348 59 1
0 -18 -18 127 8 1
-18 0 -18 123 8 1
0 -18 -18 119 8 1
-18 0 -18 126 10 1
-18 0 -18 108 10 1
-18 0 18 129 11 1
0 18 18 152 12 1
0 -18 18 126 9 1
-18 0 18 134 11 1
18 0 18 123 9 1
0 18 18 144 8 1
-2 -18 -18 600 21 1
-18 2 -18 634 23 1
-18 2 -18 605 22 1
-2 -18 -18 593 22 1
-18 2 -18 578 25 1
-2 -18 18 596 22 1
2 18 18 628 22 1
-18 2 18 644 26 1
-18 2 18 642 26 1
-18 2 18 581 25 1
18 -2 18 587 22 1
-18 4 -18 114 3 1
-18 4 -18 135 3 1
-4 -18 -18 84 2 1
-4 -18 -18 69 2 1
-18 4 -18 119 2 1
-18 4 18 179 3 1
18 -4 18 114 2 1
-18 4 18 145 4 1
4 18 18 56 4 1
4 18 18 73 2 1
-4 -18 18 58 3 1
-18 4 18 179 3 1
-18 6 -18 382 21 1
-6 -18 -18 373 19 1
-18 6 -18 403 20 1
-18 6 -18 375 19 1
18 -6 18 361 19 1
-18 6 18 387 23 1
6 18 18 353 22 1
-6 -18 18 353 21 1
6 18 18 384 19 1
-18 8 -18 2975 124 1
-18 8 -18 2886 112 1
-8 -18 -18 2966 112 1
-18 8 -18 2977 113 1
-8 -18 -18 2808 111 1
8 18 18 3007 112 1
-18 8 18 2810 126 1
8 18 18 2937 125 1
18 -8 18 2845 112 1
-18 10 -18 15 6 1
-10 -18 -18 19 6 1
-18 10 -18 11 4 1
-18 10 -18 12 4 1
18 -10 18 10 5 1
-18 10 18 27 14 1
-18 10 18 20 7 1
10 18 18 12 7 1
10 18 18 10 5 1
-12 -18 -18 79 8 1
-18 12 -18 85 8 1
18 -12 18 81 7 1
-18 12 18 80 7 1
18 -12 18 63 7 1
12 18 18 94 9 1
-18 14 -18 445 20 1
-14 -18 -18 454 21 1
14 18 18 485 22 1
18 -16 18 17 2 1
-18 -18 -18 1 2 1
-18 18 18 0 2 1
18 -18 18 0 1 1
-19 -17 -18 87 8 1
17 -19 18 86 6 1
-17 19 18 77 7 1
-19 -15 -18 209 12 1
15 -19 18 192 11 1
-15 19 18 188 12 1
-19 -13 -18 5 2 1
-13 19 18 3 2 1
13 -19 18 4 2 1
11 -19 -18 46 8 1
-19 -11 -18 63 7 1
-11 19 -18 26 14 1
11 -19 18 51 7 1
-11 19 18 46 7 1
19 11 18 50 10 1
9 -19 -18 247 11 1
-9 19 -18 242 17 1
-19 -9 -18 238 13 1
19 9 18 240 12 1
9 -19 18 241 11 1
7 -19 -18 358 19 1
-19 -7 -18 317 21 1
-19 -7 -18 341 22 1
-7 19 18 356 19 1
7 -19 18 369 19 1
19 7 18 363 20 1
-7 19 18 367 23 1
5 -19 -18 153 11 1
-19 -5 -18 169 14 1
-19 -5 -18 182 14 1
-5 19 18 156 15 1
-5 19 18 155 11 1
-5 19 18 189 19 1
5 -19 18 164 12 1
19 5 18 158 12 1
-19 -3 -18 339 15 1
-19 -3 -18 329 16 1
-19 -3 -18 340 13 1
3 -19 -18 309 13 1
19 3 18 331 14 1
3 -19 18 325 14 1
-19 -3 18 276 17 1
-3 19 18 317 13 1
-3 19 18 343 20 1
-19 -1 -18 23 3 1
1 -19 -18 13 2 1
1 -19 -18 12 2 1
-19 -1 18 21 3 1
1 -19 18 15 2 1
19 1 18 11 2 1
-1 19 18 9 2 1
-1 19 18 34 6 1
-19 -1 18 23 4 1
-19 1 -18 192 11 1
-19 1 -18 177 12 1
-19 1 -18 183 9 1
-1 -19 -18 150 10 1
-1 -19 -18 156 9 1
19 -1 18 172 10 1
-19 1 18 156 12 1
-1 -19 18 167 10 1
1 19 18 151 9 1
-19 1 18 146 13 1
-19 3 -18 27 6 1
-19 3 -18 30 8 1
-3 -19 -18 32 5 1
-19 3 -18 27 8 1
-3 -19 -18 25 5 1
19 -3 18 29 6 1
-19 3 18 34 9 1
-19 3 18 36 8 1
3 19 18 27 5 1
3 19 18 36 10 1
-3 -19 18 29 7 1
-19 3 18 29 9 1
-19 5 -18 307 12 1
-5 -19 -18 268 11 1
-19 5 -18 293 14 1
-19 5 -18 291 14 1
-5 -19 -18 254 12 1
-5 -19 18 282 14 1
-19 5 18 300 16 1
5 19 18 253 12 1
5 19 18 278 16 1
-19 5 18 319 15 1
19 -5 18 271 12 1
-19 7 -18 20 5 1
-19 7 -18 37 3 1
-7 -19 -18 6 3 1
-19 7 18 20 3 1
7 19 18 11 6 1
19 -7 18 31 3 1
7 19 18 12 6 1
-19 7 18 23 6 1
-19 9 -18 13 5 1
-19 9 -18 9 3 1
9 19 18 14 3 1
19 -9 18 20 6 1
-19 11 -18 944 42 1
-19 11 -18 969 43 1
-11 -19 -18 995 42 1
19 -11 18 1053 42 1
19 -11 18 1030 41 1
-19 11 18 990 47 1
11 19 18 968 42 1
-19 13 -18 536 27 1
-19 13 -18 496 26 1
-13 -19 -18 524 26 1
19 -13 18 538 25 1
-19 13 18 573 28 1
-19 15 18 159 11 1
19 -15 18 182 9 1
-17 -19 -18 131 9 1
19 -17 18 119 7 1
-19 17 18 123 9 1
-14 20 18 19 2 1
14 -20 18 30 3 1
-20 -12 -18 38 5 1
-12 20 18 31 5 1
10 -20 -18 291 16 1
-20 -10 -18 298 18 1
20 10 18 258 17 1
-10 20 18 320 17 1
10 -20 18 321 16 1
8 -20 -18 58 6 1
-8 20 18 72 7 1
20 8 18 54 9 1
8 -20 18 63 6 1
-20 -6 -18 200 16 1
6 -20 -18 223 14 1
6 -20 18 194 14 1
-6 20 18 219 14 1
20 6 18 227 15 1
-20 -4 -18 106 7 1
-4 20 18 92 6 1
4 -20 18 93 6 1
20 4 18 99 7 1
2 -20 -18 8 2 1
-20 -2 -18 8 5 1
-20 -2 -18 8 3 1
-20 -2 18 8 3 1
-2 20 18 11 2 1
-2 20 18 11 8 1
2 -20 18 4 2 1
20 2 18 8 3 1
-20 0 -18 670 29 1
0 -20 -18 680 28 1
0 -20 -18 659 27 1
-20 0 -18 625 27 1
-20 0 18 676 32 1
0 20 18 696 28 1
20 0 18 640 28 1
0 20 18 609 34 1
0 -20 18 650 28 1
-20 0 18 708 33 1
-20 2 -18 492 21 1
-20 2 -18 526 19 1
-20 2 -18 485 20 1
-2 -20 -18 488 19 1
-2 -20 -18 510 18 1
2 20 18 483 19 1
2 20 18 496 24 1
-20 2 18 514 23 1
20 -2 18 522 19 1
-2 -20 18 517 19 1
-4 -20 -18 546 29 1
-4 -20 -18 583 30 1
-20 4 -18 576 32 1
-20 4 -18 561 30 1
-20 4 -18 563 34 1
-20 4 18 544 35 1
4 20 18 594 30 1
20 -4 18 534 30 1
-4 -20 18 594 31 1
4 20 18 624 36 1
-20 4 18 554 35 1
-20 4 18 558 34 1
-20 6 -18 1144 50 1
-20 6 -18 1133 45 1
-6 -20 -18 1199 46 1
-20 6 18 1108 53 1
-6 -20 18 1124 46 1
-20 6 18 1132 52 1
6 20 18 1094 46 1
6 20 18 1204 54 1
20 -6 18 1154 46 1
-20 8 -18 12 5 1
-20 8 -18 13 3 1
-8 -20 -18 8 3 1
-20 8 -18 15 3 1
8 20 18 14 3 1
-20 10 -18 961 38 1
-20 10 -18 971 40 1
-10 -20 -18 922 37 1
-20 10 -18 873 36 1
10 20 18 866 37 1
-20 10 18 867 41 1
20 -10 18 917 36 1
20 -10 18 905 36 1
-20 12 -18 873 38 1
-12 -20 -18 872 37 1
20 -12 18 925 36 1
20 -14 18 62 5 1
-20 14 18 57 5 1
-21 -13 -18 63 5 1
13 -21 18 49 4 1
-13 21 18 55 5 1
-21 -11 -18 1 2 1
-11 21 18 5 2 1
11 -21 18 2 1 1
-21 -9 -18 1 2 1
9 -21 -18 1 3 1
9 -21 18 1 2 1
-9 21 18 1 3 1
-21 -7 -18 17 5 1
21 7 18 30 9 1
7 -21 18 21 5 1
5 -21 -18 1 2 1
5 -21 18 1 2 1
-5 21 18 2 3 1
21 5 18 2 4 1
-21 -3 -18 414 18 1
3 -21 -18 406 15 1
21 3 18 424 17 1
-3 21 18 373 15 1
3 -21 18 425 16 1
-21 -1 -18 64 8 1
1 -21 -18 49 6 1
21 1 18 53 8 1
-1 21 18 47 7 1
1 -21 18 56 7 1
-1 -21 -18 1 2 1
-21 1 -18 0 3 1
1 21 18 2 2 1
-1 -21 18 1 2 1
21 -1 18 1 3 1
-3 -21 -18 150 8 1
-3 -21 -18 173 10 1
21 -3 18 146 9 1
-3 -21 18 171 10 1
3 21 18 139 9 1
-21 5 -18 310 16 1
-21 5 -18 281 15 1
-5 -21 18 302 16 1
5 21 18 272 15 1
-21 5 18 313 17 1
21 -5 18 307 15 1
-21 7 -18 2539 94 1
-7 -21 -18 2679 95 1
-21 7 -18 2625 104 1
-21 7 18 2465 107 1
7 21 18 2545 95 1
21 -7 18 2428 95 1
-21 9 -18 856 37 1
-9 -21 -18 778 34 1
-21 9 18 878 38 1
21 -9 18 850 33 1
21 -9 18 810 33 1
21 -11 18 440 19 1
-21 11 18 461 22 1
-21 13 18 20 4 1
21 -13 18 28 4 1
-22 -12 -18 503 26 1
12 -22 18 471 23 1
-12 22 18 506 26 1
-22 -10 -18 163 8 1
10 -22 18 152 7 1
-22 -8 -18 1376 60 1
8 -22 18 1255 55 1
6 -22 -18 208 12 1
-22 -6 -18 224 14 1
6 -22 18 240 13 1
22 6 18 220 15 1
4 -22 -18 4 3 1
-22 -4 -18 8 2 1
4 -22 18 7 2 1
-4 22 18 21 3 1
22 4 18 15 4 1
-22 -2 -18 34 5 1
2 -22 -18 19 6 1
22 2 18 25 8 1
-2 22 18 18 6 1
2 -22 18 25 5 1
-22 0 -18 0 2 1
0 -22 -18 1 3 1
-22 0 18 3 2 1
22 0 18 0 3 1
0 -22 18 1 2 1
0 22 18 4 3 1
-2 -22 -18 4 3 1
-22 2 -18 12 4 1
2 22 18 4 3 1
-22 2 18 6 2 1
-2 -22 18 3 2 1
-22 4 -18 856 35 1
-22 4 18 885 36 1
22 -4 18 829 32 1
4 22 18 800 32 1
-22 6 -18 958 41 1
6 22 18 994 38 1
-22 6 18 946 42 1
-6 -22 18 1013 37 1
22 -6 18 912 38 1
-22 8 -18 6 2 1
-22 8 18 2 2 1
22 -8 18 4 2 1
-22 10 -18 473 21 1
22 -10 18 509 19 1
-22 10 18 478 22 1
-22 12 18 250 12 1
22 -12 18 269 10 1
-23 -11 -18 219 11 1
11 -23 18 212 10 1
-23 -9 -18 355 17 1
9 -23 18 361 15 1
-23 -7 -18 117 8 1
7 -23 18 124 7 1
-23 -5 -18 19 5 1
5 -23 18 21 4 1
-23 -3 -18 131 9 1
-23 -1 18 3 7 1
-23 1 18 75 7 1
1 23 18 78 9 1
-1 -23 18 73 6 1
-23 3 -18 128 8 1
-3 -23 18 120 8 1
-23 3 18 127 9 1
-23 5 -18 465 21 1
-23 5 18 455 21 1
-5 -23 18 458 19 1
-23 7 -18 144 9 1
-23 7 18 152 9 1
23 -7 18 141 9 1
-23 9 -18 220 10 1
23 -9 18 228 9 1
-23 11 18 261 14 1
23 -11 18 285 13 1
-24 -8 -18 2 1 1
8 -24 18 1 1 1
-24 -6 -18 63 5 1
6 -24 18 71 4 1
-24 -4 -18 332 18 1
4 -24 18 341 16 1
-24 -2 -18 14 2 1
2 -24 18 8 1 1
-24 0 -18 103 7 1
0 -24 18 100 7 1
-24 0 18 111 9 1
-24 2 -18 70 6 1
-2 -24 18 66 5 1
-24 4 -18 293 14 1
-4 -24 18 296 13 1
-24 4 18 312 14 1
-24 6 -18 243 12 1
-6 -24 18 224 12 1
-24 6 18 250 13 1
-24 8 -18 379 19 1
-24 8 18 357 19 1
-25 -5 -18 2 1 1
5 -25 18 0 1 1
-25 -3 -18 18 4 1
3 -25 18 26 3 1
-25 -1 -18 0 2 1
1 -25 18 6 1 1
-25 1 -18 115 8 1
-1 -25 18 108 7 1
-25 1 18 108 9 1
-25 3 -18 140 9 1
-25 3 18 150 10 1
-3 -25 18 139 8 1
-25 5 -18 101 7 1
-25 5 18 88 7 1
-5 -25 18 110 7 1
1 0 -19 309 6 1
-1 0 -19 295 6 1
0 -1 -19 395 6 1
-1 0 -19 302 6 1
0 1 -19 422 6 1
1 0 19 341 8 1
-1 0 19 289 7 1
1 0 19 339 7 1
0 -1 19 388 8 1
-1 0 19 289 8 1
0 1 19 415 8 1
0 1 19 425 7 1
-1 2 -19 2286 88 1
2 1 -19 2116 88 1
2 1 -19 2250 88 1
1 -2 -19 2265 88 1
1 -2 -19 2227 88 1
-2 -1 -19 2194 88 1
1 -2 19 2270 97 1
-2 -1 19 2237 100 1
-2 -1 19 2103 97 1
1 -2 19 2162 100 1
2 1 19 2264 87 1
-1 -2 -19 319 17 1
-1 -2 -19 302 17 1
2 -1 -19 286 17 1
1 2 -19 324 17 1
-2 1 -19 286 17 1
1 2 -19 339 17 1
2 -1 19 260 18 1
-2 1 19 291 19 1
1 2 19 331 16 1
-1 -2 19 315 20 1
2 -1 19 261 20 1
1 2 19 301 20 1
-1 -2 19 328 19 1
-3 -2 -19 1018 43 1
2 -3 -19 998 43 1
3 2 -19 1029 43 1
-3 -2 -19 1074 43 1
-3 -2 19 1025 48 1
3 2 19 1045 50 1
3 0 -19 35 6 1
0 -3 -19 56 5 1
0 -3 -19 53 4 1
3 0 -19 48 4 1
0 3 -19 41 5 1
-3 0 -19 49 5 1
-3 0 -19 51 5 1
0 3 -19 55 6 1
3 0 19 58 4 1
0 -3 19 51 7 1
0 3 19 51 3 1
0 3 19 45 6 1
0 -3 19 44 6 1
-3 0 19 50 7 1
0 3 19 51 4 1
-2 -3 -19 236 8 1
-3 2 -19 234 8 1
-3 2 -19 260 8 1
3 -2 -19 226 8 1
-2 -3 -19 239 8 1
3 -2 19 230 10 1
-3 2 19 245 9 1
3 -2 19 255 9 1
2 3 19 246 11 1
2 3 19 256 7 1
-2 -3 19 244 9 1
-4 -3 -19 399 24 1
3 -4 -19 372 24 1
-4 -3 -19 384 24 1
3 -4 -19 405 24 1
-3 4 -19 409 25 1
4 3 -19 395 24 1
4 3 19 352 24 1
3 -4 19 368 28 1
-4 -3 19 367 27 1
4 3 19 385 28 1
-3 4 19 376 27 1
3 -4 19 401 26 1
-4 -3 19 349 28 1
-1 4 -19 5210 166 1
-4 -1 -19 4891 165 1
4 1 -19 4949 165 1
-4 -1 -19 5056 165 1
1 -4 -19 5016 165 1
1 -4 -19 4927 165 1
1 -4 19 5345 183 1
-4 -1 19 5355 188 1
-4 -1 19 4966 183 1
4 1 19 5230 183 1
4 -1 -19 1340 46 1
-1 -4 -19 1355 46 1
-4 1 -19 1365 46 1
4 -1 -19 1303 46 1
-4 1 -19 1382 46 1
4 -1 19 1360 53 1
-1 -4 19 1265 51 1
1 4 19 1412 52 1
4 -1 19 1319 45 1
-3 -4 -19 503 20 1
4 -3 -19 435 20 1
-4 3 -19 463 20 1
3 4 -19 501 20 1
-3 -4 -19 479 20 1
4 -3 -19 469 20 1
3 4 19 483 24 1
-3 -4 19 459 22 1
3 4 19 483 23 1
-3 -4 19 454 24 1
4 -3 19 466 24 1
4 -5 -19 1962 62 1
-5 -4 -19 1911 62 1
5 4 -19 1880 61 1
-4 5 -19 1941 62 1
4 -5 19 1880 70 1
4 -5 19 1874 68 1
-5 -4 19 1782 70 1
-5 -4 19 1899 68 1
2 -5 -19 445 18 1
-2 5 -19 441 19 1
-5 -2 -19 431 18 1
5 2 -19 484 18 1
2 -5 -19 434 18 1
-5 -2 -19 460 18 1
-5 -2 19 480 21 1
5 2 19 475 21 1
5 2 19 484 18 1
-5 -2 19 459 20 1
2 -5 19 397 21 1
5 2 19 483 20 1
2 -5 19 429 19 1
0 -5 -19 905 50 1
-5 0 -19 848 50 1
-5 0 -19 819 50 1
5 0 -19 834 50 1
-5 0 19 896 56 1
0 -5 19 898 55 1
5 0 19 881 50 1
-5 0 19 871 57 1
0 5 19 852 58 1
0 -5 19 914 57 1
5 -2 -19 899 38 1
-2 -5 -19 959 38 1
-5 2 -19 883 38 1
-5 2 -19 894 38 1
-2 -5 -19 858 38 1
-2 -5 19 843 42 1
2 5 19 908 38 1
2 5 19 916 43 1
5 -2 19 861 44 1
5 -2 19 940 42 1
-2 -5 19 912 44 1
4 5 -19 14 4 1
-4 -5 -19 15 3 1
5 -4 -19 10 3 1
5 -4 19 9 2 1
-5 4 19 8 5 1
-4 -5 19 15 7 1
4 5 19 15 5 1
5 -4 19 8 4 1
4 5 19 12 7 1
4 5 19 12 3 1
-4 -5 19 11 5 1
-5 4 19 6 6 1
5 -4 19 5 6 1
-6 -5 -19 362 12 1
-6 -5 -19 377 12 1
-5 6 -19 358 12 1
5 -6 -19 358 12 1
6 5 19 347 11 1
5 -6 19 348 12 1
-6 -5 19 351 14 1
-6 -5 19 370 13 1
5 -6 19 354 14 1
3 -6 -19 113 13 1
-3 6 -19 131 14 1
6 3 -19 137 13 1
-6 -3 -19 114 13 1
3 -6 -19 122 13 1
-6 -3 -19 115 13 1
-6 -3 19 118 16 1
3 -6 19 128 15 1
6 3 19 133 13 1
3 -6 19 120 14 1
-6 -3 19 130 15 1
-6 -1 -19 225 7 1
6 1 -19 206 6 1
-6 -1 -19 232 7 1
1 -6 -19 200 6 1
-1 6 -19 185 9 1
-6 -1 19 209 9 1
1 -6 19 201 9 1
-6 -1 19 200 8 1
-1 6 19 190 9 1
6 1 19 221 6 1
-1 6 19 221 8 1
6 1 19 225 9 1
1 -6 19 195 7 1
-6 1 -19 172 7 1
-1 -6 -19 209 6 1
-6 1 -19 164 6 1
-1 -6 -19 212 6 1
1 6 19 202 8 1
1 6 19 190 6 1
-6 1 19 166 9 1
-1 -6 19 201 9 1
6 -1 19 188 6 1
6 -1 19 181 7 1
-6 3 -19 2753 84 1
-3 -6 -19 2652 84 1
6 -3 -19 2635 84 1
-3 -6 -19 2766 84 1
3 6 19 2676 96 1
6 -3 19 2683 95 1
6 -3 19 2734 83 1
6 -3 19 2766 93 1
-3 -6 19 2801 93 1
-5 -6 -19 502 25 1
-6 5 -19 525 26 1
5 6 -19 534 25 1
-5 -6 -19 508 25 1
6 -5 -19 528 25 1
6 -5 -19 551 25 1
5 6 19 529 29 1
-6 5 19 550 29 1
-6 5 19 513 28 1
6 -5 19 528 27 1
6 -5 19 506 24 1
5 6 19 466 25 1
6 -5 19 510 29 1
-5 -6 19 517 28 1
-5 -6 19 481 29 1
7 6 -19 53 7 1
-7 -6 -19 51 7 1
-7 -6 -19 54 8 1
6 -7 19 56 9 1
-6 7 19 47 10 1
7 6 19 52 7 1
-7 -6 19 51 8 1
7 6 19 61 10 1
-7 -6 19 50 11 1
4 -7 -19 1432 55 1
7 4 -19 1395 54 1
-7 -4 -19 1452 55 1
-7 -4 -19 1332 55 1
-4 7 -19 1478 56 1
7 4 19 1360 63 1
-7 -4 19 1384 63 1
4 -7 19 1321 62 1
-4 7 19 1331 61 1
2 -7 -19 893 48 1
-7 -2 -19 891 48 1
2 -7 -19 920 48 1
-2 7 -19 945 49 1
-7 -2 -19 896 48 1
-2 7 19 880 54 1
2 -7 19 922 52 1
-7 -2 19 861 53 1
-2 7 19 959 47 1
7 2 19 848 48 1
2 -7 19 902 55 1
-7 -2 19 952 55 1
7 0 -19 737 21 1
0 -7 -19 818 21 1
-7 0 -19 814 21 1
-7 0 -19 768 21 1
0 -7 19 799 23 1
-7 0 19 729 25 1
0 -7 19 753 25 1
0 7 19 787 21 1
0 7 19 742 24 1
7 0 19 767 21 1
-2 -7 -19 509 33 1
-2 -7 -19 518 33 1
-7 2 -19 471 33 1
2 7 19 515 38 1
7 -2 19 510 36 1
-2 -7 19 466 37 1
2 7 19 474 32 1
7 -2 19 490 32 1
-2 -7 19 523 36 1
-7 2 19 491 37 1
-7 2 19 457 37 1
-4 -7 -19 176 4 1
7 -4 -19 217 4 1
-4 -7 19 212 5 1
7 -4 19 203 5 1
7 -4 19 196 4 1
4 7 19 183 4 1
4 7 19 177 5 1
-4 -7 19 209 8 1
4 7 19 171 8 1
-7 4 19 197 7 1
-7 4 19 174 6 1
6 7 -19 109 6 1
-7 6 -19 105 7 1
-6 -7 -19 95 6 1
-6 -7 -19 97 6 1
7 -6 -19 124 6 1
7 -6 19 105 5 1
-6 -7 19 100 7 1
6 7 19 107 6 1
-6 -7 19 89 10 1
6 7 19 119 9 1
-7 8 -19 3579 153 1
-8 -7 -19 3486 152 1
-8 -7 -19 3583 153 1
8 7 19 3564 173 1
8 7 19 3628 152 1
-8 -7 19 3582 169 1
-8 -7 19 3379 173 1
-8 -5 -19 1104 57 1
-5 8 -19 1244 58 1
5 -8 -19 1177 57 1
-8 -5 -19 1154 57 1
8 5 19 1143 57 1
5 -8 19 1205 65 1
-8 -5 19 1156 65 1
-3 8 -19 1195 47 1
-8 -3 -19 1169 46 1
-8 -3 19 1249 53 1
8 3 19 1140 46 1
-3 8 19 1161 45 1
-8 -3 19 1220 51 1
8 3 19 1165 53 1
3 -8 19 1157 52 1
-8 -1 -19 1283 66 1
1 -8 -19 1309 66 1
1 -8 -19 1240 66 1
-8 -1 -19 1264 66 1
-1 8 19 1316 65 1
1 -8 19 1259 75 1
-8 -1 19 1330 73 1
8 1 19 1285 66 1
-8 1 -19 256 16 1
-8 1 -19 250 16 1
-1 -8 -19 259 16 1
8 -1 -19 232 15 1
-1 -8 -19 230 15 1
8 -1 19 252 19 1
8 -1 19 245 15 1
1 8 19 223 15 1
-8 1 19 230 18 1
-1 -8 19 249 19 1
-8 1 19 257 18 1
-1 -8 19 265 17 1
1 8 19 231 18 1
8 -3 -19 386 15 1
-8 3 19 363 17 1
8 -3 19 369 16 1
8 -3 19 346 18 1
8 -3 19 395 15 1
3 8 19 344 15 1
-8 3 19 370 18 1
-3 -8 19 334 18 1
3 8 19 375 18 1
-8 5 -19 858 42 1
-5 -8 -19 879 42 1
-5 -8 -19 917 42 1
8 -5 -19 953 42 1
-5 -8 19 929 48 1
8 -5 19 878 41 1
5 8 19 910 42 1
5 8 19 982 48 1
-8 5 19 888 47 1
8 -5 19 895 46 1
-5 -8 19 947 46 1
8 -7 -19 1283 35 1
-8 7 -19 1256 36 1
-7 -8 -19 1139 35 1
8 -7 -19 1299 35 1
7 8 19 1245 35 1
-8 7 19 1260 39 1
7 8 19 1192 40 1
8 -7 19 1200 34 1
-7 -8 19 1205 39 1
-9 -8 -19 131 8 1
-8 9 -19 157 10 1
-9 -8 -19 142 8 1
-8 9 19 142 10 1
9 8 19 134 12 1
9 8 19 128 8 1
-9 -8 19 135 10 1
-9 -8 19 128 13 1
-8 9 19 139 10 1
-9 -6 -19 596 18 1
6 -9 -19 588 18 1
-9 -6 -19 659 19 1
-6 9 -19 568 20 1
-6 9 19 621 22 1
9 6 19 619 18 1
-9 -6 19 574 21 1
-6 9 19 556 21 1
-9 -6 19 578 22 1
-4 9 -19 4790 171 1
-9 -4 -19 4701 170 1
-9 -4 -19 4590 170 1
4 -9 -19 4804 170 1
-4 9 19 4875 169 1
-9 -4 19 4948 189 1
9 4 19 4748 193 1
9 4 19 5031 170 1
-9 -4 19 4596 193 1
-9 -2 -19 843 36 1
-9 -2 -19 831 35 1
2 -9 -19 880 35 1
9 2 19 924 41 1
-9 -2 19 932 41 1
-2 9 19 841 41 1
-9 -2 19 836 39 1
-2 9 19 811 35 1
-9 0 -19 80 4 1
-9 0 -19 93 2 1
0 -9 -19 50 2 1
-9 0 -19 107 2 1
0 9 19 70 1 1
9 0 19 92 2 1
0 9 19 39 3 1
9 0 19 92 1 1
0 9 19 50 2 1
0 -9 19 53 3 1
-9 2 -19 557 24 1
-9 2 -19 536 24 1
-9 2 -19 513 28 1
-2 -9 -19 561 23 1
2 9 19 572 28 1
-9 2 19 583 28 1
2 9 19 557 23 1
-2 -9 19 545 27 1
9 -2 19 562 23 1
9 -2 19 589 28 1
9 -2 19 555 26 1
-2 -9 19 557 25 1
-9 4 -19 107 11 1
-4 -9 -19 112 10 1
-4 -9 -19 119 10 1
9 -4 -19 105 10 1
9 -4 19 104 11 1
-9 4 19 117 12 1
9 -4 19 116 10 1
-9 4 19 124 13 1
-4 -9 19 134 12 1
4 9 19 113 14 1
-4 -9 19 105 14 1
4 9 19 129 12 1
4 9 19 116 10 1
-6 -9 -19 420 15 1
-6 -9 -19 379 15 1
-9 6 -19 382 16 1
9 -6 -19 418 15 1
-6 -9 19 399 19 1
-9 6 19 380 18 1
6 9 19 416 15 1
9 -6 19 420 14 1
-6 -9 19 391 17 1
-9 6 19 369 18 1
6 9 19 445 19 1
9 -8 -19 801 32 1
-9 8 -19 796 32 1
-8 -9 -19 783 31 1
9 -8 -19 771 31 1
-8 -9 -19 781 32 1
-9 8 19 796 36 1
8 9 19 750 31 1
9 -8 19 816 30 1
8 9 19 809 37 1
-8 -9 19 819 35 1
-9 8 19 764 36 1
9 -10 -19 5 3 1
-10 -9 -19 1 4 1
-9 10 -19 8 3 1
9 -10 -19 7 3 1
-9 10 19 1 7 1
10 9 19 1 4 1
-9 10 19 6 4 1
-7 10 -19 185 9 1
-10 -7 -19 198 7 1
-7 10 19 201 9 1
-7 10 19 220 9 1
-10 -7 19 181 11 1
-10 -7 19 195 8 1
10 7 19 202 7 1
-10 -5 -19 609 27 1
5 -10 -19 600 26 1
-10 -5 -19 565 26 1
5 -10 -19 628 26 1
-5 10 -19 561 28 1
-10 -5 19 614 30 1
10 5 19 608 26 1
-10 -5 19 611 29 1
3 -10 -19 2924 140 1
-3 10 -19 3022 141 1
-10 -3 -19 2768 140 1
-10 -3 -19 3036 141 1
-3 10 19 3003 140 1
-10 -3 19 2893 156 1
-10 -3 19 2799 159 1
1 -10 -19 528 20 1
-10 -1 -19 510 20 1
1 -10 -19 485 20 1
-10 -1 -19 546 21 1
-10 -1 19 460 23 1
-1 10 19 533 19 1
-1 10 19 512 23 1
10 1 19 513 20 1
1 -10 19 499 23 1
-10 1 -19 3258 126 1
-10 1 -19 3053 126 1
-1 -10 -19 2992 125 1
-10 1 -19 2956 139 1
-1 -10 -19 3207 125 1
-1 -10 19 3225 142 1
1 10 19 3133 125 1
10 -1 19 2897 125 1
-10 3 -19 449 24 1
-3 -10 -19 497 24 1
-10 3 -19 467 28 1
-3 -10 -19 511 24 1
-10 3 -19 473 24 1
-3 -10 19 456 28 1
10 -3 19 496 23 1
-3 -10 19 473 26 1
3 10 19 461 23 1
3 10 19 454 27 1
10 -3 19 517 26 1
-10 3 19 453 27 1
-5 -10 -19 739 35 1
-10 5 -19 716 36 1
-5 -10 -19 695 36 1
-5 -10 19 728 41 1
-5 -10 19 751 39 1
-10 5 19 737 41 1
5 10 19 753 40 1
10 -7 -19 213 10 1
-7 -10 -19 210 10 1
-10 7 -19 197 11 1
-7 -10 -19 196 11 1
10 -7 19 209 10 1
-10 7 19 182 13 1
-7 -10 19 191 12 1
-10 7 19 191 13 1
7 10 19 221 10 1
7 10 19 206 15 1
-9 -10 -19 300 12 1
-10 9 -19 338 14 1
10 -9 -19 360 15 1
-9 -10 -19 302 13 1
10 -9 19 337 12 1
-10 9 19 362 16 1
9 10 19 315 13 1
-10 9 19 310 15 1
10 -11 -19 303 16 1
-11 -10 -19 293 14 1
-10 11 -19 325 16 1
-11 -10 -19 314 15 1
11 10 19 314 15 1
8 -11 -19 828 31 1
-8 11 -19 780 32 1
-11 -8 -19 796 30 1
8 -11 -19 746 31 1
-11 -8 -19 797 31 1
-11 -8 19 831 34 1
-8 11 19 837 35 1
-8 11 19 803 35 1
6 -11 -19 1510 54 1
6 -11 -19 1455 54 1
-11 -6 -19 1434 54 1
-6 11 -19 1523 56 1
-11 -6 -19 1452 55 1
-6 11 19 1538 62 1
-11 -6 19 1504 61 1
11 6 19 1492 54 1
-6 11 19 1522 61 1
4 -11 -19 1555 63 1
4 -11 -19 1510 63 1
-11 -4 -19 1482 63 1
-4 11 -19 1647 65 1
-11 -4 -19 1508 64 1
11 4 19 1480 63 1
-4 11 19 1528 63 1
-4 11 19 1606 72 1
-4 11 19 1584 71 1
2 -11 -19 1272 60 1
-11 -2 -19 1259 60 1
-11 -2 -19 1266 60 1
2 -11 -19 1199 60 1
-11 -2 19 1352 67 1
-2 11 19 1201 60 1
-11 0 -19 2528 111 1
0 -11 -19 2467 111 1
-11 0 -19 2476 111 1
-11 0 -19 2523 123 1
0 -11 -19 2541 111 1
0 11 19 2522 126 1
-11 0 19 2484 126 1
0 11 19 2514 110 1
11 0 19 2318 110 1
-11 0 19 2471 123 1
0 11 19 2473 123 1
0 -11 19 2649 126 1
-11 2 -19 6 4 1
-11 2 -19 6 2 1
-2 -11 -19 3 2 1
-2 -11 -19 5 2 1
-11 2 -19 9 2 1
-11 2 19 9 2 1
2 11 19 1 3 1
2 11 19 1 3 1
-2 -11 19 1 3 1
-2 -11 19 2 4 1
-11 2 19 6 3 1
11 -2 19 6 2 1
2 11 19 2 1 1
-11 4 -19 52 11 1
-4 -11 -19 67 5 1
-11 4 -19 49 6 1
-4 -11 -19 67 5 1
-4 -11 19 46 11 1
-11 4 19 55 7 1
11 -4 19 57 5 1
-4 -11 19 75 11 1
4 11 19 76 10 1
4 11 19 84 5 1
4 11 19 73 7 1
11 -4 19 54 7 1
-6 -11 -19 655 26 1
-6 -11 -19 654 26 1
-11 6 -19 679 27 1
6 11 19 696 26 1
-11 6 19 638 30 1
11 -6 19 707 26 1
6 11 19 661 31 1
-8 -11 -19 1 2 1
-8 -11 -19 6 2 1
11 -8 19 4 1 1
-11 8 19 3 3 1
8 11 19 8 2 1
-11 8 19 5 3 1
11 -10 -19 4 4 1
-10 -11 -19 2 2 1
-11 10 -19 4 3 1
-10 -11 -19 1 1 1
-11 10 19 3 2 1
-11 10 19 7 3 1
10 11 19 0 2 1
11 -10 19 3 2 1
-12 -11 -19 6 2 1
11 -12 -19 5 4 1
-11 12 -19 15 3 1
-12 -11 -19 9 2 1
-11 12 19 4 4 1
-11 12 19 0 2 1
12 11 19 7 2 1
9 -12 -19 679 29 1
9 -12 -19 744 28 1
-9 12 -19 717 30 1
-12 -9 -19 716 28 1
12 9 19 675 28 1
-9 12 19 726 33 1
7 -12 -19 390 15 1
-12 -7 -19 378 15 1
-7 12 -19 364 16 1
-12 -7 -19 357 14 1
7 -12 -19 379 14 1
-7 12 19 387 17 1
-7 12 19 405 17 1
-12 -7 19 362 19 1
-12 -7 19 401 17 1
12 7 19 363 14 1
-12 -5 -19 2605 100 1
-12 -5 -19 2575 100 1
5 -12 -19 2637 100 1
5 -12 -19 2550 100 1
-5 12 19 2685 99 1
-12 -5 19 2503 111 1
-12 -5 19 2604 113 1
-5 12 19 2576 114 1
3 -12 -19 404 10 1
3 -12 -19 424 10 1
-12 -3 -19 445 10 1
-12 -3 -19 438 11 1
-12 -3 19 474 12 1
-3 12 19 419 12 1
12 3 19 456 10 1
-3 12 19 426 10 1
-12 -1 -19 46 4 1
1 -12 -19 45 5 1
1 -12 -19 45 4 1
-12 -1 -19 55 8 1
-12 -1 -19 44 5 1
-12 -1 19 55 7 1
1 -12 19 41 7 1
-1 12 19 61 4 1
-12 -1 19 41 6 1
12 1 19 57 4 1
-1 12 19 70 8 1
-12 1 -19 686 28 1
-1 -12 -19 658 28 1
-12 1 -19 639 28 1
-1 -12 -19 694 28 1
-12 1 19 627 31 1
-12 1 19 662 32 1
12 -1 19 699 28 1
1 12 19 728 32 1
-1 -12 19 695 29 1
-12 3 -19 42 10 1
-3 -12 -19 54 5 1
-12 3 -19 50 6 1
-12 3 -19 55 6 1
-3 -12 -19 54 5 1
3 12 19 68 7 1
-12 3 19 50 8 1
-12 3 19 52 7 1
3 12 19 63 5 1
-3 -12 19 58 9 1
12 -3 19 61 5 1
-12 5 -19 2629 116 1
-12 5 -19 2528 105 1
-5 -12 -19 2602 104 1
-5 -12 -19 2644 104 1
5 12 19 2745 116 1
5 12 19 2420 104 1
-7 -12 -19 400 20 1
-7 -12 -19 397 20 1
-12 7 -19 406 21 1
12 -7 19 378 19 1
7 12 19 379 20 1
-12 7 19 409 23 1
-9 -12 -19 29 2 1
-9 -12 -19 29 1 1
-12 9 -19 27 3 1
-12 9 19 26 3 1
9 12 19 16 2 1
-11 -12 -19 26 4 1
-12 11 -19 21 3 1
12 -11 -19 33 4 1
-11 -12 -19 31 5 1
-12 11 19 22 3 1
11 12 19 16 2 1
-12 11 19 26 5 1
12 -11 19 30 4 1
12 -13 -19 12 4 1
-13 -12 -19 7 2 1
-12 13 -19 8 4 1
-13 -12 -19 8 3 1
-12 13 19 12 5 1
-12 13 19 8 3 1
13 12 19 8 3 1
-13 -10 -19 416 17 1
-10 13 -19 419 19 1
10 -13 -19 429 18 1
-13 -10 -19 408 16 1
-10 13 19 426 20 1
-10 13 19 427 21 1
13 10 19 403 17 1
8 -13 -19 240 13 1
-13 -8 -19 247 12 1
-8 13 -19 232 15 1
-13 -8 -19 243 12 1
13 8 19 241 12 1
-13 -8 19 225 15 1
-8 13 19 255 15 1
6 -13 -19 189 8 1
-6 13 -19 188 12 1
6 -13 -19 176 9 1
-6 13 19 191 10 1
-6 13 19 186 7 1
-13 -6 19 168 10 1
-13 -6 19 205 12 1
-6 13 19 175 11 1
13 6 19 200 8 1
-13 -4 -19 4295 160 1
4 -13 -19 4550 160 1
4 -13 -19 4342 160 1
-13 -4 -19 4239 160 1
-13 -4 19 4146 181 1
-4 13 19 4092 181 1
-4 13 19 4555 159 1
13 4 19 4596 160 1
4 -13 19 4365 162 1
-13 -4 19 4270 177 1
-13 -2 -19 582 29 1
-13 -2 -19 616 33 1
2 -13 -19 548 29 1
-13 -2 -19 580 29 1
2 -13 -19 518 29 1
-2 13 19 495 32 1
-13 -2 19 554 33 1
13 2 19 586 29 1
-2 13 19 504 28 1
0 -13 -19 103 9 1
0 -13 -19 99 8 1
-13 0 -19 91 11 1
-13 0 -19 92 9 1
-13 0 -19 111 9 1
0 -13 19 106 10 1
13 0 19 116 8 1
0 13 19 80 12 1
0 13 19 108 8 1
0 13 19 99 10 1
-13 0 19 101 11 1
-13 0 19 111 10 1
-13 2 -19 19 5 1
-2 -13 -19 14 5 1
-2 -13 -19 20 5 1
-13 2 -19 17 9 1
-13 2 19 21 7 1
-2 -13 19 20 8 1
2 13 19 15 5 1
2 13 19 16 7 1
2 13 19 17 10 1
-13 4 -19 307 20 1
-13 4 -19 318 17 1
-4 -13 -19 299 16 1
-13 4 -19 329 17 1
-4 -13 -19 301 16 1
13 -4 19 320 16 1
-13 4 19 347 19 1
-4 -13 19 323 18 1
4 13 19 321 21 1
-13 4 19 341 19 1
4 13 19 316 16 1
4 13 19 335 19 1
-13 6 -19 890 38 1
-6 -13 -19 882 37 1
-6 -13 -19 853 38 1
6 13 19 952 38 1
-13 6 19 927 44 1
13 -6 19 895 37 1
-13 6 19 914 43 1
-8 -13 -19 200 7 1
-13 8 -19 206 8 1
-8 -13 -19 200 6 1
13 -8 19 194 6 1
-13 8 19 215 9 1
8 13 19 219 7 1
-13 8 19 234 10 1
-13 10 -19 150 10 1
-10 -13 -19 130 7 1
-10 -13 -19 131 9 1
10 13 19 133 8 1
13 -10 19 136 7 1
-13 10 19 146 11 1
-13 10 19 159 12 1
-12 -13 -19 157 11 1
-13 12 -19 178 13 1
13 -12 -19 185 15 1
-12 -13 -19 160 12 1
-13 12 19 187 15 1
12 13 19 165 12 1
-13 12 19 195 16 1
-14 -13 -19 179 9 1
13 -14 -19 183 11 1
-13 14 -19 142 10 1
13 -14 19 171 8 1
14 13 19 170 8 1
-13 14 19 165 10 1
-13 14 19 159 15 1
-14 -11 -19 185 10 1
-11 14 -19 215 14 1
-14 -11 -19 172 11 1
11 -14 -19 165 12 1
14 11 19 190 11 1
-11 14 19 166 15 1
-11 14 19 153 13 1
11 -14 19 221 12 1
-14 -9 -19 212 14 1
-9 14 -19 202 17 1
-14 -9 -19 206 13 1
9 -14 -19 204 15 1
9 -14 19 217 15 1
14 9 19 198 14 1
-9 14 19 219 18 1
-9 14 19 235 17 1
-14 -7 -19 2318 84 1
-7 14 -19 2320 86 1
7 -14 -19 2364 85 1
-14 -7 -19 2302 85 1
7 -14 -19 2258 85 1
7 -14 19 2408 86 1
-7 14 19 2271 97 1
14 7 19 2302 85 1
-5 14 -19 455 18 1
5 -14 -19 469 14 1
5 -14 -19 443 14 1
-14 -5 -19 481 14 1
-5 14 19 488 17 1
-5 14 19 434 13 1
-5 14 19 450 17 1
-14 -5 19 450 17 1
14 5 19 419 14 1
-14 -5 19 446 16 1
5 -14 19 442 14 1
-14 -3 -19 1321 51 1
3 -14 -19 1407 52 1
-14 -3 -19 1320 52 1
-14 -3 -19 1324 58 1
3 -14 -19 1364 52 1
-14 -3 19 1305 58 1
3 -14 19 1385 53 1
-3 14 19 1364 51 1
-14 -1 -19 2030 75 1
-14 -1 -19 1852 75 1
1 -14 -19 1895 75 1
-14 -1 -19 1852 83 1
1 -14 -19 1967 75 1
-14 -1 19 1973 85 1
-1 14 19 2038 75 1
-1 14 19 2112 85 1
1 -14 19 1866 76 1
14 1 19 1922 75 1
-14 -1 19 2005 84 1
-1 -14 -19 30 5 1
-14 1 -19 24 8 1
-14 1 -19 34 5 1
-1 -14 -19 26 5 1
14 -1 19 32 5 1
-14 1 19 39 8 1
-14 1 19 31 7 1
1 14 19 28 5 1
1 14 19 24 7 1
-3 -14 -19 159 8 1
-14 3 -19 165 11 1
-3 -14 -19 150 9 1
-14 3 -19 160 9 1
-14 3 -19 160 9 1
3 14 19 153 8 1
3 14 19 169 10 1
14 -3 19 163 8 1
-14 3 19 157 11 1
-14 3 19 171 11 1
3 14 19 170 14 1
-5 -14 -19 460 17 1
-14 5 -19 442 18 1
-14 5 -19 457 18 1
-14 5 -19 439 21 1
-5 -14 -19 435 17 1
-14 5 19 427 20 1
14 -5 19 403 17 1
5 14 19 417 20 1
5 14 19 461 17 1
-7 -14 -19 193 12 1
-7 -14 -19 182 12 1
14 -7 19 192 12 1
-14 7 19 187 15 1
-14 7 19 217 15 1
7 14 19 187 15 1
-9 -14 -19 916 36 1
-9 -14 -19 897 35 1
-14 9 -19 897 37 1
-14 9 19 889 42 1
14 -9 19 961 35 1
9 14 19 850 36 1
-11 -14 -19 106 9 1
-11 -14 -19 108 10 1
-14 11 -19 114 11 1
-14 11 19 93 13 1
-14 11 19 82 12 1
11 14 19 100 10 1
14 -11 19 92 9 1
14 -13 -19 114 13 1
-13 -14 -19 143 9 1
-14 13 -19 134 11 1
13 14 19 154 10 1
14 -13 19 122 10 1
-14 13 19 131 11 1
-14 13 19 124 15 1
-15 -14 -19 4 3 1
14 -15 -19 3 5 1
-14 15 -19 0 4 1
14 -15 19 0 2 1
15 14 19 0 3 1
-14 15 19 3 2 1
-12 15 -19 7 4 1
-15 -12 -19 7 3 1
12 -15 -19 6 4 1
15 12 19 6 3 1
12 -15 19 4 2 1
-12 15 19 5 3 1
-12 15 19 5 7 1
10 -15 -19 1268 55 1
-15 -10 -19 1178 54 1
-10 15 -19 1271 56 1
-15 -10 -19 1191 53 1
10 -15 19 1294 55 1
-10 15 19 1322 62 1
-15 -8 -19 4 5 1
-8 15 -19 6 5 1
8 -15 -19 10 3 1
-15 -8 -19 8 4 1
8 -15 19 1 5 1
15 8 19 3 5 1
-8 15 19 6 5 1
-8 15 19 11 3 1
6 -15 -19 992 42 1
-6 15 -19 950 44 1
-15 -6 -19 1020 42 1
-15 -6 -19 1042 48 1
-15 -6 -19 1036 42 1
6 -15 19 963 43 1
-15 -6 19 1087 48 1
-6 15 19 998 41 1
15 6 19 997 42 1
-6 15 19 1054 48 1
-15 -4 -19 1574 53 1
4 -15 -19 1610 53 1
-15 -4 -19 1565 53 1
-15 -4 -19 1592 60 1
4 -15 -19 1627 53 1
4 -15 19 1651 54 1
-4 15 19 1684 53 1
15 4 19 1530 53 1
-4 15 19 1735 60 1
-15 -4 19 1570 61 1
-15 -2 -19 1360 56 1
-15 -2 -19 1341 50 1
-15 -2 -19 1309 49 1
2 -15 -19 1258 49 1
-15 -2 19 1356 56 1
-2 15 19 1275 57 1
2 -15 19 1224 50 1
-2 15 19 1201 55 1
15 2 19 1272 49 1
-2 15 19 1244 49 1
-15 0 -19 34 9 1
-15 0 -19 30 6 1
0 -15 -19 49 7 1
-15 0 -19 29 7 1
0 -15 -19 53 6 1
-15 0 19 34 8 1
0 15 19 40 6 1
0 15 19 53 8 1
-15 0 19 45 9 1
15 0 19 30 6 1
0 15 19 43 11 1
0 -15 19 46 8 1
-15 2 -19 33 6 1
-2 -15 -19 38 5 1
-15 2 -19 40 8 1
-2 -15 -19 40 5 1
-15 2 -19 47 5 1
-2 -15 19 36 8 1
2 15 19 43 5 1
-15 2 19 41 7 1
2 15 19 44 7 1
-15 2 19 46 8 1
15 -2 19 44 5 1
-15 4 -19 171 11 1
-15 4 -19 199 8 1
-15 4 -19 179 9 1
-4 -15 -19 170 8 1
-4 -15 -19 190 8 1
-15 4 19 184 11 1
-4 -15 19 155 11 1
4 15 19 202 8 1
15 -4 19 164 8 1
-15 6 -19 251 17 1
-6 -15 -19 217 16 1
-15 6 -19 244 17 1
-6 -15 -19 223 16 1
-15 6 -19 236 19 1
6 15 19 215 16 1
-15 6 19 224 19 1
15 -6 19 259 16 1
-15 8 -19 314 17 1
-8 -15 -19 332 16 1
-8 -15 -19 302 15 1
8 15 19 351 16 1
15 -8 19 330 16 1
-15 8 19 288 19 1
-15 8 19 299 20 1
8 15 19 324 19 1
-10 -15 -19 77 6 1
-10 -15 -19 80 7 1
-15 10 19 80 9 1
-15 10 19 81 11 1
-12 -15 -19 12 3 1
-15 12 -19 7 3 1
-15 12 19 9 3 1
15 -12 19 6 2 1
12 15 19 11 3 1
-15 12 19 9 6 1
-14 -15 -19 337 18 1
-15 14 -19 331 18 1
15 -14 -19 292 21 1
-15 14 19 332 20 1
15 -14 19 351 17 1
14 15 19 320 18 1
15 -16 -19 8 6 1
-15 16 -19 15 4 1
-16 -15 -19 13 5 1
15 -16 19 9 2 1
-15 16 19 8 2 1
16 15 19 7 4 1
-13 16 -19 179 12 1
13 -16 -19 173 11 1
-16 -13 -19 187 10 1
13 -16 19 188 9 1
16 13 19 170 10 1
-13 16 19 178 11 1
-11 16 -19 390 21 1
-16 -11 -19 382 19 1
11 -16 -19 416 19 1
-11 16 19 353 25 1
-11 16 19 369 21 1
11 -16 19 374 19 1
16 11 19 390 19 1
-16 -9 -19 4 3 1
9 -16 -19 1 3 1
-9 16 19 2 6 1
-9 16 19 1 3 1
16 9 19 3 3 1
9 -16 19 2 2 1
-16 -7 -19 576 22 1
-7 16 -19 546 27 1
-16 -7 -19 614 24 1
7 -16 -19 625 24 1
7 -16 19 563 24 1
16 7 19 650 24 1
-7 16 19 633 28 1
-7 16 19 582 27 1
-16 -5 -19 142 9 1
-16 -5 -19 148 8 1
-16 -5 -19 164 6 1
5 -16 -19 140 7 1
16 5 19 157 7 1
-5 16 19 159 10 1
-16 -5 19 169 9 1
5 -16 19 155 7 1
-5 16 19 140 6 1
-5 16 19 126 10 1
-16 -5 19 120 11 1
-16 -3 -19 516 28 1
3 -16 -19 507 27 1
-16 -3 -19 519 31 1
-16 -3 -19 487 27 1
3 -16 -19 492 28 1
16 3 19 476 28 1
3 -16 19 526 28 1
-3 16 19 493 31 1
-3 16 19 513 27 1
-16 -3 19 537 31 1
1 -16 -19 316 16 1
-16 -1 -19 325 17 1
1 -16 -19 345 16 1
-16 -1 -19 334 16 1
-16 -1 -19 336 19 1
-1 16 19 359 20 1
-16 -1 19 350 19 1
1 -16 19 334 17 1
16 1 19 316 16 1
-16 -1 19 373 19 1
-1 -16 -19 285 11 1
-16 1 -19 302 13 1
-16 1 -19 316 11 1
-1 -16 -19 263 11 1
-16 1 -19 324 12 1
1 16 19 265 13 1
1 16 19 274 10 1
-1 -16 19 302 12 1
-16 1 19 307 13 1
16 -1 19 289 11 1
-16 3 -19 23 5 1
-16 3 -19 12 3 1
-16 3 -19 25 6 1
-16 3 19 21 7 1
3 16 19 24 7 1
-16 3 19 12 3 1
16 -3 19 18 5 1
3 16 19 13 4 1
-3 -16 19 14 3 1
-5 -16 -19 534 25 1
-16 5 -19 523 25 1
-16 5 -19 534 28 1
-16 5 -19 561 26 1
-5 -16 -19 493 24 1
5 16 19 521 25 1
-16 5 19 501 29 1
-5 -16 19 507 26 1
16 -5 19 572 25 1
-16 5 19 490 29 1
-16 7 -19 14 4 1
-16 7 -19 16 3 1
-7 -16 -19 5 2 1
-7 -16 -19 8 3 1
-16 7 19 15 4 1
16 -7 19 12 2 1
7 16 19 10 4 1
-16 7 19 14 3 1
7 16 19 8 2 1
-9 -16 -19 566 25 1
16 -9 19 512 24 1
-16 9 19 547 29 1
9 16 19 532 25 1
-16 9 19 566 29 1
-11 -16 -19 462 15 1
-16 11 -19 461 16 1
-16 11 19 443 21 1
-16 11 19 478 18 1
11 16 19 423 16 1
-16 13 -19 347 19 1
-13 -16 -19 365 19 1
13 16 19 344 19 1
-16 13 19 383 22 1
16 -13 19 385 19 1
-16 15 -19 11 4 1
-15 -16 -19 11 5 1
16 -15 19 15 2 1
15 16 19 19 4 1
-16 15 19 16 5 1
-17 -16 -19 89 6 1
16 -17 19 73 5 1
-16 17 19 77 6 1
-14 17 -19 123 11 1
-17 -14 -19 106 7 1
14 -17 -19 107 12 1
14 -17 19 91 6 1
-14 17 19 109 6 1
12 -17 -19 68 9 1
-17 -12 -19 50 9 1
-12 17 -19 50 12 1
-17 -12 -19 39 9 1
17 12 19 78 9 1
12 -17 19 72 7 1
10 -17 -19 788 31 1
-17 -10 -19 701 35 1
-10 17 -19 774 33 1
-17 -10 -19 739 31 1
-10 17 19 725 35 1
10 -17 19 810 31 1
17 10 19 766 31 1
8 -17 -19 1 3 1
-17 -8 -19 0 3 1
-8 17 -19 1 6 1
-17 -8 -19 0 3 1
-8 17 19 0 7 1
-8 17 19 1 3 1
8 -17 19 2 2 1
17 8 19 1 3 1
-17 -6 -19 139 12 1
-17 -6 -19 139 11 1
-17 -6 -19 128 9 1
-6 17 19 148 13 1
-6 17 19 142 10 1
6 -17 19 154 11 1
-6 17 19 148 15 1
4 -17 -19 75 7 1
-17 -4 -19 67 10 1
-17 -4 -19 67 7 1
4 -17 -19 68 7 1
-17 -4 -19 57 8 1
-17 -4 19 89 10 1
-17 -4 19 65 11 1
-4 17 19 63 12 1
-4 17 19 76 11 1
-4 17 19 62 7 1
4 -17 19 70 8 1
-17 -2 -19 10 3 1
-17 -2 -19 11 4 1
2 -17 -19 13 4 1
2 -17 -19 13 5 1
-17 -2 -19 11 3 1
-2 17 19 14 4 1
2 -17 19 4 2 1
-2 17 19 11 4 1
-17 -2 19 5 3 1
17 2 19 8 2 1
-17 -2 19 11 3 1
-2 17 19 20 9 1
-17 0 -19 57 7 1
0 -17 -19 54 5 1
-17 0 -19 62 5 1
0 -17 -19 52 5 1
-17 0 -19 56 6 1
-17 0 19 45 7 1
0 17 19 53 5 1
-17 0 19 50 8 1
17 0 19 56 5 1
0 17 19 68 8 1
-17 2 -19 101 8 1
-17 2 -19 98 9 1
-2 -17 -19 96 7 1
-2 -17 -19 104 6 1
-17 2 -19 86 6 1
2 17 19 85 9 1
2 17 19 82 6 1
-17 2 19 88 8 1
17 -2 19 83 6 1
-2 -17 19 83 8 1
-17 2 19 86 9 1
-17 4 -19 752 31 1
-4 -17 -19 732 31 1
-17 4 -19 758 35 1
-17 4 -19 735 31 1
-4 -17 -19 736 30 1
-17 4 19 770 36 1
4 17 19 792 31 1
-4 -17 19 780 32 1
-17 4 19 832 36 1
-6 -17 -19 396 19 1
-17 6 -19 383 21 1
-17 6 -19 396 20 1
-17 6 19 368 22 1
-6 -17 19 376 21 1
-17 8 -19 781 30 1
-17 8 -19 746 30 1
-8 -17 -19 776 29 1
-8 -17 -19 763 28 1
-17 8 -19 742 33 1
8 17 19 715 29 1
8 17 19 715 33 1
-10 -17 -19 1 3 1
-17 10 -19 1 3 1
10 17 19 1 4 1
-17 10 19 2 6 1
10 17 19 6 3 1
-17 10 19 0 3 1
17 -10 19 1 2 1
-12 -17 -19 256 14 1
-17 12 -19 234 14 1
12 17 19 242 14 1
17 -12 19 256 13 1
17 -12 19 236 13 1
-14 -17 -19 210 12 1
-17 14 -19 185 12 1
14 17 19 183 12 1
-17 14 19 211 11 1
17 -14 19 202 10 1
17 -16 19 73 5 1
-17 16 19 72 6 1
-18 -17 -19 282 16 1
17 -18 19 276 14 1
-17 18 19 291 16 1
-18 -15 -19 123 8 1
15 -18 19 122 6 1
-15 18 19 110 7 1
-13 18 -19 0 5 1
13 -18 -19 1 4 1
-18 -13 -19 4 2 1
13 -18 19 0 2 1
-13 18 19 0 2 1
18 13 19 4 4 1
-11 18 -19 54 6 1
11 -18 -19 38 4 1
11 -18 19 36 2 1
18 11 19 39 4 1
9 -18 -19 126 8 1
-18 -9 -19 120 10 1
-9 18 -19 96 14 1
-9 18 19 118 19 1
18 9 19 149 9 1
9 -18 19 117 8 1
-9 18 19 122 10 1
-18 -7 -19 85 9 1
-18 -7 -19 70 9 1
7 -18 -19 105 7 1
18 7 19 87 8 1
-7 18 19 112 10 1
7 -18 19 75 7 1
-7 18 19 125 16 1
5 -18 -19 38 6 1
-18 -5 -19 43 8 1
-18 -5 -19 29 5 1
5 -18 19 29 6 1
18 5 19 23 6 1
-5 18 19 32 6 1
-5 18 19 24 13 1
-5 18 19 29 10 1
-18 -3 -19 714 30 1
3 -18 -19 729 26 1
-18 -3 -19 723 27 1
-3 18 19 772 31 1
-18 -3 19 693 30 1
3 -18 19 736 27 1
18 3 19 668 27 1
-18 -3 19 776 30 1
-3 18 19 768 31 1
1 -18 -19 3 2 1
-18 -1 19 8 3 1
1 -18 19 5 2 1
-18 -1 19 11 4 1
-1 18 19 6 5 1
-1 -18 -19 34 7 1
-18 1 -19 45 8 1
-18 1 -19 41 9 1
1 18 19 39 11 1
-18 1 19 35 9 1
-1 -18 19 33 8 1
-18 1 19 45 9 1
-18 3 -19 159 13 1
-18 3 -19 175 12 1
-3 -18 -19 181 10 1
-3 -18 -19 191 11 1
-3 -18 19 180 12 1
3 18 19 176 14 1
3 18 19 165 11 1
-18 3 19 154 13 1
18 -3 19 157 11 1
-5 -18 -19 65 7 1
-18 5 -19 61 9 1
-18 5 -19 61 9 1
-5 -18 -19 66 6 1
-18 5 -19 61 7 1
18 -5 19 73 7 1
-5 -18 19 61 10 1
-18 5 19 67 9 1
5 18 19 70 11 1
5 18 19 64 7 1
-18 7 -19 244 13 1
-7 -18 -19 239 10 1
-18 7 -19 243 11 1
-18 7 -19 217 13 1
-7 -18 -19 230 11 1
7 18 19 238 11 1
7 18 19 204 15 1
-18 7 19 232 13 1
-18 7 19 229 15 1
-18 9 -19 411 20 1
-18 9 -19 375 18 1
-9 -18 -19 414 19 1
18 -9 19 368 18 1
9 18 19 388 22 1
-18 9 19 394 24 1
-18 9 19 356 21 1
9 18 19 390 18 1
-11 -18 -19 2 3 1
-18 11 -19 4 3 1
-18 11 -19 1 4 1
11 18 19 13 3 1
18 -11 19 13 3 1
18 -11 19 5 2 1
-13 -18 -19 59 8 1
13 18 19 47 9 1
18 -13 19 57 6 1
18 -15 19 150 8 1
-18 15 19 144 10 1
-17 -18 -19 9 4 1
-18 17 19 12 4 1
18 -17 19 8 3 1
-19 -16 -19 3 4 1
16 -19 19 5 3 1
-19 -14 -19 192 10 1
-14 19 19 175 10 1
14 -19 19 186 8 1
-19 -12 -19 45 5 1
-12 19 19 52 5 1
12 -19 19 60 5 1
-10 19 -19 17 7 1
10 -19 -19 17 3 1
19 10 19 14 4 1
-10 19 19 21 2 1
-8 19 -19 36 17 1
8 -19 -19 31 7 1
19 8 19 18 8 1
8 -19 19 29 7 1
-8 19 19 26 8 1
-19 -6 -19 5 5 1
-19 -6 -19 1 3 1
6 -19 19 0 2 1
19 6 19 0 3 1
-6 19 19 0 3 1
-6 19 19 3 9 1
-6 19 19 0 4 1
-19 -4 -19 852 44 1
4 -19 -19 937 39 1
-19 -4 -19 925 40 1
-4 19 19 923 39 1
-4 19 19 894 46 1
19 4 19 865 39 1
-4 19 19 962 45 1
4 -19 19 888 40 1
-19 -2 -19 1031 41 1
2 -19 -19 990 42 1
-19 -2 -19 1016 47 1
2 -19 -19 1024 42 1
-19 -2 -19 1042 43 1
19 2 19 1104 43 1
-19 -2 19 988 48 1
-19 -2 19 1067 48 1
-2 19 19 1083 42 1
2 -19 19 1003 43 1
0 -19 -19 3 2 1
-19 0 -19 8 3 1
-19 0 -19 5 4 1
0 -19 -19 2 2 1
-19 0 -19 4 2 1
0 19 19 1 2 1
-19 0 19 5 3 1
0 19 19 7 6 1
0 -19 19 3 2 1
-19 0 19 11 4 1
19 0 19 9 2 1
-2 -19 -19 8 3 1
-19 2 -19 7 4 1
-19 2 -19 9 2 1
-2 -19 -19 18 4 1
-19 2 -19 7 3 1
-19 2 19 6 3 1
2 19 19 10 6 1
-2 -19 19 8 3 1
-19 2 19 9 4 1
2 19 19 13 2 1
19 -2 19 10 2 1
-19 4 -19 0 3 1
-19 4 -19 3 2 1
-4 -19 -19 1 2 1
-19 4 -19 0 4 1
-4 -19 -19 0 2 1
4 19 19 0 2 1
4 19 19 1 5 1
-19 4 19 0 2 1
-19 4 19 1 4 1
19 -4 19 0 2 1
-4 -19 19 2 3 1
-19 6 -19 144 12 1
-19 6 -19 137 10 1
-19 6 -19 155 12 1
-6 -19 -19 151 9 1
-6 -19 -19 175 10 1
-19 6 19 161 12 1
19 -6 19 130 9 1
-19 6 19 167 14 1
6 19 19 155 15 1
6 19 19 163 10 1
-19 8 -19 7 3 1
-19 8 -19 9 5 1
-19 8 -19 13 6 1
19 -8 19 10 6 1
-19 8 19 15 7 1
-19 10 -19 338 17 1
-10 -19 -19 366 15 1
-19 10 -19 326 15 1
19 -10 19 339 14 1
19 -10 19 346 15 1
10 19 19 345 15 1
-19 12 -19 2045 83 1
-12 -19 -19 2011 82 1
-19 14 -19 3 6 1
-19 14 19 2 1 1
19 -14 19 3 1 1
-19 16 19 15 4 1
19 -16 19 18 3 1
-20 -15 -19 1 2 1
-15 20 19 2 2 1
15 -20 19 2 1 1
-20 -13 -19 483 26 1
-13 20 19 537 25 1
13 -20 19 489 23 1
-20 -11 -19 64 7 1
-11 20 19 62 7 1
9 -20 -19 99 7 1
-20 -9 -19 79 6 1
-9 20 19 95 7 1
20 9 19 64 9 1
9 -20 19 82 6 1
7 -20 -19 15 3 1
-20 -7 -19 17 2 1
20 7 19 10 3 1
-7 20 19 20 3 1
7 -20 19 10 2 1
-20 -5 -19 39 7 1
-5 20 19 30 7 1
5 -20 19 32 5 1
3 -20 -19 155 10 1
-20 -3 -19 148 13 1
-3 20 19 132 10 1
20 3 19 126 11 1
3 -20 19 158 11 1
-20 -1 -19 135 9 1
1 -20 -19 142 7 1
-20 -1 -19 118 8 1
-20 -1 19 117 10 1
-1 20 19 148 17 1
-20 -1 19 128 11 1
20 1 19 108 8 1
1 -20 19 122 8 1
-20 1 -19 167 11 1
-1 -20 -19 176 10 1
-1 -20 -19 180 9 1
-20 1 19 167 12 1
1 20 19 162 18 1
-20 1 19 186 14 1
1 20 19 170 9 1
-1 -20 19 164 10 1
-20 3 -19 262 15 1
-3 -20 -19 281 16 1
-3 -20 -19 267 15 1
-20 3 -19 253 18 1
-20 3 19 273 20 1
3 20 19 275 16 1
-3 -20 19 288 16 1
-20 5 -19 111 8 1
-5 -20 -19 101 7 1
-20 5 -19 106 11 1
5 20 19 101 7 1
20 -5 19 124 8 1
-5 -20 19 105 10 1
-20 7 -19 20 3 1
-7 -20 -19 11 3 1
-20 7 -19 13 2 1
7 20 19 14 3 1
20 -7 19 20 3 1
-20 7 19 18 2 1
-20 9 -19 659 25 1
-9 -20 -19 595 23 1
-20 9 -19 624 25 1
-20 9 -19 603 23 1
20 -9 19 627 23 1
9 20 19 574 23 1
20 -9 19 628 23 1
-20 9 19 640 26 1
-20 11 -19 13 6 1
-11 -20 -19 33 7 1
20 -11 19 16 2 1
-20 13 19 45 5 1
20 -13 19 43 4 1
-20 15 19 16 4 1
20 -15 19 15 4 1
-21 -12 -19 469 25 1
12 -21 19 488 22 1
-12 21 19 477 25 1
-10 21 19 101 8 1
10 -21 19 89 6 1
-21 -8 -19 34 5 1
-8 21 19 48 8 1
8 -21 19 35 5 1
6 -21 -19 80 7 1
-21 -6 -19 74 6 1
21 6 19 106 9 1
6 -21 19 93 7 1
4 -21 -19 19 2 1
4 -21 19 16 5 1
-4 21 19 15 3 1
21 4 19 5 3 1
-21 -2 -19 26 5 1
2 -21 -19 19 5 1
-21 -2 19 18 3 1
-2 21 19 5 3 1
-21 0 -19 70 7 1
0 -21 -19 68 7 1
21 0 19 52 8 1
0 -21 19 81 8 1
0 21 19 51 7 1
-21 0 19 53 7 1
-2 -21 -19 359 18 1
-2 -21 -19 368 17 1
-21 2 -19 348 18 1
-21 2 -19 380 19 1
-21 2 19 354 19 1
2 21 19 349 17 1
21 -2 19 411 18 1
-2 -21 19 359 18 1
-21 4 -19 25 8 1
-4 -21 -19 22 6 1
-4 -21 -19 26 7 1
-21 4 -19 37 5 1
21 -4 19 39 7 1
-4 -21 19 43 7 1
-21 4 19 45 6 1
4 21 19 24 6 1
-21 6 -19 31 6 1
-21 6 -19 27 9 1
-6 -21 -19 44 7 1
-21 6 19 40 6 1
21 -6 19 37 7 1
6 21 19 45 7 1
-8 -21 -19 148 10 1
-21 8 -19 154 18 1
8 21 19 120 10 1
-21 8 19 151 10 1
21 -10 19 140 6 1
-21 10 19 110 7 1
21 -12 19 139 7 1
-21 12 19 145 8 1
-22 -11 -19 6 2 1
11 -22 19 3 1 1
-11 22 19 4 3 1
-22 -9 -19 296 15 1
9 -22 19 306 13 1
-22 -7 -19 213 11 1
7 -22 19 220 10 1
-22 -5 -19 108 8 1
-22 -3 -19 59 5 1
3 -22 -19 42 6 1
-3 22 19 51 8 1
3 -22 19 58 5 1
-22 -1 -19 110 7 1
-22 -1 19 118 8 1
1 -22 19 120 7 1
-1 22 19 93 8 1
-1 -22 -19 127 9 1
-22 1 -19 126 8 1
-1 -22 19 115 9 1
-22 1 19 119 8 1
22 -1 19 104 9 1
-22 3 -19 50 5 1
-3 -22 19 50 5 1
3 22 19 38 7 1
22 -3 19 44 7 1
-22 3 19 43 5 1
-22 5 -19 225 10 1
-22 5 19 222 10 1
22 -5 19 222 11 1
-5 -22 19 209 10 1
5 22 19 207 10 1
-22 7 -19 1132 57 1
-22 7 19 1101 59 1
22 -7 19 1122 52 1
-22 9 -19 244 10 1
22 -11 19 27 4 1
-22 11 19 22 4 1
-23 -10 -19 433 20 1
10 -23 19 449 17 1
-23 -8 -19 65 6 1
8 -23 19 44 5 1
-23 -6 -19 29 5 1
6 -23 19 27 4 1
-23 -4 -19 355 18 1
4 -23 19 356 16 1
-23 -2 -19 3 2 1
2 -23 19 7 1 1
0 -23 19 33 4 1
-23 0 19 52 6 1
-23 2 -19 35 5 1
-2 -23 19 33 5 1
-23 2 19 34 5 1
-23 4 -19 312 14 1
-23 4 19 299 14 1
-4 -23 19 307 13 1
-23 6 -19 56 6 1
23 -6 19 55 6 1
-23 6 19 64 6 1
-23 8 -19 195 12 1
23 -8 19 228 11 1
-23 8 19 219 13 1
-23 10 19 423 22 1
23 -10 19 476 19 1
-24 -7 -19 362 16 1
7 -24 19 377 14 1
-24 -5 -19 435 19 1
5 -24 19 425 17 1
-24 -3 -19 111 6 1
3 -24 19 82 5 1
-24 -1 -19 370 18 1
1 -24 19 379 16 1
-24 1 -19 65 6 1
-24 1 19 64 7 1
-1 -24 19 53 5 1
-3 -24 19 36 4 1
-24 3 19 36 5 1
-24 5 -19 4 2 1
-24 5 19 2 2 1
-5 -24 19 3 2 1
24 -5 19 0 2 1
-24 7 -19 20 2 1
-24 7 19 21 2 1
-25 -2 -19 10 4 1
2 -25 19 10 3 1
-25 0 -19 108 7 1
0 -25 19 99 7 1
-25 2 -19 1 2 1
-25 2 19 1 2 1
-2 -25 19 3 1 1
0 0 -20 10591 460 1
0 0 -20 11603 460 1
0 0 20 11430 521 1
0 0 20 11053 509 1
1 -1 -20 619 17 1
-1 -1 -20 554 17 1
-1 1 -20 592 17 1
1 1 -20 586 17 1
1 -1 -20 599 17 1
-1 -1 -20 580 17 1
1 1 -20 576 18 1
-1 1 20 546 20 1
1 1 20 602 21 1
-1 -1 20 603 19 1
2 0 -20 207 12 1
-2 0 -20 214 12 1
0 2 -20 201 12 1
-2 0 -20 204 12 1
0 -2 -20 200 12 1
2 0 -20 209 11 1
0 2 -20 205 12 1
0 -2 -20 205 12 1
-2 0 20 192 13 1
2 0 20 202 13 1
0 -2 20 210 13 1
0 -2 20 183 14 1
-2 2 -20 28 5 1
2 -2 -20 26 4 1
-2 -2 -20 24 4 1
2 2 -20 26 4 1
-2 2 -20 17 4 1
-2 -2 20 24 5 1
2 -2 20 27 5 1
-2 -2 20 28 6 1
2 2 20 38 7 1
2 -2 20 20 6 1
2 2 20 27 3 1
-2 2 20 21 5 1
1 -3 -20 422 31 1
-3 -1 -20 434 31 1
3 1 -20 379 31 1
-3 -1 -20 438 31 1
-1 3 -20 460 31 1
-1 3 -20 476 31 1
3 1 20 431 36 1
1 -3 20 443 35 1
-3 -1 20 444 36 1
-1 3 20 386 34 1
3 1 20 454 30 1
3 1 20 387 34 1
-1 -3 -20 3705 119 1
3 -1 -20 3900 118 1
3 -1 -20 3711 119 1
1 3 -20 3716 118 1
-3 1 -20 3808 119 1
1 3 20 3718 118 1
-3 1 20 3765 131 1
-3 -3 -20 232 19 1
-3 3 -20 284 19 1
3 3 -20 253 19 1
3 -3 -20 271 19 1
3 -3 -20 279 19 1
3 3 20 269 22 1
3 -3 20 267 22 1
-3 3 20 257 22 1
-3 3 20 253 21 1
-3 -3 20 231 22 1
3 3 20 276 18 1
-3 -3 20 236 21 1
-4 -2 -20 26 6 1
4 2 -20 26 6 1
-2 4 -20 23 7 1
2 -4 -20 23 5 1
-4 -2 -20 24 6 1
2 -4 -20 22 6 1
-4 -2 20 20 7 1
-2 4 20 21 8 1
4 2 20 19 8 1
2 -4 20 26 7 1
-4 -2 20 21 8 1
2 -4 20 23 8 1
-2 4 20 19 7 1
4 2 20 26 5 1
0 -4 -20 352 10 1
-4 0 -20 363 10 1
0 -4 -20 349 10 1
-4 0 -20 380 10 1
0 -4 20 377 11 1
-4 0 20 386 11 1
0 4 20 353 9 1
4 0 20 342 11 1
0 -4 20 344 12 1
4 -2 -20 96 7 1
4 -2 -20 102 6 1
-2 -4 -20 102 6 1
-4 2 -20 99 6 1
2 4 -20 105 6 1
-4 2 -20 107 6 1
-2 -4 -20 102 6 1
-2 -4 20 113 7 1
2 4 20 112 5 1
4 -2 20 103 7 1
4 -2 20 105 8 1
-2 -4 20 119 9 1
-4 2 20 105 8 1
2 4 20 100 9 1
-4 2 20 110 8 1
2 4 20 109 7 1
4 4 -20 712 38 1
4 -4 -20 696 37 1
-4 4 -20 681 38 1
-4 -4 -20 698 38 1
-4 -4 -20 708 38 1
4 4 20 656 37 1
-4 4 20 691 43 1
-4 -4 20 702 42 1
4 4 20 730 43 1
-4 -4 20 649 43 1
4 4 20 652 42 1
-3 5 -20 343 15 1
3 -5 -20 312 14 1
-5 -3 -20 325 14 1
5 3 -20 305 14 1
3 -5 -20 333 14 1
-5 -3 -20 308 14 1
5 3 20 327 17 1
3 -5 20 340 15 1
5 3 20 327 14 1
-5 -3 20 325 17 1
-5 -3 20 287 16 1
3 -5 20 315 17 1
1 -5 -20 155 9 1
-5 -1 -20 152 9 1
-1 5 -20 151 11 1
-5 -1 -20 143 9 1
5 1 -20 151 9 1
1 -5 -20 155 9 1
-5 -1 20 160 11 1
-1 5 20 163 11 1
-5 -1 20 142 12 1
-1 5 20 140 12 1
5 1 20 151 11 1
1 -5 20 148 12 1
-1 -5 -20 106 5 1
-1 -5 -20 99 5 1
-5 1 -20 114 6 1
5 -1 -20 108 5 1
-5 1 -20 119 5 1
5 -1 20 111 8 1
-1 -5 20 109 7 1
1 5 20 115 5 1
1 5 20 110 7 1
5 -1 20 116 7 1
-5 1 20 119 7 1
5 -1 20 116 5 1
-1 -5 20 105 8 1
5 -3 -20 5 3 1
3 5 -20 5 2 1
-3 -5 -20 7 2 1
-5 3 -20 10 2 1
5 -3 -20 6 2 1
-5 3 20 8 3 1
-3 -5 20 8 2 1
3 5 20 11 6 1
-3 -5 20 8 3 1
-5 3 20 7 3 1
5 5 -20 0 2 1
-5 -5 -20 2 2 1
-5 5 -20 9 2 1
5 5 20 0 2 1
-5 -5 20 2 3 1
-5 5 20 0 2 1
5 5 20 2 2 1
-5 5 20 1 2 1
5 -5 20 9 2 1
5 -5 20 9 2 1
-5 -5 20 2 2 1
5 5 20 2 1 1
-6 -4 -20 411 14 1
4 -6 -20 419 14 1
-4 6 -20 458 15 1
6 4 -20 405 14 1
4 -6 20 444 15 1
-4 6 20 408 16 1
6 4 20 418 17 1
-6 -4 20 379 16 1
-4 6 20 419 17 1
6 4 20 455 14 1
6 4 20 437 16 1
6 2 -20 1571 66 1
-6 -2 -20 1438 67 1
2 -6 -20 1567 67 1
-6 -2 -20 1523 67 1
-2 6 -20 1514 67 1
-6 -2 20 1569 74 1
6 2 20 1605 66 1
2 -6 20 1586 73 1
-6 -2 20 1499 76 1
6 2 20 1569 74 1
6 2 20 1624 76 1
2 -6 20 1556 76 1
-6 0 -20 989 50 1
0 -6 -20 989 50 1
6 0 -20 1027 50 1
0 6 20 1020 49 1
-6 0 20 1067 57 1
6 0 20 1032 57 1
0 -6 20 1082 55 1
6 0 20 976 55 1
0 -6 20 982 57 1
-2 -6 -20 246 14 1
6 -2 -20 276 14 1
-6 2 -20 263 14 1
-2 -6 -20 247 14 1
-2 -6 20 259 17 1
6 -2 20 277 13 1
2 6 20 247 13 1
6 -4 -20 723 22 1
4 6 -20 723 22 1
6 -4 -20 745 21 1
-4 -6 -20 699 22 1
4 6 20 681 25 1
6 -4 20 760 21 1
-4 -6 20 739 26 1
6 -4 20 676 25 1
4 6 20 722 21 1
-4 -6 20 728 24 1
-6 -6 -20 753 29 1
6 -6 -20 700 28 1
6 6 -20 772 28 1
-6 -6 -20 766 29 1
6 -6 20 705 33 1
6 6 20 748 33 1
-6 -6 20 750 31 1
6 6 20 777 28 1
-6 6 20 750 32 1
-6 -6 20 731 33 1
7 5 -20 1680 59 1
5 -7 -20 1694 59 1
-7 -5 -20 1673 59 1
5 -7 -20 1728 59 1
-7 -5 20 1770 67 1
7 5 20 1694 68 1
-7 -5 20 1647 65 1
-5 7 20 1636 68 1
-3 7 -20 1344 52 1
-7 -3 -20 1294 52 1
7 3 -20 1270 51 1
-7 -3 -20 1329 52 1
3 -7 -20 1363 51 1
-7 -3 20 1390 57 1
-7 -3 20 1298 59 1
1 -7 -20 4 1 1
7 1 20 6 2 1
7 1 20 8 3 1
7 1 20 8 3 1
-7 -1 20 6 3 1
-1 7 20 3 2 1
7 -1 -20 742 33 1
-7 1 -20 699 33 1
-1 -7 20 720 36 1
1 7 20 668 37 1
-7 1 20 723 37 1
1 7 20 709 38 1
-1 -7 20 739 38 1
7 -1 20 713 36 1
-3 -7 -20 2412 93 1
-7 3 -20 2480 93 1
-7 3 -20 2262 93 1
7 -3 20 2391 105 1
-7 3 20 2484 105 1
-3 -7 20 2353 105 1
7 -3 20 2362 92 1
-7 5 -20 2116 71 1
7 -5 -20 2092 70 1
-5 -7 -20 2111 71 1
-5 -7 -20 1985 71 1
5 7 -20 2103 71 1
-5 -7 20 2106 78 1
7 -5 20 2220 81 1
5 7 20 2152 71 1
-5 -7 20 2111 81 1
7 -5 20 2164 70 1
7 -5 20 2241 78 1
7 -7 -20 389 20 1
-7 7 -20 393 21 1
-7 -7 -20 417 21 1
7 -7 -20 400 21 1
-7 -7 -20 394 20 1
-7 7 20 399 24 1
7 7 20 442 24 1
-7 -7 20 410 23 1
7 7 20 444 20 1
-8 -6 -20 1 5 1
-8 -6 -20 0 5 1
-6 8 -20 1 7 1
6 -8 -20 2 4 1
6 -8 -20 2 6 1
8 6 20 2 5 1
-8 -6 20 2 6 1
-6 8 20 0 7 1
-6 8 20 2 6 1
-8 -6 20 1 8 1
-8 -4 -20 41 2 1
-4 8 -20 37 3 1
4 -8 -20 21 2 1
-8 -4 -20 26 4 1
4 -8 -20 17 2 1
-8 -4 20 17 3 1
8 4 20 24 4 1
-8 -4 20 27 3 1
-4 8 20 16 5 1
8 4 20 37 3 1
-4 8 20 25 3 1
-8 -2 -20 72 4 1
-8 -2 -20 77 5 1
2 -8 -20 81 5 1
-2 8 20 94 5 1
2 -8 20 72 6 1
-2 8 20 91 7 1
8 2 20 93 7 1
-2 8 20 86 3 1
8 2 20 75 4 1
0 -8 -20 14 2 1
-8 0 -20 9 2 1
0 -8 20 17 2 1
0 8 20 3 2 1
-8 0 20 8 2 1
0 8 20 8 1 1
-8 0 20 13 2 1
8 0 20 9 1 1
8 0 20 9 2 1
8 0 20 9 2 1
-8 2 -20 1888 74 1
8 -2 -20 1912 73 1
-8 2 -20 1764 74 1
-2 -8 -20 1910 74 1
2 8 20 1828 82 1
2 8 20 1834 73 1
-8 2 20 1954 82 1
-2 -8 20 1862 84 1
8 -2 20 1862 73 1
-4 -8 -20 23 5 1
-8 4 -20 33 5 1
8 -4 -20 32 4 1
-4 -8 -20 28 4 1
8 -4 20 21 6 1
8 -4 20 29 6 1
-8 4 20 30 6 1
-4 -8 20 23 6 1
4 8 20 35 8 1
-8 4 20 40 7 1
8 -4 20 28 4 1
4 8 20 30 5 1
4 8 20 22 4 1
-4 -8 20 26 8 1
-6 -8 -20 3646 134 1
-8 6 -20 3975 135 1
6 8 -20 3828 134 1
-6 -8 -20 3824 134 1
6 8 20 3829 134 1
8 -6 20 3875 133 1
-6 -8 20 3719 152 1
-8 6 20 3962 153 1
-6 -8 20 3897 148 1
8 -8 -20 202 9 1
-8 8 -20 223 9 1
-8 -8 -20 178 8 1
-8 -8 -20 190 8 1
8 8 20 172 11 1
-8 -8 20 200 9 1
-8 8 20 203 9 1
-8 8 20 220 10 1
-8 -8 20 184 12 1
7 -9 -20 624 25 1
-9 -7 -20 601 25 1
-7 9 -20 661 26 1
-9 -7 20 649 28 1
-7 9 20 584 29 1
-9 -7 20 652 30 1
9 7 20 633 29 1
9 7 20 584 25 1
-7 9 20 614 29 1
5 -9 -20 58 5 1
-9 -5 -20 52 4 1
-9 -5 -20 53 4 1
-9 -5 20 63 5 1
-5 9 20 61 5 1
9 5 20 45 4 1
-9 -3 -20 421 16 1
3 -9 -20 407 16 1
-3 9 -20 447 18 1
3 -9 -20 393 16 1
-9 -3 -20 432 16 1
-3 9 20 393 18 1
-9 -3 20 417 18 1
9 3 20 418 16 1
-3 9 20 423 15 1
9 3 20 452 20 1
-9 -3 20 440 19 1
1 -9 -20 1548 68 1
1 -9 -20 1589 68 1
-9 -1 -20 1490 69 1
-9 -1 -20 1631 69 1
-1 9 20 1610 78 1
-1 9 20 1609 68 1
1 -9 20 1599 78 1
-9 -1 20 1495 76 1
-1 9 20 1670 77 1
9 1 20 1633 78 1
9 1 20 1478 68 1
-9 1 -20 91 11 1
-9 1 -20 77 5 1
1 9 20 81 7 1
9 -1 20 76 4 1
1 9 20 78 4 1
9 -1 20 64 5 1
-1 -9 20 62 8 1
9 -1 20 65 7 1
-9 1 20 84 7 1
1 9 20 69 6 1
-3 -9 -20 3 4 1
-9 3 -20 4 5 1
-3 -9 -20 2 4 1
-9 3 -20 6 5 1
3 9 20 3 4 1
3 9 20 5 6 1
-3 -9 20 7 8 1
-9 3 20 8 6 1
3 9 20 2 8 1
-9 5 -20 187 9 1
9 -5 -20 203 8 1
-5 -9 -20 169 8 1
-9 5 20 196 10 1
-9 5 20 196 10 1
9 -5 20 199 7 1
-5 -9 20 179 12 1
-5 -9 20 182 10 1
-7 -9 -20 85 7 1
-7 -9 -20 84 8 1
9 -7 -20 94 7 1
-9 7 -20 85 9 1
-7 -9 20 92 12 1
-7 -9 20 92 9 1
9 -7 20 86 6 1
-9 7 20 85 10 1
7 9 20 93 7 1
7 9 20 96 12 1
-9 7 20 95 9 1
9 -9 -20 121 9 1
-9 -9 -20 120 7 1
9 -9 -20 124 7 1
-9 -9 -20 120 6 1
-9 9 -20 131 8 1
9 9 20 123 11 1
-9 9 20 125 9 1
-9 -9 20 121 9 1
9 9 20 105 7 1
-9 9 20 128 9 1
-10 -8 -20 511 14 1
8 -10 -20 481 15 1
8 -10 -20 494 14 1
-8 10 -20 500 16 1
-10 -8 -20 512 14 1
-10 -8 20 450 18 1
-10 -8 20 481 16 1
-8 10 20 539 17 1
10 8 20 504 18 1
-8 10 20 487 17 1
-10 -6 -20 2692 92 1
6 -10 -20 2838 92 1
-6 10 -20 2847 93 1
-10 -6 -20 2756 92 1
6 -10 -20 2801 91 1
-10 -6 20 2781 104 1
10 6 20 2867 104 1
10 6 20 2784 92 1
-10 -6 20 2653 101 1
-10 -4 -20 480 17 1
4 -10 -20 502 17 1
4 -10 -20 455 16 1
-10 -4 -20 459 16 1
-10 -4 20 458 19 1
10 4 20 456 16 1
-4 10 20 470 20 1
-4 10 20 434 19 1
-10 -4 20 438 19 1
-4 10 20 478 15 1
10 4 20 463 20 1
-10 -2 -20 135 11 1
2 -10 -20 132 11 1
-10 -2 -20 132 11 1
2 -10 -20 147 11 1
-2 10 20 145 13 1
-10 -2 20 139 13 1
-2 10 20 125 13 1
-2 10 20 122 10 1
10 2 20 131 13 1
2 -10 20 148 14 1
-10 -2 20 157 14 1
0 -10 -20 28 6 1
-10 0 -20 30 6 1
-10 0 -20 34 6 1
-10 0 -20 31 10 1
10 0 20 26 8 1
0 10 20 31 5 1
-10 0 20 29 8 1
0 -10 20 30 9 1
10 0 20 26 6 1
-10 0 20 30 8 1
-10 2 -20 4117 177 1
-2 -10 -20 4043 159 1
-10 2 -20 4184 160 1
2 10 20 4204 159 1
2 10 20 4398 177 1
10 -2 20 4063 159 1
-10 2 20 4152 181 1
-2 -10 20 4362 181 1
10 -2 20 4049 176 1
-4 -10 -20 677 23 1
-4 -10 -20 716 23 1
4 10 20 701 22 1
-10 4 20 652 26 1
-10 4 20 639 26 1
-4 -10 20 680 27 1
10 -4 20 720 25 1
10 -4 20 679 22 1
-6 -10 -20 697 30 1
-10 6 -20 678 30 1
-6 -10 -20 734 30 1
-10 6 20 760 34 1
-6 -10 20 701 35 1
10 -6 20 739 29 1
6 10 20 738 30 1
6 10 20 686 35 1
-6 -10 20 730 33 1
6 10 20 735 34 1
-8 -10 -20 6 2 1
-10 8 -20 1 2 1
-8 -10 -20 0 2 1
8 10 20 3 4 1
-8 -10 20 5 4 1
10 -8 20 1 1 1
-10 8 20 0 3 1
-10 8 20 5 3 1
-10 -10 -20 85 6 1
-10 10 -20 90 8 1
-10 -10 -20 99 7 1
10 -10 -20 102 9 1
-10 10 20 100 9 1
10 10 20 99 6 1
-10 10 20 85 8 1
-11 -9 -20 240 7 1
9 -11 -20 269 9 1
-9 11 -20 271 10 1
-11 -9 -20 250 7 1
9 -11 -20 255 8 1
-9 11 20 250 9 1
-11 -9 20 247 10 1
11 9 20 222 7 1
-7 11 -20 142 9 1
7 -11 -20 142 7 1
7 -11 -20 148 6 1
11 7 20 145 6 1
-7 11 20 131 8 1
-11 -7 20 128 10 1
-11 -7 20 128 8 1
5 -11 -20 110 10 1
-11 -5 -20 107 9 1
5 -11 -20 108 9 1
-5 11 20 84 11 1
11 5 20 112 9 1
-5 11 20 107 12 1
-11 -5 20 98 11 1
3 -11 -20 288 10 1
-11 -3 -20 259 10 1
-11 -3 20 272 12 1
11 3 20 273 10 1
-3 11 20 282 9 1
-3 11 20 253 12 1
-11 -3 20 286 13 1
1 -11 -20 119 6 1
1 -11 -20 113 6 1
-11 -1 -20 139 6 1
-11 -1 -20 139 6 1
-1 11 20 130 9 1
11 1 20 139 6 1
-1 11 20 113 7 1
-11 -1 20 134 7 1
-11 -1 20 138 8 1
-1 11 20 124 5 1
-11 1 -20 48 5 1
-11 1 -20 46 5 1
-1 -11 -20 49 4 1
-1 -11 -20 49 4 1
1 11 20 39 4 1
-11 1 20 65 7 1
1 11 20 45 6 1
11 -1 20 50 4 1
-1 -11 20 45 8 1
-11 1 20 53 6 1
1 11 20 53 8 1
-3 -11 -20 1248 38 1
-11 3 -20 1285 39 1
-3 -11 -20 1301 38 1
-11 3 -20 1301 43 1
-11 3 -20 1279 39 1
11 -3 20 1361 42 1
-11 3 20 1348 44 1
-3 -11 20 1306 44 1
3 11 20 1277 38 1
3 11 20 1274 44 1
11 -3 20 1291 38 1
-3 -11 20 1256 39 1
-5 -11 -20 2168 88 1
-5 -11 -20 2113 88 1
11 -5 20 2198 87 1
-11 5 20 2271 98 1
-11 5 20 2317 100 1
5 11 20 2083 88 1
5 11 20 2301 100 1
-7 -11 -20 52 4 1
-11 7 -20 66 6 1
-7 -11 -20 53 5 1
7 11 20 45 11 1
-11 7 20 68 7 1
-11 7 20 76 7 1
7 11 20 52 5 1
-9 -11 -20 33 5 1
-11 9 -20 44 7 1
11 -9 20 28 4 1
-11 9 20 31 7 1
9 11 20 36 5 1
11 -11 -20 98 4 1
-11 -11 -20 102 2 1
-11 -11 -20 79 2 1
-11 11 -20 97 3 1
-11 11 20 84 3 1
11 11 20 95 2 1
-11 11 20 81 4 1
10 -12 -20 18 7 1
-12 -10 -20 4 3 1
-10 12 -20 2 4 1
-12 -10 -20 2 2 1
-10 12 20 4 3 1
12 10 20 6 5 1
-10 12 20 8 5 1
8 -12 -20 96 7 1
-12 -8 -20 97 6 1
8 -12 -20 119 7 1
-8 12 -20 82 10 1
-12 -8 -20 109 7 1
12 8 20 108 6 1
-12 -8 20 79 9 1
-8 12 20 111 9 1
6 -12 -20 9 5 1
-6 12 -20 3 5 1
-12 -6 20 3 4 1
-12 -6 20 6 7 1
12 6 20 13 5 1
-12 -4 -20 66 6 1
4 -12 -20 62 7 1
-12 -4 -20 57 7 1
-4 12 20 50 9 1
-12 -4 20 65 9 1
-4 12 20 50 5 1
-12 -2 -20 3472 129 1
2 -12 -20 3613 129 1
-12 -2 -20 3609 129 1
2 -12 -20 3641 129 1
-12 -2 -20 3789 144 1
12 2 20 3750 129 1
-12 -2 20 3795 144 1
-2 12 20 3665 129 1
0 -12 -20 1241 47 1
-12 0 -20 1160 48 1
0 -12 -20 1185 47 1
-12 0 -20 1105 48 1
-12 0 -20 1185 53 1
0 12 20 1212 53 1
0 12 20 1117 47 1
0 -12 20 1268 48 1
0 12 20 1221 54 1
-2 -12 -20 40 6 1
-12 2 -20 49 7 1
-12 2 -20 47 11 1
-12 2 -20 30 7 1
-2 -12 -20 33 6 1
2 12 20 48 10 1
-12 2 20 52 8 1
2 12 20 35 6 1
-2 -12 20 51 9 1
-12 2 20 46 8 1
12 -2 20 42 6 1
2 12 20 35 8 1
-4 -12 -20 1 4 1
-12 4 -20 3 5 1
-4 -12 -20 1 4 1
-12 4 -20 1 5 1
4 12 20 0 4 1
-12 4 20 1 6 1
-12 4 20 3 6 1
4 12 20 2 6 1
4 12 20 1 4 1
12 -4 20 2 4 1
-4 -12 20 1 4 1
-12 6 -20 90 7 1
-6 -12 -20 69 6 1
-6 -12 -20 72 6 1
-12 6 20 78 8 1
6 12 20 86 8 1
6 12 20 70 6 1
6 12 20 90 13 1
12 -6 20 81 5 1
-12 6 20 64 8 1
-12 8 -20 821 30 1
-8 -12 -20 807 30 1
-8 -12 -20 826 29 1
12 -8 20 810 28 1
-12 8 20 874 35 1
8 12 20 809 29 1
-10 -12 -20 213 8 1
-10 -12 -20 207 7 1
-12 10 -20 220 9 1
-12 10 20 187 10 1
-12 10 20 170 10 1
12 -10 20 215 6 1
10 12 20 210 8 1
-12 -12 -20 1 2 1
12 -12 -20 1 4 1
-12 -12 -20 1 3 1
-12 12 -20 2 3 1
-12 12 20 3 4 1
12 12 20 7 2 1
-12 12 20 3 3 1
-13 -11 -20 26 3 1
11 -13 -20 26 4 1
-13 -11 -20 29 2 1
13 11 20 19 5 1
-11 13 20 35 3 1
-11 13 20 28 5 1
-9 13 -20 73 10 1
9 -13 -20 73 8 1
-13 -9 -20 42 5 1
-9 13 20 63 9 1
-9 13 20 53 8 1
13 9 20 43 6 1
7 -13 -20 557 30 1
-7 13 -20 495 32 1
-13 -7 -20 533 29 1
-13 -7 -20 579 30 1
7 -13 -20 508 30 1
-13 -7 20 584 34 1
-7 13 20 532 35 1
5 -13 -20 28 5 1
-13 -5 -20 26 4 1
-13 -5 -20 26 5 1
-13 -3 -20 14 5 1
3 -13 -20 24 5 1
-3 13 20 28 7 1
-3 13 20 19 4 1
-13 -1 -20 297 12 1
-13 -1 -20 257 14 1
1 -13 -20 306 11 1
1 -13 -20 288 12 1
-13 -1 -20 256 12 1
-13 -1 20 295 14 1
-1 13 20 263 13 1
13 1 20 274 11 1
-13 -1 20 281 14 1
1 -13 20 295 13 1
-1 13 20 280 14 1
-13 1 -20 664 31 1
-1 -13 -20 729 30 1
-13 1 -20 648 35 1
-1 -13 -20 655 31 1
-13 1 -20 672 31 1
-13 1 20 709 35 1
1 13 20 656 30 1
13 -1 20 669 30 1
1 13 20 706 36 1
-3 -13 -20 7 2 1
-3 -13 -20 8 2 1
-13 3 -20 9 3 1
-13 3 -20 9 2 1
-13 3 -20 10 4 1
3 13 20 6 4 1
-13 3 20 9 3 1
13 -3 20 7 2 1
-13 3 20 11 3 1
3 13 20 6 3 1
3 13 20 6 2 1
-13 5 -20 127 8 1
-13 5 -20 139 8 1
-5 -13 -20 111 7 1
-5 -13 -20 118 8 1
-13 5 -20 122 13 1
13 -5 20 121 7 1
-13 5 20 123 10 1
5 13 20 121 7 1
-13 5 20 129 10 1
5 13 20 123 9 1
-13 7 -20 188 10 1
-7 -13 -20 194 9 1
-7 -13 -20 215 10 1
13 -7 20 211 9 1
7 13 20 208 9 1
-13 7 20 206 12 1
-13 9 -20 530 25 1
-9 -13 -20 522 25 1
-9 -13 -20 530 24 1
9 13 20 570 24 1
13 -9 20 541 23 1
-13 9 20 534 29 1
-11 -13 -20 10 2 1
-11 -13 -20 10 2 1
-13 11 -20 10 3 1
-13 11 20 8 4 1
-13 11 20 9 3 1
11 13 20 8 2 1
-13 13 -20 51 9 1
-13 -13 -20 41 5 1
13 -13 -20 33 11 1
-13 -13 -20 44 6 1
13 13 20 42 6 1
-13 13 20 54 8 1
13 -13 20 39 7 1
-13 13 20 56 12 1
-14 -12 -20 271 11 1
-12 14 -20 269 13 1
12 -14 -20 311 13 1
-14 -12 -20 270 9 1
-12 14 20 333 16 1
-12 14 20 289 13 1
12 -14 20 281 11 1
-10 14 -20 34 10 1
10 -14 -20 17 8 1
-14 -10 -20 21 4 1
-14 -10 -20 26 6 1
14 10 20 26 5 1
-10 14 20 14 10 1
-10 14 20 19 7 1
-8 14 -20 1434 59 1
-14 -8 -20 1528 57 1
8 -14 -20 1477 58 1
-14 -8 -20 1502 58 1
8 -14 -20 1542 58 1
14 8 20 1481 58 1
8 -14 20 1502 58 1
-8 14 20 1426 65 1
6 -14 -20 892 27 1
6 -14 -20 808 27 1
-14 -6 -20 840 27 1
-6 14 -20 789 30 1
-14 -6 20 836 32 1
14 6 20 851 27 1
6 -14 20 858 28 1
-6 14 20 806 31 1
-6 14 20 834 31 1
4 -14 -20 2847 107 1
-14 -4 -20 2714 119 1
-14 -4 -20 2848 107 1
-14 -4 -20 2742 107 1
4 -14 20 2764 109 1
-4 14 20 2648 119 1
14 4 20 2717 107 1
-4 14 20 2759 122 1
-14 -4 20 2846 122 1
-14 -2 -20 52 9 1
2 -14 -20 50 6 1
-14 -2 -20 48 7 1
2 -14 -20 45 6 1
-14 -2 -20 67 6 1
-14 -2 20 59 8 1
-2 14 20 66 10 1
14 2 20 58 6 1
-2 14 20 51 8 1
-14 -2 20 79 9 1
2 -14 20 40 8 1
-2 14 20 63 6 1
-14 0 -20 26 5 1
0 -14 -20 31 5 1
-14 0 -20 23 6 1
-14 0 -20 20 8 1
0 -14 -20 44 5 1
0 14 20 26 6 1
14 0 20 34 5 1
0 14 20 34 4 1
0 14 20 23 9 1
0 -14 20 38 7 1
-14 0 20 41 7 1
-2 -14 -20 74 6 1
-2 -14 -20 64 6 1
-14 2 -20 65 6 1
-14 2 20 73 8 1
-2 -14 20 62 8 1
2 14 20 67 6 1
-14 2 20 67 8 1
14 -2 20 63 6 1
2 14 20 72 8 1
2 14 20 74 12 1
-4 -14 -20 716 20 1
-4 -14 -20 743 19 1
-14 4 -20 694 23 1
-14 4 -20 673 20 1
-14 4 -20 701 20 1
14 -4 20 689 19 1
4 14 20 718 19 1
-14 4 20 734 23 1
-4 -14 20 676 21 1
-6 -14 -20 30 6 1
-14 6 -20 37 6 1
-14 6 -20 35 7 1
-6 -14 -20 44 5 1
-14 6 20 45 8 1
14 -6 20 40 5 1
6 14 20 30 7 1
-14 6 20 37 7 1
6 14 20 39 6 1
-8 -14 -20 1239 54 1
-14 8 -20 1335 55 1
-8 -14 -20 1273 54 1
8 14 20 1223 61 1
-14 8 20 1271 61 1
14 -8 20 1362 54 1
-14 8 20 1375 63 1
-10 -14 -20 84 7 1
-14 10 -20 86 9 1
-10 -14 -20 71 8 1
-14 10 20 82 10 1
-14 10 20 82 11 1
10 14 20 97 8 1
14 -10 20 85 7 1
-12 -14 -20 3 2 1
-12 -14 -20 6 3 1
-14 12 -20 12 3 1
-14 12 20 4 6 1
12 14 20 2 3 1
-14 12 20 4 3 1
-14 14 -20 9 4 1
14 -14 -20 7 6 1
-14 14 20 18 7 1
14 -14 20 13 5 1
14 14 20 5 3 1
-13 15 -20 240 17 1
13 -15 -20 265 17 1
15 13 20 267 15 1
-13 15 20 261 17 1
13 -15 20 259 14 1
-11 15 -20 1 4 1
-15 -11 -20 11 3 1
11 -15 -20 5 4 1
11 -15 20 13 2 1
-11 15 20 9 3 1
-11 15 20 9 6 1
15 11 20 4 3 1
-15 -9 -20 2 3 1
-9 15 -20 2 5 1
9 -15 20 6 2 1
-9 15 20 1 3 1
-9 15 20 2 5 1
-15 -7 -20 836 37 1
7 -15 -20 783 37 1
-15 -7 -20 821 36 1
-7 15 -20 807 39 1
-7 15 20 785 42 1
7 -15 20 818 37 1
-7 15 20 743 42 1
5 -15 -20 68 2 1
-15 -5 -20 109 2 1
-15 -5 -20 82 3 1
5 -15 -20 78 2 1
-5 15 20 85 3 1
15 5 20 89 2 1
-15 -5 20 89 3 1
-5 15 20 78 4 1
5 -15 20 83 2 1
-15 -5 20 63 4 1
-5 15 20 72 2 1
3 -15 -20 1318 51 1
-15 -3 -20 1375 58 1
-15 -3 -20 1340 52 1
3 -15 -20 1431 51 1
-15 -3 -20 1326 51 1
-3 15 20 1423 58 1
-15 -3 20 1423 58 1
-15 -3 20 1282 58 1
-3 15 20 1374 51 1
3 -15 20 1335 52 1
-3 15 20 1313 59 1
-15 -1 -20 69 8 1
-15 -1 -20 60 8 1
-15 -1 -20 72 11 1
1 -15 -20 84 8 1
1 -15 -20 71 8 1
-15 -1 20 75 10 1
-1 15 20 87 12 1
-15 -1 20 85 10 1
-1 15 20 79 7 1
15 1 20 86 8 1
1 -15 20 84 9 1
-1 -15 -20 13 4 1
-15 1 -20 16 4 1
-15 1 -20 11 3 1
-15 1 -20 25 5 1
-1 -15 -20 11 4 1
1 15 20 15 5 1
1 15 20 12 3 1
15 -1 20 19 4 1
-1 -15 20 19 7 1
-15 1 20 12 3 1
-15 1 20 23 7 1
1 15 20 17 4 1
-15 3 -20 64 6 1
-3 -15 -20 66 6 1
-15 3 -20 57 9 1
-15 3 -20 63 7 1
-3 -15 -20 64 6 1
3 15 20 76 8 1
-15 3 20 54 8 1
15 -3 20 65 6 1
3 15 20 75 6 1
-3 -15 20 60 9 1
-5 -15 -20 352 16 1
-5 -15 -20 345 15 1
-15 5 -20 359 16 1
-15 5 -20 367 17 1
-15 5 -20 353 19 1
15 -5 20 381 16 1
-5 -15 20 368 18 1
5 15 20 358 16 1
5 15 20 363 19 1
-15 5 20 345 19 1
-15 7 -20 1631 59 1
-7 -15 -20 1591 58 1
-7 -15 -20 1604 57 1
-15 7 -20 1558 59 1
15 -7 20 1675 58 1
-15 7 20 1624 66 1
7 15 20 1553 58 1
-9 -15 -20 354 12 1
-15 9 20 347 15 1
-11 -15 -20 205 10 1
-11 -15 -20 185 9 1
-15 11 -20 213 11 1
-15 11 20 195 15 1
15 -11 20 207 9 1
-15 11 20 217 12 1
11 15 20 201 10 1
-15 13 -20 48 8 1
13 15 20 54 7 1
15 -13 20 46 6 1
-15 13 20 55 8 1
-15 -15 -20 670 25 1
-15 15 -20 637 25 1
15 -15 -20 660 28 1
-15 15 20 621 27 1
15 15 20 660 25 1
15 -15 20 698 24 1
-14 16 -20 2 5 1
14 -16 -20 1 5 1
-16 -14 -20 2 4 1
-14 16 20 3 2 1
16 14 20 2 3 1
12 -16 -20 625 27 1
-16 -12 -20 679 26 1
-12 16 -20 661 28 1
12 -16 20 683 26 1
-12 16 20 629 30 1
16 12 20 682 26 1
10 -16 -20 394 20 1
-10 16 -20 357 22 1
-16 -10 -20 359 19 1
16 10 20 376 19 1
-10 16 20 362 25 1
10 -16 20 369 19 1
-16 -8 -20 208 12 1
-16 -8 -20 232 14 1
8 -16 -20 249 14 1
-8 16 -20 229 18 1
-16 -8 -20 224 16 1
8 -16 20 259 14 1
16 8 20 251 13 1
-8 16 20 245 15 1
-8 16 20 276 18 1
6 -16 -20 6 2 1
-16 -6 -20 7 3 1
-16 -6 -20 3 2 1
6 -16 -20 6 3 1
-16 -6 -20 9 3 1
16 6 20 4 2 1
6 -16 20 18 2 1
-16 -6 20 0 4 1
-6 16 20 17 5 1
-16 -4 -20 966 55 1
4 -16 -20 922 49 1
-16 -4 -20 950 49 1
-4 16 20 1005 56 1
-4 16 20 969 55 1
4 -16 20 963 49 1
-16 -4 20 1050 55 1
16 4 20 976 49 1
-4 16 20 957 48 1
-16 -2 -20 83 2 1
2 -16 -20 84 2 1
2 -16 -20 61 2 1
-16 -2 -20 102 2 1
-16 -2 -20 102 3 1
2 -16 20 59 2 1
-2 16 20 84 4 1
-16 -2 20 38 4 1
16 2 20 83 2 1
-16 -2 20 51 3 1
-2 16 20 84 2 1
-16 0 -20 69 5 1
0 -16 -20 73 5 1
-16 0 -20 69 6 1
0 -16 -20 82 5 1
-16 0 -20 76 8 1
0 16 20 89 8 1
0 16 20 63 11 1
-16 0 20 90 8 1
-16 0 20 78 8 1
0 16 20 83 5 1
16 0 20 78 5 1
0 -16 20 68 7 1
-16 2 -20 129 9 1
-2 -16 -20 148 8 1
-16 2 -20 132 10 1
-16 2 -20 124 11 1
-2 -16 -20 132 9 1
-2 -16 20 139 10 1
-16 2 20 132 11 1
2 16 20 133 8 1
-16 2 20 138 11 1
16 -2 20 130 8 1
2 16 20 154 11 1
-16 4 -20 64 5 1
-16 4 -20 72 9 1
-16 4 -20 76 6 1
-4 -16 -20 82 5 1
-4 -16 -20 79 5 1
16 -4 20 71 5 1
-4 -16 20 64 8 1
4 16 20 65 5 1
4 16 20 76 8 1
-16 4 20 76 7 1
-16 4 20 73 8 1
-16 6 -20 47 7 1
-6 -16 -20 37 5 1
-16 6 -20 47 6 1
-16 6 -20 52 10 1
-6 -16 -20 49 6 1
-16 6 20 57 8 1
6 16 20 60 8 1
-16 6 20 55 9 1
6 16 20 44 6 1
16 -6 20 38 5 1
-16 8 -20 21 4 1
-8 -16 -20 28 4 1
-16 8 20 28 7 1
8 16 20 25 5 1
8 16 20 32 4 1
-16 8 20 37 9 1
16 -8 20 20 5 1
-10 -16 -20 0 3 1
-16 10 -20 1 3 1
-10 -16 -20 2 2 1
-16 10 20 3 6 1
-16 10 20 2 3 1
16 -10 20 1 2 1
10 16 20 2 2 1
10 16 20 2 4 1
-16 12 -20 3 3 1
-16 12 20 0 3 1
16 -12 20 0 2 1
12 16 20 0 3 1
-14 -16 -20 21 8 1
16 -14 20 34 6 1
14 16 20 33 8 1
-16 14 20 28 5 1
16 -16 20 525 21 1
-16 16 20 471 24 1
-17 -15 -20 61 5 1
15 -17 20 64 5 1
-15 17 20 51 5 1
-17 -13 -20 12 5 1
-13 17 -20 21 6 1
13 -17 -20 28 5 1
17 13 20 26 8 1
13 -17 20 37 5 1
-13 17 20 31 5 1
11 -17 -20 40 8 1
-17 -11 -20 58 8 1
-17 -11 -20 55 9 1
-11 17 -20 56 12 1
11 -17 20 48 6 1
17 11 20 66 8 1
-9 17 -20 492 29 1
-17 -9 -20 586 30 1
9 -17 -20 563 26 1
-17 -9 -20 579 26 1
-9 17 20 530 30 1
17 9 20 574 26 1
9 -17 20 555 26 1
-9 17 20 516 33 1
7 -17 -20 32 6 1
-17 -7 -20 26 7 1
-17 -7 -20 36 7 1
-17 -7 -20 23 5 1
7 -17 20 22 6 1
-7 17 20 31 13 1
17 7 20 26 6 1
-17 -5 -20 79 3 1
5 -17 -20 56 5 1
5 -17 -20 79 3 1
-17 -5 -20 89 3 1
-5 17 20 78 3 1
17 5 20 86 2 1
-17 -5 20 45 8 1
5 -17 20 81 2 1
-5 17 20 68 5 1
3 -17 -20 8 2 1
-17 -3 -20 2 3 1
3 -17 -20 8 2 1
-17 -3 -20 5 3 1
3 -17 20 1 2 1
-17 -3 20 6 3 1
-3 17 20 8 2 1
-17 -3 20 6 3 1
-3 17 20 1 5 1
-17 -1 -20 188 14 1
-17 -1 -20 209 12 1
-17 -1 -20 199 11 1
1 -17 -20 195 11 1
1 -17 -20 179 12 1
-1 17 20 186 15 1
-1 17 20 197 11 1
17 1 20 210 12 1
-1 17 20 204 16 1
-17 -1 20 201 14 1
1 -17 20 205 12 1
-17 -1 20 204 14 1
-1 -17 -20 109 6 1
-17 1 -20 110 9 1
-17 1 -20 102 6 1
-17 1 -20 116 8 1
-1 -17 -20 117 6 1
1 17 20 107 6 1
-1 -17 20 114 7 1
-17 1 20 114 9 1
17 -1 20 96 7 1
-17 1 20 113 9 1
1 17 20 108 10 1
-17 3 -20 255 10 1
-3 -17 -20 246 10 1
-3 -17 -20 225 9 1
-17 3 -20 246 12 1
-17 3 -20 241 11 1
3 17 20 254 12 1
3 17 20 232 9 1
-3 -17 20 230 11 1
-17 3 20 231 12 1
-5 -17 -20 18 5 1
-17 5 -20 27 5 1
-17 5 -20 23 7 1
-17 5 -20 28 9 1
-5 -17 -20 16 4 1
5 17 20 21 9 1
5 17 20 22 5 1
-17 5 20 24 7 1
17 -5 20 18 5 1
-5 -17 20 28 9 1
-17 7 -20 3 4 1
-17 7 -20 6 5 1
-17 7 -20 4 4 1
-7 -17 -20 5 5 1
7 17 20 9 5 1
-17 7 20 1 5 1
7 17 20 9 9 1
17 -7 20 5 5 1
-17 7 20 2 3 1
-9 -17 -20 0 2 1
-17 9 -20 0 3 1
-17 9 -20 5 3 1
-9 -17 -20 3 2 1
-17 9 20 0 3 1
-17 9 20 4 5 1
9 17 20 3 2 1
9 17 20 0 5 1
17 -9 20 5 2 1
-17 11 -20 1037 42 1
-11 -17 -20 1098 42 1
17 -11 20 1011 40 1
11 17 20 1067 42 1
-17 13 -20 13 3 1
-13 -17 -20 13 4 1
-17 13 20 8 2 1
17 -13 20 11 2 1
-15 -17 -20 111 12 1
17 -15 20 126 7 1
-17 15 20 124 8 1
-17 -17 -20 0 2 1
-17 17 20 1 2 1
-18 -16 -20 656 32 1
16 -18 20 657 28 1
-16 18 20 680 32 1
-18 -14 -20 163 8 1
-14 18 20 134 7 1
14 -18 20 150 6 1
12 -18 -20 50 9 1
-12 18 -20 75 14 1
-18 -12 -20 32 5 1
18 12 20 46 8 1
12 -18 20 50 5 1
-12 18 20 34 5 1
-18 -10 -20 1 5 1
10 -18 -20 3 3 1
-10 18 -20 0 7 1
10 -18 20 2 2 1
18 10 20 1 3 1
-18 -8 -20 287 17 1
8 -18 -20 301 15 1
18 8 20 282 15 1
8 -18 20 284 15 1
-8 18 20 305 17 1
-18 -6 -20 0 4 1
6 -18 -20 3 2 1
-18 -6 -20 0 3 1
18 6 20 0 3 1
-6 18 20 1 3 1
6 -18 20 1 2 1
-6 18 20 3 7 1
-18 -4 -20 685 30 1
-18 -4 -20 681 32 1
4 -18 -20 696 31 1
-18 -4 -20 624 35 1
4 -18 -20 656 31 1
-4 18 20 691 30 1
-4 18 20 697 36 1
-4 18 20 666 37 1
18 4 20 680 31 1
-18 -4 20 628 36 1
4 -18 20 733 32 1
2 -18 -20 19 5 1
2 -18 -20 20 5 1
-18 -2 -20 47 7 1
-18 -2 -20 40 7 1
-2 18 20 22 5 1
18 2 20 29 5 1
-18 0 -20 46 7 1
0 -18 -20 39 5 1
-18 0 -20 36 7 1
-18 0 -20 44 5 1
0 -18 -20 36 5 1
0 18 20 41 5 1
0 18 20 29 6 1
18 0 20 36 5 1
-18 0 20 30 8 1
-18 0 20 44 7 1
-18 2 -20 224 10 1
-2 -18 -20 212 9 1
-18 2 -20 204 12 1
-18 2 -20 206 11 1
-2 -18 -20 196 10 1
18 -2 20 218 10 1
-18 2 20 238 13 1
2 18 20 186 10 1
-18 2 20 220 12 1
-2 -18 20 208 11 1
-4 -18 -20 154 8 1
-18 4 -20 155 8 1
-4 -18 -20 159 8 1
-18 4 -20 151 11 1
-18 4 -20 153 10 1
18 -4 20 160 8 1
-4 -18 20 162 10 1
-18 4 20 165 12 1
-18 4 20 160 10 1
4 18 20 169 12 1
-6 -18 -20 6 2 1
-6 -18 -20 6 2 1
-18 6 -20 3 3 1
-18 6 -20 8 3 1
-18 6 -20 1 2 1
-18 6 20 4 2 1
18 -6 20 8 2 1
-18 6 20 8 5 1
6 18 20 1 2 1
6 18 20 6 5 1
-18 8 -20 121 8 1
-8 -18 -20 118 7 1
-8 -18 -20 123 7 1
-18 8 20 119 9 1
18 -8 20 106 7 1
8 18 20 115 7 1
8 18 20 114 12 1
-18 8 20 97 13 1
-18 10 -20 19 8 1
-10 -18 -20 18 6 1
-18 10 -20 23 6 1
-18 10 20 14 5 1
18 -10 20 17 6 1
10 18 20 16 7 1
-18 12 -20 123 8 1
-18 12 -20 81 9 1
-12 -18 -20 84 7 1
-18 12 20 94 6 1
12 18 20 102 8 1
18 -12 20 107 6 1
-14 -18 -20 411 19 1
-18 14 -20 446 20 1
-18 14 20 474 20 1
18 -14 20 480 17 1
18 -16 20 0 1 1
-18 16 20 5 2 1
-19 -15 -20 176 10 1
15 -19 20 202 9 1
-15 19 20 194 10 1
-19 -13 -20 230 13 1
-13 19 20 211 12 1
13 -19 20 220 11 1
-19 -11 -20 25 2 1
-11 19 20 40 2 1
11 -19 20 41 2 1
-19 -9 -20 135 7 1
9 -19 -20 120 8 1
19 9 20 127 9 1
9 -19 20 114 7 1
-9 19 20 148 7 1
-19 -7 -20 6 5 1
7 -19 -20 2 6 1
-7 19 20 3 7 1
7 -19 20 1 5 1
19 7 20 0 7 1
-19 -5 -20 10 7 1
5 -19 -20 11 5 1
-5 19 20 9 7 1
19 5 20 19 6 1
5 -19 20 9 6 1
3 -19 -20 171 9 1
-19 -3 -20 153 9 1
-19 -3 -20 172 12 1
-19 -3 -20 170 12 1
-3 19 20 165 17 1
19 3 20 135 10 1
3 -19 20 167 10 1
-3 19 20 159 9 1
1 -19 -20 4 2 1
-19 -1 -20 6 3 1
1 -19 -20 4 2 1
-19 -1 -20 13 4 1
-1 19 20 3 7 1
-19 -1 20 4 3 1
-1 19 20 3 2 1
19 1 20 10 2 1
1 -19 20 4 2 1
-19 -1 20 6 5 1
-19 1 -20 8 4 1
-1 -19 -20 11 2 1
-1 -19 -20 5 2 1
-19 1 -20 12 3 1
-19 1 -20 8 2 1
-19 1 20 10 3 1
-1 -19 20 9 2 1
19 -1 20 6 2 1
-19 1 20 15 5 1
1 19 20 20 6 1
-3 -19 -20 240 10 1
-19 3 -20 237 13 1
-3 -19 -20 231 11 1
-19 3 -20 214 12 1
-19 3 -20 235 10 1
3 19 20 236 10 1
3 19 20 229 15 1
19 -3 20 254 11 1
-19 3 20 211 14 1
-3 -19 20 243 12 1
-19 3 20 247 13 1
-19 5 -20 219 14 1
-5 -19 -20 195 14 1
-5 -19 -20 183 13 1
-19 5 -20 206 16 1
-19 5 20 220 18 1
5 19 20 188 14 1
5 19 20 187 19 1
19 -5 20 232 14 1
-5 -19 20 201 16 1
-19 5 20 222 17 1
-7 -19 -20 54 5 1
-19 7 -20 47 5 1
-7 -19 -20 46 6 1
-19 7 -20 50 7 1
7 19 20 38 6 1
19 -7 20 38 6 1
-19 9 -20 477 23 1
-19 9 -20 421 21 1
-9 -19 -20 444 21 1
-19 9 20 477 24 1
9 19 20 411 21 1
19 -9 20 462 21 1
-11 -19 -20 190 12 1
-19 11 -20 170 12 1
-19 11 20 214 12 1
11 19 20 217 12 1
-13 -19 -20 8 5 1
-19 13 -20 11 6 1
-19 13 20 14 4 1
19 -13 20 8 2 1
19 -15 20 3 1 1
-19 15 20 2 2 1
-20 -14 -20 11 4 1
-14 20 20 9 2 1
14 -20 20 7 1 1
-20 -12 -20 97 7 1
-12 20 20 100 7 1
12 -20 20 85 6 1
-20 -10 -20 257 13 1
-10 20 20 251 13 1
8 -20 -20 379 17 1
-20 -8 -20 354 18 1
-8 20 20 401 18 1
8 -20 20 367 16 1
20 8 20 347 17 1
6 -20 -20 2 2 1
-20 -6 -20 4 2 1
-6 20 20 1 3 1
6 -20 20 0 2 1
20 6 20 1 3 1
4 -20 -20 179 8 1
20 4 20 187 9 1
4 -20 20 224 9 1
-4 20 20 213 10 1
2 -20 -20 652 28 1
-20 -2 -20 739 32 1
-20 -2 -20 708 29 1
-2 20 20 668 28 1
2 -20 20 684 28 1
-20 -2 20 666 31 1
20 2 20 701 28 1
-20 0 -20 38 8 1
-20 0 -20 57 10 1
-20 0 -20 45 7 1
0 -20 -20 42 5 1
0 -20 20 31 6 1
0 20 20 42 6 1
20 0 20 38 6 1
-20 2 -20 11 4 1
-2 -20 -20 23 2 1
-2 -20 -20 23 2 1
-20 2 -20 11 3 1
-2 -20 20 24 2 1
20 -2 20 22 3 1
2 20 20 23 2 1
-20 4 -20 5 2 1
-20 4 -20 2 5 1
-4 -20 -20 4 2 1
-4 -20 -20 2 2 1
-20 4 -20 2 3 1
-20 4 20 3 2 1
-4 -20 20 4 3 1
20 -4 20 4 3 1
4 20 20 4 2 1
-20 6 -20 115 10 1
-20 6 -20 100 7 1
-20 6 -20 101 7 1
-20 6 20 78 6 1
6 20 20 89 7 1
20 -6 20 87 7 1
-8 -20 -20 252 12 1
-20 8 -20 264 12 1
20 -8 20 240 12 1
-20 8 20 237 12 1
8 20 20 238 12 1
-10 -20 -20 365 17 1
-20 10 -20 368 20 1
20 -10 20 373 16 1
-20 10 20 346 19 1
-12 -20 -20 8 5 1
20 -12 20 29 2 1
-20 12 20 35 2 1
20 -14 20 113 6 1
-20 14 20 112 7 1
-21 -11 -20 107 7 1
11 -21 20 106 6 1
-11 21 20 130 8 1
-21 -9 -20 577 27 1
9 -21 20 536 24 1
-21 -7 -20 8 2 1
-21 -5 -20 63 5 1
5 -21 -20 61 6 1
21 5 20 51 8 1
5 -21 20 61 5 1
-21 -3 -20 91 7 1
-3 21 20 93 9 1
3 -21 20 110 7 1
1 -21 -20 2 2 1
-21 -1 -20 0 2 1
-21 -1 20 0 2 1
21 1 20 2 3 1
1 -21 20 0 2 1
-1 -21 -20 345 17 1
-21 1 -20 363 18 1
-21 1 20 356 19 1
21 -1 20 345 17 1
1 21 20 363 17 1
-1 -21 20 371 17 1
-3 -21 -20 129 8 1
-21 3 -20 137 8 1
-3 -21 -20 126 8 1
21 -3 20 112 9 1
3 21 20 120 8 1
-21 3 20 116 8 1
-3 -21 20 146 9 1
-21 5 -20 6 2 1
-21 5 -20 6 4 1
-5 -21 -20 24 3 1
5 21 20 24 3 1
-21 5 20 8 2 1
21 -5 20 5 3 1
-5 -21 20 5 2 1
-21 7 -20 49 7 1
-21 7 20 45 6 1
-9 -21 -20 612 27 1
-21 9 20 672 30 1
21 -9 20 694 26 1
21 -11 20 168 7 1
-21 11 20 147 8 1
-22 -10 -20 171 10 1
10 -22 20 169 9 1
-22 -8 -20 52 5 1
8 -22 20 43 4 1
-22 -6 -20 214 11 1
6 -22 20 200 10 1
-22 -4 -20 2 2 1
4 -22 20 3 1 1
-22 -2 -20 2 2 1
0 -22 20 26 4 1
-22 0 20 40 6 1
-22 2 -20 3 2 1
-2 -22 20 6 2 1
-22 2 20 5 2 1
-22 4 -20 17 5 1
-22 4 20 21 5 1
-22 6 -20 9 2 1
-22 6 20 9 2 1
22 -8 20 342 14 1
-22 8 20 346 16 1
-22 10 20 54 4 1
-23 -7 -20 14 4 1
7 -23 20 14 3 1
-23 -5 -20 92 7 1
5 -23 20 90 6 1
-23 -3 -20 668 29 1
3 -23 20 651 26 1
-23 -1 -20 36 5 1
1 -23 20 35 4 1
-23 1 -20 296 14 1
-23 1 20 296 15 1
-1 -23 20 268 13 1
-23 3 -20 1 2 1
-3 -23 20 0 2 1
-23 3 20 1 2 1
-23 5 -20 196 11 1
-5 -23 20 184 10 1
23 -5 20 184 10 1
-23 5 20 210 11 1
-23 7 20 30 5 1
23 -7 20 47 5 1
-24 -4 -20 0 2 1
4 -24 20 1 1 1
-24 -2 -20 277 13 1
2 -24 20 251 11 1
-24 0 -20 479 25 1
0 -24 20 474 22 1
-24 2 20 17 2 1
24 -4 20 1 2 1
-24 4 20 0 2 1
0 1 -21 21 2 1
0 -1 -21 17 2 1
1 0 -21 35 2 1
-1 0 -21 32 2 1
1 0 21 24 2 1
-1 0 21 38 2 1
0 1 21 19 3 1
-2 -1 -21 7065 267 1
2 1 -21 7102 267 1
-2 -1 -21 7072 268 1
-1 2 -21 7406 267 1
-1 2 -21 7285 268 1
-1 2 21 6946 303 1
-2 -1 21 7169 296 1
2 -1 -21 5144 196 1
-1 -2 -21 4956 195 1
1 2 -21 5275 195 1
2 -1 -21 5118 195 1
-2 1 -21 4918 195 1
-2 1 -21 5075 196 1
-3 -2 -21 11 4 1
2 -3 -21 18 3 1
3 2 -21 11 4 1
-3 -2 -21 17 3 1
2 -3 -21 18 5 1
-2 3 -21 14 5 1
3 2 21 13 3 1
-2 3 21 13 5 1
2 -3 21 13 5 1
-3 -2 21 19 5 1
-3 -2 21 20 6 1
-2 3 21 22 6 1
0 3 -21 17 7 1
0 -3 -21 15 6 1
0 -3 -21 16 5 1
-3 0 -21 19 5 1
0 3 -21 15 5 1
3 0 -21 24 5 1
3 0 21 12 8 1
0 -3 21 23 6 1
-3 0 21 14 7 1
0 3 21 17 8 1
3 0 21 24 7 1
0 3 21 21 7 1
0 -3 21 13 7 1
-3 0 21 15 7 1
2 3 -21 1349 56 1
-3 2 -21 1421 56 1
-2 -3 -21 1467 56 1
-3 2 -21 1404 56 1
3 -2 -21 1397 56 1
3 -2 -21 1337 56 1
-2 -3 21 1447 64 1
2 3 21 1419 55 1
3 -2 21 1519 64 1
-3 2 21 1416 64 1
-2 -3 21 1417 62 1
2 3 21 1313 62 1
-3 2 21 1409 62 1
3 -4 -21 1039 32 1
-4 -3 -21 1033 33 1
-4 -3 -21 1049 33 1
-3 4 -21 1052 33 1
4 3 -21 990 32 1
-3 4 21 982 37 1
4 3 21 942 36 1
3 -4 21 1001 36 1
-4 -3 21 996 36 1
4 3 21 1024 37 1
-4 -1 -21 499 21 1
-1 4 -21 475 22 1
1 -4 -21 519 21 1
1 -4 -21 503 21 1
-4 -1 -21 486 21 1
4 1 -21 505 21 1
-1 4 -21 490 21 1
1 -4 21 513 25 1
1 -4 21 543 23 1
4 1 21 454 23 1
4 1 21 501 20 1
-4 -1 21 510 25 1
4 1 21 481 25 1
-1 -4 -21 21 3 1
1 4 -21 19 2 1
1 4 21 16 3 1
-4 1 21 31 5 1
4 -1 21 33 6 1
-4 1 21 28 5 1
4 -1 21 20 4 1
-1 -4 21 15 3 1
-1 -4 21 27 5 1
4 -3 -21 96 4 1
-3 -4 -21 86 5 1
-3 -4 -21 83 3 1
-4 3 -21 96 5 1
3 4 -21 91 4 1
3 4 21 85 5 1
-3 -4 21 103 6 1
4 -3 21 104 5 1
3 4 21 94 3 1
-3 -4 21 93 7 1
3 4 21 91 7 1
-4 3 21 99 6 1
-4 3 21 73 6 1
-4 5 -21 3543 111 1
-5 -4 -21 3276 111 1
-5 -4 -21 3227 111 1
4 -5 -21 3161 110 1
5 4 -21 3420 110 1
5 4 21 3447 123 1
5 4 21 3427 126 1
5 4 21 3298 110 1
-5 -4 21 3471 122 1
4 -5 21 3462 126 1
2 -5 -21 4587 164 1
2 -5 -21 4537 164 1
-5 -2 -21 4505 165 1
-2 5 -21 4284 165 1
5 2 -21 4483 164 1
-5 -2 21 4485 182 1
2 -5 21 4247 181 1
5 2 21 4131 164 1
2 -5 21 4248 186 1
5 0 -21 1448 44 1
0 -5 -21 1456 44 1
0 -5 -21 1448 44 1
5 0 21 1443 43 1
-5 0 21 1524 51 1
-5 0 21 1395 49 1
5 0 21 1408 49 1
0 -5 21 1425 49 1
0 -5 21 1437 50 1
5 0 21 1452 51 1
-2 -5 -21 236 8 1
-5 2 -21 282 8 1
2 5 -21 248 8 1
5 -2 -21 271 8 1
-2 -5 21 252 10 1
2 5 21 261 7 1
-2 -5 21 274 9 1
-5 2 21 276 10 1
2 5 21 270 9 1
2 5 21 243 11 1
-4 -5 -21 589 23 1
-4 -5 -21 604 23 1
4 5 -21 622 23 1
4 5 21 599 26 1
-4 -5 21 543 26 1
4 5 21 592 22 1
4 5 21 614 27 1
5 -4 21 596 25 1
-4 -5 21 611 25 1
6 5 -21 2191 97 1
5 -6 -21 2146 97 1
-6 -5 -21 2179 97 1
6 5 21 2200 108 1
-6 -5 21 2099 107 1
5 -6 21 2063 110 1
3 -6 -21 1983 57 1
-6 -3 -21 2044 57 1
-3 6 -21 1917 57 1
6 3 -21 1931 56 1
6 3 21 2008 56 1
3 -6 21 1934 62 1
-6 -3 21 1936 63 1
-6 -3 21 1969 65 1
-3 6 21 2024 64 1
6 3 21 1999 63 1
1 -6 -21 318 11 1
-6 -1 -21 287 12 1
-6 -1 -21 326 12 1
6 1 21 323 14 1
-6 -1 21 290 13 1
-6 -1 21 329 14 1
6 1 21 302 13 1
-6 1 -21 137 8 1
-1 -6 -21 164 8 1
-6 1 -21 154 8 1
6 -1 21 165 9 1
1 6 21 152 6 1
-1 -6 21 154 9 1
1 6 21 163 10 1
6 -1 21 148 7 1
1 6 21 169 9 1
3 6 -21 13 2 1
-6 3 -21 22 3 1
-3 -6 -21 15 2 1
6 -3 -21 17 2 1
-3 -6 21 15 3 1
-6 3 21 13 3 1
-3 -6 21 17 3 1
3 6 21 13 2 1
6 -3 21 11 3 1
6 -3 21 18 2 1
3 6 21 11 3 1
5 6 -21 236 9 1
6 -5 -21 225 9 1
-5 -6 -21 218 9 1
-5 -6 -21 245 9 1
-6 5 -21 224 10 1
6 -5 -21 237 10 1
5 6 21 244 11 1
5 6 21 230 12 1
-5 -6 21 207 12 1
-5 -6 21 219 10 1
6 -7 -21 1509 62 1
-7 -6 -21 1461 62 1
-7 -6 -21 1508 62 1
-6 7 -21 1631 63 1
7 6 21 1612 62 1
-7 -6 21 1535 69 1
6 -7 21 1570 71 1
-6 7 21 1541 70 1
7 6 21 1623 69 1
4 -7 -21 2127 78 1
7 4 -21 2082 78 1
-7 -4 -21 2238 78 1
7 4 21 2125 78 1
7 4 21 2178 90 1
-4 7 21 2232 89 1
4 -7 21 2077 89 1
2 -7 -21 2492 82 1
-7 -2 -21 2539 82 1
7 2 -21 2663 81 1
-2 7 21 2692 91 1
2 -7 21 2681 94 1
-7 -2 21 2551 93 1
7 0 -21 2319 86 1
-7 0 -21 2332 87 1
-7 0 -21 2337 87 1
0 -7 -21 2335 86 1
7 0 21 2335 95 1
0 7 21 2304 85 1
0 7 21 2407 99 1
0 -7 21 2312 98 1
-7 0 21 2191 96 1
7 0 21 2400 86 1
-2 -7 -21 616 26 1
7 -2 -21 690 26 1
-7 2 -21 687 27 1
-7 2 -21 649 27 1
-2 -7 21 651 29 1
7 -2 21 713 29 1
7 -2 21 701 25 1
2 7 21 598 26 1
-7 2 21 657 30 1
-2 -7 21 609 30 1
-7 2 21 627 30 1
4 7 -21 332 16 1
-4 -7 -21 309 16 1
-4 -7 -21 335 16 1
7 -4 -21 352 16 1
4 7 21 342 18 1
-4 -7 21 324 19 1
-7 4 21 347 19 1
7 -4 21 338 15 1
-4 -7 21 324 18 1
4 7 21 327 16 1
7 -4 21 343 18 1
-6 -7 -21 101 6 1
-6 -7 -21 110 6 1
6 7 -21 114 6 1
-7 6 -21 105 7 1
7 -6 -21 109 7 1
7 -6 21 100 8 1
-7 6 21 102 8 1
6 7 21 105 6 1
6 7 21 107 7 1
-6 -7 21 117 8 1
6 7 21 125 9 1
-6 -7 21 100 9 1
-7 6 21 105 8 1
-8 -7 -21 1831 66 1
-8 -7 -21 1816 66 1
7 -8 -21 1767 66 1
8 7 21 1785 75 1
-8 -7 21 1714 75 1
8 7 21 1783 66 1
-8 -5 -21 1504 52 1
-8 -5 -21 1479 52 1
-5 8 -21 1503 53 1
5 -8 -21 1511 52 1
5 -8 -21 1598 52 1
-8 -5 21 1571 60 1
5 -8 21 1507 59 1
-8 -5 21 1568 58 1
-5 8 21 1447 60 1
3 -8 -21 3568 128 1
-8 -3 -21 3546 128 1
-3 8 -21 3468 128 1
-8 -3 21 3560 141 1
3 -8 21 3591 145 1
8 3 21 3560 127 1
-8 -3 21 3415 145 1
-8 -1 -21 4753 160 1
1 -8 -21 4699 160 1
1 -8 -21 4539 160 1
-8 -1 -21 4488 160 1
8 1 21 4456 177 1
8 1 21 4776 181 1
-1 8 21 4755 159 1
-1 -8 -21 184 5 1
-1 -8 -21 165 5 1
-8 1 -21 191 5 1
8 -1 21 185 4 1
8 -1 21 166 6 1
8 -1 21 152 6 1
-1 -8 21 206 7 1
1 8 21 175 3 1
1 8 21 179 5 1
-8 1 21 210 6 1
8 -3 -21 302 16 1
-3 -8 -21 309 17 1
-8 3 -21 301 17 1
-8 3 -21 311 17 1
-3 -8 -21 294 17 1
8 -3 21 327 20 1
3 8 21 321 16 1
8 -3 21 323 16 1
-8 3 21 309 19 1
3 8 21 320 19 1
8 -3 21 291 18 1
-3 -8 21 324 19 1
-3 -8 21 340 20 1
8 -5 -21 340 14 1
5 8 -21 337 14 1
-5 -8 -21 329 14 1
-5 -8 -21 327 14 1
-8 5 -21 312 15 1
-5 -8 21 317 16 1
-5 -8 21 321 18 1
5 8 21 328 18 1
8 -5 21 312 13 1
-8 5 21 316 17 1
-8 5 21 325 17 1
5 8 21 332 14 1
-7 -8 -21 188 8 1
-8 7 -21 205 9 1
-7 -8 -21 213 8 1
8 -7 -21 171 10 1
7 8 21 193 7 1
-7 -8 21 174 12 1
-7 -8 21 203 10 1
7 8 21 214 11 1
-8 7 21 183 10 1
-8 7 21 183 10 1
-9 -8 -21 800 28 1
-8 9 -21 799 30 1
8 -9 -21 778 29 1
-9 -8 -21 847 29 1
8 -9 -21 881 29 1
-9 -8 21 827 34 1
-8 9 21 801 33 1
9 8 21 784 29 1
9 8 21 832 33 1
-9 -8 21 870 32 1
-6 9 -21 121 9 1
6 -9 -21 131 7 1
-9 -6 -21 126 7 1
-9 -6 -21 126 7 1
-6 9 21 132 8 1
-6 9 21 124 9 1
9 6 21 123 10 1
-9 -6 21 147 9 1
9 6 21 109 7 1
-9 -4 -21 518 25 1
-9 -4 -21 508 25 1
4 -9 -21 467 25 1
9 4 21 532 25 1
-4 9 21 463 28 1
-9 -4 21 478 29 1
-9 -4 21 514 28 1
-9 -2 -21 203 7 1
-9 -2 -21 168 7 1
2 -9 -21 185 7 1
9 2 21 180 6 1
2 -9 21 179 9 1
-9 -2 21 174 9 1
9 2 21 185 9 1
-2 9 21 206 8 1
-9 -2 21 188 8 1
-2 9 21 196 6 1
-2 9 21 174 9 1
-9 0 -21 395 14 1
-9 0 -21 357 14 1
0 -9 -21 379 13 1
0 -9 -21 353 13 1
-9 0 -21 377 17 1
0 9 21 365 12 1
-9 0 21 353 15 1
9 0 21 400 15 1
9 0 21 399 13 1
0 9 21 378 16 1
9 0 21 390 16 1
-9 0 21 354 16 1
-2 -9 -21 115 6 1
-9 2 -21 120 6 1
-9 2 -21 128 6 1
-2 -9 -21 124 6 1
9 -2 21 131 5 1
-9 2 21 120 7 1
-9 2 21 143 8 1
9 -2 21 114 7 1
9 -2 21 123 7 1
2 9 21 122 5 1
2 9 21 95 8 1
-4 -9 -21 1013 47 1
-9 4 -21 1063 48 1
-4 -9 -21 1013 47 1
-9 4 -21 1043 48 1
4 9 21 1098 47 1
4 9 21 1102 54 1
-9 4 21 1044 53 1
9 -4 21 1087 47 1
4 9 21 1066 53 1
-6 -9 -21 1 2 1
-6 -9 -21 2 2 1
-9 6 -21 0 3 1
-9 6 21 0 3 1
6 9 21 2 3 1
6 9 21 5 4 1
9 -6 21 1 1 1
-9 6 21 6 7 1
6 9 21 4 3 1
-6 -9 21 2 4 1
9 -8 -21 118 11 1
-9 8 -21 131 10 1
-8 -9 -21 120 9 1
-8 -9 -21 121 8 1
9 -8 -21 120 9 1
-9 8 21 115 11 1
8 9 21 106 8 1
-9 8 21 124 11 1
8 9 21 122 12 1
-8 -9 21 123 11 1
-8 -9 21 113 13 1
-10 -9 -21 340 12 1
-9 10 -21 299 14 1
9 -10 -21 304 14 1
9 -10 -21 313 13 1
-10 -9 -21 333 12 1
-9 10 21 332 15 1
10 9 21 307 12 1
-10 -9 21 333 15 1
-9 10 21 324 15 1
-10 -7 -21 1074 44 1
-7 10 -21 1119 46 1
7 -10 -21 1017 44 1
-10 -7 21 1007 50 1
-7 10 21 1030 50 1
-7 10 21 1053 51 1
10 7 21 1136 51 1
-10 -7 21 1019 49 1
10 7 21 1017 44 1
5 -10 -21 586 26 1
-10 -5 -21 538 26 1
-10 -5 -21 611 27 1
-10 -5 21 562 30 1
10 5 21 541 26 1
10 5 21 592 31 1
-10 -5 21 606 31 1
-5 10 21 547 30 1
3 -10 -21 1025 39 1
-10 -3 -21 959 39 1
3 -10 -21 962 39 1
-10 -3 -21 979 39 1
-3 10 21 958 44 1
-10 -3 21 940 43 1
10 3 21 974 44 1
-3 10 21 1048 38 1
1 -10 -21 97 9 1
-10 -1 -21 97 9 1
-10 -1 -21 110 12 1
-10 -1 -21 118 9 1
1 -10 -21 86 8 1
-1 10 21 97 8 1
-10 -1 21 107 10 1
10 1 21 119 11 1
-1 10 21 91 10 1
-10 -1 21 103 11 1
1 -10 21 95 11 1
10 1 21 104 8 1
-1 -10 -21 38 2 1
-1 -10 -21 46 2 1
-10 1 -21 40 2 1
-10 1 -21 35 4 1
-10 1 -21 35 2 1
1 10 21 35 2 1
-10 1 21 24 2 1
1 10 21 27 1 1
-10 1 21 47 2 1
1 10 21 46 3 1
-1 -10 21 32 3 1
10 -1 21 35 3 1
-3 -10 -21 297 14 1
-3 -10 -21 290 14 1
-10 3 -21 331 15 1
-10 3 -21 310 14 1
10 -3 21 297 16 1
-10 3 21 301 16 1
3 10 21 325 17 1
-3 -10 21 308 18 1
3 10 21 307 14 1
3 10 21 271 16 1
-3 -10 21 277 17 1
10 -3 21 305 13 1
-10 3 21 273 17 1
-5 -10 -21 71 5 1
-5 -10 -21 76 5 1
-10 5 -21 90 6 1
5 10 21 98 9 1
5 10 21 99 6 1
5 10 21 93 4 1
-10 5 21 71 6 1
-5 -10 21 63 9 1
-10 5 21 64 7 1
10 -5 21 80 4 1
-7 -10 -21 0 2 1
-10 7 -21 2 3 1
-7 -10 -21 0 2 1
7 10 21 2 4 1
7 10 21 1 3 1
-10 7 21 1 3 1
-10 7 21 6 6 1
7 10 21 0 2 1
-9 -10 -21 658 30 1
10 -9 -21 609 31 1
10 -9 -21 568 30 1
-9 -10 -21 605 29 1
-10 9 -21 669 31 1
9 10 21 640 35 1
-10 9 21 611 34 1
-10 9 21 623 35 1
9 10 21 630 30 1
10 -11 -21 756 36 1
-11 -10 -21 828 35 1
-11 -10 -21 802 34 1
-10 11 -21 762 36 1
11 10 21 837 35 1
-10 11 21 789 40 1
-10 11 21 749 40 1
8 -11 -21 465 26 1
-11 -8 -21 464 27 1
8 -11 -21 430 27 1
-11 -8 -21 441 26 1
11 8 21 486 27 1
-11 -8 21 461 30 1
-8 11 21 487 31 1
-6 11 -21 8834 360 1
-11 -6 -21 8822 359 1
6 -11 -21 9135 359 1
-11 -6 -21 8530 359 1
6 -11 -21 9053 359 1
-11 -6 21 8974 398 1
4 -11 -21 3451 113 1
-11 -4 -21 3407 113 1
-11 -4 -21 3556 113 1
4 -11 -21 3724 113 1
-4 11 21 3523 129 1
-11 -4 21 3590 126 1
11 4 21 3591 113 1
-11 -4 21 3542 128 1
2 -11 -21 3917 157 1
-11 -2 -21 4155 174 1
-11 -2 -21 3965 157 1
-11 -2 -21 3895 157 1
-11 -2 21 3961 177 1
-2 11 21 3931 178 1
11 2 21 3895 156 1
-2 11 21 4086 156 1
-11 -2 21 3945 174 1
0 -11 -21 1516 53 1
-11 0 -21 1556 59 1
0 -11 -21 1530 53 1
-11 0 -21 1575 53 1
-11 0 -21 1611 53 1
-11 0 21 1581 60 1
0 11 21 1621 60 1
0 11 21 1582 61 1
-11 0 21 1484 59 1
11 0 21 1592 53 1
0 11 21 1528 52 1
0 -11 21 1655 60 1
-2 -11 -21 53 9 1
-2 -11 -21 49 9 1
-11 2 -21 69 9 1
-11 2 -21 54 9 1
-11 2 -21 60 13 1
11 -2 21 53 11 1
-2 -11 21 60 11 1
11 -2 21 71 8 1
-11 2 21 52 11 1
-11 2 21 58 11 1
-2 -11 21 62 12 1
2 11 21 54 8 1
2 11 21 64 11 1
2 11 21 47 12 1
-11 4 -21 280 10 1
-4 -11 -21 266 9 1
-11 4 -21 285 10 1
-4 -11 -21 276 9 1
-11 4 21 271 12 1
11 -4 21 282 8 1
-4 -11 21 242 13 1
4 11 21 279 13 1
4 11 21 264 11 1
4 11 21 284 9 1
-11 4 21 256 11 1
-6 -11 -21 14 4 1
-6 -11 -21 18 4 1
6 11 21 14 4 1
-11 6 21 8 3 1
6 11 21 7 2 1
-11 6 21 8 3 1
6 11 21 8 3 1
-8 -11 -21 736 28 1
-11 8 -21 809 30 1
-8 -11 -21 742 28 1
8 11 21 788 28 1
11 -8 21 782 27 1
8 11 21 772 34 1
-11 8 21 730 32 1
-11 8 21 808 33 1
-11 10 -21 112 10 1
-10 -11 -21 95 8 1
-10 -11 -21 90 8 1
-11 10 21 113 11 1
10 11 21 92 8 1
-11 12 -21 1 4 1
11 -12 -21 6 4 1
-12 -11 -21 15 2 1
-12 -11 -21 19 2 1
-11 12 21 5 3 1
12 11 21 18 2 1
-11 12 21 6 5 1
-12 -9 -21 290 13 1
-12 -9 -21 278 12 1
-9 12 -21 316 15 1
9 -12 -21 322 14 1
9 -12 -21 304 14 1
-9 12 21 304 16 1
12 9 21 266 13 1
-12 -7 -21 1671 69 1
7 -12 -21 1842 69 1
7 -12 -21 1705 69 1
-12 -7 -21 1719 69 1
-7 12 -21 1731 71 1
-12 -7 21 1672 77 1
-12 -7 21 1696 79 1
-7 12 21 1723 79 1
12 7 21 1716 69 1
-12 -5 -21 1759 71 1
5 -12 -21 1917 71 1
5 -12 -21 1736 71 1
-5 12 -21 1856 73 1
-12 -5 -21 1822 71 1
12 5 21 1738 71 1
-12 -5 21 1896 81 1
-12 -5 21 1946 79 1
3 -12 -21 6285 243 1
-12 -3 -21 6437 244 1
-12 -3 -21 6597 244 1
3 -12 -21 6572 244 1
-3 12 21 6278 270 1
-3 12 21 6657 243 1
12 3 21 6456 243 1
-12 -3 21 6439 270 1
-12 -3 21 6286 276 1
-3 12 21 6262 276 1
1 -12 -21 89 6 1
-12 -1 -21 96 9 1
1 -12 -21 70 6 1
-12 -1 -21 87 6 1
12 1 21 98 6 1
-1 12 21 79 8 1
-12 -1 21 88 8 1
-12 -1 21 74 7 1
-1 12 21 94 5 1
-12 1 -21 150 14 1
-1 -12 -21 130 10 1
-1 -12 -21 125 10 1
-12 1 -21 138 11 1
-12 1 -21 133 10 1
-12 1 21 133 13 1
1 12 21 151 13 1
-12 1 21 126 12 1
1 12 21 128 9 1
-1 -12 21 147 12 1
12 -1 21 130 10 1
-12 3 -21 109 6 1
-12 3 -21 92 12 1
-12 3 -21 95 7 1
-3 -12 -21 90 6 1
-3 -12 -21 106 6 1
-3 -12 21 111 11 1
12 -3 21 101 6 1
-3 -12 21 102 10 1
3 12 21 91 10 1
-12 3 21 99 8 1
-12 3 21 81 8 1
3 12 21 123 8 1
3 12 21 116 6 1
-5 -12 -21 72 6 1
-12 5 -21 72 6 1
-12 5 -21 60 7 1
-5 -12 -21 66 5 1
-12 5 21 60 8 1
5 12 21 61 5 1
-12 5 21 64 8 1
5 12 21 79 8 1
5 12 21 71 11 1
-12 7 -21 580 21 1
-7 -12 -21 530 19 1
-7 -12 -21 548 20 1
7 12 21 536 25 1
12 -7 21 534 19 1
7 12 21 582 20 1
-12 7 21 517 23 1
-9 -12 -21 865 32 1
-9 -12 -21 853 31 1
-12 9 -21 873 32 1
-12 9 21 900 37 1
9 12 21 870 31 1
-12 9 21 817 36 1
-12 11 -21 73 10 1
-11 -12 -21 79 8 1
-11 -12 -21 73 9 1
11 12 21 77 9 1
-12 11 21 83 11 1
-12 11 21 60 12 1
-13 -12 -21 741 24 1
-12 13 -21 663 26 1
-13 -12 -21 687 23 1
13 12 21 711 24 1
-12 13 21 687 28 1
12 -13 21 668 25 1
-12 13 21 640 29 1
-13 -10 -21 481 22 1
10 -13 -21 510 24 1
-10 13 -21 512 25 1
-13 -10 -21 480 23 1
-10 13 21 476 26 1
-10 13 21 551 27 1
-13 -8 -21 34 5 1
8 -13 -21 31 7 1
8 -13 -21 30 3 1
-13 -8 -21 29 4 1
-8 13 -21 29 5 1
-8 13 21 30 5 1
-13 -8 21 39 9 1
13 8 21 33 5 1
6 -13 -21 2072 80 1
-13 -6 -21 2099 80 1
-13 -6 -21 2131 80 1
6 -13 -21 2016 80 1
-6 13 21 2126 92 1
-13 -6 21 2132 91 1
4 -13 -21 2459 88 1
4 -13 -21 2431 88 1
-13 -4 -21 2569 98 1
-13 -4 -21 2480 88 1
-13 -4 21 2462 100 1
13 4 21 2401 88 1
-4 13 21 2396 87 1
-13 -4 21 2437 98 1
4 -13 21 2387 89 1
-13 -2 -21 1 3 1
-13 -2 -21 0 2 1
2 -13 -21 1 3 1
-13 -2 -21 0 3 1
-13 -2 21 0 3 1
2 -13 21 2 2 1
-13 -2 21 1 3 1
13 2 21 1 2 1
-2 13 21 3 3 1
-2 13 21 3 2 1
-2 13 21 2 3 1
0 -13 -21 115 7 1
-13 0 -21 95 8 1
0 -13 -21 109 7 1
-13 0 -21 114 10 1
-13 0 -21 119 7 1
0 -13 21 111 8 1
-13 0 21 108 9 1
-13 0 21 135 9 1
0 13 21 108 9 1
0 13 21 101 10 1
0 13 21 123 6 1
-2 -13 -21 298 14 1
-13 2 -21 322 18 1
-13 2 -21 311 15 1
-2 -13 -21 297 14 1
-13 2 -21 318 15 1
-2 -13 21 325 16 1
2 13 21 326 14 1
2 13 21 312 17 1
-13 2 21 298 17 1
13 -2 21 323 14 1
2 13 21 315 18 1
-4 -13 -21 84 5 1
-13 4 -21 72 11 1
-13 4 -21 95 6 1
-13 4 -21 77 6 1
-4 -13 -21 82 5 1
4 13 21 83 5 1
-4 -13 21 96 10 1
-13 4 21 99 7 1
4 13 21 82 7 1
4 13 21 70 10 1
-13 4 21 91 8 1
-6 -13 -21 13 5 1
-6 -13 -21 15 5 1
-13 6 -21 22 7 1
-13 6 -21 23 6 1
6 13 21 18 7 1
6 13 21 16 5 1
-13 6 21 16 7 1
-13 6 21 18 7 1
13 -6 21 16 5 1
-8 -13 -21 1 2 1
-8 -13 -21 6 2 1
-13 8 -21 1 3 1
8 13 21 1 2 1
13 -8 21 1 2 1
8 13 21 1 3 1
-13 8 21 3 4 1
-13 8 21 7 2 1
-13 10 -21 539 25 1
-10 -13 -21 567 23 1
-10 -13 -21 578 23 1
-12 -13 -21 1079 46 1
-12 -13 -21 1089 45 1
-13 12 -21 1109 47 1
-13 12 21 1066 53 1
-13 12 21 1178 53 1
12 13 21 1100 46 1
-13 14 -21 122 11 1
13 -14 -21 144 13 1
-13 14 21 163 11 1
13 -14 21 120 9 1
-13 14 21 148 16 1
14 13 21 127 9 1
-14 -11 -21 12 2 1
-14 -11 -21 14 3 1
-11 14 -21 22 5 1
11 -14 -21 9 4 1
11 -14 21 30 2 1
-11 14 21 17 5 1
-11 14 21 13 3 1
14 11 21 17 2 1
-14 -9 -21 18 3 1
-14 -9 -21 16 2 1
9 -14 -21 26 3 1
9 -14 21 16 2 1
-9 14 21 35 5 1
-7 14 -21 4539 214 1
7 -14 -21 4725 213 1
-14 -7 -21 4531 213 1
7 -14 -21 4604 213 1
-7 14 21 4741 237 1
14 7 21 4724 213 1
7 -14 21 4665 215 1
-14 -7 21 4651 236 1
-14 -5 -21 313 17 1
-14 -5 -21 316 20 1
5 -14 -21 325 17 1
5 -14 -21 354 17 1
5 -14 21 339 18 1
-5 14 21 313 20 1
-14 -5 21 325 20 1
14 5 21 309 17 1
-14 -5 21 332 21 1
-14 -3 -21 690 32 1
-14 -3 -21 689 37 1
3 -14 -21 703 33 1
3 -14 -21 700 33 1
-14 -3 -21 705 33 1
-14 -3 21 706 37 1
-14 -3 21 665 37 1
14 3 21 705 32 1
-3 14 21 716 32 1
-3 14 21 717 38 1
3 -14 21 687 33 1
1 -14 -21 243 11 1
-14 -1 -21 247 11 1
-14 -1 -21 220 14 1
-14 -1 -21 240 12 1
1 -14 -21 225 11 1
-1 14 21 219 14 1
14 1 21 239 11 1
1 -14 21 264 12 1
-1 14 21 211 11 1
-14 1 -21 67 2 1
-14 1 -21 67 3 1
-1 -14 -21 50 2 1
-14 1 -21 85 3 1
-1 -14 21 81 2 1
1 14 21 50 2 1
14 -1 21 61 2 1
1 14 21 37 4 1
-14 1 21 41 3 1
-14 1 21 46 3 1
-3 -14 -21 562 25 1
-14 3 -21 578 26 1
-3 -14 -21 583 25 1
-14 3 -21 578 25 1
-14 3 21 595 29 1
-3 -14 21 576 26 1
3 14 21 620 29 1
3 14 21 579 30 1
3 14 21 614 25 1
-14 3 21 600 29 1
-5 -14 -21 54 5 1
-14 5 -21 38 6 1
-14 5 -21 44 6 1
-5 -14 -21 42 6 1
5 14 21 46 5 1
-14 5 21 57 8 1
14 -5 21 49 5 1
5 14 21 50 8 1
-14 5 21 63 8 1
-7 -14 -21 39 6 1
-7 -14 -21 54 5 1
-14 7 -21 53 7 1
-14 7 -21 51 7 1
14 -7 21 41 5 1
-14 7 21 53 8 1
7 14 21 37 8 1
7 14 21 44 5 1
-14 7 21 57 8 1
-9 -14 -21 9 2 1
-14 9 -21 9 3 1
-9 -14 -21 9 3 1
9 14 21 10 3 1
14 -9 21 17 4 1
-14 9 21 23 6 1
-14 9 21 9 4 1
-11 -14 -21 27 5 1
-11 -14 -21 25 5 1
-14 11 -21 39 7 1
11 14 21 15 3 1
-14 11 21 17 5 1
-14 11 21 28 7 1
-14 13 21 111 10 1
-14 13 21 134 16 1
13 14 21 132 9 1
14 -13 21 154 9 1
-14 15 -21 6 5 1
-15 -14 -21 0 4 1
14 -15 -21 0 6 1
-14 15 21 0 2 1
14 -15 21 8 2 1
-12 15 -21 10 5 1
12 -15 -21 12 5 1
-12 15 21 8 3 1
15 12 21 8 3 1
-15 -10 -21 538 21 1
-10 15 -21 563 25 1
-15 -10 -21 559 22 1
15 10 21 566 22 1
10 -15 21 579 23 1
-10 15 21 590 26 1
-10 15 21 519 28 1
8 -15 21 90 7 1
15 8 21 119 7 1
-8 15 21 111 9 1
-8 15 21 112 12 1
6 -15 -21 1457 54 1
-15 -6 -21 1514 61 1
6 -15 -21 1490 55 1
-15 -6 -21 1527 54 1
-15 -6 -21 1592 55 1
-6 15 21 1596 62 1
15 6 21 1538 55 1
-6 15 21 1585 62 1
6 -15 21 1534 55 1
-15 -6 21 1530 61 1
-15 -4 -21 1822 87 1
4 -15 -21 1727 78 1
4 -15 -21 1828 78 1
-15 -4 -21 1733 77 1
-15 -4 -21 1738 78 1
-15 -4 21 1772 87 1
-4 15 21 1752 87 1
4 -15 21 1784 78 1
15 4 21 1775 78 1
-15 -4 21 1719 88 1
-4 15 21 1733 77 1
-15 -2 -21 13 3 1
2 -15 -21 20 2 1
-15 -2 -21 15 3 1
2 -15 -21 16 2 1
-15 -2 -21 17 2 1
-2 15 21 12 4 1
2 -15 21 28 2 1
-2 15 21 14 4 1
-15 -2 21 21 3 1
15 2 21 13 2 1
-15 -2 21 23 3 1
0 -15 -21 912 39 1
-15 0 -21 916 40 1
-15 0 -21 840 44 1
0 -15 -21 904 39 1
-15 0 -21 884 39 1
0 15 21 850 45 1
0 15 21 849 39 1
-15 0 21 879 45 1
0 -15 21 870 40 1
15 0 21 834 39 1
0 15 21 901 45 1
-15 2 -21 73 6 1
-15 2 -21 87 7 1
-2 -15 -21 76 6 1
-2 -15 -21 77 6 1
-15 2 -21 83 9 1
-15 2 21 73 8 1
-2 -15 21 64 8 1
2 15 21 75 5 1
15 -2 21 77 6 1
2 15 21 84 12 1
-15 2 21 97 8 1
-15 4 -21 460 20 1
-15 4 -21 457 23 1
-15 4 -21 476 20 1
-4 -15 -21 439 19 1
-4 -15 -21 457 19 1
15 -4 21 463 19 1
-15 4 21 428 23 1
-15 4 21 480 23 1
-4 -15 21 463 21 1
4 15 21 453 19 1
4 15 21 473 23 1
-6 -15 -21 37 2 1
-15 6 -21 9 2 1
-15 6 -21 16 3 1
-6 -15 -21 31 4 1
-15 6 21 17 4 1
6 15 21 29 4 1
6 15 21 30 2 1
-15 6 21 16 3 1
15 -6 21 10 2 1
-15 8 -21 140 10 1
-8 -15 -21 143 8 1
-15 8 -21 164 10 1
-8 -15 -21 143 9 1
8 15 21 129 9 1
-15 8 21 172 11 1
-10 -15 -21 75 7 1
-15 10 -21 73 8 1
-10 -15 -21 69 6 1
-15 10 21 93 8 1
-15 10 21 58 11 1
10 15 21 82 6 1
10 15 21 71 9 1
-15 12 -21 293 15 1
12 15 21 287 17 1
12 15 21 276 13 1
-15 12 21 293 16 1
-15 14 -21 4 4 1
-14 -15 -21 1 3 1
15 -14 21 1 2 1
14 15 21 0 3 1
-15 14 21 0 2 1
-16 -15 -21 4 6 1
-16 -13 -21 29 5 1
13 -16 -21 40 6 1
13 -16 21 45 6 1
-13 16 21 36 5 1
-16 -11 -21 273 17 1
-11 16 -21 277 20 1
11 -16 -21 291 18 1
16 11 21 277 17 1
11 -16 21 277 17 1
-11 16 21 284 20 1
-9 16 -21 701 31 1
-16 -9 -21 748 26 1
9 -16 -21 705 28 1
-16 -9 -21 796 27 1
-16 -9 -21 790 31 1
9 -16 21 759 28 1
16 9 21 744 27 1
-9 16 21 666 31 1
7 -16 -21 770 26 1
-16 -7 -21 693 29 1
-16 -7 -21 718 26 1
-16 -7 -21 704 25 1
-7 16 21 757 30 1
7 -16 21 717 26 1
16 7 21 704 26 1
-7 16 21 742 31 1
-16 -5 -21 27 3 1
5 -16 -21 24 3 1
-16 -5 -21 27 3 1
-16 -5 21 18 4 1
-5 16 21 40 5 1
-16 -5 21 29 5 1
-5 16 21 24 3 1
5 -16 21 28 2 1
-16 -3 -21 701 33 1
3 -16 -21 691 32 1
-16 -3 -21 722 37 1
3 -16 -21 753 32 1
-16 -3 -21 704 32 1
-3 16 21 749 32 1
-3 16 21 769 38 1
-3 16 21 776 38 1
3 -16 21 753 33 1
16 3 21 768 33 1
-16 -3 21 712 37 1
-16 -1 -21 267 17 1
-16 -1 -21 289 19 1
1 -16 -21 291 16 1
-16 -1 -21 272 16 1
-1 16 21 261 20 1
16 1 21 251 16 1
-16 -1 21 261 19 1
-1 16 21 282 16 1
-16 -1 21 239 19 1
1 -16 21 276 17 1
-1 -16 -21 86 6 1
-16 1 -21 83 8 1
-16 1 -21 98 9 1
-16 1 -21 79 7 1
-1 -16 -21 80 7 1
-1 -16 21 83 8 1
-16 1 21 83 9 1
16 -1 21 85 7 1
1 16 21 76 13 1
-16 1 21 103 9 1
1 16 21 92 9 1
1 16 21 80 6 1
-16 3 -21 265 15 1
-16 3 -21 243 17 1
-3 -16 -21 253 14 1
-3 -16 -21 253 15 1
-16 3 -21 258 15 1
3 16 21 240 14 1
-3 -16 21 251 16 1
-16 3 21 239 17 1
3 16 21 270 18 1
-16 3 21 247 18 1
16 -3 21 258 14 1
-16 5 -21 16 4 1
-5 -16 -21 11 5 1
-16 5 -21 17 6 1
5 16 21 8 8 1
-16 5 21 14 7 1
-16 5 21 14 5 1
-5 -16 21 12 4 1
-16 7 -21 1110 43 1
-7 -16 -21 1102 42 1
-7 -16 -21 1107 43 1
-16 7 -21 1127 44 1
16 -7 21 1103 42 1
7 16 21 1058 48 1
-16 7 21 1073 49 1
7 16 21 1084 43 1
-9 -16 -21 738 32 1
-16 9 -21 739 33 1
-16 9 -21 707 33 1
-9 -16 -21 731 31 1
9 16 21 762 37 1
16 -9 21 756 31 1
9 16 21 706 32 1
-16 9 21 728 38 1
-16 11 -21 480 28 1
-11 -16 -21 510 27 1
-16 11 21 560 31 1
11 16 21 465 27 1
-13 -16 -21 21 3 1
-16 13 -21 21 4 1
16 -13 21 36 2 1
13 16 21 12 3 1
-16 13 21 25 2 1
-15 -16 -21 147 12 1
16 -15 21 169 8 1
-16 15 21 180 10 1
-17 -16 -21 18 4 1
-16 17 21 15 4 1
-17 -14 -21 585 28 1
14 -17 21 529 24 1
-14 17 21 530 27 1
-17 -12 -21 116 6 1
-12 17 -21 98 13 1
-17 -12 -21 113 10 1
12 -17 21 137 6 1
-12 17 21 120 6 1
17 12 21 141 8 1
10 -17 -21 13 4 1
-10 17 -21 38 6 1
-17 -10 -21 16 4 1
17 10 21 15 3 1
10 -17 21 38 2 1
-10 17 21 26 2 1
-17 -8 -21 247 18 1
-17 -8 -21 254 16 1
8 -17 -21 252 16 1
-8 17 21 278 23 1
8 -17 21 266 16 1
-8 17 21 284 18 1
-17 -6 -21 862 33 1
-17 -6 -21 895 29 1
-17 -6 -21 803 28 1
6 -17 -21 810 29 1
-6 17 21 828 33 1
-6 17 21 785 34 1
17 6 21 888 29 1
6 -17 21 827 29 1
4 -17 -21 44 5 1
-17 -4 -21 46 5 1
-17 -4 -21 43 7 1
17 4 21 42 5 1
-4 17 21 55 9 1
-4 17 21 33 6 1
-17 -4 21 37 9 1
-4 17 21 45 10 1
4 -17 21 52 6 1
2 -17 -21 288 15 1
-17 -2 -21 300 15 1
-17 -2 -21 322 18 1
-17 -2 -21 320 16 1
2 -17 -21 295 15 1
-17 -2 21 290 18 1
2 -17 21 323 16 1
-2 17 21 259 19 1
-17 -2 21 282 18 1
-2 17 21 285 15 1
-17 0 -21 1362 47 1
-17 0 -21 1324 52 1
0 -17 -21 1253 46 1
0 -17 -21 1319 47 1
-17 0 -21 1294 46 1
17 0 21 1221 46 1
-17 0 21 1315 53 1
0 17 21 1215 52 1
-17 2 -21 87 11 1
-17 2 -21 98 10 1
-2 -17 -21 77 8 1
-2 -17 -21 85 8 1
-17 2 21 96 11 1
17 -2 21 84 8 1
-17 2 21 94 12 1
-2 -17 21 81 10 1
2 17 21 102 12 1
2 17 21 86 8 1
-17 4 -21 142 11 1
-17 4 -21 147 9 1
-17 4 -21 164 10 1
-4 -17 -21 159 9 1
-4 -17 -21 152 8 1
-17 4 21 164 11 1
4 17 21 174 12 1
17 -4 21 159 9 1
-17 4 21 164 12 1
4 17 21 150 8 1
-4 -17 21 167 11 1
-17 6 -21 413 24 1
-17 6 -21 452 22 1
-6 -17 -21 442 21 1
-6 -17 -21 442 21 1
-17 6 -21 420 22 1
-17 6 21 456 25 1
6 17 21 400 25 1
17 -6 21 419 21 1
-8 -17 -21 305 14 1
-17 8 -21 322 15 1
-17 8 -21 289 14 1
-8 -17 -21 289 13 1
17 -8 21 282 13 1
8 17 21 299 14 1
8 17 21 276 17 1
-17 8 21 285 19 1
-17 10 -21 1604 62 1
-10 -17 -21 1529 61 1
-17 10 -21 1519 62 1
17 -10 21 1502 60 1
10 17 21 1517 61 1
-17 12 -21 114 10 1
-12 -17 -21 90 8 1
-17 12 -21 94 9 1
12 17 21 102 8 1
17 -12 21 101 7 1
-17 12 21 80 7 1
-14 -17 -21 9 5 1
17 -14 21 4 1 1
-17 14 21 3 2 1
-17 16 21 15 4 1
17 -16 21 16 3 1
-18 -15 -21 253 12 1
15 -18 21 282 11 1
-15 18 21 263 12 1
-18 -13 -21 1 2 1
-13 18 21 2 2 1
13 -18 21 0 1 1
11 -18 -21 123 11 1
-18 -11 -21 99 8 1
18 11 21 102 10 1
11 -18 21 125 8 1
-11 18 21 124 8 1
9 -18 -21 310 15 1
-9 18 -21 313 23 1
-18 -9 -21 302 17 1
-18 -9 -21 329 17 1
-9 18 21 315 16 1
18 9 21 302 15 1
9 -18 21 331 15 1
-18 -7 -21 294 17 1
-18 -7 -21 336 16 1
7 -18 -21 346 15 1
7 -18 21 326 15 1
18 7 21 309 15 1
-18 -5 -21 47 6 1
-18 -5 -21 40 5 1
5 -18 -21 47 6 1
-5 18 21 49 9 1
-5 18 21 46 8 1
18 5 21 45 6 1
5 -18 21 40 6 1
-18 -3 -21 255 9 1
3 -18 -21 257 10 1
-18 -3 -21 248 12 1
3 -18 -21 284 10 1
-18 -3 -21 271 11 1
-3 18 21 280 14 1
-3 18 21 257 10 1
-3 18 21 262 16 1
-18 -3 21 252 13 1
3 -18 21 262 11 1
18 3 21 246 10 1
1 -18 -21 254 10 1
-18 -1 -21 257 12 1
-18 -1 -21 236 10 1
-18 -1 -21 227 12 1
1 -18 -21 240 10 1
-18 -1 21 245 13 1
-1 18 21 227 10 1
-1 18 21 240 15 1
18 1 21 231 10 1
1 -18 21 272 11 1
-18 -1 21 227 13 1
-18 1 -21 345 16 1
-1 -18 -21 327 16 1
-18 1 -21 347 19 1
-18 1 -21 343 17 1
18 -1 21 348 16 1
-1 -18 21 338 17 1
-18 1 21 311 19 1
1 18 21 321 20 1
1 18 21 326 16 1
-18 1 21 291 19 1
-3 -18 -21 1 2 1
-3 -18 -21 1 2 1
-18 3 -21 7 3 1
-18 3 -21 7 3 1
-18 3 -21 10 4 1
18 -3 21 4 2 1
3 18 21 5 5 1
-18 3 21 8 3 1
-3 -18 21 9 3 1
-18 3 21 9 4 1
-5 -18 -21 9 2 1
-5 -18 -21 4 2 1
-18 5 -21 5 4 1
-18 5 -21 3 3 1
-18 5 -21 5 4 1
5 18 21 4 2 1
5 18 21 7 5 1
-5 -18 21 9 3 1
-18 5 21 5 5 1
18 -5 21 6 3 1
-7 -18 -21 3 2 1
-18 7 -21 7 4 1
7 18 21 4 3 1
7 18 21 6 6 1
-18 7 21 4 3 1
18 -7 21 3 3 1
-18 7 21 7 6 1
-18 9 -21 162 13 1
-18 9 -21 128 11 1
-9 -18 -21 155 11 1
-18 9 21 125 12 1
9 18 21 168 11 1
18 -9 21 134 11 1
-11 -18 -21 14 3 1
-18 11 -21 11 4 1
-18 11 -21 13 3 1
11 18 21 14 3 1
18 -11 21 15 2 1
-18 11 21 12 2 1
-18 13 21 20 5 1
18 -13 21 19 4 1
-18 15 21 366 18 1
18 -15 21 414 16 1
-19 -14 -21 8 4 1
-14 19 21 4 4 1
14 -19 21 1 3 1
-19 -12 -21 36 5 1
-12 19 21 33 5 1
-19 -10 -21 99 7 1
10 -19 21 110 8 1
-19 -8 -21 129 7 1
8 -19 -21 144 8 1
8 -19 21 116 7 1
-8 19 21 136 8 1
-19 -6 -21 19 2 1
-19 -6 -21 5 5 1
6 -19 -21 14 3 1
19 6 21 3 3 1
6 -19 21 3 2 1
-6 19 21 6 3 1
-19 -4 -21 46 7 1
-19 -4 -21 64 9 1
4 -19 -21 46 5 1
-4 19 21 55 9 1
-4 19 21 38 4 1
19 4 21 34 6 1
-19 -2 -21 78 7 1
2 -19 -21 51 5 1
-19 -2 -21 51 6 1
-2 19 21 52 9 1
2 -19 21 65 6 1
-19 0 -21 7 3 1
0 -19 -21 6 2 1
-19 0 21 10 5 1
0 19 21 18 7 1
-19 0 21 6 3 1
0 -19 21 15 6 1
0 19 21 15 5 1
19 0 21 7 3 1
-2 -19 -21 201 9 1
-19 2 -21 208 9 1
-19 2 -21 214 11 1
-2 -19 -21 212 10 1
19 -2 21 227 10 1
2 19 21 241 16 1
-19 2 21 204 13 1
-2 -19 21 210 10 1
-19 2 21 193 11 1
-19 4 -21 67 9 1
-4 -19 -21 56 6 1
-19 4 -21 45 6 1
19 -4 21 52 6 1
-4 -19 21 64 8 1
-6 -19 -21 2743 111 1
-6 -19 -21 2758 110 1
-19 6 -21 2789 112 1
-19 6 -21 2771 111 1
-19 6 -21 2856 123 1
19 -6 21 2893 111 1
6 19 21 2933 111 1
-19 8 -21 483 21 1
-8 -19 -21 467 21 1
-19 8 -21 492 22 1
-19 8 21 462 23 1
8 19 21 437 20 1
19 -8 21 471 20 1
-19 10 -21 610 24 1
-19 10 -21 636 26 1
-10 -19 -21 616 24 1
10 19 21 646 25 1
-19 10 21 621 27 1
-19 12 -21 311 17 1
-19 12 21 318 15 1
19 -14 21 5 1 1
-19 14 21 6 2 1
-20 -13 -21 100 7 1
13 -20 21 81 6 1
-13 20 21 84 7 1
-20 -11 -21 340 17 1
-11 20 21 369 17 1
11 -20 21 346 15 1
-20 -9 -21 505 27 1
9 -20 21 512 24 1
7 -20 -21 0 3 1
7 -20 21 1 2 1
20 7 21 3 3 1
-7 20 21 4 3 1
5 -20 -21 110 9 1
-20 -5 -21 106 9 1
20 5 21 102 10 1
5 -20 21 119 9 1
3 -20 -21 3 2 1
-20 -3 -21 1 2 1
-20 -3 -21 1 6 1
3 -20 21 3 2 1
20 3 21 5 3 1
-3 20 21 7 4 1
-20 -3 21 1 3 1
-20 -1 -21 11 5 1
1 -20 -21 19 2 1
-20 -1 -21 21 4 1
-1 20 21 13 3 1
-20 -1 21 12 2 1
20 1 21 6 3 1
-1 -20 -21 23 5 1
1 20 21 15 3 1
20 -1 21 15 3 1
-20 1 21 24 5 1
-3 -20 -21 178 9 1
-20 3 -21 160 9 1
-3 -20 -21 163 9 1
-20 3 -21 158 9 1
-20 3 -21 176 12 1
-3 -20 21 189 10 1
3 20 21 149 9 1
-20 3 21 167 10 1
20 -3 21 160 9 1
-20 5 -21 374 16 1
-5 -20 -21 355 15 1
-20 5 -21 334 17 1
-20 5 -21 371 15 1
-5 -20 21 338 15 1
20 -5 21 366 15 1
5 20 21 329 15 1
-20 5 21 365 16 1
-7 -20 -21 624 24 1
-20 7 -21 606 24 1
-20 7 -21 671 26 1
-20 7 -21 610 26 1
20 -7 21 642 23 1
-9 -20 -21 2888 110 1
-20 9 -21 2815 110 1
-20 9 21 2955 124 1
-20 11 21 10 4 1
20 -11 21 17 4 1
-20 13 21 297 16 1
20 -13 21 307 14 1
-21 -10 -21 3 2 1
10 -21 21 2 1 1
-10 21 21 8 3 1
-21 -8 -21 75 6 1
8 -21 21 88 5 1
-21 -6 -21 641 28 1
6 -21 21 576 25 1
4 -21 -21 3 3 1
-21 -4 -21 5 2 1
21 4 21 2 3 1
2 -21 -21 54 6 1
-21 -2 -21 54 5 1
-21 -2 21 37 7 1
2 -21 21 55 6 1
-21 0 -21 57 5 1
0 -21 -21 55 6 1
0 -21 21 49 6 1
-21 0 21 57 6 1
-21 2 -21 113 9 1
-2 -21 -21 123 9 1
-2 -21 -21 125 9 1
-21 2 21 97 9 1
21 -2 21 114 10 1
-2 -21 21 125 8 1
-21 4 -21 35 6 1
-4 -21 -21 28 6 1
4 21 21 30 7 1
-21 4 21 22 5 1
21 -4 21 35 7 1
-4 -21 21 27 6 1
-21 6 -21 291 13 1
-6 -21 -21 277 13 1
-21 6 21 311 14 1
-8 -21 -21 25 7 1
-21 8 21 28 5 1
21 -10 21 456 21 1
-21 10 21 476 24 1
-22 -9 -21 72 6 1
9 -22 21 105 5 1
-22 -7 -21 1 2 1
7 -22 21 0 1 1
-22 -5 -21 1 2 1
5 -22 21 3 1 1
-22 -3 -21 35 5 1
3 -22 21 29 4 1
-22 -1 -21 712 33 1
1 -22 21 733 30 1
-22 -1 21 671 34 1
-22 1 -21 31 5 1
-1 -22 21 33 4 1
-22 3 -21 215 11 1
-22 3 21 195 11 1
-3 -22 21 201 10 1
-22 5 -21 680 30 1
-22 5 21 641 31 1
-5 -22 21 652 27 1
-22 7 21 759 35 1
22 -7 21 808 31 1
22 -9 21 23 4 1
-23 -6 -21 141 9 1
6 -23 21 130 7 1
-23 -4 -21 49 5 1
4 -23 21 38 4 1
-23 -2 -21 2 2 1
-23 0 -21 252 11 1
-23 0 21 226 12 1
0 -23 21 232 10 1
-23 2 -21 117 7 1
-23 2 21 125 7 1
-2 -23 21 110 6 1
-23 4 -21 353 18 1
-4 -23 21 346 16 1
-23 4 21 328 18 1
-23 6 -21 167 10 1
23 -6 21 177 8 1
-23 6 21 143 9 1
-24 -1 -21 4 2 1
1 -24 21 1 1 1
-24 1 -21 14 4 1
-1 -24 21 11 4 1
0 0 -22 7479 271 1
0 0 22 7654 300 1
1 -1 -22 2593 74 1
-1 -1 -22 2639 74 1
-1 -1 -22 2623 74 1
1 -1 -22 2669 74 1
-1 1 -22 2598 74 1
1 1 -22 2526 73 1
1 1 -22 2678 74 1
-1 -1 22 2694 82 1
-1 1 22 2638 84 1
-1 -1 22 2591 84 1
1 -1 22 2598 82 1
-1 1 22 2712 82 1
0 2 -22 2916 114 1
-2 0 -22 2757 114 1
0 2 -22 2890 114 1
-2 0 -22 2771 114 1
0 -2 -22 2844 114 1
0 -2 22 2691 126 1
-2 0 22 2683 129 1
-2 2 -22 1883 68 1
2 2 -22 1948 68 1
2 -2 -22 1975 69 1
-2 2 -22 1998 69 1
2 -2 -22 2014 68 1
-2 -2 -22 1771 69 1
-2 -2 -22 1975 69 1
2 2 22 1806 76 1
-2 -2 22 1920 78 1
-2 -2 22 1811 76 1
2 2 22 1776 78 1
-3 -1 -22 2242 74 1
-1 3 -22 2309 74 1
-1 3 -22 2245 74 1
1 -3 -22 2210 73 1
1 -3 -22 2310 74 1
3 1 -22 2164 73 1
3 1 22 2264 84 1
-3 -1 22 2078 84 1
-3 -1 22 2102 81 1
3 -1 -22 4271 153 1
-3 1 -22 4111 154 1
1 3 -22 4304 153 1
-1 -3 -22 3967 154 1
3 -1 22 4329 170 1
1 3 22 4026 174 1
-3 -3 -22 813 33 1
3 3 -22 864 32 1
3 -3 -22 820 32 1
-3 3 -22 802 33 1
-3 -3 -22 864 33 1
-3 -3 22 861 37 1
-3 -3 22 847 36 1
3 -3 22 877 36 1
3 3 22 858 32 1
2 -4 -22 310 16 1
4 2 -22 307 16 1
-4 -2 -22 283 16 1
2 -4 -22 304 16 1
-2 4 -22 302 17 1
-4 -2 -22 275 16 1
-4 -2 22 289 20 1
2 -4 22 295 18 1
-4 -2 22 285 18 1
4 2 22 300 15 1
0 -4 -22 120 6 1
-4 0 -22 100 7 1
4 0 -22 120 5 1
0 4 -22 119 6 1
-4 0 -22 96 6 1
4 0 22 98 7 1
0 -4 22 122 7 1
0 4 22 111 7 1
-4 0 22 110 7 1
0 -4 22 128 8 1
-2 -4 -22 1732 64 1
-4 2 -22 1718 64 1
-4 2 -22 1766 64 1
2 4 -22 1721 64 1
-2 -4 -22 1593 64 1
-2 -4 22 1687 73 1
-2 -4 22 1680 71 1
4 -2 22 1740 71 1
2 4 22 1639 71 1
2 4 22 1648 63 1
4 4 -22 289 15 1
-4 -4 -22 280 16 1
-4 -4 -22 265 16 1
4 -4 -22 310 16 1
4 -4 -22 315 15 1
-4 4 -22 287 16 1
4 -4 22 322 17 1
-4 4 22 296 18 1
4 4 22 268 15 1
4 4 22 264 18 1
-4 -4 22 291 18 1
4 -4 22 314 18 1
-5 -3 -22 54 4 1
5 3 -22 54 4 1
-3 5 -22 47 3 1
-5 -3 -22 54 4 1
-3 5 22 37 3 1
5 3 22 49 3 1
5 3 22 45 3 1
-3 5 22 37 3 1
-5 -3 22 46 3 1
3 -5 22 63 6 1
5 1 -22 1766 63 1
-5 -1 -22 1822 64 1
-5 -1 -22 1816 64 1
-1 5 22 1878 73 1
5 1 22 1815 62 1
1 -5 22 1792 70 1
-5 -1 22 1725 70 1
5 -1 -22 146 8 1
1 5 -22 149 9 1
-1 -5 -22 133 9 1
-5 1 -22 148 10 1
-1 -5 -22 156 9 1
-5 1 -22 122 9 1
1 5 22 153 8 1
5 -1 22 134 10 1
5 -1 22 127 11 1
-1 -5 22 158 10 1
-3 -5 -22 173 8 1
5 -3 -22 155 7 1
-5 3 -22 147 8 1
-5 3 -22 155 9 1
-3 -5 -22 172 8 1
3 5 -22 155 8 1
5 -3 22 158 9 1
-3 -5 22 161 9 1
3 5 22 145 9 1
3 5 22 139 10 1
-5 3 22 142 9 1
-5 3 22 139 10 1
-5 -5 -22 1681 80 1
-5 -5 -22 1741 80 1
5 5 -22 1841 79 1
-5 5 -22 1779 80 1
5 -5 -22 1845 79 1
5 -5 -22 1714 80 1
5 5 22 1787 79 1
-5 -5 22 1697 88 1
5 5 22 1827 89 1
5 -5 22 1691 88 1
6 4 -22 842 27 1
-6 -4 -22 818 27 1
4 -6 -22 795 27 1
-4 6 22 875 31 1
-6 -4 22 774 30 1
-6 -4 22 832 31 1
-4 6 22 832 31 1
6 4 22 836 31 1
4 -6 22 805 31 1
6 4 22 777 26 1
6 4 22 765 30 1
-6 -2 -22 1 2 1
-6 -2 -22 1 2 1
2 -6 -22 0 2 1
6 2 -22 3 2 1
2 -6 -22 0 2 1
6 2 22 0 3 1
6 2 22 0 3 1
-2 6 22 0 3 1
6 2 22 0 1 1
-2 6 22 1 2 1
-6 -2 22 1 2 1
6 0 -22 14 2 1
0 -6 -22 22 2 1
-6 0 -22 43 4 1
0 -6 22 26 6 1
0 6 22 27 4 1
-6 0 22 14 3 1
0 6 22 27 2 1
6 0 22 29 3 1
2 6 -22 738 28 1
-6 2 -22 674 28 1
6 -2 -22 739 27 1
-6 2 -22 729 28 1
-2 -6 -22 767 28 1
-2 -6 22 722 31 1
-6 2 22 760 31 1
6 -2 22 723 26 1
6 -2 22 756 32 1
-6 2 22 676 32 1
2 6 22 748 27 1
2 6 22 694 32 1
-4 -6 -22 97 7 1
-4 -6 -22 103 7 1
4 6 -22 117 7 1
-6 4 -22 115 8 1
-6 4 -22 110 8 1
-6 4 22 95 8 1
-4 -6 22 111 10 1
4 6 22 106 9 1
4 6 22 111 6 1
6 -4 22 107 9 1
-4 -6 22 127 8 1
4 6 22 113 8 1
-6 6 -22 2 3 1
-6 -6 -22 4 2 1
6 6 -22 4 3 1
-6 -6 -22 1 4 1
-6 -6 22 3 3 1
6 6 22 0 7 1
-6 6 22 0 6 1
-6 -6 22 1 3 1
-6 6 22 3 3 1
6 6 22 1 3 1
5 -7 -22 361 16 1
-7 -5 -22 352 16 1
-7 -5 -22 351 16 1
5 -7 -22 332 17 1
-5 7 -22 343 18 1
-7 -5 22 334 19 1
5 -7 22 321 19 1
-5 7 22 343 19 1
7 5 22 304 19 1
3 -7 -22 289 14 1
-7 -3 -22 308 14 1
-3 7 -22 289 15 1
3 -7 -22 249 13 1
3 -7 22 282 16 1
7 3 22 297 13 1
-7 -3 22 308 16 1
-7 -3 22 322 15 1
-3 7 22 264 16 1
1 -7 -22 253 14 1
-7 -1 -22 265 14 1
-7 -1 -22 249 14 1
1 -7 -22 268 14 1
7 1 22 254 13 1
-1 7 22 291 16 1
1 -7 22 259 17 1
-7 -1 22 289 16 1
7 1 22 274 16 1
7 1 22 273 17 1
-7 1 -22 1051 42 1
-1 -7 -22 1037 41 1
-7 1 -22 999 42 1
7 -1 -22 1052 41 1
7 -1 22 1012 46 1
7 -1 22 1064 40 1
-1 -7 22 996 47 1
-1 -7 22 1021 45 1
1 7 22 1041 40 1
-7 1 22 967 46 1
-7 3 -22 329 13 1
-3 -7 -22 306 13 1
-7 3 -22 297 13 1
3 7 -22 310 12 1
7 -3 22 321 14 1
3 7 22 328 15 1
-3 -7 22 312 15 1
7 -3 22 316 11 1
-3 -7 22 307 14 1
3 7 22 304 14 1
3 7 22 291 12 1
7 -3 22 304 15 1
-7 3 22 294 15 1
-5 -7 -22 1013 38 1
5 7 -22 997 38 1
7 -5 -22 1039 38 1
-7 5 -22 975 39 1
-5 -7 -22 965 38 1
5 7 22 975 44 1
-5 -7 22 970 44 1
-5 -7 22 987 42 1
-7 5 22 996 44 1
5 7 22 972 38 1
7 -7 -22 1003 35 1
-7 -7 -22 977 36 1
-7 7 -22 924 36 1
7 7 22 1024 35 1
7 7 22 1033 40 1
-7 -7 22 1008 39 1
-7 7 22 981 41 1
-7 7 22 1057 40 1
6 -8 -22 4 2 1
-8 -6 -22 7 2 1
6 -8 -22 6 3 1
-8 -6 -22 8 2 1
-6 8 22 2 2 1
8 6 22 1 3 1
8 6 22 5 3 1
8 6 22 3 2 1
-8 -6 22 3 3 1
-8 -6 22 3 3 1
-4 8 -22 72 11 1
-8 -4 -22 59 7 1
4 -8 -22 79 8 1
4 -8 -22 77 7 1
-8 -4 -22 73 8 1
-8 -4 22 84 10 1
8 4 22 71 10 1
8 4 22 74 9 1
4 -8 22 87 9 1
8 4 22 77 7 1
2 -8 -22 44 5 1
-8 -2 -22 42 5 1
-8 -2 -22 45 5 1
-2 8 22 48 7 1
-2 8 22 33 6 1
8 2 22 33 7 1
2 -8 22 35 6 1
-8 -2 22 51 7 1
-8 -2 22 47 6 1
8 2 22 41 4 1
8 2 22 37 6 1
-8 0 -22 1783 61 1
0 -8 -22 1694 61 1
-8 0 -22 1665 61 1
0 -8 -22 1723 61 1
0 8 22 1655 69 1
0 8 22 1684 68 1
8 0 22 1637 69 1
8 0 22 1700 60 1
0 8 22 1765 60 1
8 -2 -22 273 10 1
-8 2 -22 244 11 1
-8 2 -22 249 11 1
-2 -8 -22 281 11 1
2 8 22 298 13 1
-8 2 22 264 12 1
-2 -8 22 273 13 1
2 8 22 278 12 1
-8 2 22 261 13 1
2 8 22 294 10 1
8 -2 22 264 9 1
8 -2 22 263 12 1
8 -2 22 271 13 1
-4 -8 -22 598 27 1
-8 4 -22 549 27 1
-4 -8 -22 611 27 1
-8 4 -22 539 27 1
4 8 22 573 31 1
-8 4 22 598 30 1
8 -4 22 597 25 1
-4 -8 22 638 30 1
-4 -8 22 633 31 1
4 8 22 559 30 1
4 8 22 590 26 1
-6 -8 -22 151 8 1
-8 6 -22 165 9 1
-6 -8 -22 138 8 1
6 8 -22 160 9 1
-8 6 22 146 10 1
-8 6 22 145 10 1
6 8 22 145 7 1
-6 -8 22 170 10 1
6 8 22 137 11 1
-8 -8 -22 176 11 1
-8 -8 -22 156 10 1
8 -8 -22 160 12 1
-8 8 -22 188 12 1
8 -8 -22 169 10 1
-8 -8 22 165 12 1
-8 8 22 186 13 1
8 8 22 180 13 1
-8 -8 22 143 14 1
8 8 22 149 12 1
-9 -7 -22 1859 78 1
7 -9 -22 1849 78 1
-7 9 -22 1863 79 1
7 -9 -22 1778 78 1
-9 -7 22 1829 89 1
9 7 22 1943 89 1
-9 -7 22 1909 87 1
9 7 22 1824 78 1
5 -9 -22 210 9 1
5 -9 -22 201 9 1
-9 -5 -22 174 9 1
-5 9 -22 197 12 1
-9 -5 -22 195 8 1
9 5 22 179 11 1
-9 -5 22 172 10 1
-5 9 22 222 10 1
-9 -5 22 178 11 1
-5 9 22 219 11 1
9 5 22 185 8 1
-9 -3 -22 167 8 1
-9 -3 -22 171 8 1
-3 9 22 185 9 1
3 -9 22 167 9 1
9 3 22 163 7 1
-9 -3 22 187 10 1
9 3 22 185 9 1
9 3 22 185 10 1
-9 -1 -22 4 4 1
1 -9 -22 2 2 1
-9 -1 -22 4 4 1
-9 -1 22 0 3 1
9 1 22 1 2 1
-9 -1 22 0 3 1
-1 9 22 3 3 1
1 -9 22 2 3 1
-1 9 22 2 2 1
9 1 22 2 3 1
-9 1 -22 1918 71 1
-1 -9 -22 1801 71 1
-1 -9 -22 1915 71 1
-9 1 22 1884 79 1
9 -1 22 1855 70 1
9 -1 22 1861 78 1
1 9 22 1886 70 1
9 -1 22 1866 80 1
-1 -9 22 1943 80 1
-9 3 -22 1101 49 1
-9 3 -22 1083 48 1
-3 -9 -22 1220 48 1
-3 -9 -22 1194 48 1
3 9 22 1145 54 1
9 -3 22 1179 47 1
-3 -9 22 1125 55 1
9 -3 22 1101 53 1
-9 3 22 1167 55 1
3 9 22 1110 55 1
3 9 22 1143 47 1
-5 -9 -22 2755 103 1
-9 5 -22 2585 103 1
-5 -9 -22 2751 103 1
5 9 22 2600 116 1
9 -5 22 2670 101 1
-5 -9 22 2636 116 1
5 9 22 2576 102 1
5 9 22 2732 114 1
-7 -9 -22 1564 59 1
9 -7 -22 1636 59 1
-7 -9 -22 1530 60 1
-9 7 -22 1605 60 1
-7 -9 22 1625 68 1
-9 7 22 1673 67 1
-7 -9 22 1620 66 1
7 9 22 1545 59 1
9 -9 -22 274 13 1
9 -9 -22 323 11 1
-9 -9 -22 277 10 1
-9 -9 -22 307 11 1
-9 9 -22 320 13 1
-9 -9 22 312 16 1
9 9 22 287 10 1
9 9 22 289 14 1
-9 9 22 334 14 1
-9 -9 22 306 14 1
-10 -8 -22 383 16 1
-8 10 -22 357 19 1
-10 -8 -22 376 17 1
8 -10 -22 375 18 1
8 -10 -22 346 17 1
-8 10 22 385 20 1
10 8 22 364 16 1
10 8 22 401 20 1
-10 -8 22 346 20 1
-10 -8 22 360 19 1
-6 10 -22 1539 68 1
-10 -6 -22 1581 66 1
6 -10 -22 1595 66 1
-10 -6 -22 1596 66 1
-10 -6 22 1745 74 1
-10 -6 22 1650 75 1
10 6 22 1731 76 1
-6 10 22 1696 74 1
10 6 22 1708 66 1
-10 -4 -22 32 6 1
4 -10 -22 22 6 1
-10 -4 -22 31 5 1
-4 10 22 33 7 1
-4 10 22 21 8 1
-10 -4 22 22 7 1
10 4 22 36 5 1
10 4 22 31 8 1
-10 -4 22 32 8 1
-10 -2 -22 460 15 1
-10 -2 -22 500 15 1
10 2 22 498 18 1
10 2 22 508 17 1
-2 10 22 498 18 1
-2 10 22 457 18 1
-10 -2 22 460 18 1
-10 -2 22 474 18 1
-2 10 22 499 14 1
2 -10 22 496 18 1
10 2 22 445 15 1
-10 0 -22 46 5 1
-10 0 -22 52 5 1
0 -10 -22 38 5 1
-10 0 22 58 7 1
0 10 22 45 4 1
0 -10 22 33 7 1
10 0 22 54 7 1
0 10 22 48 6 1
10 0 22 41 7 1
10 0 22 54 4 1
-2 -10 -22 581 14 1
-2 -10 -22 557 14 1
-10 2 -22 561 15 1
-10 2 -22 557 15 1
-2 -10 22 519 17 1
10 -2 22 540 16 1
-10 2 22 513 17 1
-2 -10 22 520 16 1
-10 2 22 498 17 1
10 -2 22 564 14 1
2 10 22 593 17 1
2 10 22 582 14 1
-4 -10 -22 397 18 1
-10 4 -22 368 19 1
-10 4 -22 392 19 1
-4 -10 -22 385 18 1
-10 4 22 404 21 1
4 10 22 387 18 1
4 10 22 366 21 1
-4 -10 22 379 22 1
4 10 22 411 22 1
10 -4 22 390 17 1
-6 -10 -22 671 32 1
-6 -10 -22 677 33 1
-10 6 -22 704 33 1
-10 6 22 640 38 1
6 10 22 726 38 1
-6 -10 22 642 37 1
6 10 22 673 37 1
10 -6 22 697 31 1
6 10 22 641 32 1
-8 -10 -22 2115 74 1
-8 -10 -22 1951 73 1
-10 8 -22 2008 74 1
-10 8 22 1944 84 1
8 10 22 2006 73 1
10 -10 -22 2 4 1
-10 -10 -22 4 2 1
-10 -10 -22 4 2 1
-10 10 -22 3 3 1
-10 10 22 3 4 1
10 10 22 4 2 1
-10 10 22 7 2 1
-11 -9 -22 50 6 1
-9 11 -22 40 9 1
9 -11 -22 37 7 1
9 -11 -22 48 9 1
-11 -9 -22 56 5 1
-9 11 22 56 8 1
11 9 22 55 6 1
-9 11 22 62 8 1
-11 -7 -22 654 27 1
7 -11 -22 701 28 1
7 -11 -22 670 27 1
-7 11 -22 587 29 1
-11 -7 -22 642 27 1
-11 -7 22 616 31 1
-7 11 22 652 31 1
-11 -7 22 624 31 1
11 7 22 692 27 1
5 -11 -22 30 7 1
-11 -5 -22 32 5 1
5 -11 -22 35 6 1
-5 11 -22 24 8 1
-11 -5 -22 40 6 1
-11 -5 22 40 8 1
-5 11 22 40 8 1
11 5 22 31 5 1
-11 -5 22 32 9 1
-5 11 22 48 8 1
3 -11 -22 48 6 1
-11 -3 -22 34 5 1
3 -11 -22 37 6 1
-11 -3 -22 31 6 1
-11 -3 22 40 7 1
-11 -3 22 36 8 1
-3 11 22 56 7 1
-3 11 22 47 8 1
11 3 22 41 5 1
-11 -1 -22 1216 57 1
1 -11 -22 1324 57 1
-11 -1 -22 1205 57 1
1 -11 -22 1341 57 1
-11 -1 -22 1285 64 1
-11 -1 22 1313 65 1
11 1 22 1282 63 1
11 1 22 1161 57 1
-1 11 22 1256 56 1
-11 1 -22 21 4 1
-11 1 -22 20 3 1
-1 -11 -22 19 2 1
-1 -11 -22 17 2 1
1 11 22 26 3 1
11 -1 22 35 7 1
11 -1 22 31 4 1
-11 1 22 20 3 1
-1 -11 22 21 4 1
1 11 22 22 3 1
1 11 22 24 3 1
-3 -11 -22 1194 46 1
-11 3 -22 1100 47 1
-11 3 -22 1135 47 1
11 -3 22 1191 45 1
3 11 22 1109 46 1
-3 -11 22 1116 47 1
-3 -11 22 1108 53 1
3 11 22 1191 52 1
-11 5 -22 69 6 1
-5 -11 -22 33 6 1
-5 -11 -22 33 5 1
-11 5 -22 61 7 1
-11 5 22 77 8 1
-11 5 22 75 8 1
5 11 22 37 5 1
11 -5 22 69 5 1
5 11 22 34 7 1
-5 -11 22 46 11 1
-11 7 -22 369 15 1
-7 -11 -22 351 14 1
-7 -11 -22 352 14 1
-11 7 22 346 17 1
11 -7 22 382 13 1
7 11 22 337 18 1
7 11 22 346 14 1
-9 -11 -22 69 2 1
-11 9 -22 66 3 1
-9 -11 -22 75 2 1
-11 9 22 76 4 1
9 11 22 56 3 1
-11 9 22 72 3 1
9 11 22 56 2 1
-11 11 -22 12 9 1
-11 -11 -22 9 6 1
11 -11 -22 24 11 1
-11 -11 -22 10 5 1
-11 11 22 20 9 1
-11 11 22 21 8 1
11 11 22 7 6 1
-12 -10 -22 141 7 1
-12 -10 -22 154 9 1
10 -12 -22 158 11 1
-10 12 -22 131 11 1
-10 12 22 154 11 1
12 10 22 140 8 1
-10 12 22 164 12 1
-12 -8 -22 221 10 1
8 -12 -22 260 10 1
8 -12 -22 229 11 1
-12 -8 -22 229 9 1
-8 12 -22 211 13 1
-8 12 22 229 13 1
-8 12 22 268 12 1
12 8 22 236 10 1
-12 -8 22 251 13 1
-12 -6 -22 38 6 1
6 -12 -22 33 6 1
-6 12 -22 34 6 1
6 -12 -22 26 6 1
-12 -6 22 35 9 1
-6 12 22 40 7 1
-12 -6 22 28 8 1
-6 12 22 47 7 1
12 6 22 26 5 1
4 -12 -22 1060 47 1
4 -12 -22 1058 46 1
-12 -4 -22 1045 47 1
-12 -4 -22 996 46 1
12 4 22 1002 46 1
-12 -4 22 1002 52 1
-4 12 22 1095 53 1
2 -12 -22 1030 45 1
-12 -2 -22 1049 45 1
-12 -2 -22 1031 45 1
-12 -2 -22 1091 50 1
-2 12 22 1066 44 1
12 2 22 1075 45 1
-2 12 22 1046 51 1
-12 -2 22 976 50 1
-12 -2 22 1065 51 1
-2 12 22 1053 51 1
-12 0 -22 12 2 1
-12 0 -22 23 3 1
0 -12 -22 18 2 1
-12 0 -22 23 2 1
0 -12 -22 18 2 1
-12 0 22 20 3 1
0 12 22 18 3 1
12 0 22 10 2 1
0 12 22 18 2 1
12 0 22 23 4 1
0 12 22 10 2 1
-2 -12 -22 1 5 1
-12 2 -22 5 5 1
-12 2 -22 0 5 1
-2 -12 -22 3 4 1
-12 2 -22 3 3 1
2 12 22 5 4 1
-12 2 22 0 7 1
2 12 22 3 6 1
12 -2 22 1 4 1
2 12 22 3 4 1
-2 -12 22 1 3 1
-12 2 22 1 6 1
-4 -12 -22 85 7 1
-4 -12 -22 76 7 1
-12 4 -22 82 8 1
-12 4 -22 77 7 1
-12 4 22 72 9 1
4 12 22 103 10 1
4 12 22 69 11 1
-12 4 22 83 9 1
4 12 22 88 7 1
-6 -12 -22 395 16 1
-6 -12 -22 420 16 1
-12 6 -22 404 17 1
-12 6 -22 383 17 1
-12 6 22 378 19 1
6 12 22 410 20 1
-12 6 22 425 19 1
12 -6 22 412 15 1
6 12 22 378 18 1
6 12 22 440 16 1
-8 -12 -22 0 3 1
-8 -12 -22 6 2 1
-12 8 -22 0 3 1
8 12 22 0 2 1
-12 8 22 2 3 1
8 12 22 0 3 1
-12 8 22 5 3 1
-10 -12 -22 38 6 1
-10 -12 -22 34 5 1
-12 10 -22 53 8 1
-12 10 22 46 8 1
10 12 22 43 8 1
10 12 22 31 5 1
-12 10 22 58 9 1
-12 -12 -22 227 11 1
-12 12 -22 214 14 1
-12 -12 -22 216 12 1
12 12 22 218 12 1
-12 12 22 236 14 1
-11 13 -22 69 11 1
-13 -11 -22 59 6 1
11 -13 -22 56 11 1
-13 -11 -22 72 7 1
-11 13 22 59 9 1
-11 13 22 52 12 1
13 11 22 65 7 1
-9 13 -22 179 14 1
-13 -9 -22 170 10 1
9 -13 -22 163 12 1
-9 13 22 172 14 1
-9 13 22 138 12 1
-13 -7 -22 89 8 1
-7 13 -22 94 15 1
7 -13 -22 88 9 1
-13 -7 -22 101 9 1
-7 13 22 80 10 1
-7 13 22 112 12 1
13 7 22 90 8 1
-13 -7 22 97 12 1
-13 -5 -22 48 2 1
-13 -5 -22 27 3 1
5 -13 -22 74 3 1
5 -13 -22 60 2 1
-13 -5 22 49 4 1
5 -13 22 52 2 1
-5 13 22 100 3 1
-13 -5 22 64 3 1
-5 13 22 55 3 1
13 5 22 63 2 1
3 -13 -22 316 15 1
-13 -3 -22 290 17 1
-13 -3 -22 296 14 1
3 -13 -22 305 14 1
-13 -3 -22 301 15 1
13 3 22 309 14 1
-13 -3 22 283 17 1
-3 13 22 316 13 1
-3 13 22 329 17 1
3 -13 22 281 15 1
-13 -1 -22 418 19 1
1 -13 -22 380 19 1
1 -13 -22 402 19 1
-13 -1 -22 434 22 1
-13 -1 -22 415 19 1
-1 13 22 426 18 1
-1 13 22 379 22 1
13 1 22 418 19 1
1 -13 22 406 20 1
-13 -1 22 416 22 1
-13 1 -22 10 4 1
-1 -13 -22 8 2 1
-1 -13 -22 8 2 1
-13 1 -22 11 3 1
-13 1 -22 6 2 1
-13 1 22 8 3 1
13 -1 22 14 4 1
1 13 22 12 2 1
13 -1 22 4 5 1
-1 -13 22 9 3 1
1 13 22 10 4 1
-13 3 -22 1198 42 1
-3 -13 -22 1257 42 1
-13 3 -22 1188 47 1
-13 3 -22 1225 42 1
-3 -13 -22 1243 41 1
3 13 22 1370 41 1
13 -3 22 1156 41 1
-3 -13 22 1173 42 1
3 13 22 1359 47 1
-13 5 -22 332 15 1
-5 -13 -22 361 14 1
-13 5 -22 344 15 1
-5 -13 -22 354 14 1
13 -5 22 369 13 1
-13 5 22 322 17 1
5 13 22 393 19 1
5 13 22 373 17 1
5 13 22 359 14 1
-13 5 22 320 17 1
-13 7 -22 145 8 1
-7 -13 -22 145 7 1
-7 -13 -22 139 6 1
-13 7 -22 141 8 1
7 13 22 151 7 1
13 -7 22 135 6 1
-13 7 22 122 9 1
7 13 22 139 9 1
-13 7 22 108 9 1
-9 -13 -22 48 7 1
-9 -13 -22 44 8 1
-13 9 -22 60 9 1
-13 9 22 48 11 1
-13 9 22 46 10 1
9 13 22 58 10 1
-13 11 -22 131 10 1
-11 -13 -22 127 9 1
-11 -13 -22 108 8 1
-13 11 22 125 13 1
11 13 22 103 8 1
11 13 22 115 11 1
-13 11 22 125 11 1
-13 13 -22 357 18 1
-13 -13 -22 333 14 1
13 -13 22 390 16 1
-13 13 22 382 21 1
13 13 22 366 15 1
-13 13 22 368 18 1
-14 -12 -22 285 14 1
-12 14 -22 315 17 1
12 -14 -22 275 18 1
-12 14 22 312 17 1
14 12 22 285 14 1
12 -14 22 311 15 1
-12 14 22 309 21 1
-10 14 -22 87 13 1
10 -14 -22 106 11 1
-14 -10 -22 93 8 1
-14 -10 -22 72 7 1
-10 14 22 89 9 1
14 10 22 82 8 1
-10 14 22 120 14 1
10 -14 22 73 8 1
-8 14 -22 579 34 1
-14 -8 -22 587 29 1
-8 14 22 584 34 1
8 -14 22 561 30 1
-14 -6 -22 679 25 1
-14 -6 -22 697 29 1
6 -14 -22 701 25 1
-14 -6 -22 665 24 1
6 -14 -22 703 25 1
-6 14 22 648 29 1
14 6 22 693 25 1
-14 -6 22 643 29 1
-14 -6 22 672 29 1
-6 14 22 689 29 1
6 -14 22 657 25 1
-14 -4 -22 600 24 1
-14 -4 -22 625 27 1
-14 -4 -22 643 24 1
4 -14 -22 644 24 1
4 -14 -22 611 24 1
-4 14 22 639 28 1
4 -14 22 611 24 1
-14 -4 22 601 28 1
-4 14 22 627 28 1
14 4 22 652 24 1
-14 -2 -22 199 14 1
-14 -2 -22 196 14 1
-14 -2 -22 179 16 1
2 -14 -22 193 14 1
2 -14 -22 185 14 1
-2 14 22 208 17 1
-14 -2 22 174 16 1
-2 14 22 212 17 1
2 -14 22 217 15 1
-14 -2 22 203 16 1
14 2 22 180 14 1
-2 14 22 191 13 1
-14 0 -22 25 8 1
0 -14 -22 18 5 1
-14 0 -22 27 6 1
0 -14 -22 19 5 1
-14 0 -22 25 5 1
-14 0 22 17 7 1
0 14 22 33 7 1
0 -14 22 14 7 1
14 0 22 34 5 1
-14 0 22 16 7 1
0 14 22 27 4 1
-14 2 -22 124 7 1
-2 -14 -22 173 7 1
-14 2 -22 133 11 1
-14 2 -22 121 7 1
-2 -14 -22 150 7 1
-14 2 22 146 9 1
2 14 22 153 11 1
2 14 22 146 6 1
14 -2 22 127 6 1
2 14 22 166 9 1
-14 4 -22 200 12 1
-4 -14 -22 180 12 1
-14 4 -22 175 12 1
-4 -14 -22 194 11 1
4 14 22 204 16 1
-4 -14 22 196 14 1
-14 4 22 184 14 1
-14 4 22 171 14 1
4 14 22 194 11 1
-14 6 -22 1030 45 1
-6 -14 -22 968 43 1
-6 -14 -22 960 44 1
-14 6 -22 971 44 1
6 14 22 1045 44 1
14 -6 22 963 43 1
-14 6 22 1035 51 1
-14 8 -22 65 7 1
-8 -14 -22 53 6 1
-14 8 22 73 8 1
8 14 22 77 8 1
-14 8 22 81 9 1
-10 -14 -22 0 2 1
-14 10 -22 5 3 1
10 14 22 0 4 1
-14 10 22 3 5 1
10 14 22 0 2 1
-14 10 22 2 2 1
-12 -14 -22 183 13 1
-14 12 -22 158 14 1
-12 -14 -22 148 11 1
12 14 22 142 15 1
-14 12 22 178 15 1
-14 12 22 135 18 1
12 14 22 171 12 1
-14 -14 -22 47 7 1
-14 14 -22 50 10 1
14 14 22 45 7 1
14 -14 22 55 6 1
13 -15 -22 222 17 1
-13 15 -22 212 16 1
-15 -13 -22 217 13 1
13 -15 22 245 12 1
15 13 22 245 13 1
-13 15 22 208 13 1
11 -15 -22 294 17 1
-11 15 -22 312 18 1
-11 15 22 310 17 1
15 11 22 347 15 1
11 -15 22 348 15 1
9 -15 -22 1251 54 1
-15 -9 -22 1294 53 1
-9 15 -22 1151 55 1
-15 -9 -22 1307 52 1
15 9 22 1368 53 1
9 -15 22 1251 54 1
-15 -7 -22 447 19 1
7 -15 -22 429 17 1
-15 -7 -22 457 16 1
-15 -7 -22 438 17 1
15 7 22 437 16 1
7 -15 22 472 17 1
-7 15 22 418 19 1
-7 15 22 447 21 1
-15 -5 -22 6 7 1
-15 -5 -22 4 6 1
5 -15 -22 12 6 1
5 -15 -22 10 6 1
-15 -5 -22 7 5 1
-15 -5 22 8 9 1
-5 15 22 7 9 1
-5 15 22 14 8 1
-15 -5 22 9 9 1
5 -15 22 8 6 1
3 -15 -22 194 11 1
-15 -3 -22 205 13 1
-15 -3 -22 203 11 1
3 -15 -22 203 11 1
-15 -3 -22 219 12 1
3 -15 22 208 12 1
-3 15 22 205 11 1
-15 -3 22 224 14 1
15 3 22 199 11 1
1 -15 -22 8 5 1
1 -15 -22 11 5 1
-15 -1 -22 13 8 1
-15 -1 -22 8 4 1
-15 -1 -22 7 5 1
-1 15 22 4 4 1
15 1 22 8 4 1
-15 -1 22 4 3 1
-15 -1 22 12 7 1
-1 15 22 10 4 1
-1 -15 -22 5 2 1
-15 1 -22 4 3 1
-15 1 -22 2 2 1
-1 -15 -22 9 2 1
-15 1 -22 2 3 1
15 -1 22 3 2 1
1 15 22 9 4 1
1 15 22 9 2 1
-15 1 22 5 4 1
-15 1 22 1 3 1
-1 -15 22 0 2 1
1 15 22 5 3 1
-3 -15 -22 79 6 1
-3 -15 -22 69 6 1
-15 3 -22 66 7 1
-15 3 -22 70 7 1
-15 3 -22 65 10 1
3 15 22 72 6 1
-15 3 22 73 9 1
3 15 22 76 9 1
-3 -15 22 51 9 1
-15 3 22 74 9 1
15 -3 22 77 6 1
-5 -15 -22 276 13 1
-15 5 -22 269 14 1
-15 5 -22 239 14 1
-15 5 22 231 16 1
15 -5 22 245 13 1
-15 5 22 257 16 1
-15 7 -22 1866 70 1
-7 -15 -22 1787 68 1
-7 -15 -22 1740 69 1
-15 7 -22 1812 70 1
7 15 22 1770 78 1
15 -7 22 1947 68 1
-15 7 22 1749 79 1
7 15 22 1925 69 1
-15 7 22 1749 78 1
-15 9 -22 32 7 1
-9 -15 -22 35 5 1
-9 -15 -22 35 5 1
-15 9 -22 34 7 1
9 15 22 45 6 1
-15 9 22 35 7 1
-15 11 -22 131 9 1
-11 -15 -22 121 7 1
-15 11 22 109 9 1
11 15 22 118 11 1
11 15 22 149 7 1
-13 -15 -22 8 3 1
-15 13 -22 0 4 1
15 -13 22 0 2 1
13 15 22 2 3 1
-15 -15 -22 99 10 1
-15 15 22 112 8 1
-16 -14 -22 23 11 1
-14 16 22 20 5 1
12 -16 -22 93 12 1
-16 -12 -22 99 6 1
-16 -12 -22 97 9 1
12 -16 22 115 7 1
-12 16 22 109 6 1
16 12 22 103 8 1
10 -16 -22 29 9 1
-10 16 -22 67 14 1
-16 -10 -22 40 8 1
-16 -10 -22 54 8 1
16 10 22 41 7 1
10 -16 22 41 6 1
-16 -8 -22 85 6 1
-16 -8 -22 102 7 1
-16 -8 -22 91 7 1
8 -16 22 109 6 1
16 8 22 109 6 1
-8 16 22 105 8 1
-16 -6 -22 414 17 1
6 -16 -22 432 16 1
6 -16 -22 438 17 1
-16 -6 -22 398 19 1
-16 -6 -22 426 15 1
-6 16 22 464 19 1
16 6 22 414 16 1
-16 -6 22 415 20 1
-6 16 22 414 21 1
6 -16 22 415 16 1
4 -16 -22 21 6 1
-16 -4 -22 13 6 1
4 -16 -22 21 6 1
4 -16 22 21 6 1
16 4 22 10 5 1
-4 16 22 22 10 1
-4 16 22 16 8 1
-16 -4 22 18 9 1
2 -16 -22 70 7 1
-16 -2 -22 90 10 1
-16 -2 -22 81 8 1
-2 16 22 75 11 1
2 -16 22 98 8 1
-2 16 22 88 11 1
16 2 22 82 8 1
-16 -2 22 70 10 1
-16 0 -22 1 3 1
-16 0 -22 3 3 1
0 -16 -22 1 2 1
0 16 22 1 4 1
0 -16 22 2 2 1
-16 0 22 1 3 1
0 16 22 3 4 1
-16 2 -22 17 3 1
-2 -16 -22 16 2 1
-16 2 -22 20 3 1
2 16 22 16 4 1
-16 2 22 15 3 1
-16 2 22 18 4 1
-2 -16 22 11 2 1
-16 4 -22 16 10 1
-16 4 -22 30 7 1
-16 4 -22 26 6 1
-4 -16 -22 29 6 1
-4 -16 -22 33 5 1
-4 -16 22 17 9 1
4 16 22 25 5 1
-16 4 22 22 8 1
16 -4 22 26 5 1
4 16 22 32 9 1
-16 4 22 26 9 1
-6 -16 -22 70 7 1
-16 6 -22 90 7 1
-16 6 -22 98 8 1
-6 -16 -22 74 6 1
-16 6 22 71 10 1
-16 6 22 84 9 1
6 16 22 81 6 1
16 -6 22 87 7 1
6 16 22 82 10 1
-16 8 -22 261 16 1
-16 8 -22 244 15 1
-8 -16 -22 214 13 1
-8 -16 -22 236 14 1
-16 8 22 252 17 1
16 -8 22 259 14 1
8 16 22 228 14 1
-16 8 22 262 19 1
8 16 22 242 18 1
-16 10 -22 104 10 1
-10 -16 -22 102 8 1
-16 10 -22 122 10 1
-10 -16 -22 108 9 1
10 16 22 98 8 1
-16 10 22 102 10 1
-12 -16 -22 639 26 1
-16 12 -22 629 27 1
-16 12 -22 671 27 1
16 -12 22 673 26 1
-16 12 22 622 29 1
12 16 22 607 26 1
16 -14 22 249 11 1
-16 14 22 253 13 1
-16 -16 -22 12 2 1
16 -16 22 2 1 1
-16 16 22 2 2 1
-17 -15 -22 115 7 1
-15 17 22 111 7 1
15 -17 22 107 6 1
-17 -11 -22 298 17 1
11 -17 -22 304 18 1
-17 -11 -22 332 18 1
-11 17 -22 282 21 1
17 11 22 297 16 1
11 -17 22 340 16 1
-11 17 22 315 18 1
-9 17 -22 2 8 1
-17 -9 -22 4 4 1
-9 17 22 14 5 1
9 -17 22 12 5 1
-17 -7 -22 10 3 1
-17 -7 -22 10 3 1
7 -17 -22 8 3 1
7 -17 22 9 2 1
-7 17 22 11 7 1
-7 17 22 11 3 1
17 7 22 14 3 1
-17 -5 -22 903 38 1
5 -17 -22 898 34 1
5 -17 -22 923 34 1
-17 -5 -22 847 34 1
-17 -5 -22 878 33 1
17 5 22 850 34 1
5 -17 22 880 34 1
-5 17 22 962 39 1
-5 17 22 877 40 1
-17 -3 -22 1699 66 1
3 -17 -22 1636 66 1
3 -17 -22 1649 66 1
-17 -3 -22 1665 74 1
-17 -3 -22 1711 65 1
3 -17 22 1664 67 1
-17 -3 22 1694 74 1
-3 17 22 1722 75 1
17 3 22 1782 66 1
-17 -3 22 1645 75 1
-3 17 22 1743 65 1
-17 -1 -22 91 8 1
1 -17 -22 90 7 1
1 -17 -22 107 7 1
-17 -1 -22 97 6 1
-17 -1 -22 91 9 1
-1 17 22 101 7 1
-17 -1 22 107 9 1
-1 17 22 106 12 1
1 -17 22 97 8 1
-17 -1 22 78 10 1
17 1 22 99 7 1
-17 1 -22 21 2 1
-17 1 -22 28 3 1
-1 -17 -22 33 5 1
-17 1 -22 34 3 1
-1 -17 -22 21 2 1
-1 -17 22 23 2 1
1 17 22 28 5 1
17 -1 22 37 5 1
-17 1 22 17 3 1
1 17 22 15 2 1
-17 1 22 16 4 1
-17 3 -22 38 7 1
-17 3 -22 37 6 1
-3 -17 -22 41 5 1
-3 -17 -22 35 6 1
-17 3 -22 29 9 1
-17 3 22 35 9 1
3 17 22 43 9 1
17 -3 22 30 6 1
-3 -17 22 26 7 1
-17 3 22 37 7 1
3 17 22 30 5 1
-5 -17 -22 151 7 1
-17 5 -22 139 9 1
-17 5 -22 135 8 1
-17 5 -22 126 12 1
-5 -17 -22 150 8 1
17 -5 22 141 8 1
5 17 22 164 8 1
-17 5 22 142 12 1
5 17 22 171 12 1
-17 7 -22 912 36 1
-17 7 -22 870 35 1
-7 -17 -22 863 33 1
-7 -17 -22 863 34 1
17 -7 22 880 33 1
-17 7 22 825 39 1
7 17 22 831 34 1
7 17 22 856 39 1
-9 -17 -22 202 9 1
-17 9 -22 169 10 1
-9 -17 -22 179 9 1
-17 9 -22 192 11 1
9 17 22 194 9 1
-11 -17 -22 502 23 1
-17 11 -22 549 23 1
-17 11 -22 539 24 1
11 17 22 537 23 1
-17 11 22 596 26 1
17 -11 22 593 23 1
-13 -17 -22 10 4 1
-17 13 -22 9 5 1
-17 13 22 14 5 1
-17 15 -22 38 11 1
-17 15 22 52 5 1
17 -15 22 44 5 1
-18 -14 -22 456 22 1
14 -18 22 438 20 1
-14 18 22 466 22 1
-18 -12 -22 408 21 1
12 -18 22 459 19 1
-12 18 22 445 21 1
-18 -10 -22 587 25 1
-18 -10 -22 547 26 1
10 -18 -22 579 24 1
10 -18 22 635 23 1
-10 18 22 639 26 1
18 10 22 556 24 1
-18 -8 -22 22 5 1
-18 -8 -22 22 2 1
-8 18 22 32 5 1
18 8 22 39 6 1
8 -18 22 12 2 1
-18 -6 -22 35 9 1
6 -18 -22 25 6 1
-6 18 22 20 6 1
6 -18 22 16 5 1
-18 -4 -22 63 8 1
4 -18 -22 67 6 1
-18 -4 -22 52 7 1
18 4 22 42 6 1
-4 18 22 71 16 1
4 -18 22 66 6 1
2 -18 -22 95 7 1
-18 -2 -22 74 8 1
2 -18 -22 84 7 1
-18 -2 -22 84 7 1
-18 -2 -22 78 9 1
-2 18 22 65 13 1
18 2 22 68 7 1
-18 -2 22 79 9 1
2 -18 22 87 7 1
-2 18 22 97 12 1
-2 18 22 84 7 1
-18 0 -22 797 35 1
-18 0 -22 762 38 1
-18 0 -22 742 34 1
0 -18 -22 756 34 1
0 -18 -22 764 34 1
0 -18 22 742 34 1
0 18 22 756 34 1
-18 0 22 748 39 1
18 0 22 702 34 1
0 18 22 736 40 1
-18 2 -22 0 3 1
-18 2 -22 0 2 1
-2 -18 -22 0 2 1
-18 2 -22 0 4 1
-2 -18 -22 0 2 1
2 18 22 1 2 1
-2 -18 22 0 2 1
18 -2 22 0 3 1
-18 2 22 1 3 1
2 18 22 0 5 1
-18 2 22 1 5 1
-18 4 -22 115 8 1
-4 -18 -22 114 8 1
-4 -18 -22 113 8 1
18 -4 22 116 8 1
4 18 22 111 8 1
-18 4 22 121 10 1
-18 4 22 130 13 1
-4 -18 22 123 10 1
-6 -18 -22 2 3 1
-6 -18 -22 1 2 1
-18 6 -22 11 3 1
-18 6 -22 3 4 1
6 18 22 3 2 1
18 -6 22 1 3 1
-18 8 -22 451 17 1
-8 -18 -22 432 17 1
-8 -18 -22 425 16 1
-18 8 -22 468 18 1
-18 8 22 459 19 1
18 -8 22 430 17 1
8 18 22 466 17 1
-18 10 -22 602 25 1
-18 10 -22 610 25 1
-10 -18 -22 601 24 1
-18 10 22 616 27 1
10 18 22 608 24 1
-12 -18 -22 102 8 1
-18 12 -22 86 10 1
-18 12 22 76 6 1
18 -12 22 100 5 1
-19 -13 -22 0 2 1
13 -19 22 2 1 1
-19 -11 -22 22 5 1
-11 19 22 32 5 1
-19 -9 -22 58 6 1
-9 19 22 67 6 1
7 -19 -22 0 3 1
7 -19 22 1 5 1
5 -19 -22 14 3 1
-19 -5 -22 11 2 1
-19 -5 -22 20 5 1
5 -19 22 14 2 1
19 5 22 10 3 1
-19 -3 -22 28 6 1
3 -19 -22 29 6 1
-19 -3 -22 22 9 1
-19 -3 -22 21 7 1
3 -19 22 39 6 1
19 3 22 29 7 1
-19 -3 22 28 7 1
-19 -1 -22 246 13 1
1 -19 -22 232 10 1
-19 -1 -22 229 11 1
1 -19 -22 235 11 1
-19 -1 22 227 12 1
1 -19 22 254 11 1
-1 19 22 226 11 1
19 1 22 219 11 1
-19 1 -22 171 12 1
-19 1 -22 164 9 1
-1 -19 -22 167 9 1
-19 1 -22 164 10 1
-1 -19 -22 143 9 1
-1 -19 22 148 10 1
19 -1 22 163 10 1
-19 1 22 155 10 1
-19 3 -22 21 5 1
-19 3 -22 26 6 1
-3 -19 -22 25 5 1
-19 3 -22 29 6 1
-3 -19 22 21 3 1
-19 3 22 20 5 1
19 -3 22 18 6 1
-19 5 -22 677 31 1
-19 5 -22 619 29 1
-5 -19 -22 638 30 1
-5 -19 -22 588 29 1
-19 5 22 609 33 1
19 -5 22 628 29 1
5 19 22 580 29 1
-19 7 -22 121 11 1
-7 -19 -22 118 8 1
-19 7 -22 116 9 1
19 -7 22 125 9 1
7 19 22 107 8 1
-19 7 22 123 9 1
-19 9 -22 8 5 1
-9 -19 -22 2 3 1
-19 9 22 0 2 1
-11 -19 -22 72 8 1
-19 11 -22 84 11 1
19 -11 22 85 6 1
-19 11 22 97 7 1
19 -13 22 420 17 1
-19 13 22 450 20 1
-20 -12 -22 166 10 1
-12 20 22 156 9 1
12 -20 22 179 8 1
-20 -10 -22 0 2 1
-10 20 22 2 2 1
10 -20 22 0 1 1
-20 -8 -22 59 6 1
-8 20 22 63 7 1
8 -20 22 60 5 1
6 -20 -22 3 3 1
-6 20 22 14 3 1
20 6 22 3 3 1
4 -20 -22 856 30 1
-20 -4 -22 916 33 1
20 4 22 824 30 1
4 -20 22 891 30 1
-20 -2 -22 322 18 1
2 -20 -22 290 14 1
-20 -2 22 311 15 1
-2 20 22 303 15 1
2 -20 22 339 14 1
20 2 22 288 14 1
-20 0 -22 366 19 1
0 -20 -22 370 16 1
-20 0 -22 393 18 1
-20 0 -22 382 17 1
0 -20 -22 392 17 1
-20 0 22 387 19 1
0 20 22 358 17 1
20 0 22 369 17 1
0 -20 22 379 17 1
-2 -20 -22 89 7 1
-2 -20 -22 111 7 1
-20 2 -22 91 8 1
-20 2 -22 110 11 1
-20 2 22 81 7 1
20 -2 22 96 8 1
-4 -20 -22 317 15 1
-20 4 -22 276 15 1
-20 4 -22 308 18 1
-20 4 22 275 16 1
20 -4 22 310 16 1
-4 -20 22 287 15 1
4 20 22 283 15 1
-6 -20 -22 1 3 1
-20 6 22 1 2 1
-8 -20 -22 114 8 1
-20 8 -22 112 13 1
-20 8 22 116 7 1
-20 10 22 624 28 1
20 -10 22 650 25 1
20 -12 22 12 4 1
-21 -9 -22 60 5 1
9 -21 22 60 4 1
-21 -7 -22 24 5 1
7 -21 22 41 4 1
-21 -5 -22 501 26 1
5 -21 22 527 23 1
-21 -3 -22 353 18 1
3 -21 22 378 16 1
-21 -1 -22 645 29 1
1 -21 22 655 27 1
-21 -1 22 642 30 1
-21 1 -22 84 6 1
-21 1 22 85 6 1
-1 -21 22 101 5 1
-3 -21 -22 242 12 1
-21 3 22 218 12 1
-3 -21 22 224 11 1
-5 -21 -22 63 7 1
-21 5 -22 58 7 1
-21 5 22 42 5 1
-7 -21 -22 3 3 1
-21 7 22 4 2 1
-21 9 22 179 11 1
21 -9 22 201 10 1
-22 -8 -22 63 6 1
8 -22 22 55 5 1
-22 -6 -22 46 5 1
6 -22 22 33 4 1
-22 -4 -22 49 5 1
4 -22 22 35 4 1
-22 -2 -22 23 5 1
2 -22 22 16 4 1
-22 0 -22 611 28 1
0 -22 22 614 26 1
-22 0 22 590 29 1
-22 2 -22 20 5 1
-22 2 22 5 2 1
-22 4 -22 43 6 1
-22 4 22 42 5 1
-4 -22 22 31 6 1
-22 6 22 37 5 1
22 -8 22 2 1 1
-22 8 22 12 2 1
-23 -5 -22 69 5 1
5 -23 22 70 4 1
-23 -3 -22 14 4 1
1 -23 22 193 9 1
-23 1 -22 228 9 1
-23 1 22 188 10 1
-1 -23 22 198 8 1
-23 3 -22 728 36 1
-3 -23 22 722 33 1
-23 3 22 717 37 1
23 -5 22 38 5 1
-23 5 22 43 5 1
-1 0 -23 4 5 1
1 0 -23 4 6 1
-1 0 -23 6 5 1
0 1 -23 12 6 1
1 0 -23 10 4 1
0 -1 23 14 7 1
1 0 23 6 6 1
0 -1 23 7 6 1
-1 0 23 8 6 1
0 1 23 9 6 1
1 0 23 12 7 1
-1 2 -23 1330 65 1
-1 2 -23 1396 66 1
-2 -1 -23 1457 65 1
-2 -1 23 1480 74 1
1 -2 23 1286 74 1
1 -2 23 1399 72 1
-2 -1 23 1323 72 1
-2 1 -23 534 22 1
1 2 -23 577 21 1
-1 -2 -23 551 22 1
2 -1 -23 520 22 1
-2 1 -23 500 22 1
-1 -2 23 548 25 1
-1 -2 23 526 24 1
1 2 23 540 24 1
2 -1 23 504 24 1
2 -1 23 488 25 1
-2 1 23 505 25 1
-2 3 -23 416 20 1
3 2 -23 411 19 1
2 -3 -23 418 20 1
-2 3 -23 390 20 1
-3 -2 -23 401 20 1
-3 -2 -23 404 19 1
-3 -2 23 397 23 1
2 -3 23 395 21 1
3 2 23 395 23 1
-3 -2 23 420 22 1
-2 3 23 391 23 1
2 -3 23 379 22 1
3 2 23 375 21 1
-3 0 -23 187 8 1
-3 0 -23 193 8 1
3 0 -23 179 7 1
0 -3 -23 187 7 1
0 3 23 177 8 1
0 -3 23 178 9 1
-3 0 23 165 9 1
0 -3 23 182 9 1
3 0 23 184 9 1
0 3 23 191 10 1
3 0 23 181 8 1
-2 -3 -23 82 2 1
-3 2 -23 75 2 1
-2 -3 -23 78 2 1
-2 -3 23 68 2 1
2 3 23 81 2 1
-3 2 23 47 2 1
-3 2 23 69 2 1
3 -2 23 88 3 1
-2 -3 23 59 3 1
2 3 23 74 3 1
3 -2 23 78 3 1
-4 -3 -23 1251 46 1
-3 4 -23 1225 47 1
3 -4 -23 1132 46 1
4 3 -23 1239 46 1
-4 -3 -23 1201 46 1
3 -4 -23 1243 47 1
3 -4 23 1215 51 1
4 3 23 1241 51 1
-3 4 23 1200 53 1
-4 -3 23 1258 51 1
4 3 23 1228 45 1
-4 -3 23 1153 53 1
3 -4 23 1137 53 1
-1 4 -23 1555 58 1
4 1 -23 1619 58 1
1 -4 -23 1567 58 1
1 -4 -23 1537 59 1
-4 -1 -23 1549 59 1
4 1 23 1461 64 1
-4 -1 23 1547 65 1
1 -4 23 1665 66 1
4 1 23 1476 66 1
1 -4 23 1602 64 1
-4 1 -23 49 5 1
-1 -4 -23 56 5 1
-4 1 -23 55 6 1
4 -1 -23 62 4 1
4 -1 23 47 6 1
4 -1 23 56 7 1
1 4 23 61 7 1
-1 -4 23 62 7 1
-4 1 23 50 6 1
-4 1 23 63 6 1
-1 -4 23 67 6 1
-3 -4 -23 72 5 1
3 4 -23 72 5 1
-4 3 -23 75 5 1
-3 -4 -23 64 6 1
-4 3 -23 87 7 1
-4 3 23 77 7 1
3 4 23 75 4 1
4 -3 23 75 6 1
4 -3 23 85 7 1
-4 3 23 75 6 1
-3 -4 23 88 8 1
3 4 23 69 7 1
3 4 23 73 6 1
-3 -4 23 78 7 1
-4 5 -23 895 36 1
5 4 -23 982 35 1
-4 5 -23 890 37 1
4 -5 -23 941 36 1
4 -5 23 867 39 1
-4 5 23 861 41 1
5 4 23 932 35 1
-5 -4 23 918 41 1
4 -5 23 913 41 1
-5 -2 -23 309 14 1
5 2 -23 296 13 1
2 -5 -23 294 14 1
2 -5 -23 277 13 1
-2 5 -23 278 13 1
5 2 23 300 12 1
-2 5 23 307 16 1
2 -5 23 284 15 1
2 -5 23 307 16 1
0 -5 -23 3128 101 1
0 -5 -23 3160 101 1
-5 0 -23 3064 101 1
0 5 -23 3174 101 1
-5 0 23 2923 112 1
5 0 23 3024 115 1
0 -5 23 3136 112 1
5 0 23 2954 112 1
-2 -5 -23 2239 83 1
-2 -5 -23 2048 83 1
-5 2 -23 2169 84 1
5 -2 -23 2136 83 1
-5 2 -23 2204 83 1
5 -2 23 2112 94 1
-2 -5 23 2194 94 1
-2 -5 23 2272 92 1
5 -2 23 2053 92 1
2 5 23 2234 95 1
-5 2 23 2009 92 1
-5 4 -23 168 10 1
-4 -5 -23 177 9 1
-4 -5 -23 182 9 1
4 5 -23 198 9 1
-5 4 -23 158 10 1
-4 -5 23 192 11 1
4 5 23 179 8 1
5 -4 23 185 11 1
4 5 23 187 10 1
-4 -5 23 190 11 1
5 -6 -23 393 12 1
6 5 -23 418 12 1
-5 6 -23 375 14 1
-6 -5 -23 363 13 1
-6 -5 -23 397 13 1
5 -6 -23 402 14 1
-6 -5 23 414 14 1
-6 -5 23 437 15 1
6 5 23 376 14 1
-5 6 23 388 15 1
-5 6 23 411 15 1
5 -6 23 397 15 1
6 5 23 369 15 1
3 -6 -23 596 23 1
-6 -3 -23 562 23 1
3 -6 -23 597 22 1
-6 -3 -23 530 22 1
6 3 23 573 25 1
6 3 23 556 26 1
-6 -3 23 569 25 1
-6 -3 23 582 26 1
-3 6 23 591 26 1
6 3 23 588 21 1
-1 6 -23 516 23 1
6 1 -23 541 23 1
1 -6 -23 499 23 1
-6 -1 -23 561 24 1
-6 -1 23 484 27 1
-1 6 23 499 26 1
-1 6 23 500 27 1
6 1 23 498 27 1
1 -6 23 534 25 1
1 -6 23 480 27 1
6 1 23 506 26 1
-1 -6 -23 521 24 1
1 6 -23 515 24 1
-6 1 -23 503 24 1
-1 -6 -23 540 23 1
6 -1 -23 524 23 1
6 -1 23 521 22 1
-6 1 23 481 26 1
-6 1 23 541 27 1
1 6 23 521 22 1
1 6 23 525 27 1
-1 -6 23 501 26 1
-6 3 -23 18 2 1
-6 3 -23 21 3 1
-3 -6 -23 25 2 1
-3 -6 -23 22 2 1
-6 3 23 21 2 1
3 6 23 20 2 1
6 -3 23 19 3 1
-6 3 23 28 3 1
-3 -6 23 33 3 1
3 6 23 18 3 1
-3 -6 23 27 3 1
6 -3 23 21 3 1
-6 5 -23 1218 52 1
-5 -6 -23 1162 51 1
-6 5 -23 1163 52 1
6 -5 -23 1197 51 1
5 6 -23 1210 51 1
-5 -6 -23 1204 51 1
-5 -6 23 1084 58 1
5 6 23 1119 50 1
5 6 23 1135 57 1
5 6 23 1088 58 1
6 -5 23 1215 58 1
-6 5 23 1205 58 1
-5 -6 23 1197 57 1
6 -7 -23 174 11 1
-7 -6 -23 185 12 1
-7 -6 -23 188 12 1
-6 7 -23 168 13 1
6 -7 -23 203 13 1
-7 -6 23 167 14 1
7 6 23 200 14 1
-6 7 23 198 14 1
7 6 23 190 11 1
-6 7 23 190 14 1
-7 -6 23 196 14 1
4 -7 -23 61 3 1
-4 7 -23 62 4 1
-7 -4 -23 47 2 1
4 -7 -23 50 2 1
-7 -4 23 51 3 1
7 4 23 47 3 1
-4 7 23 43 3 1
4 -7 23 44 3 1
-7 -4 23 56 3 1
7 4 23 42 3 1
-4 7 23 46 2 1
7 4 23 56 3 1
2 -7 -23 620 27 1
-7 -2 -23 587 27 1
2 -7 -23 586 27 1
-7 -2 -23 594 27 1
-7 -2 23 652 31 1
7 2 23 593 30 1
-7 -2 23 596 31 1
-2 7 23 615 31 1
7 2 23 611 26 1
0 -7 -23 29 5 1
-7 0 -23 14 5 1
-7 0 -23 22 5 1
0 -7 -23 22 4 1
7 0 -23 23 5 1
0 7 23 23 6 1
7 0 23 21 6 1
7 0 23 24 3 1
0 -7 23 37 7 1
-7 0 23 29 6 1
-7 2 -23 1 3 1
2 7 -23 1 3 1
7 -2 -23 2 2 1
-2 -7 -23 1 2 1
-2 -7 23 0 3 1
2 7 23 0 1 1
-2 -7 23 1 3 1
2 7 23 1 2 1
7 -2 23 0 3 1
2 7 23 0 3 1
7 -2 23 0 3 1
-7 2 23 0 3 1
-7 2 23 0 2 1
7 -2 23 0 1 1
-4 -7 -23 374 12 1
4 7 -23 396 13 1
-7 4 -23 389 12 1
-7 4 -23 359 13 1
-7 4 23 367 14 1
-4 -7 23 366 14 1
4 7 23 338 14 1
-7 4 23 353 14 1
-4 -7 23 364 14 1
4 7 23 374 11 1
4 7 23 348 13 1
7 -4 23 370 14 1
-6 -7 -23 680 26 1
-7 6 -23 668 27 1
7 -6 -23 675 26 1
6 7 23 667 30 1
6 7 23 675 30 1
-6 -7 23 607 30 1
-6 -7 23 657 29 1
-7 6 23 640 30 1
-7 6 23 653 30 1
7 -8 -23 3524 135 1
-7 8 -23 3449 135 1
7 -8 -23 3327 134 1
-8 -7 23 3322 149 1
-8 -7 23 3434 152 1
8 7 23 3464 134 1
8 7 23 3631 150 1
-7 8 23 3617 153 1
5 -8 -23 2559 100 1
-5 8 -23 2428 101 1
-8 -5 -23 2465 100 1
5 -8 -23 2527 100 1
-8 -5 23 2533 114 1
-5 8 23 2367 114 1
8 5 23 2452 114 1
-8 -5 23 2392 111 1
-8 -3 -23 262 11 1
3 -8 -23 270 12 1
3 -8 -23 243 11 1
-8 -3 -23 228 11 1
-3 8 23 252 13 1
-8 -3 23 255 13 1
8 3 23 261 13 1
-3 8 23 274 13 1
8 3 23 242 13 1
-8 -3 23 236 13 1
8 3 23 274 10 1
3 -8 23 241 13 1
-8 -1 -23 239 9 1
1 -8 -23 243 9 1
-8 -1 -23 247 9 1
-1 8 23 265 11 1
1 -8 23 254 11 1
8 1 23 234 8 1
-8 -1 23 236 11 1
8 1 23 220 11 1
-8 -1 23 213 11 1
8 1 23 242 11 1
-1 8 23 248 11 1
-8 1 -23 1630 64 1
-8 1 -23 1688 64 1
-1 -8 -23 1612 63 1
-1 -8 -23 1714 64 1
-1 -8 23 1775 72 1
-8 1 23 1785 72 1
-8 1 23 1639 71 1
8 -1 23 1662 62 1
1 8 23 1730 62 1
1 8 23 1661 72 1
1 8 23 1630 71 1
-8 3 -23 210 10 1
8 -3 -23 195 9 1
-8 3 -23 211 10 1
-3 -8 -23 220 9 1
-3 -8 -23 209 9 1
3 8 -23 222 10 1
-8 3 23 182 11 1
8 -3 23 202 11 1
-3 -8 23 214 11 1
3 8 23 229 8 1
8 -3 23 206 7 1
3 8 23 219 11 1
-8 3 23 193 11 1
-8 5 -23 16 5 1
8 -5 -23 20 6 1
-5 -8 -23 15 5 1
-8 5 -23 15 6 1
5 8 -23 9 4 1
5 8 23 3 4 1
-5 -8 23 21 8 1
-8 5 23 14 7 1
-8 5 23 10 4 1
5 8 23 12 6 1
-5 -8 23 6 4 1
5 8 23 7 4 1
-7 -8 -23 16 5 1
-8 7 -23 11 3 1
-7 -8 -23 6 2 1
7 8 23 7 3 1
-8 7 23 8 4 1
-7 -8 23 9 4 1
7 8 23 15 6 1
8 -9 -23 77 7 1
-8 9 -23 87 9 1
8 -9 -23 88 9 1
-9 -8 -23 84 6 1
-9 -8 -23 87 6 1
-9 -8 23 77 10 1
9 8 23 77 6 1
9 8 23 96 10 1
-9 -8 23 76 10 1
-8 9 23 75 8 1
-8 9 23 77 8 1
6 -9 -23 72 8 1
-6 9 -23 65 10 1
-9 -6 -23 91 6 1
6 -9 -23 89 6 1
-9 -6 -23 89 6 1
-9 -6 23 77 8 1
-9 -6 23 77 9 1
9 6 23 92 5 1
-6 9 23 103 8 1
9 6 23 69 9 1
9 6 23 94 7 1
4 -9 -23 1023 39 1
-9 -4 -23 1008 39 1
-9 -4 23 904 43 1
9 4 23 922 43 1
9 4 23 958 44 1
-9 -4 23 1021 44 1
2 -9 -23 438 22 1
-9 -2 -23 448 22 1
2 -9 -23 422 22 1
-9 -2 -23 408 22 1
9 2 23 426 21 1
2 -9 23 466 25 1
-2 9 23 456 26 1
-9 -2 23 442 25 1
-9 -2 23 402 25 1
9 2 23 431 26 1
9 2 23 394 24 1
-9 0 -23 204 8 1
0 -9 -23 177 7 1
0 -9 -23 187 8 1
-9 0 -23 201 8 1
9 0 23 186 6 1
0 -9 23 164 9 1
9 0 23 182 9 1
-9 0 23 188 9 1
0 9 23 197 6 1
-9 2 -23 689 25 1
-9 2 -23 693 24 1
-2 -9 -23 689 24 1
-2 -9 -23 708 24 1
2 9 23 741 28 1
-2 -9 23 705 28 1
9 -2 23 689 23 1
-9 2 23 736 28 1
2 9 23 687 23 1
9 -2 23 713 28 1
-9 2 23 766 28 1
4 9 -23 4789 192 1
-9 4 -23 4882 193 1
-4 -9 -23 5163 193 1
-4 -9 -23 4674 192 1
-9 4 -23 4757 193 1
-4 -9 23 5138 218 1
9 -4 23 4847 191 1
4 9 23 5078 218 1
4 9 23 5125 192 1
-6 -9 -23 546 20 1
-6 -9 -23 570 20 1
-9 6 -23 581 22 1
-9 6 -23 512 21 1
6 9 23 607 24 1
6 9 23 549 20 1
6 9 23 556 23 1
-6 -9 23 562 24 1
9 -8 -23 35 3 1
-8 -9 -23 22 2 1
-8 -9 -23 22 2 1
-9 8 -23 18 3 1
8 9 23 19 4 1
-9 8 23 24 2 1
-8 -9 23 17 4 1
-9 8 23 10 4 1
8 9 23 19 2 1
-9 10 -23 341 16 1
9 -10 -23 328 14 1
-10 -9 -23 309 13 1
-10 -9 -23 321 13 1
9 -10 -23 309 16 1
-9 10 23 332 16 1
-9 10 23 301 16 1
10 9 23 316 16 1
10 9 23 333 13 1
7 -10 -23 19 6 1
-10 -7 -23 17 5 1
7 -10 -23 27 8 1
-10 -7 -23 15 5 1
10 7 23 19 8 1
-7 10 23 23 7 1
-10 -7 23 17 9 1
10 7 23 14 5 1
-10 -7 23 19 9 1
5 -10 -23 507 16 1
-10 -5 -23 503 15 1
5 -10 -23 524 15 1
-10 -5 -23 492 15 1
10 5 23 491 17 1
10 5 23 459 18 1
-10 -5 23 473 17 1
-5 10 23 509 18 1
-10 -5 23 526 18 1
3 -10 -23 453 22 1
-10 -3 -23 443 23 1
-10 -3 -23 409 22 1
3 -10 -23 476 22 1
10 3 23 418 25 1
10 3 23 456 22 1
-3 10 23 490 26 1
-3 10 23 415 26 1
-10 -3 23 436 25 1
1 -10 -23 90 7 1
-10 -1 -23 115 12 1
1 -10 -23 110 8 1
-10 -1 -23 118 8 1
-10 -1 -23 99 8 1
-10 -1 23 87 9 1
1 -10 23 121 9 1
10 1 23 112 9 1
10 1 23 113 9 1
-1 10 23 105 9 1
-10 -1 23 105 9 1
10 1 23 98 6 1
-1 10 23 111 10 1
-1 10 23 114 6 1
-10 1 -23 58 5 1
-1 -10 -23 60 5 1
-1 -10 -23 68 5 1
-1 -10 23 63 8 1
10 -1 23 79 8 1
1 10 23 66 4 1
-10 1 23 56 6 1
-10 1 23 82 7 1
1 10 23 61 6 1
10 -1 23 63 4 1
-3 -10 -23 67 2 1
-3 -10 -23 92 2 1
-10 3 -23 48 2 1
-10 3 -23 83 2 1
-10 3 23 51 3 1
3 10 23 92 3 1
-3 -10 23 100 3 1
10 -3 23 47 2 1
3 10 23 74 2 1
-10 3 23 84 3 1
-3 -10 23 64 3 1
3 10 23 67 3 1
-5 -10 -23 1593 54 1
-5 -10 -23 1556 54 1
-10 5 -23 1531 55 1
-10 5 -23 1584 55 1
5 10 -23 1538 54 1
-5 -10 23 1566 62 1
-10 5 23 1560 62 1
5 10 23 1488 53 1
5 10 23 1485 61 1
10 -5 23 1645 53 1
5 10 23 1623 61 1
-7 -10 -23 548 21 1
-10 7 -23 591 22 1
-7 -10 -23 551 21 1
-7 -10 23 555 25 1
-10 7 23 607 25 1
7 10 23 551 21 1
7 10 23 574 25 1
-10 9 -23 106 8 1
-9 -10 -23 114 6 1
-9 -10 -23 123 6 1
-10 9 23 124 9 1
9 10 23 117 6 1
9 10 23 113 8 1
-10 9 23 117 9 1
-11 -10 -23 0 3 1
10 -11 -23 2 4 1
-10 11 -23 2 4 1
-11 -10 -23 0 2 1
-10 11 23 2 3 1
11 10 23 1 2 1
11 10 23 2 4 1
-10 11 23 0 4 1
8 -11 -23 2 6 1
-11 -8 -23 2 5 1
8 -11 -23 1 4 1
-11 -8 -23 1 4 1
11 8 23 0 4 1
-11 -8 23 0 5 1
-8 11 23 0 4 1
-11 -8 23 1 5 1
6 -11 -23 839 26 1
-6 11 -23 758 28 1
-11 -6 23 735 29 1
-11 -6 23 778 30 1
11 6 23 783 25 1
-6 11 23 855 30 1
4 -11 -23 32 6 1
-11 -4 -23 19 6 1
-11 -4 -23 18 5 1
4 -11 -23 32 7 1
-11 -4 23 10 8 1
-11 -4 23 20 8 1
11 4 23 27 8 1
-4 11 23 24 8 1
11 4 23 20 5 1
2 -11 -23 349 14 1
2 -11 -23 329 14 1
-11 -2 -23 348 14 1
-11 -2 -23 341 17 1
-11 -2 23 333 16 1
-2 11 23 341 17 1
11 2 23 337 16 1
-11 -2 23 335 16 1
11 2 23 342 13 1
-11 0 -23 4062 162 1
-11 0 -23 4202 179 1
0 -11 -23 4231 162 1
-11 0 -23 4389 162 1
0 -11 -23 4163 161 1
0 -11 23 4312 183 1
-11 0 23 4047 179 1
0 11 23 4504 183 1
0 11 23 4444 161 1
11 0 23 4030 179 1
-11 0 23 4522 183 1
11 0 23 4340 161 1
-2 -11 -23 288 15 1
-11 2 -23 313 15 1
-2 -11 -23 284 14 1
-11 2 -23 305 15 1
2 11 23 306 18 1
-2 -11 23 287 16 1
-2 -11 23 297 17 1
-11 2 23 269 17 1
2 11 23 301 14 1
11 -2 23 308 14 1
-11 4 -23 828 29 1
-4 -11 -23 852 29 1
-4 -11 -23 796 29 1
-11 4 -23 827 29 1
11 -4 23 879 28 1
4 11 23 864 28 1
-4 -11 23 827 33 1
-11 4 23 810 33 1
-6 -11 -23 30 2 1
-11 6 -23 32 3 1
-6 -11 -23 21 2 1
6 11 23 25 4 1
6 11 23 25 2 1
-11 6 23 20 3 1
6 11 23 25 3 1
-11 6 23 56 3 1
-8 -11 -23 29 5 1
-11 8 -23 24 8 1
-8 -11 -23 26 6 1
8 11 23 19 7 1
-11 8 23 21 8 1
8 11 23 23 11 1
-10 -11 -23 154 7 1
-10 -11 -23 151 8 1
-11 10 -23 123 10 1
10 11 23 156 8 1
-11 10 23 135 11 1
-11 10 23 146 10 1
11 -12 -23 94 13 1
-11 12 -23 102 11 1
-12 -11 -23 102 7 1
-12 -11 -23 97 8 1
12 11 23 97 10 1
12 11 23 97 8 1
-11 12 23 69 12 1
-9 12 -23 820 36 1
-12 -9 -23 884 34 1
9 -12 -23 871 35 1
-9 12 23 910 40 1
-9 12 23 874 39 1
7 -12 -23 21 9 1
7 -12 -23 34 8 1
-7 12 -23 34 13 1
-12 -7 -23 25 7 1
-12 -7 -23 26 8 1
-12 -7 23 32 12 1
-7 12 23 18 10 1
-7 12 23 32 10 1
-12 -7 23 15 11 1
12 7 23 19 7 1
5 -12 -23 99 12 1
-12 -5 -23 87 11 1
5 -12 -23 81 12 1
-12 -5 -23 92 12 1
12 5 23 94 11 1
-12 -5 23 82 14 1
-5 12 23 86 14 1
-12 -5 23 80 14 1
-5 12 23 70 14 1
-12 -3 -23 1156 27 1
-12 -3 -23 1190 31 1
-12 -3 -23 1158 27 1
3 -12 -23 1109 27 1
3 -12 -23 1115 27 1
-12 -3 23 1183 31 1
-3 12 23 1236 31 1
12 3 23 1206 27 1
12 3 23 1181 31 1
-12 -1 -23 17 5 1
-12 -1 -23 10 4 1
1 -12 -23 18 5 1
-12 -1 23 20 7 1
-1 12 23 23 7 1
-1 12 23 24 4 1
12 1 23 9 4 1
1 -12 23 34 7 1
-12 1 -23 332 13 1
-12 1 -23 345 14 1
-1 -12 -23 299 13 1
-1 -12 -23 292 13 1
-12 1 -23 356 17 1
1 12 23 286 16 1
-1 -12 23 313 14 1
12 -1 23 307 16 1
12 -1 23 346 12 1
1 12 23 323 12 1
1 12 23 293 16 1
-12 1 23 323 16 1
-12 3 -23 706 33 1
-12 3 -23 703 33 1
-3 -12 -23 675 32 1
3 12 23 724 38 1
3 12 23 708 32 1
-3 -12 23 681 33 1
12 -3 23 735 32 1
3 12 23 683 37 1
-5 -12 -23 234 9 1
-5 -12 -23 253 9 1
-12 5 -23 242 10 1
-12 5 -23 262 10 1
-12 5 23 272 12 1
5 12 23 270 12 1
-12 5 23 254 12 1
12 -5 23 257 8 1
5 12 23 247 9 1
5 12 23 263 13 1
-12 7 -23 455 23 1
-7 -12 -23 428 21 1
-7 -12 -23 455 22 1
-12 7 -23 427 23 1
7 12 23 485 26 1
7 12 23 488 25 1
-12 7 23 428 25 1
7 12 23 480 21 1
-12 9 -23 265 13 1
-9 -12 -23 285 12 1
-12 9 23 319 15 1
-12 9 23 276 14 1
9 12 23 289 14 1
-11 -12 -23 183 10 1
-12 11 -23 165 12 1
-11 -12 -23 174 8 1
11 12 23 169 9 1
11 12 23 182 12 1
-12 11 23 206 12 1
-12 11 23 190 13 1
-13 -12 -23 36 5 1
-12 13 -23 29 5 1
-13 -12 -23 49 6 1
13 12 23 42 10 1
-12 13 23 20 6 1
13 12 23 42 6 1
12 -13 23 40 6 1
-12 13 23 32 7 1
-13 -10 -23 254 12 1
10 -13 -23 240 15 1
-10 13 -23 253 16 1
-13 -10 -23 237 11 1
13 10 23 228 12 1
-10 13 23 257 17 1
8 -13 -23 0 4 1
-13 -8 -23 0 3 1
-8 13 -23 0 6 1
-8 13 23 0 3 1
-8 13 23 0 5 1
6 -13 -23 512 21 1
-13 -6 -23 563 21 1
6 -13 -23 552 22 1
-13 -6 -23 574 21 1
-13 -6 23 581 25 1
-6 13 23 557 25 1
13 6 23 625 21 1
-6 13 23 513 25 1
-13 -6 23 557 25 1
4 -13 -23 1069 33 1
-13 -4 -23 1089 33 1
-13 -4 -23 1085 33 1
4 -13 -23 1035 33 1
-13 -4 -23 1084 37 1
4 -13 23 1000 33 1
-4 13 23 1124 38 1
13 4 23 1130 33 1
-4 13 23 1046 38 1
-13 -4 23 1086 37 1
2 -13 -23 677 28 1
-13 -2 -23 703 32 1
-13 -2 -23 711 29 1
2 -13 -23 695 28 1
-13 -2 -23 690 28 1
2 -13 23 731 29 1
-2 13 23 771 33 1
-2 13 23 696 27 1
13 2 23 747 28 1
-13 -2 23 693 32 1
0 -13 -23 1037 44 1
-13 0 -23 1134 50 1
-13 0 -23 1090 44 1
-13 0 -23 1098 45 1
0 -13 23 1045 45 1
0 13 23 1043 50 1
13 0 23 1077 50 1
0 13 23 1068 43 1
-13 0 23 1118 51 1
-13 0 23 1079 50 1
-2 -13 -23 602 27 1
-13 2 -23 611 31 1
-13 2 -23 617 27 1
-2 -13 -23 593 26 1
-13 2 -23 592 27 1
-13 2 23 635 30 1
2 13 23 557 31 1
2 13 23 580 30 1
13 -2 23 613 26 1
2 13 23 593 26 1
-13 4 -23 214 12 1
-13 4 -23 215 12 1
-4 -13 -23 236 11 1
-4 -13 -23 215 11 1
4 13 23 224 13 1
-4 -13 23 202 14 1
4 13 23 231 15 1
-13 4 23 241 14 1
-13 4 23 232 14 1
13 -4 23 213 10 1
4 13 23 239 11 1
-13 6 -23 1183 52 1
-6 -13 -23 1177 51 1
-6 -13 -23 1159 52 1
-13 6 -23 1187 52 1
6 13 23 1149 51 1
6 13 23 1155 58 1
6 13 23 1151 59 1
-13 6 23 1256 59 1
-13 8 -23 116 12 1
-8 -13 -23 114 11 1
-13 8 23 124 13 1
-13 8 23 118 14 1
8 13 23 112 13 1
-10 -13 -23 21 5 1
-10 -13 -23 32 6 1
-13 10 -23 38 8 1
10 13 23 20 5 1
-13 10 23 31 8 1
10 13 23 31 9 1
-13 10 23 29 10 1
-12 -13 -23 37 5 1
-12 -13 -23 22 2 1
-13 12 -23 14 4 1
12 13 23 32 5 1
-13 12 23 19 3 1
-13 12 23 24 6 1
12 13 23 39 5 1
-14 -13 -23 153 11 1
-13 14 -23 140 14 1
13 -14 23 154 10 1
-13 14 23 135 10 1
14 13 23 149 10 1
11 -14 -23 73 12 1
-11 14 -23 98 13 1
-14 -11 -23 105 7 1
11 -14 23 89 7 1
-11 14 23 110 9 1
14 11 23 94 8 1
-11 14 23 107 16 1
-14 -9 -23 56 6 1
-14 -9 -23 66 7 1
9 -14 -23 61 10 1
-9 14 -23 62 14 1
-9 14 23 58 9 1
-9 14 23 35 12 1
14 9 23 66 6 1
-14 -7 -23 60 8 1
7 -14 -23 83 9 1
-14 -7 -23 67 7 1
7 -14 -23 68 8 1
-7 14 23 85 9 1
7 -14 23 78 8 1
14 7 23 77 7 1
-7 14 23 86 12 1
-14 -7 23 72 13 1
5 -14 -23 252 18 1
-14 -5 -23 259 21 1
-14 -5 -23 249 18 1
5 -14 -23 271 18 1
-5 14 23 258 21 1
-14 -5 23 282 21 1
5 -14 23 238 18 1
14 5 23 232 17 1
-14 -5 23 250 21 1
-14 -3 -23 3 8 1
-14 -3 -23 1 4 1
-3 14 23 1 8 1
-3 14 23 0 4 1
-14 -3 23 1 8 1
14 3 23 1 5 1
-14 -1 -23 930 42 1
-14 -1 -23 993 48 1
1 -14 -23 923 43 1
1 -14 -23 983 43 1
-14 -1 -23 936 43 1
-1 14 23 983 42 1
1 -14 23 952 43 1
-14 -1 23 977 49 1
14 1 23 973 42 1
14 1 23 907 48 1
-1 14 23 1038 49 1
-1 14 23 906 49 1
-1 -14 -23 61 2 1
-14 1 -23 88 3 1
-1 -14 -23 61 2 1
-14 1 -23 88 2 1
-14 1 -23 88 4 1
1 14 23 41 4 1
1 14 23 37 3 1
-14 1 23 73 3 1
14 -1 23 88 2 1
-14 1 23 61 4 1
-1 -14 23 68 2 1
1 14 23 47 2 1
-14 3 -23 202 9 1
-3 -14 -23 210 8 1
-3 -14 -23 214 8 1
-14 3 -23 185 9 1
3 14 23 244 11 1
3 14 23 217 13 1
-14 3 23 203 11 1
3 14 23 221 8 1
-3 -14 23 202 11 1
14 -3 23 201 8 1
-14 3 23 195 10 1
-5 -14 -23 138 9 1
-14 5 -23 159 10 1
-5 -14 -23 141 9 1
-14 5 -23 139 10 1
5 14 23 155 12 1
5 14 23 140 9 1
14 -5 23 144 9 1
-14 5 23 153 12 1
-14 5 23 120 11 1
-7 -14 -23 110 6 1
-7 -14 -23 103 6 1
-14 7 -23 136 7 1
-14 7 -23 124 7 1
14 -7 23 122 6 1
-14 7 23 132 9 1
7 14 23 118 6 1
-14 9 -23 523 26 1
-14 9 -23 514 26 1
-9 -14 -23 477 25 1
-9 -14 -23 492 24 1
9 14 23 500 25 1
9 14 23 474 29 1
-14 9 23 537 29 1
-14 11 -23 276 18 1
-11 -14 -23 321 16 1
-14 11 23 327 20 1
11 14 23 317 16 1
11 14 23 337 20 1
-14 13 -23 3 4 1
-13 -14 -23 10 3 1
13 14 23 5 3 1
14 -13 23 1 2 1
-15 -14 -23 235 14 1
-14 15 23 239 13 1
12 -15 -23 11 6 1
-12 15 -23 9 6 1
-15 -12 -23 3 4 1
12 -15 23 2 2 1
-12 15 23 3 2 1
15 12 23 10 6 1
-15 -10 -23 84 7 1
-15 -10 -23 78 8 1
10 -15 -23 65 10 1
-10 15 -23 69 15 1
10 -15 23 87 7 1
15 10 23 98 8 1
-15 -8 -23 21 8 1
8 -15 -23 41 9 1
-15 -8 -23 26 7 1
-8 15 23 29 9 1
8 -15 23 30 7 1
-8 15 23 39 13 1
15 8 23 29 7 1
-15 -6 -23 1286 44 1
-15 -6 -23 1208 49 1
-15 -6 -23 1309 43 1
6 -15 -23 1235 44 1
6 -15 23 1327 44 1
-15 -6 23 1265 50 1
-6 15 23 1224 49 1
-15 -4 -23 127 10 1
4 -15 -23 153 10 1
4 -15 -23 159 10 1
-15 -4 -23 135 12 1
-15 -4 23 141 12 1
-15 -4 23 146 13 1
-4 15 23 165 12 1
4 -15 23 135 10 1
2 -15 -23 29 5 1
-15 -2 -23 32 8 1
-15 -2 -23 24 6 1
-2 15 23 21 5 1
2 -15 23 27 6 1
-15 -2 23 16 4 1
-2 15 23 20 8 1
0 -15 -23 3 2 1
-15 0 -23 19 4 1
-15 0 -23 9 3 1
0 15 23 13 4 1
0 15 23 7 2 1
0 -15 23 7 2 1
-15 0 23 1 3 1
-15 0 23 1 4 1
0 15 23 12 4 1
-15 2 -23 97 11 1
-2 -15 -23 98 7 1
-15 2 -23 111 8 1
2 15 23 115 12 1
-2 -15 23 90 9 1
-15 2 23 102 9 1
-15 2 23 116 10 1
2 15 23 107 9 1
-4 -15 -23 181 11 1
-15 4 -23 174 12 1
-4 -15 -23 174 12 1
-15 4 -23 192 13 1
4 15 23 188 11 1
-4 -15 23 182 14 1
-15 4 23 174 14 1
-15 4 23 179 15 1
15 -4 23 180 11 1
4 15 23 193 14 1
-15 6 -23 3 3 1
-6 -15 -23 6 2 1
-15 6 23 4 4 1
-15 6 23 4 3 1
15 -6 23 1 2 1
6 15 23 11 5 1
6 15 23 4 4 1
-8 -15 -23 32 5 1
-15 8 -23 24 4 1
8 15 23 32 5 1
-15 8 23 34 7 1
8 15 23 28 5 1
-15 8 23 13 5 1
-10 -15 -23 167 8 1
-15 10 -23 169 11 1
-15 10 23 159 11 1
10 15 23 181 9 1
-15 12 -23 17 4 1
-12 -15 -23 25 6 1
-15 12 23 17 5 1
12 15 23 12 3 1
-14 -15 -23 3 4 1
-15 14 23 10 2 1
-16 -15 -23 39 6 1
15 -16 23 30 4 1
-16 -13 -23 48 10 1
-16 -13 -23 51 6 1
-13 16 23 65 6 1
11 -16 -23 76 12 1
-16 -11 -23 72 8 1
-16 -11 -23 62 10 1
-11 16 -23 95 16 1
16 11 23 73 8 1
11 -16 23 58 7 1
-11 16 23 68 8 1
-16 -9 -23 147 8 1
-9 16 -23 158 17 1
9 -16 -23 152 9 1
-16 -9 -23 150 7 1
9 -16 23 146 7 1
-9 16 23 141 7 1
16 9 23 161 8 1
-16 -7 -23 42 2 1
-16 -7 -23 23 3 1
-16 -7 -23 26 3 1
-7 16 23 5 7 1
-7 16 23 22 3 1
7 -16 23 19 2 1
16 7 23 18 2 1
-16 -5 -23 785 32 1
5 -16 -23 768 29 1
-16 -5 -23 798 29 1
-16 -5 -23 790 28 1
5 -16 23 739 29 1
-16 -5 23 740 33 1
-5 16 23 728 34 1
-16 -5 23 720 33 1
-5 16 23 793 33 1
16 5 23 773 28 1
-16 -3 -23 16 8 1
3 -16 -23 17 6 1
-16 -3 -23 12 6 1
-3 16 23 22 9 1
-16 -3 23 12 9 1
3 -16 23 23 7 1
-16 -3 23 12 8 1
-3 16 23 17 11 1
16 3 23 20 6 1
-16 -1 -23 49 9 1
-16 -1 -23 59 6 1
1 -16 -23 53 6 1
1 -16 -23 52 6 1
-16 -1 -23 47 7 1
-1 16 23 48 10 1
-1 16 23 50 10 1
-16 -1 23 49 8 1
-16 -1 23 36 10 1
16 1 23 65 6 1
-1 16 23 52 6 1
1 -16 23 52 7 1
-1 -16 -23 7 2 1
-16 1 -23 4 4 1
-16 1 -23 4 3 1
-1 -16 -23 3 2 1
1 16 23 3 4 1
1 16 23 6 2 1
1 16 23 6 4 1
-16 1 23 6 3 1
-1 -16 23 7 3 1
-16 1 23 7 4 1
16 -1 23 6 2 1
-16 3 -23 55 6 1
-16 3 -23 31 3 1
-16 3 -23 33 4 1
16 -3 23 30 3 1
-3 -16 23 38 3 1
-16 3 23 46 5 1
-16 3 23 44 6 1
-16 5 -23 316 15 1
-5 -16 -23 313 15 1
-16 5 -23 318 16 1
-5 -16 -23 312 14 1
-16 5 23 282 17 1
5 16 23 326 18 1
16 -5 23 333 14 1
-16 5 23 303 18 1
5 16 23 331 14 1
-7 -16 -23 90 9 1
-16 7 -23 106 10 1
-16 7 -23 106 10 1
7 16 23 94 12 1
-16 7 23 103 13 1
-16 7 23 89 11 1
16 -7 23 90 9 1
7 16 23 85 8 1
-9 -16 -23 441 19 1
-16 9 -23 464 20 1
-9 -16 -23 455 18 1
-16 9 -23 451 20 1
9 16 23 468 19 1
-16 11 -23 69 9 1
-16 11 -23 63 9 1
-11 -16 -23 50 7 1
-16 11 23 47 7 1
11 16 23 59 7 1
-16 13 -23 267 15 1
-13 -16 -23 286 15 1
16 -13 23 280 13 1
-16 13 23 243 15 1
-16 15 -23 1 4 1
-16 15 23 1 2 1
16 -15 23 5 1 1
-17 -14 -23 1118 57 1
14 -17 23 1161 51 1
-14 17 23 1126 58 1
-17 -12 -23 85 7 1
-17 -12 -23 58 11 1
12 -17 23 81 6 1
-12 17 23 78 7 1
-17 -10 -23 80 6 1
10 -17 -23 100 10 1
-17 -10 -23 77 9 1
10 -17 23 95 6 1
17 10 23 97 7 1
-10 17 23 100 6 1
8 -17 -23 5 4 1
-17 -8 -23 2 4 1
8 -17 23 3 5 1
-17 -6 -23 745 33 1
6 -17 -23 790 35 1
-17 -6 -23 766 35 1
-17 -6 -23 827 39 1
17 6 23 743 34 1
6 -17 23 799 35 1
4 -17 -23 33 5 1
-17 -4 -23 18 3 1
-17 -4 -23 28 5 1
-17 -4 -23 23 4 1
-4 17 23 15 6 1
4 -17 23 37 5 1
-17 -4 23 26 6 1
-4 17 23 17 4 1
17 4 23 19 3 1
-17 -4 23 26 5 1
-17 -2 -23 8 7 1
2 -17 -23 2 5 1
2 -17 -23 3 6 1
2 -17 23 5 6 1
-2 17 23 3 7 1
-2 17 23 9 10 1
-17 -2 23 12 8 1
-2 17 23 3 7 1
-17 -2 23 5 9 1
-17 0 -23 84 6 1
-17 0 -23 99 9 1
0 -17 -23 105 7 1
0 -17 -23 91 6 1
-17 0 -23 97 7 1
17 0 23 96 7 1
0 17 23 105 12 1
-17 0 23 103 10 1
-17 0 23 96 8 1
0 -17 23 92 7 1
0 17 23 90 7 1
-17 2 -23 2 3 1
-17 2 -23 2 2 1
-2 -17 -23 8 2 1
-2 -17 -23 3 2 1
-17 2 -23 2 3 1
-17 2 23 3 3 1
-17 2 23 8 5 1
2 17 23 2 2 1
2 17 23 14 5 1
17 -2 23 3 2 1
-2 -17 23 3 2 1
-4 -17 -23 14 3 1
-4 -17 -23 15 2 1
-17 4 -23 18 3 1
-17 4 -23 18 4 1
-17 4 -23 18 4 1
-17 4 23 45 3 1
-4 -17 23 19 3 1
-17 4 23 33 5 1
4 17 23 22 2 1
-6 -17 -23 166 9 1
-17 6 -23 177 11 1
-17 6 -23 159 10 1
17 -6 23 184 10 1
6 17 23 172 9 1
-17 6 23 183 12 1
-8 -17 -23 115 8 1
-17 8 -23 104 10 1
-8 -17 -23 112 8 1
-17 8 -23 99 10 1
8 17 23 129 8 1
-17 8 23 108 9 1
-17 10 -23 61 9 1
-17 10 -23 55 8 1
10 17 23 66 7 1
-17 12 -23 11 5 1
-12 -17 -23 18 4 1
-17 12 23 8 2 1
17 -12 23 18 3 1
-17 14 -23 313 20 1
17 -14 23 339 17 1
-17 14 23 369 20 1
-18 -13 -23 2 2 1
13 -18 23 3 1 1
-18 -11 -23 99 8 1
-18 -9 -23 7 5 1
-18 -9 -23 12 6 1
9 -18 23 13 5 1
18 9 23 22 7 1
-9 18 23 11 5 1
-18 -7 -23 0 2 1
7 -18 -23 3 3 1
-18 -7 -23 0 4 1
-7 18 23 2 2 1
7 -18 23 2 2 1
18 7 23 6 3 1
-18 -5 -23 84 10 1
-18 -5 -23 73 7 1
5 -18 -23 80 8 1
5 -18 23 73 7 1
18 5 23 67 8 1
-5 18 23 76 8 1
3 -18 -23 180 10 1
-18 -3 -23 181 12 1
-18 -3 -23 170 10 1
3 -18 -23 172 10 1
-3 18 23 170 12 1
3 -18 23 186 10 1
-18 -3 23 185 11 1
18 3 23 192 10 1
1 -18 -23 192 12 1
-18 -1 -23 217 13 1
1 -18 23 201 12 1
18 1 23 216 12 1
-1 18 23 207 12 1
-18 1 -23 421 19 1
-18 1 -23 409 18 1
-1 -18 -23 437 18 1
-1 -18 23 446 19 1
1 18 23 467 18 1
18 -1 23 425 18 1
-18 3 -23 382 17 1
-18 3 -23 396 19 1
-3 -18 -23 384 18 1
-3 -18 -23 379 17 1
-18 3 -23 398 19 1
-3 -18 23 408 18 1
18 -3 23 375 17 1
3 18 23 386 17 1
-5 -18 -23 38 5 1
-18 5 -23 28 6 1
-18 5 -23 44 8 1
-5 -18 -23 32 5 1
18 -5 23 27 6 1
5 18 23 27 6 1
-18 7 -23 1 4 1
-18 7 -23 4 3 1
-7 -18 -23 1 3 1
7 18 23 2 3 1
-18 7 23 3 2 1
18 -7 23 4 4 1
-9 -18 -23 261 15 1
-18 9 -23 263 16 1
-18 9 -23 289 17 1
9 18 23 276 15 1
-18 9 23 309 17 1
-11 -18 -23 18 4 1
-18 11 -23 8 5 1
18 -11 23 13 1 1
-18 13 23 411 20 1
18 -13 23 439 17 1
-19 -12 -23 15 4 1
12 -19 23 11 3 1
-19 -10 -23 95 8 1
-19 -8 -23 25 5 1
-8 19 23 36 6 1
-19 -6 -23 19 6 1
-19 -6 -23 16 4 1
19 6 23 12 3 1
6 -19 23 28 5 1
-19 -4 -23 108 11 1
-19 -4 -23 104 8 1
4 -19 -23 101 8 1
-4 19 23 115 10 1
4 -19 23 106 7 1
-19 -2 -23 0 2 1
2 -19 -23 0 3 1
-19 -2 -23 4 3 1
-19 -2 -23 4 4 1
2 -19 23 1 2 1
-19 -2 23 1 2 1
19 2 23 4 3 1
-19 0 -23 120 7 1
0 -19 -23 119 7 1
-19 0 -23 131 10 1
19 0 23 100 8 1
-19 0 23 105 7 1
0 19 23 115 9 1
0 -19 23 120 8 1
-2 -19 -23 74 6 1
-19 2 -23 68 8 1
-2 -19 -23 61 6 1
-19 2 -23 76 7 1
-2 -19 23 70 7 1
-19 2 23 67 6 1
19 -2 23 75 7 1
-4 -19 -23 249 12 1
-4 -19 -23 264 12 1
-19 4 -23 251 13 1
-19 4 -23 249 14 1
-19 4 23 258 13 1
-4 -19 23 243 12 1
19 -4 23 268 13 1
4 19 23 247 12 1
-19 6 -23 34 7 1
-6 -19 -23 35 6 1
-19 6 -23 41 10 1
6 19 23 31 6 1
-19 6 23 37 5 1
-19 8 -23 156 12 1
-8 -19 -23 181 8 1
-19 8 23 171 8 1
-19 10 -23 235 16 1
-10 -19 -23 224 13 1
19 -10 23 237 12 1
-19 10 23 234 14 1
-19 12 23 455 25 1
19 -12 23 519 22 1
-20 -11 -23 16 4 1
-11 20 23 14 5 1
-20 -9 -23 188 11 1
-9 20 23 206 12 1
9 -20 23 201 10 1
-20 -7 -23 133 10 1
-7 20 23 116 11 1
-20 -5 -23 43 6 1
5 -20 23 52 5 1
3 -20 -23 0 3 1
20 3 23 1 3 1
-20 -1 -23 112 7 1
-20 -1 -23 77 13 1
1 -20 -23 95 8 1
20 1 23 84 9 1
-20 -1 23 93 7 1
-1 -20 -23 66 7 1
-20 1 -23 61 12 1
-20 1 -23 60 6 1
-1 -20 -23 62 6 1
-20 1 23 63 6 1
20 -1 23 76 8 1
-3 -20 -23 155 9 1
-20 3 -23 197 14 1
-20 3 -23 178 10 1
-3 -20 23 146 9 1
-20 3 23 171 10 1
-20 5 -23 2 6 1
-5 -20 -23 2 3 1
-7 -20 -23 212 10 1
-20 7 -23 184 15 1
-20 7 23 199 10 1
-9 -20 -23 18 4 1
-20 9 23 25 2 1
20 -9 23 23 2 1
-20 11 23 252 14 1
20 -11 23 231 12 1
-21 -8 -23 41 5 1
8 -21 23 41 4 1
-21 -6 -23 103 7 1
6 -21 23 107 6 1
-21 -4 -23 350 19 1
4 -21 23 361 17 1
-21 0 -23 1 2 1
0 -21 23 2 2 1
-21 0 23 3 2 1
-21 2 -23 16 2 1
-2 -21 23 13 2 1
-21 4 -23 80 7 1
-4 -21 -23 72 7 1
-21 4 23 80 6 1
-4 -21 23 89 7 1
-6 -21 -23 34 7 1
-21 6 23 45 5 1
-21 8 23 160 7 1
21 -8 23 158 7 1
-22 -7 -23 138 7 1
7 -22 23 133 6 1
-22 -5 -23 41 6 1
5 -22 23 35 4 1
-22 -3 -23 186 11 1
3 -22 23 192 10 1
-22 -1 -23 1010 49 1
-22 -1 23 1023 50 1
1 -22 23 993 44 1
-22 1 -23 79 6 1
-22 1 23 70 6 1
-1 -22 23 54 5 1
-22 3 23 2 2 1
-3 -22 23 0 2 1
-22 5 23 213 10 1
22 -7 23 339 14 1
-23 -2 -23 242 14 1
2 -23 23 231 12 1
-23 0 -23 2 2 1
0 -23 23 0 1 1
-23 2 -23 187 12 1
-2 -23 23 205 10 1
0 0 -24 6647 317 1
0 0 -24 6419 316 1
0 0 24 7073 350 1
0 0 24 6474 358 1
1 -1 -24 0 3 1
-1 -1 -24 7 3 1
-1 -1 -24 4 2 1
1 1 -24 4 2 1
1 -1 -24 3 2 1
-1 1 -24 4 3 1
-1 1 -24 8 2 1
-1 -1 24 8 3 1
-1 1 24 9 3 1
1 -1 24 2 2 1
1 1 24 5 3 1
1 -1 24 8 3 1
1 1 24 3 3 1
-1 -1 24 12 3 1
-2 0 -24 875 34 1
-2 0 -24 828 33 1
0 2 -24 804 33 1
0 -2 -24 885 34 1
2 0 -24 859 33 1
-2 0 24 877 37 1
2 0 24 807 38 1
-2 0 24 851 38 1
0 2 24 860 37 1
-2 2 -24 9 2 1
-2 -2 -24 16 3 1
2 -2 -24 11 2 1
2 2 -24 14 3 1
2 -2 -24 8 3 1
2 2 24 14 3 1
2 2 24 13 2 1
2 -2 24 19 3 1
-2 2 24 16 2 1
-2 -2 24 19 3 1
-2 2 24 10 3 1
-2 -2 24 20 3 1
-3 -1 -24 43 6 1
-3 -1 -24 51 7 1
1 -3 -24 57 6 1
1 -3 -24 47 8 1
-1 3 -24 52 7 1
-3 -1 24 55 8 1
-3 -1 24 50 8 1
1 -3 24 60 8 1
1 -3 24 45 8 1
3 1 24 52 8 1
-1 3 24 54 8 1
3 1 24 57 7 1
-1 3 24 52 7 1
1 3 -24 2 3 1
-1 -3 -24 10 3 1
-1 -3 -24 9 2 1
-3 1 -24 4 3 1
1 3 24 8 3 1
-1 -3 24 9 4 1
3 -1 24 11 2 1
-3 1 24 5 6 1
-3 1 24 1 3 1
-1 -3 24 7 2 1
1 3 24 9 3 1
3 -1 24 16 3 1
-3 3 -24 905 34 1
3 3 -24 943 34 1
3 -3 -24 968 35 1
3 -3 -24 964 34 1
-3 3 -24 986 35 1
-3 -3 -24 934 34 1
-3 -3 -24 968 35 1
3 -3 24 900 39 1
-3 3 24 928 38 1
-3 -3 24 997 39 1
3 -3 24 944 38 1
-3 3 24 877 39 1
-3 -3 24 974 38 1
3 3 24 939 38 1
3 3 24 914 39 1
2 -4 -24 2442 115 1
2 -4 -24 2536 115 1
-2 4 -24 2669 115 1
-4 -2 -24 2644 115 1
-4 -2 24 2475 130 1
-4 -2 24 2659 127 1
2 -4 24 2428 127 1
-2 4 24 2523 128 1
4 2 24 2490 130 1
0 -4 -24 539 24 1
-4 0 -24 526 24 1
0 4 -24 535 24 1
0 -4 -24 563 25 1
-4 0 -24 552 25 1
0 -4 24 533 27 1
-4 0 24 574 27 1
4 0 24 556 28 1
4 0 24 528 27 1
-4 0 24 516 28 1
0 4 24 507 28 1
2 4 -24 114 5 1
-4 2 -24 113 5 1
-2 -4 -24 117 5 1
4 -2 -24 122 5 1
-4 2 -24 101 6 1
-2 -4 -24 89 5 1
2 4 24 115 7 1
4 -2 24 121 6 1
2 4 24 91 5 1
-2 -4 24 134 7 1
-4 2 24 114 6 1
4 -2 24 122 7 1
-4 2 24 114 6 1
-4 4 -24 6 3 1
-4 -4 -24 0 2 1
-4 4 -24 32 2 1
4 -4 -24 15 2 1
-4 4 24 4 3 1
4 -4 24 6 4 1
-4 4 24 7 2 1
4 -4 24 15 2 1
-4 -4 24 6 3 1
4 4 24 1 3 1
4 4 24 0 3 1
-4 -4 24 0 3 1
-3 5 -24 19 7 1
3 -5 -24 29 8 1
-3 5 -24 30 9 1
5 3 -24 27 6 1
3 -5 -24 26 6 1
-5 -3 -24 23 6 1
-5 -3 -24 29 7 1
-5 -3 24 20 8 1
5 3 24 27 5 1
5 3 24 20 7 1
5 3 24 31 8 1
3 -5 24 17 8 1
-3 5 24 26 8 1
-5 -3 24 33 8 1
-5 -1 -24 1214 41 1
-1 5 -24 1177 41 1
5 1 -24 1276 41 1
1 -5 -24 1140 41 1
-5 -1 -24 1254 42 1
5 1 24 1239 46 1
-1 5 24 1205 47 1
1 -5 24 1226 47 1
-1 5 24 1161 46 1
5 1 24 1216 47 1
-5 -1 24 1172 47 1
1 -5 24 1208 45 1
-1 -5 -24 224 12 1
1 5 -24 180 12 1
-1 -5 -24 208 12 1
-5 1 -24 202 12 1
-5 1 -24 195 12 1
5 -1 24 203 14 1
1 5 24 209 13 1
-5 1 24 183 13 1
-1 -5 24 210 14 1
1 5 24 190 14 1
-1 -5 24 194 13 1
5 -1 24 210 13 1
5 -3 -24 106 8 1
-3 -5 -24 96 8 1
-3 -5 -24 112 8 1
3 5 -24 89 8 1
-5 3 -24 91 9 1
-5 3 -24 98 8 1
5 -3 24 105 10 1
5 -3 24 111 10 1
-3 -5 24 95 10 1
3 5 24 113 9 1
3 5 24 86 10 1
-5 3 24 94 10 1
3 5 24 107 6 1
-3 -5 24 98 10 1
-5 5 -24 14 3 1
5 -5 -24 10 2 1
-5 5 -24 7 3 1
-5 -5 -24 8 2 1
-5 -5 -24 1 2 1
5 5 24 17 3 1
-5 5 24 6 3 1
-5 -5 24 12 3 1
5 5 24 10 2 1
-5 5 24 6 3 1
5 -5 24 8 2 1
-5 -5 24 15 3 1
5 5 24 8 3 1
-6 -4 -24 1593 63 1
-6 -4 -24 1658 63 1
4 -6 -24 1698 64 1
-4 6 -24 1583 64 1
4 -6 -24 1606 63 1
-4 6 -24 1601 64 1
-6 -4 24 1765 72 1
6 4 24 1659 62 1
-6 -4 24 1666 70 1
-4 6 24 1788 72 1
-4 6 24 1723 71 1
6 4 24 1669 72 1
6 4 24 1659 70 1
4 -6 24 1600 72 1
-6 -2 -24 22 7 1
-6 -2 -24 15 6 1
2 -6 -24 27 6 1
-2 6 -24 6 7 1
2 -6 -24 27 8 1
2 -6 24 6 8 1
6 2 24 22 8 1
6 2 24 19 5 1
-2 6 24 20 8 1
-2 6 24 18 8 1
-6 -2 24 9 8 1
6 2 24 12 8 1
-6 -2 24 7 8 1
0 6 -24 18 7 1
-6 0 -24 24 6 1
-6 0 -24 25 7 1
6 0 -24 27 6 1
0 -6 -24 22 6 1
6 0 24 14 8 1
0 -6 24 14 8 1
0 -6 24 18 8 1
-6 0 24 21 8 1
0 6 24 30 7 1
6 0 24 18 7 1
-6 0 24 22 8 1
0 6 24 25 8 1
-2 -6 -24 461 24 1
-6 2 -24 471 24 1
-6 2 -24 465 24 1
2 6 -24 462 24 1
-2 -6 -24 494 24 1
-2 -6 24 458 26 1
2 6 24 442 27 1
-6 2 24 495 27 1
-2 -6 24 449 27 1
6 -2 24 526 27 1
2 6 24 473 27 1
6 -4 -24 186 8 1
-6 4 -24 187 9 1
-4 -6 -24 181 8 1
-4 -6 -24 197 8 1
-6 4 -24 201 10 1
4 6 -24 197 9 1
-4 -6 24 210 10 1
4 6 24 205 7 1
4 6 24 225 11 1
6 -4 24 198 10 1
4 6 24 213 10 1
-4 -6 24 209 10 1
-6 4 24 180 10 1
-6 -6 -24 17 3 1
-6 6 -24 24 3 1
-6 -6 -24 14 2 1
-6 6 -24 14 3 1
6 -6 -24 21 3 1
-6 -6 24 20 3 1
6 -6 24 26 3 1
-6 6 24 24 3 1
-6 6 24 24 3 1
6 6 24 17 3 1
6 6 24 20 2 1
-6 -6 24 20 4 1
5 -7 -24 208 8 1
-5 7 -24 180 11 1
5 -7 -24 193 10 1
-7 -5 -24 209 8 1
-7 -5 -24 226 8 1
7 5 24 205 10 1
7 5 24 208 9 1
-7 -5 24 187 9 1
-5 7 24 207 9 1
-5 7 24 223 10 1
-7 -5 24 210 10 1
5 -7 24 202 9 1
7 5 24 214 7 1
-7 -3 -24 17 5 1
3 -7 -24 8 5 1
-7 -3 -24 15 5 1
3 -7 -24 23 7 1
7 3 24 19 4 1
-3 7 24 21 6 1
-7 -3 24 22 7 1
-3 7 24 10 7 1
7 3 24 19 7 1
7 3 24 26 7 1
3 -7 24 18 6 1
-7 -3 24 10 7 1
1 -7 -24 658 29 1
-7 -1 -24 572 29 1
-7 -1 -24 622 29 1
1 -7 -24 604 29 1
-1 7 -24 647 29 1
-7 -1 24 559 33 1
7 1 24 631 28 1
7 1 24 594 32 1
1 -7 24 630 33 1
-7 1 -24 14 2 1
7 -1 -24 6 3 1
1 7 -24 13 3 1
1 7 24 7 3 1
7 -1 24 2 3 1
7 -1 24 1 3 1
-1 -7 24 1 3 1
-7 1 24 0 3 1
-7 3 -24 400 14 1
-7 3 -24 381 15 1
7 -3 -24 396 14 1
-3 -7 -24 363 14 1
3 7 -24 404 14 1
3 7 24 396 13 1
7 -3 24 348 16 1
3 7 24 412 17 1
-7 3 24 359 17 1
7 -3 24 366 16 1
-3 -7 24 373 16 1
-3 -7 24 391 17 1
-7 3 24 398 16 1
7 -5 -24 281 13 1
-7 5 -24 257 14 1
-7 5 -24 253 14 1
-5 -7 -24 276 13 1
5 7 -24 281 14 1
5 7 24 256 15 1
7 -5 24 273 15 1
-5 -7 24 291 16 1
-7 5 24 303 16 1
5 7 24 257 16 1
-5 -7 24 297 16 1
-7 5 24 300 16 1
5 7 24 263 12 1
-7 7 -24 860 40 1
-7 -7 -24 851 39 1
7 -7 -24 858 38 1
-7 -7 24 805 43 1
7 7 24 817 44 1
-7 7 24 878 44 1
7 7 24 844 38 1
7 7 24 890 44 1
-7 -7 24 856 44 1
-8 -6 -24 1006 40 1
6 -8 -24 971 41 1
-8 -6 -24 1016 41 1
-6 8 -24 956 42 1
8 6 24 971 46 1
-8 -6 24 999 45 1
8 6 24 999 45 1
-6 8 24 998 46 1
-8 -6 24 1007 46 1
-6 8 24 1063 46 1
-8 -4 -24 894 32 1
4 -8 -24 955 32 1
-8 -4 -24 981 32 1
4 -8 -24 854 32 1
-8 -4 24 904 37 1
4 -8 24 875 36 1
8 4 24 964 37 1
8 4 24 972 36 1
-4 8 24 877 37 1
8 4 24 899 31 1
-4 8 24 927 36 1
-8 -2 -24 274 16 1
-8 -2 -24 310 17 1
2 -8 -24 279 16 1
2 -8 -24 283 17 1
8 2 24 289 15 1
-8 -2 24 314 19 1
-2 8 24 276 19 1
8 2 24 315 19 1
2 -8 24 286 19 1
8 2 24 308 19 1
-8 0 -24 98 8 1
-8 0 -24 93 8 1
0 -8 -24 92 7 1
0 -8 -24 107 8 1
0 8 -24 101 8 1
0 -8 24 93 10 1
-8 0 24 102 9 1
-8 0 24 102 9 1
0 8 24 94 10 1
8 0 24 95 9 1
8 0 24 100 10 1
0 8 24 106 9 1
8 0 24 99 6 1
-8 2 -24 260 11 1
-8 2 -24 240 11 1
2 8 -24 227 11 1
-2 -8 -24 233 11 1
-2 -8 -24 249 11 1
-2 -8 24 242 13 1
2 8 24 228 13 1
8 -2 24 253 13 1
-8 2 24 244 13 1
2 8 24 246 9 1
2 8 24 230 12 1
-8 2 24 272 13 1
8 -2 24 256 13 1
-4 -8 -24 707 30 1
-8 4 -24 756 30 1
-8 4 -24 758 30 1
4 8 -24 721 30 1
-4 -8 -24 752 30 1
-8 4 24 722 34 1
-4 -8 24 750 34 1
4 8 24 770 29 1
4 8 24 790 34 1
8 -4 24 717 34 1
-8 6 -24 2572 115 1
-6 -8 -24 2616 114 1
-8 6 -24 2551 115 1
8 -6 -24 2594 114 1
-6 -8 -24 2762 114 1
6 8 24 2615 127 1
6 8 24 2633 113 1
-6 -8 24 2722 129 1
-8 6 24 2586 130 1
6 8 24 2545 129 1
-8 -8 -24 77 5 1
8 -8 -24 66 7 1
-8 -8 -24 95 5 1
-8 -8 24 86 9 1
8 8 24 67 7 1
8 8 24 94 5 1
-8 -8 24 78 10 1
-8 8 24 90 7 1
8 8 24 84 9 1
-8 8 24 92 8 1
-9 -7 -24 2 2 1
-9 -7 -24 3 2 1
-7 9 -24 3 4 1
7 -9 -24 10 4 1
7 -9 -24 8 3 1
9 7 24 4 2 1
-7 9 24 4 3 1
9 7 24 5 4 1
9 7 24 8 4 1
-9 -7 24 5 4 1
-9 -7 24 6 5 1
-7 9 24 2 3 1
-5 9 -24 585 29 1
-9 -5 -24 551 26 1
5 -9 -24 576 26 1
-9 -5 -24 593 26 1
5 -9 -24 517 26 1
-9 -5 24 519 29 1
-5 9 24 536 30 1
9 5 24 559 25 1
-9 -3 -24 2718 118 1
3 -9 -24 2736 118 1
-9 -3 -24 2862 118 1
3 -9 -24 2876 117 1
3 -9 24 2936 133 1
-9 -3 24 2946 134 1
9 3 24 2592 133 1
9 3 24 2800 117 1
-3 9 24 2845 131 1
9 3 24 2722 131 1
-9 -1 -24 1235 53 1
-9 -1 -24 1157 52 1
-9 -1 -24 1177 59 1
1 -9 -24 1164 52 1
1 -9 -24 1193 52 1
1 -9 24 1115 59 1
9 1 24 1217 59 1
9 1 24 1233 58 1
-1 9 24 1237 59 1
-1 9 24 1197 60 1
-9 -1 24 1205 58 1
-1 -9 -24 94 8 1
-1 -9 -24 99 8 1
-9 1 -24 99 8 1
-9 1 -24 81 8 1
-9 1 24 84 9 1
9 -1 24 84 10 1
-9 1 24 73 9 1
9 -1 24 97 6 1
1 9 24 75 10 1
-1 -9 24 81 10 1
9 -1 24 99 10 1
-9 3 -24 72 8 1
-3 -9 -24 68 8 1
3 9 -24 62 9 1
-9 3 -24 71 8 1
-3 -9 -24 71 7 1
3 9 24 51 10 1
3 9 24 64 6 1
-9 3 24 68 9 1
-3 -9 24 65 10 1
-9 3 24 66 9 1
3 9 24 64 9 1
-3 -9 24 83 12 1
-5 -9 -24 338 16 1
5 9 -24 319 17 1
-5 -9 -24 331 16 1
-9 5 -24 335 17 1
-9 5 -24 315 17 1
-5 -9 24 332 19 1
5 9 24 328 19 1
-9 5 24 320 19 1
5 9 24 332 19 1
5 9 24 299 15 1
-9 5 24 325 19 1
-7 -9 -24 382 16 1
-9 7 -24 391 17 1
-7 -9 -24 395 16 1
-9 7 -24 386 18 1
-7 -9 24 387 20 1
7 9 24 401 20 1
7 9 24 383 16 1
-9 9 -24 592 24 1
-9 -9 -24 585 22 1
9 9 24 582 21 1
-9 9 24 572 25 1
-9 -9 24 597 26 1
9 9 24 577 26 1
8 -10 -24 725 30 1
8 -10 -24 732 28 1
-10 -8 -24 759 28 1
-10 -8 -24 779 29 1
-8 10 -24 693 30 1
-8 10 24 772 33 1
10 8 24 755 33 1
-10 -8 24 726 33 1
-8 10 24 763 33 1
10 8 24 728 28 1
6 -10 -24 463 16 1
-10 -6 -24 479 17 1
-6 10 -24 416 20 1
6 -10 -24 447 17 1
-6 10 24 422 19 1
-6 10 24 484 19 1
10 6 24 506 16 1
10 6 24 494 19 1
-10 -6 24 473 19 1
10 6 24 468 19 1
4 -10 -24 732 31 1
4 -10 -24 733 32 1
-10 -4 -24 778 32 1
-10 -4 -24 724 32 1
10 4 24 785 36 1
-4 10 24 743 36 1
10 4 24 777 31 1
10 4 24 765 36 1
-10 -4 24 723 36 1
-10 -4 24 715 35 1
2 -10 -24 1106 42 1
-10 -2 -24 1089 47 1
-10 -2 -24 1068 42 1
2 -10 -24 1110 42 1
-10 -2 -24 1177 42 1
-2 10 24 1170 47 1
10 2 24 1185 47 1
10 2 24 1135 48 1
-2 10 24 1171 48 1
-10 0 -24 32 6 1
0 -10 -24 35 5 1
-10 0 -24 27 6 1
0 -10 -24 37 6 1
0 10 24 40 7 1
0 10 24 37 4 1
10 0 24 38 5 1
0 -10 24 36 8 1
10 0 24 31 8 1
-10 0 24 35 7 1
0 10 24 42 8 1
-2 -10 -24 4164 161 1
-10 2 -24 3781 162 1
-10 2 -24 3757 162 1
-2 -10 24 4026 182 1
-10 2 24 4065 179 1
2 10 24 3861 179 1
-2 -10 24 3706 163 1
2 10 24 3738 160 1
10 -2 24 3903 160 1
-4 -10 -24 2052 75 1
-4 -10 -24 2060 75 1
4 10 -24 1914 75 1
-10 4 -24 2023 76 1
-4 -10 24 1973 85 1
4 10 24 2014 85 1
4 10 24 2050 74 1
-6 -10 -24 566 25 1
-10 6 -24 526 25 1
-10 6 -24 546 26 1
-6 -10 -24 565 25 1
-10 6 24 611 29 1
-6 -10 24 551 29 1
-10 6 24 534 29 1
6 10 24 520 24 1
6 10 24 540 28 1
-8 -10 -24 82 5 1
-10 8 -24 90 8 1
-8 -10 -24 83 5 1
8 10 24 87 8 1
-10 8 24 73 8 1
8 10 24 75 10 1
-10 8 24 89 8 1
8 10 24 73 5 1
-10 10 -24 45 4 1
-10 -10 -24 55 5 1
10 10 24 35 4 1
-10 10 24 36 4 1
9 -11 -24 1479 54 1
9 -11 -24 1454 54 1
-9 11 -24 1538 55 1
-11 -9 -24 1507 53 1
11 9 24 1538 60 1
-9 11 24 1410 60 1
-7 11 -24 6 6 1
7 -11 -24 14 9 1
-11 -7 -24 23 6 1
7 -11 -24 26 7 1
-11 -7 -24 18 5 1
-7 11 24 12 8 1
-11 -7 24 12 10 1
-7 11 24 13 8 1
11 7 24 15 8 1
-11 -7 24 23 10 1
11 7 24 14 5 1
-11 -5 -24 132 7 1
5 -11 -24 129 8 1
-11 -5 -24 132 7 1
5 -11 -24 111 9 1
-11 -5 24 134 10 1
-11 -5 24 128 10 1
11 5 24 130 10 1
-5 11 24 128 9 1
-5 11 24 145 10 1
11 5 24 133 7 1
-11 -3 -24 138 8 1
3 -11 -24 120 8 1
3 -11 -24 130 9 1
-11 -3 -24 132 9 1
-11 -3 -24 119 11 1
11 3 24 139 8 1
-11 -3 24 131 11 1
-3 11 24 132 10 1
-3 11 24 136 11 1
1 -11 -24 10 3 1
-11 -1 -24 12 3 1
-11 -1 -24 11 2 1
-11 -1 -24 16 4 1
-1 11 24 13 3 1
11 1 24 21 4 1
11 1 24 23 5 1
-1 -11 -24 699 30 1
-11 1 -24 753 30 1
-1 -11 -24 717 30 1
-11 1 -24 724 30 1
11 -1 24 755 29 1
-11 1 24 703 34 1
-1 -11 24 791 31 1
11 -1 24 722 34 1
-11 1 24 690 35 1
-1 -11 24 785 34 1
1 11 24 737 29 1
-11 3 -24 32 3 1
3 11 -24 10 7 1
-3 -11 -24 19 5 1
-11 3 -24 23 6 1
-3 -11 -24 20 5 1
-11 3 24 25 7 1
3 11 24 16 4 1
-3 -11 24 14 4 1
3 11 24 14 4 1
-11 3 24 24 7 1
-3 -11 24 15 4 1
3 11 24 16 7 1
-5 -11 -24 39 7 1
-5 -11 -24 44 7 1
-11 5 -24 38 8 1
-11 5 -24 51 8 1
-5 -11 24 46 12 1
-11 5 24 32 9 1
5 11 24 42 7 1
-11 5 24 45 10 1
5 11 24 49 10 1
5 11 24 50 11 1
-11 7 -24 0 3 1
-7 -11 -24 1 2 1
-11 7 -24 0 3 1
-7 -11 -24 1 2 1
7 11 24 1 4 1
7 11 24 1 2 1
7 11 24 2 4 1
-11 7 24 0 3 1
-11 7 24 2 4 1
-9 -11 -24 501 23 1
-11 9 24 522 26 1
9 11 24 553 26 1
-11 -11 -24 240 10 1
-11 11 -24 251 13 1
-11 -11 -24 244 9 1
11 11 24 257 14 1
-11 11 24 236 12 1
11 11 24 256 10 1
-11 11 24 221 14 1
-12 -10 -24 348 20 1
10 -12 -24 326 23 1
-12 -10 -24 340 21 1
-10 12 -24 335 24 1
-10 12 24 318 25 1
12 10 24 364 21 1
-10 12 24 350 24 1
-12 -8 -24 1008 43 1
-12 -8 -24 997 42 1
8 -12 -24 1004 42 1
-8 12 24 1046 48 1
-8 12 24 1112 48 1
-12 -8 24 1000 49 1
-12 -6 -24 11 2 1
6 -12 -24 8 3 1
6 -12 -24 24 3 1
-12 -6 -24 18 2 1
12 6 24 4 2 1
12 6 24 11 4 1
-12 -6 24 8 4 1
-6 12 24 24 4 1
-12 -6 24 19 5 1
-6 12 24 10 3 1
4 -12 -24 89 7 1
-12 -4 -24 81 9 1
4 -12 -24 79 6 1
-12 -4 -24 83 6 1
-12 -4 -24 84 7 1
-12 -4 24 89 9 1
12 4 24 71 9 1
-12 -4 24 91 9 1
-4 12 24 87 8 1
12 4 24 98 6 1
-4 12 24 99 9 1
-12 -2 -24 62 5 1
-12 -2 -24 64 9 1
-12 -2 -24 54 5 1
2 -12 -24 49 6 1
-2 12 24 71 7 1
2 -12 24 53 7 1
-2 12 24 61 7 1
12 2 24 62 4 1
-12 -2 24 74 7 1
12 2 24 50 5 1
-12 -2 24 61 7 1
0 -12 -24 2218 72 1
-12 0 -24 2187 73 1
-12 0 -24 2195 81 1
0 -12 -24 2185 72 1
-12 0 -24 2124 73 1
-12 0 24 2084 82 1
12 0 24 2218 72 1
0 12 24 2226 71 1
0 12 24 2063 81 1
0 12 24 2158 82 1
0 -12 24 2164 73 1
-2 -12 -24 24 5 1
-12 2 -24 26 5 1
-12 2 -24 29 5 1
-2 -12 -24 18 3 1
-12 2 24 12 3 1
-12 2 24 30 6 1
2 12 24 24 4 1
-2 -12 24 23 3 1
-4 -12 -24 39 5 1
-4 -12 -24 45 5 1
-12 4 -24 47 7 1
-12 4 -24 40 6 1
4 12 -24 37 9 1
4 12 24 48 7 1
12 -4 24 42 4 1
4 12 24 48 9 1
4 12 24 42 5 1
-12 4 24 43 8 1
-12 4 24 42 7 1
-12 6 -24 344 14 1
-6 -12 -24 326 13 1
-6 -12 -24 321 13 1
-12 6 -24 322 14 1
-12 6 24 332 16 1
6 12 24 334 16 1
6 12 24 360 13 1
6 12 24 331 17 1
-8 -12 -24 8 2 1
-8 -12 -24 4 2 1
-12 8 -24 3 3 1
-12 8 24 2 2 1
8 12 24 2 4 1
-12 8 24 2 4 1
8 12 24 2 4 1
-12 10 -24 3 4 1
-10 -12 -24 0 2 1
-10 -12 -24 0 2 1
-12 10 24 5 4 1
-12 10 24 2 3 1
10 12 24 0 2 1
10 12 24 2 4 1
-12 12 -24 213 13 1
-12 -12 -24 206 9 1
12 12 24 230 9 1
-12 12 24 222 15 1
12 12 24 214 13 1
-12 12 24 199 11 1
-13 -11 -24 15 2 1
11 -13 -24 17 6 1
-11 13 -24 16 5 1
11 -13 24 21 2 1
13 11 24 30 5 1
-11 13 24 21 6 1
-11 13 24 22 3 1
-13 -9 -24 235 12 1
9 -13 -24 230 14 1
-9 13 -24 211 17 1
-13 -9 -24 233 11 1
-9 13 24 224 16 1
9 -13 24 196 12 1
13 9 24 197 15 1
-9 13 24 188 14 1
13 9 24 222 11 1
7 -13 -24 146 3 1
-13 -7 -24 89 3 1
7 -13 -24 114 3 1
-7 13 24 146 5 1
-13 -7 24 153 4 1
7 -13 24 169 2 1
13 7 24 141 2 1
-7 13 24 146 3 1
-13 -7 24 91 6 1
13 7 24 93 5 1
5 -13 -24 89 6 1
-13 -5 -24 23 8 1
5 -13 -24 93 7 1
-5 13 24 109 9 1
-13 -5 24 30 10 1
13 5 24 49 10 1
-13 -5 24 34 9 1
-5 13 24 110 8 1
13 5 24 39 5 1
5 -13 24 43 6 1
-13 -3 -24 309 12 1
3 -13 -24 298 12 1
3 -13 -24 316 13 1
-13 -3 -24 301 12 1
-13 -3 -24 324 15 1
13 3 24 296 16 1
13 3 24 295 12 1
3 -13 24 310 13 1
-13 -3 24 329 15 1
-13 -3 24 285 15 1
-3 13 24 339 15 1
-3 13 24 336 15 1
-13 -1 -24 6 3 1
-13 -1 -24 11 3 1
-13 -1 -24 7 2 1
1 -13 -24 2 2 1
13 1 24 17 5 1
-13 -1 24 23 4 1
-1 13 24 4 4 1
-13 -1 24 12 3 1
-1 13 24 4 3 1
13 1 24 8 2 1
1 -13 24 2 2 1
-13 1 -24 47 6 1
-13 1 -24 58 6 1
-13 1 -24 47 10 1
-1 -13 -24 45 5 1
-1 -13 -24 44 5 1
1 13 24 55 9 1
1 13 24 39 7 1
-13 1 24 42 7 1
-13 1 24 53 7 1
1 13 24 43 5 1
-1 -13 24 44 7 1
-3 -13 -24 6 2 1
-13 3 -24 30 3 1
-13 3 -24 38 3 1
-3 -13 24 15 3 1
3 13 24 4 4 1
13 -3 24 34 2 1
3 13 24 6 2 1
-13 3 24 20 3 1
-13 3 24 35 3 1
-5 -13 -24 2 5 1
-5 -13 -24 3 5 1
-13 5 -24 5 6 1
-13 5 24 3 8 1
5 13 24 4 5 1
5 13 24 4 8 1
-13 7 -24 24 3 1
-7 -13 -24 30 2 1
-13 7 -24 21 3 1
-7 -13 -24 30 2 1
7 13 24 35 2 1
7 13 24 24 4 1
-13 7 24 41 4 1
-13 7 24 29 3 1
-13 9 -24 501 21 1
-13 9 -24 475 21 1
-9 -13 -24 478 20 1
-9 -13 -24 441 19 1
-13 9 24 478 24 1
9 13 24 481 19 1
9 13 24 419 23 1
-13 9 24 459 23 1
-11 -13 -24 197 10 1
-13 11 -24 199 13 1
11 13 24 220 11 1
-13 11 24 215 16 1
11 13 24 204 15 1
-13 11 24 194 13 1
-13 -13 -24 68 7 1
-13 -13 -24 69 8 1
-13 13 -24 76 12 1
-13 13 24 86 7 1
13 -13 24 89 7 1
-14 -12 -24 9 3 1
-12 14 -24 7 6 1
-14 -12 -24 9 4 1
-12 14 24 8 2 1
12 -14 24 8 2 1
-10 14 -24 250 18 1
-14 -10 -24 242 11 1
10 -14 -24 235 16 1
-14 -10 -24 216 13 1
10 -14 24 228 12 1
14 10 24 244 12 1
-10 14 24 244 14 1
8 -14 -24 592 21 1
-14 -8 -24 548 18 1
14 8 24 566 19 1
14 8 24 627 24 1
8 -14 24 585 20 1
-8 14 24 612 24 1
6 -14 -24 5 3 1
-14 -6 -24 7 3 1
-14 -6 -24 7 2 1
-14 -6 -24 0 3 1
6 -14 -24 5 3 1
-14 -6 24 12 4 1
6 -14 24 4 2 1
-6 14 24 8 3 1
14 6 24 10 5 1
-14 -6 24 16 6 1
14 6 24 4 2 1
-6 14 24 5 5 1
-14 -4 -24 0 2 1
-14 -4 -24 0 3 1
4 -14 -24 1 3 1
-14 -4 -24 0 3 1
4 -14 -24 1 3 1
14 4 24 2 4 1
-4 14 24 1 3 1
-4 14 24 0 4 1
14 4 24 1 6 1
-14 -4 24 0 5 1
4 -14 24 0 2 1
-14 -4 24 0 3 1
2 -14 -24 589 23 1
-14 -2 -24 630 26 1
-14 -2 -24 664 23 1
-14 -2 24 604 26 1
14 2 24 690 28 1
-14 -2 24 594 26 1
2 -14 24 600 23 1
-14 0 -24 809 27 1
0 -14 -24 790 27 1
-14 0 -24 745 27 1
-14 0 -24 801 30 1
0 -14 -24 766 27 1
0 14 24 833 31 1
0 14 24 786 26 1
0 14 24 738 31 1
-14 0 24 800 30 1
-14 0 24 817 30 1
0 -14 24 845 27 1
-2 -14 -24 736 37 1
-14 2 -24 786 38 1
2 14 24 728 43 1
-14 2 24 767 43 1
2 14 24 700 42 1
-14 2 24 717 42 1
-2 -14 24 761 38 1
-14 4 -24 11 3 1
-14 4 -24 25 2 1
-4 -14 -24 26 2 1
-4 -14 -24 26 2 1
-14 4 24 25 3 1
4 14 24 26 4 1
-14 4 24 16 2 1
-4 -14 24 25 4 1
4 14 24 7 4 1
4 14 24 26 2 1
-6 -14 -24 8 2 1
-6 -14 -24 17 2 1
-14 6 -24 8 3 1
-14 6 -24 8 3 1
-14 6 24 18 4 1
6 14 24 2 4 1
6 14 24 5 2 1
-14 6 24 18 3 1
-8 -14 -24 155 8 1
-14 8 -24 147 10 1
-14 8 -24 166 9 1
-8 -14 -24 138 8 1
8 14 24 130 11 1
-14 8 24 174 12 1
-14 8 24 134 10 1
8 14 24 146 8 1
-14 10 -24 519 21 1
-10 -14 -24 497 19 1
10 14 24 525 20 1
10 14 24 572 26 1
-14 10 24 507 23 1
-12 -14 -24 0 3 1
-14 12 -24 3 4 1
-12 -14 -24 4 3 1
-14 12 -24 6 4 1
12 14 24 1 3 1
14 -12 24 1 2 1
-14 12 24 0 2 1
-14 -14 -24 11 4 1
-15 -13 -24 177 12 1
-13 15 24 203 11 1
11 -15 -24 139 13 1
-15 -11 -24 139 8 1
-15 -11 -24 147 9 1
-11 15 -24 121 16 1
11 -15 24 158 8 1
-11 15 24 150 8 1
15 11 24 149 8 1
9 -15 -24 40 4 1
-15 -9 -24 65 6 1
-15 -9 -24 42 3 1
-9 15 -24 37 8 1
15 9 24 45 3 1
-15 -7 -24 112 7 1
-15 -7 -24 131 9 1
-15 -7 -24 103 6 1
15 7 24 144 13 1
15 7 24 114 6 1
7 -15 24 94 7 1
-7 15 24 84 13 1
-7 15 24 91 9 1
5 -15 -24 438 16 1
-15 -5 -24 416 16 1
-15 -5 -24 416 15 1
5 -15 -24 451 16 1
-15 -5 -24 427 18 1
15 5 24 460 16 1
15 5 24 432 21 1
-15 -5 24 447 21 1
5 -15 24 432 16 1
-5 15 24 425 20 1
-5 15 24 438 19 1
-15 -5 24 408 19 1
3 -15 -24 816 33 1
-15 -3 -24 767 37 1
-15 -3 -24 801 33 1
3 -15 -24 792 33 1
-15 -3 -24 780 32 1
-15 -3 24 800 38 1
-15 -3 24 774 37 1
15 3 24 843 33 1
15 3 24 810 39 1
-3 15 24 867 38 1
3 -15 24 792 33 1
-15 -1 -24 682 30 1
1 -15 -24 713 29 1
-15 -1 -24 662 29 1
1 -15 -24 721 29 1
-15 -1 -24 708 33 1
15 1 24 670 29 1
1 -15 24 724 30 1
-15 -1 24 646 34 1
-15 -1 24 727 34 1
-1 15 24 697 34 1
-1 15 24 732 28 1
-1 15 24 780 34 1
-1 -15 -24 187 11 1
-1 -15 -24 189 11 1
-15 1 -24 210 12 1
-15 1 -24 208 15 1
-15 1 -24 200 11 1
1 15 24 198 14 1
1 15 24 198 15 1
-1 -15 24 182 12 1
-15 1 24 202 14 1
-15 1 24 231 14 1
1 15 24 189 11 1
15 -1 24 215 11 1
-3 -15 -24 86 7 1
-3 -15 -24 77 7 1
-15 3 -24 83 8 1
-15 3 -24 86 8 1
3 15 24 92 12 1
-15 3 24 65 10 1
15 -3 24 77 7 1
-3 -15 24 74 9 1
3 15 24 96 10 1
3 15 24 86 7 1
-15 3 24 82 9 1
-15 5 -24 6 3 1
-5 -15 -24 14 2 1
-15 5 -24 20 3 1
-15 5 24 21 2 1
5 15 24 3 2 1
15 -5 24 9 2 1
-15 5 24 7 5 1
-15 7 -24 323 11 1
-7 -15 -24 326 10 1
-15 7 -24 369 12 1
-7 -15 -24 349 10 1
-15 7 24 320 14 1
-15 7 24 309 12 1
7 15 24 343 10 1
-15 9 -24 4 3 1
-9 -15 -24 8 3 1
-15 9 -24 8 3 1
9 15 24 3 2 1
-11 -15 -24 273 13 1
-15 11 -24 259 14 1
-11 -15 -24 266 12 1
-15 11 24 281 14 1
11 15 24 281 12 1
-13 -15 -24 4 4 1
-15 13 -24 4 4 1
-15 13 24 8 2 1
-15 15 -24 548 28 1
15 -15 24 565 27 1
-16 -14 -24 8 2 1
14 -16 24 10 1 1
-16 -12 -24 284 18 1
-16 -12 -24 298 18 1
-12 16 24 279 18 1
-16 -10 -24 20 5 1
-16 -10 -24 28 7 1
10 -16 24 29 5 1
16 10 24 26 7 1
-10 16 24 34 5 1
-16 -8 -24 21 7 1
8 -16 -24 22 9 1
-8 16 24 20 6 1
8 -16 24 27 5 1
-16 -6 -24 623 29 1
6 -16 -24 653 31 1
6 -16 -24 670 31 1
-6 16 24 692 35 1
6 -16 24 669 30 1
16 6 24 678 30 1
-16 -4 -24 18 3 1
4 -16 -24 8 3 1
4 -16 -24 1 3 1
-16 -4 -24 18 2 1
-16 -4 -24 3 3 1
-16 -4 24 19 3 1
4 -16 24 14 2 1
-4 16 24 8 3 1
-4 16 24 14 6 1
16 4 24 2 8 1
-16 -4 24 19 6 1
16 4 24 18 2 1
-16 -2 -24 294 15 1
-16 -2 -24 272 14 1
2 -16 -24 291 14 1
-16 -2 -24 293 17 1
2 -16 -24 307 15 1
2 -16 24 316 15 1
-16 -2 24 295 17 1
-16 -2 24 269 18 1
-2 16 24 324 18 1
16 2 24 268 14 1
-2 16 24 301 19 1
0 -16 -24 42 6 1
0 -16 -24 46 6 1
-16 0 -24 43 5 1
-16 0 -24 47 9 1
-16 0 -24 41 7 1
0 -16 24 36 7 1
0 16 24 50 11 1
-16 0 24 54 10 1
0 16 24 53 11 1
0 16 24 41 6 1
-2 -16 -24 3 2 1
-16 2 -24 1 3 1
-16 2 -24 3 2 1
-2 -16 -24 3 2 1
-16 2 -24 1 4 1
-2 -16 24 3 3 1
2 16 24 1 4 1
-16 2 24 3 4 1
16 -2 24 3 2 1
2 16 24 3 2 1
-16 2 24 0 3 1
-16 4 -24 555 27 1
-4 -16 -24 577 26 1
-16 4 -24 588 27 1
-4 -16 -24 570 26 1
16 -4 24 595 26 1
4 16 24 572 26 1
-16 4 24 595 31 1
4 16 24 520 31 1
-16 6 -24 252 13 1
-6 -16 -24 258 11 1
6 16 24 273 16 1
6 16 24 269 12 1
16 -6 24 245 12 1
-16 6 24 263 14 1
-16 6 24 245 16 1
-16 8 -24 36 7 1
-16 8 -24 26 7 1
-16 8 24 23 5 1
-10 -16 -24 14 4 1
-16 10 -24 2 4 1
-10 -16 -24 19 3 1
-16 10 24 1 2 1
-12 -16 -24 114 8 1
-16 12 -24 107 10 1
16 -12 24 93 6 1
-16 12 24 115 8 1
-16 14 -24 356 18 1
-16 14 24 379 18 1
16 -14 24 349 16 1
-17 -13 -24 75 7 1
13 -17 24 80 6 1
-13 17 24 77 7 1
-17 -11 -24 278 16 1
-17 -11 -24 280 14 1
11 -17 24 274 12 1
-11 17 24 290 14 1
-17 -9 -24 272 12 1
-17 -9 -24 276 10 1
17 9 24 269 10 1
-9 17 24 238 10 1
9 -17 24 252 10 1
7 -17 -24 203 14 1
-17 -7 -24 234 14 1
-17 -7 -24 223 14 1
-7 17 24 227 14 1
7 -17 24 216 13 1
17 7 24 230 13 1
-17 -5 -24 47 5 1
-17 -5 -24 43 7 1
-17 -5 -24 46 6 1
5 -17 24 56 6 1
-5 17 24 53 6 1
-17 -3 -24 4 4 1
-17 -3 -24 8 3 1
3 -17 -24 6 3 1
3 -17 24 4 2 1
-17 -3 24 4 3 1
17 3 24 2 3 1
-3 17 24 7 3 1
1 -17 -24 20 3 1
-17 -1 -24 11 2 1
-1 17 24 29 6 1
-17 -1 24 7 5 1
1 -17 24 25 6 1
17 1 24 14 3 1
-1 -17 -24 123 7 1
1 17 24 99 13 1
1 17 24 120 8 1
-17 1 24 129 9 1
17 -1 24 124 8 1
-1 -17 24 135 8 1
-17 1 24 90 11 1
-3 -17 -24 55 7 1
-17 3 -24 60 9 1
-17 3 -24 56 9 1
3 17 24 52 8 1
-3 -17 24 70 9 1
17 -3 24 60 8 1
-5 -17 -24 26 5 1
-17 5 -24 15 3 1
-5 -17 -24 24 5 1
5 17 24 18 5 1
-17 7 -24 2 3 1
-7 -17 -24 4 2 1
-17 7 -24 2 4 1
-7 -17 -24 1 3 1
7 17 24 2 3 1
-17 7 24 4 2 1
-17 9 -24 29 4 1
-9 -17 -24 37 3 1
-17 9 -24 19 3 1
-17 9 24 49 2 1
9 17 24 37 3 1
17 -11 24 33 4 1
-17 11 24 34 5 1
-17 13 -24 191 13 1
17 -13 24 208 10 1
-17 13 24 176 11 1
-18 -12 -24 201 11 1
12 -18 24 189 10 1
-12 18 24 191 11 1
-18 -10 -24 83 6 1
10 -18 24 80 5 1
-10 18 24 91 6 1
-18 -8 -24 4 5 1
-18 -8 -24 4 2 1
-8 18 24 7 2 1
6 -18 -24 66 8 1
-18 -6 -24 75 10 1
6 -18 24 62 6 1
-6 18 24 73 7 1
18 6 24 50 7 1
-18 -4 -24 223 12 1
4 -18 -24 209 12 1
-18 -4 -24 224 13 1
-18 -4 -24 214 12 1
18 4 24 201 12 1
4 -18 24 231 12 1
-4 18 24 215 13 1
2 -18 -24 45 3 1
-18 -2 -24 41 4 1
2 -18 -24 38 2 1
-18 -2 -24 36 2 1
-18 -2 -24 44 3 1
-2 18 24 44 4 1
-18 -2 24 65 2 1
2 -18 24 37 2 1
-18 0 -24 7 4 1
-18 0 -24 2 3 1
0 -18 -24 5 2 1
-18 0 -24 5 2 1
0 -18 -24 3 3 1
-18 0 24 6 2 1
0 -18 24 3 2 1
18 0 24 4 3 1
0 18 24 8 4 1
-18 2 -24 48 7 1
-2 -18 -24 51 5 1
-2 -18 -24 39 5 1
2 18 24 63 7 1
-18 2 24 37 5 1
18 -2 24 28 3 1
-2 -18 24 47 7 1
-4 -18 -24 149 8 1
-18 4 -24 131 8 1
-4 -18 -24 134 8 1
-18 4 -24 145 10 1
4 18 24 148 8 1
18 -4 24 145 9 1
-18 4 24 154 8 1
-18 6 -24 88 9 1
-6 -18 -24 102 8 1
-6 -18 -24 91 8 1
-18 6 -24 109 10 1
-18 6 24 81 8 1
6 18 24 95 8 1
-18 8 -24 2582 94 1
-8 -18 -24 2415 93 1
-18 8 24 2713 106 1
-18 10 -24 118 11 1
-10 -18 -24 76 8 1
-18 10 24 76 6 1
18 -10 24 102 6 1
-18 12 24 65 6 1
18 -12 24 56 5 1
-19 -11 -24 4 2 1
11 -19 24 8 3 1
-11 19 24 5 2 1
-19 -9 -24 185 10 1
9 -19 24 171 9 1
-9 19 24 177 10 1
-19 -7 -24 25 5 1
-7 19 24 25 7 1
7 -19 24 27 4 1
-19 -5 -24 9 6 1
-19 -5 -24 0 2 1
-5 19 24 1 3 1
3 -19 -24 163 9 1
-19 -3 24 158 10 1
3 -19 24 176 9 1
19 3 24 141 9 1
1 -19 -24 3 3 1
-19 -1 -24 5 5 1
1 -19 -24 5 3 1
-19 -1 -24 1 2 1
-19 -1 -24 0 3 1
-19 -1 24 6 2 1
19 1 24 0 3 1
-1 -19 -24 13 3 1
-19 1 -24 13 3 1
-19 1 -24 22 5 1
-19 1 -24 4 3 1
-1 -19 -24 10 3 1
-1 -19 24 14 2 1
19 -1 24 4 3 1
-19 3 -24 34 5 1
-19 3 -24 50 7 1
-3 -19 -24 62 5 1
3 19 24 41 4 1
19 -3 24 22 4 1
-3 -19 24 37 2 1
-19 3 24 36 5 1
-5 -19 -24 7 3 1
-19 5 -24 21 4 1
-19 5 24 12 2 1
-7 -19 -24 10 3 1
-19 7 -24 4 5 1
-19 7 24 3 2 1
-19 9 -24 40 11 1
-9 -19 -24 42 7 1
-19 9 24 25 5 1
19 -11 24 108 6 1
-19 11 24 98 7 1
-20 -10 -24 160 10 1
10 -20 24 166 9 1
-20 -8 -24 1 2 1
-8 20 24 1 3 1
8 -20 24 4 3 1
-20 -6 -24 127 8 1
6 -20 24 143 7 1
4 -20 24 15 4 1
-20 -2 -24 1014 42 1
-20 -2 -24 1097 44 1
-20 -2 24 1028 44 1
2 -20 24 1088 40 1
-20 0 -24 265 15 1
0 -20 -24 299 15 1
0 -20 24 289 14 1
-20 0 24 293 15 1
-2 -20 -24 168 10 1
-20 2 -24 190 15 1
-20 2 -24 179 11 1
-20 2 24 191 10 1
-2 -20 24 172 9 1
-20 4 -24 1 5 1
-4 -20 -24 0 3 1
-6 -20 -24 30 6 1
-20 6 24 16 4 1
-8 -20 -24 350 18 1
-20 8 24 403 19 1
20 -10 24 37 4 1
-20 10 24 36 4 1
-21 -7 -24 49 5 1
7 -21 24 45 4 1
-21 -5 -24 296 13 1
5 -21 24 275 11 1
-21 -3 -24 53 6 1
3 -21 24 39 5 1
-21 -1 -24 9 5 1
-21 -1 24 11 6 1
-21 1 -24 255 13 1
-1 -21 24 242 11 1
-21 1 24 254 13 1
-3 -21 24 156 9 1
-5 -21 -24 235 11 1
-21 5 24 250 11 1
-21 7 24 190 12 1
-22 -4 -24 1 2 1
4 -22 24 1 1 1
-22 -2 -24 194 9 1
2 -22 24 186 8 1
-22 0 24 75 7 1
-22 2 -24 77 7 1
-2 -22 24 80 6 1
-22 2 24 70 6 1
-22 4 24 32 5 1
0 1 -25 425 15 1
1 0 -25 412 14 1
0 -1 -25 401 16 1
-1 0 -25 377 15 1
-1 0 -25 405 15 1
-1 0 25 396 16 1
1 0 25 356 17 1
0 -1 25 418 16 1
0 1 25 407 17 1
-1 0 25 415 17 1
0 -1 25 430 17 1
1 0 25 408 16 1
-2 -1 -25 2920 116 1
2 1 -25 2868 116 1
1 -2 -25 2873 116 1
1 -2 -25 2840 116 1
-2 -1 -25 2753 116 1
-1 2 -25 2915 116 1
1 -2 25 3040 132 1
-2 -1 25 2917 131 1
1 -2 25 2945 128 1
-1 -2 -25 4756 184 1
-1 -2 -25 4521 184 1
2 -1 -25 4712 184 1
1 2 -25 4487 184 1
-2 1 -25 4430 185 1
-2 1 -25 4654 184 1
2 -1 25 4695 204 1
-1 -2 25 4519 204 1
1 2 25 4563 204 1
-1 -2 25 4780 209 1
-2 1 25 4439 209 1
2 -1 25 4803 209 1
2 -3 -25 591 28 1
3 2 -25 594 28 1
-2 3 -25 545 28 1
2 -3 -25 572 28 1
-2 3 -25 555 29 1
-3 -2 -25 585 28 1
-3 -2 -25 600 28 1
2 -3 25 596 32 1
3 2 25 530 31 1
2 -3 25 543 31 1
-3 -2 25 576 31 1
-3 -2 25 559 32 1
0 -3 -25 250 11 1
-3 0 -25 222 11 1
0 3 -25 257 11 1
3 0 -25 242 11 1
0 -3 -25 252 12 1
-3 0 -25 222 12 1
3 0 25 238 13 1
0 3 25 225 13 1
0 -3 25 236 13 1
-3 0 25 240 14 1
3 0 25 199 13 1
-3 0 25 215 13 1
0 3 25 221 13 1
0 -3 25 257 13 1
-2 -3 -25 1365 56 1
-3 2 -25 1371 57 1
-2 -3 -25 1353 57 1
-3 2 -25 1338 57 1
2 3 -25 1352 56 1
3 -2 -25 1377 56 1
-3 2 25 1330 64 1
3 -2 25 1309 64 1
3 -2 25 1281 62 1
-2 -3 25 1348 63 1
3 -4 -25 2491 104 1
4 3 -25 2312 103 1
-3 4 -25 2500 105 1
-3 4 -25 2458 104 1
-4 -3 -25 2480 104 1
-4 -3 -25 2474 104 1
3 -4 25 2393 115 1
4 3 25 2425 115 1
3 -4 25 2308 118 1
-4 -3 25 2237 115 1
-4 -1 -25 1532 60 1
4 1 -25 1582 59 1
1 -4 -25 1593 59 1
-1 4 -25 1589 60 1
1 -4 -25 1571 60 1
-4 -1 -25 1520 60 1
-4 -1 25 1566 66 1
4 1 25 1628 68 1
1 -4 25 1481 67 1
1 -4 25 1576 66 1
-1 4 25 1467 68 1
-1 4 25 1595 66 1
1 4 -25 3301 119 1
-4 1 -25 3160 120 1
4 -1 -25 3228 119 1
-4 1 -25 3225 120 1
-1 -4 25 3391 136 1
4 -1 25 3074 136 1
-1 -4 25 3232 132 1
1 4 25 3168 133 1
-4 1 25 3056 136 1
-4 1 25 3069 132 1
4 -3 -25 712 28 1
3 4 -25 777 29 1
-3 -4 -25 693 29 1
-4 3 -25 715 30 1
-4 3 -25 688 29 1
-3 -4 -25 710 29 1
-4 3 25 743 33 1
-3 -4 25 735 33 1
-4 3 25 763 32 1
-3 -4 25 732 32 1
3 4 25 728 32 1
4 -3 25 693 32 1
5 4 -25 25 6 1
-4 5 -25 29 9 1
-4 5 -25 33 6 1
-5 -4 -25 25 6 1
-5 -4 -25 29 5 1
4 -5 -25 24 5 1
4 -5 -25 19 5 1
-5 -4 25 26 8 1
-4 5 25 27 7 1
5 4 25 29 7 1
-4 5 25 33 7 1
4 -5 25 27 7 1
5 4 25 23 7 1
-5 -4 25 37 8 1
5 4 25 31 4 1
-5 -2 -25 377 18 1
2 -5 -25 423 18 1
-5 -2 -25 371 18 1
-2 5 -25 406 18 1
5 2 -25 387 18 1
-2 5 25 409 21 1
5 2 25 377 21 1
-5 -2 25 388 21 1
-5 -2 25 370 20 1
2 -5 25 394 21 1
-2 5 25 431 21 1
-5 0 -25 654 37 1
-5 0 -25 683 37 1
5 0 -25 652 37 1
0 -5 -25 648 37 1
0 -5 -25 614 37 1
5 0 25 623 41 1
0 -5 25 649 41 1
0 5 25 639 42 1
0 5 25 686 41 1
-5 0 25 648 41 1
0 -5 25 645 42 1
-2 -5 -25 7 2 1
-5 2 -25 4 2 1
-2 -5 -25 2 2 1
-5 2 -25 0 3 1
2 5 -25 5 3 1
5 -2 25 2 4 1
2 5 25 7 3 1
-2 -5 25 3 3 1
-2 -5 25 10 4 1
-5 2 25 3 3 1
5 -4 -25 98 6 1
-5 4 -25 112 7 1
-4 -5 -25 80 6 1
-5 4 -25 95 8 1
-4 -5 -25 95 6 1
4 5 -25 94 7 1
5 -4 25 88 8 1
-5 4 25 90 8 1
-4 -5 25 103 9 1
4 5 25 82 4 1
-4 -5 25 92 8 1
4 5 25 105 7 1
-5 4 25 110 8 1
4 5 25 89 8 1
-6 -5 -25 444 20 1
-6 -5 -25 427 20 1
5 -6 -25 420 20 1
-5 6 -25 475 21 1
-5 6 -25 435 22 1
5 -6 25 441 23 1
-6 -5 25 450 23 1
6 5 25 431 24 1
-5 6 25 446 24 1
-6 -5 25 452 23 1
6 5 25 425 19 1
6 5 25 400 23 1
-6 -3 -25 649 29 1
6 3 -25 674 29 1
3 -6 -25 624 29 1
-3 6 -25 679 29 1
3 -6 -25 644 29 1
-6 -3 -25 656 29 1
-6 -3 25 676 33 1
-3 6 25 589 33 1
6 3 25 662 27 1
6 3 25 687 33 1
-6 -3 25 656 32 1
3 -6 25 660 33 1
-3 6 25 602 33 1
-6 -1 -25 20 5 1
-1 6 -25 28 6 1
1 -6 -25 31 7 1
6 1 -25 27 7 1
-6 -1 -25 35 7 1
1 -6 -25 22 5 1
1 -6 25 21 7 1
6 1 25 26 7 1
-6 -1 25 21 7 1
-6 -1 25 30 7 1
-1 6 25 27 7 1
6 1 25 39 8 1
6 -1 -25 13 3 1
-6 1 -25 27 3 1
-6 1 -25 15 2 1
-1 -6 -25 9 2 1
1 6 -25 21 2 1
1 6 25 31 3 1
1 6 25 7 3 1
-6 1 25 13 3 1
6 -1 25 10 3 1
6 -1 25 18 2 1
-6 1 25 7 3 1
-1 -6 25 15 3 1
-6 3 -25 4614 196 1
6 -3 -25 4619 196 1
-3 -6 -25 4746 196 1
-3 -6 -25 4519 196 1
3 6 -25 4613 196 1
-3 -6 25 4580 217 1
-6 3 25 4460 218 1
3 6 25 4808 223 1
-6 3 25 4273 222 1
6 -3 25 4489 222 1
3 6 25 4782 218 1
-3 -6 25 4475 222 1
-6 5 -25 792 40 1
-5 -6 -25 866 39 1
5 6 -25 807 39 1
-6 5 -25 806 40 1
6 -5 -25 868 39 1
-5 -6 -25 876 39 1
-6 5 25 911 44 1
-6 5 25 783 45 1
5 6 25 856 44 1
-5 -6 25 820 44 1
5 6 25 876 38 1
-5 -6 25 865 44 1
6 -5 25 808 45 1
-7 -6 -25 335 20 1
-7 -6 -25 334 19 1
-6 7 -25 352 20 1
-6 7 -25 334 21 1
7 6 25 327 18 1
-7 -6 25 341 23 1
7 6 25 343 22 1
-7 -6 25 319 22 1
7 6 25 365 23 1
4 -7 -25 307 16 1
-7 -4 -25 309 15 1
-7 -4 -25 276 15 1
-4 7 -25 299 16 1
4 -7 -25 306 15 1
7 4 25 306 18 1
7 4 25 283 14 1
-7 -4 25 278 18 1
7 4 25 296 18 1
4 -7 25 299 17 1
-7 -4 25 306 18 1
-4 7 25 325 18 1
-4 7 25 285 18 1
2 -7 -25 1111 40 1
-7 -2 -25 1074 40 1
-7 -2 -25 1120 40 1
-2 7 -25 1075 40 1
-7 -2 25 1028 44 1
2 -7 25 974 45 1
7 2 25 1107 38 1
-7 -2 25 1066 45 1
-2 7 25 1016 45 1
0 7 -25 454 18 1
-7 0 -25 466 18 1
0 -7 -25 449 18 1
-7 0 -25 419 18 1
0 7 25 421 20 1
0 7 25 409 21 1
-7 0 25 459 21 1
7 0 25 475 20 1
0 -7 25 451 20 1
-7 0 25 410 20 1
-2 -7 -25 725 28 1
-7 2 -25 709 29 1
7 -2 -25 726 28 1
-7 2 -25 716 28 1
2 7 -25 708 28 1
-2 -7 -25 752 28 1
-7 2 25 747 32 1
2 7 25 723 32 1
-2 -7 25 684 32 1
7 -2 25 738 32 1
2 7 25 758 33 1
7 -2 25 699 31 1
7 -4 -25 4 3 1
-4 -7 -25 0 3 1
-7 4 -25 5 3 1
-7 4 -25 1 3 1
7 -4 25 1 3 1
-7 4 25 5 3 1
-4 -7 25 1 3 1
-7 4 25 5 3 1
4 7 25 0 3 1
4 7 25 1 3 1
4 7 25 0 2 1
7 -6 -25 370 13 1
-7 6 -25 369 13 1
-7 6 -25 339 14 1
-6 -7 -25 358 13 1
-6 -7 -25 344 13 1
6 7 25 353 15 1
-6 -7 25 314 15 1
6 7 25 322 11 1
6 7 25 315 15 1
-7 6 25 367 15 1
-6 -7 25 356 15 1
-7 8 -25 203 15 1
7 -8 -25 219 13 1
-8 -7 -25 216 12 1
-8 -7 -25 215 12 1
-8 -7 25 210 16 1
-7 8 25 204 15 1
-8 -7 25 207 15 1
8 7 25 187 14 1
-7 8 25 216 15 1
8 7 25 213 15 1
8 7 25 215 11 1
-8 -5 -25 345 18 1
5 -8 -25 338 19 1
5 -8 -25 305 18 1
-8 -5 -25 324 18 1
-5 8 -25 343 21 1
8 5 25 352 21 1
8 5 25 369 21 1
-5 8 25 321 22 1
-8 -5 25 344 21 1
-8 -5 25 309 21 1
-5 8 25 309 21 1
8 5 25 350 17 1
-3 8 -25 51 3 1
3 -8 -25 73 4 1
3 -8 -25 84 3 1
-8 -3 -25 31 3 1
-8 -3 -25 32 3 1
3 -8 25 48 3 1
-8 -3 25 25 3 1
8 3 25 27 4 1
8 3 25 30 3 1
8 3 25 30 2 1
-8 -3 25 35 4 1
-3 8 25 97 3 1
1 -8 -25 358 16 1
-8 -1 -25 327 16 1
-8 -1 -25 304 16 1
1 -8 -25 310 15 1
-1 8 -25 348 16 1
8 1 25 329 19 1
-8 -1 25 325 18 1
8 1 25 312 14 1
1 -8 25 332 18 1
-1 8 25 366 18 1
-8 -1 25 307 18 1
-1 8 25 352 19 1
1 8 -25 1582 70 1
-1 -8 -25 1525 70 1
-8 1 -25 1503 71 1
-1 -8 -25 1510 70 1
-8 1 -25 1453 70 1
-8 1 25 1594 80 1
8 -1 25 1470 78 1
-1 -8 25 1563 80 1
-8 1 25 1563 78 1
1 8 25 1587 79 1
3 8 -25 584 21 1
-3 -8 -25 577 21 1
-8 3 -25 603 22 1
-3 -8 -25 570 21 1
-8 3 25 626 24 1
3 8 25 580 24 1
8 -3 25 572 24 1
-3 -8 25 637 24 1
3 8 25 640 24 1
3 8 25 608 19 1
-8 5 -25 26 8 1
-8 5 -25 19 6 1
-5 -8 -25 30 6 1
-5 -8 -25 37 6 1
-5 -8 25 27 8 1
5 8 25 26 5 1
-8 5 25 33 7 1
-7 -8 -25 3430 143 1
-8 7 -25 3592 143 1
-8 7 -25 3294 143 1
-7 -8 -25 3363 143 1
8 -7 -25 3333 142 1
7 8 25 3255 142 1
-8 7 25 3594 159 1
7 8 25 3317 161 1
7 8 25 3323 159 1
-7 -8 25 3496 161 1
-8 9 -25 311 19 1
8 -9 -25 359 17 1
-9 -8 -25 334 17 1
-9 -8 -25 323 16 1
-9 -8 25 350 20 1
9 8 25 335 19 1
-8 9 25 328 19 1
9 8 25 314 19 1
9 8 25 361 16 1
-8 9 25 303 19 1
-9 -6 -25 561 23 1
-6 9 -25 583 26 1
6 -9 -25 590 24 1
6 -9 -25 615 23 1
9 6 25 581 27 1
-9 -6 25 612 27 1
9 6 25 553 22 1
4 -9 -25 1 3 1
-9 -4 -25 9 5 1
4 -9 -25 1 3 1
-9 -4 -25 11 2 1
-9 -4 25 11 4 1
9 4 25 7 3 1
9 4 25 8 2 1
-4 9 25 2 3 1
-9 -4 25 11 3 1
-4 9 25 2 3 1
-9 -2 -25 1521 72 1
2 -9 -25 1544 72 1
-9 -2 -25 1537 80 1
-9 -2 -25 1605 72 1
2 -9 -25 1566 71 1
-9 -2 25 1512 81 1
-9 -2 25 1623 80 1
9 2 25 1684 82 1
9 2 25 1639 80 1
0 -9 -25 490 23 1
0 -9 -25 550 23 1
-9 0 -25 500 23 1
0 9 -25 521 23 1
-9 0 -25 517 23 1
9 0 25 517 26 1
9 0 25 542 26 1
-9 0 25 527 26 1
0 -9 25 508 26 1
-9 0 25 538 26 1
9 0 25 560 21 1
-2 -9 -25 86 6 1
-9 2 -25 105 8 1
-9 2 -25 93 7 1
-2 -9 -25 68 7 1
2 9 -25 80 8 1
-9 2 25 114 8 1
2 9 25 84 5 1
-2 -9 25 79 9 1
2 9 25 105 9 1
4 9 -25 529 28 1
-4 -9 -25 518 27 1
-9 4 -25 588 28 1
-4 -9 -25 538 27 1
-9 4 -25 574 28 1
4 9 25 541 31 1
-9 4 25 515 31 1
4 9 25 544 26 1
-4 -9 25 542 31 1
4 9 25 541 32 1
-9 4 25 584 32 1
-9 6 -25 68 9 1
-9 6 -25 56 7 1
-6 -9 -25 54 7 1
-6 -9 -25 67 7 1
6 9 25 44 8 1
-6 -9 25 63 10 1
-9 6 25 67 9 1
-9 6 25 66 9 1
6 9 25 59 6 1
6 9 25 48 10 1
-8 -9 -25 965 32 1
-9 8 -25 925 33 1
-9 8 -25 944 33 1
-8 -9 -25 994 32 1
-8 -9 25 961 37 1
-9 8 25 974 37 1
-9 8 25 990 37 1
8 9 25 976 37 1
8 9 25 963 31 1
8 9 25 930 36 1
-10 -9 -25 1054 42 1
-10 -9 -25 1047 42 1
10 9 25 998 42 1
10 9 25 996 48 1
-9 10 25 977 48 1
-9 10 25 1025 48 1
-7 10 -25 161 14 1
-10 -7 -25 157 9 1
7 -10 -25 185 10 1
-10 -7 -25 176 9 1
7 -10 -25 209 12 1
-7 10 25 183 11 1
-10 -7 25 157 14 1
-7 10 25 185 12 1
-10 -7 25 187 12 1
10 7 25 191 8 1
10 7 25 198 12 1
5 -10 -25 333 15 1
5 -10 -25 328 16 1
-10 -5 -25 301 15 1
-10 -5 -25 329 15 1
-5 10 25 334 17 1
-10 -5 25 303 18 1
10 5 25 345 14 1
-10 -5 25 315 17 1
10 5 25 335 18 1
-10 -3 -25 62 8 1
3 -10 -25 49 8 1
3 -10 -25 45 9 1
-10 -3 -25 61 8 1
-10 -3 -25 65 12 1
10 3 25 61 10 1
-3 10 25 57 10 1
10 3 25 56 7 1
-10 -3 25 82 10 1
-10 -3 25 66 11 1
-10 -1 -25 321 13 1
1 -10 -25 307 13 1
-10 -1 -25 334 13 1
1 -10 -25 311 13 1
10 1 25 327 16 1
1 -10 25 325 16 1
-1 10 25 292 15 1
-1 10 25 342 16 1
-10 -1 25 299 16 1
-10 -1 25 300 15 1
10 1 25 320 12 1
-1 -10 -25 3121 126 1
-10 1 -25 2971 126 1
-10 1 -25 3109 126 1
1 10 -25 3177 126 1
10 -1 25 3219 125 1
-1 -10 25 3200 127 1
-10 1 25 3236 143 1
1 10 25 3319 140 1
1 10 25 3263 143 1
-10 3 -25 30 7 1
-3 -10 -25 34 6 1
-3 -10 -25 28 6 1
3 10 -25 18 8 1
-10 3 -25 27 6 1
3 10 25 31 5 1
-10 3 25 39 8 1
-10 3 25 42 8 1
-3 -10 25 22 9 1
-3 -10 25 27 10 1
3 10 25 21 8 1
3 10 25 22 7 1
-5 -10 -25 118 7 1
-10 5 -25 111 8 1
-10 5 -25 104 9 1
-5 -10 -25 103 7 1
5 10 25 117 7 1
-5 -10 25 112 11 1
-10 5 25 110 10 1
5 10 25 115 10 1
-10 5 25 95 9 1
5 10 25 96 9 1
-7 -10 -25 219 9 1
-10 7 -25 222 9 1
-7 -10 -25 202 8 1
-10 7 -25 240 10 1
-7 -10 25 196 13 1
7 10 25 212 12 1
-10 7 25 192 11 1
-10 7 25 233 11 1
7 10 25 230 8 1
7 10 25 211 11 1
-9 -10 -25 1 3 1
-10 9 -25 1 3 1
-9 -10 -25 0 2 1
9 10 25 0 4 1
-10 9 25 3 4 1
9 10 25 1 4 1
-10 9 25 2 3 1
9 10 25 6 5 1
-11 -10 -25 5 2 1
-11 -10 -25 6 2 1
-10 11 -25 7 5 1
-10 11 25 5 5 1
11 10 25 5 5 1
-10 11 25 2 3 1
11 10 25 4 2 1
8 -11 -25 343 13 1
-11 -8 -25 346 11 1
11 8 25 324 15 1
11 8 25 361 11 1
-8 11 25 354 14 1
-8 11 25 332 14 1
-11 -6 -25 93 10 1
6 -11 -25 93 11 1
-11 -6 -25 92 10 1
6 -11 -25 94 12 1
11 6 25 99 10 1
-6 11 25 104 13 1
-11 -6 25 104 13 1
-11 -6 25 91 14 1
-6 11 25 104 13 1
-11 -4 -25 179 2 1
-11 -4 -25 237 3 1
4 -11 -25 153 2 1
-11 -4 25 185 3 1
11 4 25 237 2 1
-4 11 25 143 3 1
-4 11 25 179 2 1
11 4 25 237 4 1
-11 -4 25 214 4 1
2 -11 -25 388 12 1
-11 -2 -25 389 12 1
-11 -2 -25 414 15 1
2 -11 -25 384 11 1
-11 -2 -25 380 11 1
11 2 25 364 15 1
-11 -2 25 403 14 1
11 2 25 390 11 1
-11 -2 25 410 14 1
0 -11 -25 3 3 1
0 -11 -25 10 5 1
-11 0 -25 4 3 1
-11 0 -25 9 5 1
-11 0 25 6 3 1
11 0 25 5 4 1
0 11 25 9 6 1
0 -11 25 3 3 1
-2 -11 -25 3 5 1
-11 2 -25 5 6 1
-2 -11 -25 5 5 1
-11 2 -25 3 6 1
-2 -11 25 9 9 1
-2 -11 25 9 9 1
2 11 25 5 9 1
11 -2 25 4 4 1
-11 2 25 1 7 1
2 11 25 2 5 1
-11 2 25 4 7 1
-11 4 -25 3 3 1
-4 -11 -25 3 2 1
-4 -11 -25 7 2 1
-11 4 -25 10 3 1
4 11 -25 6 5 1
-11 4 25 1 3 1
-4 -11 25 7 4 1
4 11 25 9 2 1
-11 4 25 3 3 1
4 11 25 8 3 1
4 11 25 8 3 1
-11 6 -25 1349 56 1
-11 6 -25 1378 56 1
-6 -11 -25 1448 55 1
-6 -11 -25 1425 56 1
6 11 25 1486 63 1
6 11 25 1430 55 1
6 11 25 1387 63 1
-11 6 25 1481 64 1
-11 8 -25 447 21 1
-11 8 -25 478 20 1
-8 -11 -25 436 19 1
-8 -11 -25 453 19 1
-11 8 25 392 22 1
8 11 25 464 23 1
8 11 25 474 23 1
-11 8 25 409 22 1
8 11 25 436 19 1
-11 10 -25 281 17 1
-10 -11 -25 279 16 1
-10 -11 -25 261 16 1
-11 10 -25 256 19 1
10 11 25 278 16 1
10 11 25 294 20 1
-11 10 25 299 19 1
-11 12 -25 4 5 1
-12 -11 -25 6 2 1
-11 12 25 5 6 1
12 11 25 9 6 1
12 11 25 5 2 1
-11 12 25 0 3 1
-12 -9 -25 0 3 1
9 -12 -25 0 5 1
-12 -9 -25 1 2 1
-9 12 -25 3 6 1
12 9 25 1 2 1
-9 12 25 1 5 1
-9 12 25 2 3 1
12 9 25 1 5 1
-12 -7 -25 1 3 1
7 -12 -25 86 4 1
7 -12 -25 94 4 1
-12 -7 -25 1 2 1
-12 -7 25 2 4 1
-7 12 25 105 3 1
-12 -7 25 0 7 1
-7 12 25 136 5 1
12 7 25 3 5 1
12 7 25 0 2 1
5 -12 -25 220 11 1
5 -12 -25 213 10 1
-12 -5 -25 230 12 1
-12 -5 -25 218 10 1
-5 12 25 222 13 1
-12 -5 25 227 14 1
12 5 25 226 13 1
-12 -5 25 227 12 1
-12 -3 -25 226 14 1
-12 -3 -25 217 11 1
3 -12 -25 200 11 1
-12 -3 -25 201 11 1
3 -12 -25 184 12 1
-3 12 25 194 13 1
3 -12 25 194 12 1
12 3 25 208 15 1
-3 12 25 183 13 1
-12 -3 25 187 14 1
-12 -3 25 199 13 1
-12 -1 -25 236 18 1
1 -12 -25 257 15 1
-12 -1 -25 231 15 1
-12 -1 -25 234 15 1
1 -12 -25 237 15 1
12 1 25 231 19 1
1 -12 25 245 16 1
-1 12 25 226 18 1
-12 -1 25 259 18 1
12 1 25 224 14 1
-1 12 25 240 18 1
-12 1 -25 596 24 1
-1 -12 -25 595 23 1
-1 -12 -25 537 23 1
-12 1 -25 557 23 1
1 12 25 572 22 1
1 12 25 568 27 1
-12 1 25 546 26 1
-1 -12 25 606 24 1
12 -1 25 556 22 1
-12 3 -25 365 20 1
-3 -12 -25 418 19 1
-12 3 -25 378 20 1
3 12 -25 405 21 1
-3 -12 -25 396 19 1
3 12 25 434 22 1
12 -3 25 399 18 1
3 12 25 412 18 1
-3 -12 25 398 20 1
3 12 25 442 23 1
-12 5 -25 1948 88 1
-5 -12 -25 1947 88 1
-12 5 -25 1851 88 1
5 12 25 1903 87 1
5 12 25 1956 98 1
5 12 25 2006 99 1
-12 5 25 2074 100 1
-12 5 25 2071 98 1
-7 -12 -25 321 13 1
-12 7 -25 321 15 1
-12 7 -25 286 14 1
-7 -12 -25 331 13 1
7 12 25 326 13 1
7 12 25 327 17 1
-9 -12 -25 267 10 1
-12 9 -25 272 11 1
-9 -12 -25 257 9 1
-12 9 -25 258 12 1
-12 9 25 280 12 1
9 12 25 257 9 1
-12 9 25 235 13 1
9 12 25 240 13 1
-12 11 -25 125 11 1
-11 -12 -25 129 7 1
11 12 25 129 12 1
-12 11 25 123 9 1
11 12 25 129 7 1
-13 -12 -25 408 16 1
-13 -12 -25 364 15 1
-12 13 -25 394 19 1
13 12 25 387 15 1
-12 13 25 410 17 1
12 -13 25 430 15 1
-10 13 -25 708 32 1
10 -13 -25 729 31 1
-13 -10 -25 753 28 1
10 -13 25 769 29 1
8 -13 -25 1430 64 1
-13 -8 -25 1554 64 1
-13 -8 -25 1522 63 1
-8 13 25 1476 72 1
8 -13 25 1516 64 1
6 -13 -25 101 7 1
-13 -6 -25 126 7 1
-13 -6 -25 102 9 1
6 -13 -25 134 10 1
-6 13 25 120 11 1
13 6 25 120 12 1
6 -13 25 109 7 1
-6 13 25 112 9 1
13 6 25 126 7 1
-13 -6 25 113 13 1
-13 -6 25 153 11 1
4 -13 -25 21 3 1
-13 -4 -25 47 3 1
-13 -4 -25 28 3 1
-13 -4 -25 68 2 1
13 4 25 68 6 1
-4 13 25 24 3 1
-13 -4 25 34 3 1
13 4 25 53 2 1
4 -13 25 32 2 1
-13 -4 25 30 5 1
-13 -2 -25 341 17 1
2 -13 -25 296 13 1
-13 -2 -25 334 14 1
13 2 25 315 19 1
-13 -2 25 324 17 1
-13 -2 25 315 16 1
-2 13 25 313 16 1
-2 13 25 303 16 1
2 -13 25 321 14 1
0 -13 -25 335 16 1
-13 0 -25 328 20 1
0 -13 -25 347 16 1
-13 0 -25 309 16 1
0 13 25 312 19 1
-13 0 25 354 19 1
-13 0 25 343 19 1
13 0 25 338 16 1
0 13 25 319 19 1
0 -13 25 357 17 1
-2 -13 -25 48 2 1
-13 2 -25 34 3 1
-13 2 25 30 4 1
-2 -13 25 32 3 1
2 13 25 37 4 1
2 13 25 34 4 1
-13 2 25 40 3 1
2 13 25 34 2 1
-13 4 -25 465 20 1
-13 4 -25 465 20 1
-4 -13 -25 438 19 1
-4 -13 -25 434 19 1
-13 4 25 468 22 1
4 13 25 451 23 1
-13 4 25 512 23 1
4 13 25 404 18 1
4 13 25 461 22 1
-6 -13 -25 19 5 1
-13 6 -25 16 6 1
-13 6 -25 14 6 1
-6 -13 -25 10 4 1
6 13 25 20 8 1
6 13 25 9 5 1
6 13 25 15 5 1
-8 -13 -25 288 12 1
-13 8 -25 298 13 1
-13 8 -25 271 12 1
-8 -13 -25 283 11 1
-13 8 25 292 15 1
8 13 25 260 15 1
-10 -13 -25 144 8 1
-13 10 -25 125 12 1
-13 10 25 134 11 1
10 13 25 141 9 1
-13 12 -25 106 11 1
-13 12 -25 100 8 1
-12 -13 -25 79 7 1
-12 -13 -25 96 7 1
-13 12 25 92 7 1
12 13 25 90 7 1
-14 -13 -25 301 15 1
-13 14 -25 286 15 1
-13 14 25 310 16 1
-14 -11 -25 417 16 1
11 -14 -25 444 22 1
14 11 25 455 16 1
-11 14 25 436 18 1
11 -14 25 445 17 1
-14 -9 -25 81 3 1
-9 14 -25 76 8 1
9 -14 -25 66 5 1
-14 -9 -25 109 2 1
9 -14 25 124 2 1
7 -14 -25 25 10 1
-14 -7 -25 41 7 1
7 -14 -25 24 9 1
-7 14 25 23 13 1
-7 14 25 30 9 1
14 7 25 41 13 1
14 7 25 36 6 1
7 -14 25 30 7 1
-14 -7 25 73 17 1
-14 -5 -25 128 11 1
5 -14 -25 118 9 1
-14 -5 -25 114 9 1
-14 -5 -25 123 8 1
5 -14 -25 123 10 1
14 5 25 97 15 1
14 5 25 105 8 1
5 -14 25 104 9 1
-5 14 25 112 13 1
-14 -5 25 111 14 1
-14 -5 25 121 12 1
-5 14 25 134 11 1
-14 -3 -25 219 11 1
3 -14 -25 213 11 1
-14 -3 -25 216 13 1
3 -14 -25 203 11 1
-14 -3 -25 217 11 1
3 -14 25 200 11 1
14 3 25 221 18 1
-14 -3 25 220 13 1
14 3 25 219 11 1
-3 14 25 217 15 1
-14 -3 25 215 15 1
1 -14 -25 92 6 1
1 -14 -25 87 6 1
-14 -1 -25 91 10 1
-14 -1 -25 77 6 1
-14 -1 -25 88 6 1
14 1 25 91 6 1
-1 14 25 88 9 1
-14 -1 25 97 8 1
-1 14 25 112 9 1
1 -14 25 95 7 1
-1 -14 -25 143 10 1
-1 -14 -25 158 10 1
-14 1 -25 157 10 1
-14 1 -25 142 10 1
1 14 25 141 12 1
1 14 25 156 9 1
1 14 25 169 13 1
-14 1 25 139 12 1
-14 1 25 164 12 1
-1 -14 25 163 11 1
14 -1 25 167 9 1
-3 -14 -25 27 6 1
3 14 -25 15 7 1
-14 3 -25 29 7 1
-14 3 -25 16 7 1
-3 -14 -25 17 6 1
14 -3 25 19 6 1
3 14 25 22 10 1
3 14 25 26 8 1
-14 3 25 28 8 1
-14 3 25 18 9 1
-3 -14 25 29 9 1
3 14 25 21 6 1
-5 -14 -25 33 5 1
-14 5 -25 30 6 1
-14 5 -25 28 6 1
-5 -14 -25 25 5 1
5 14 25 46 9 1
-14 5 25 17 5 1
5 14 25 31 5 1
5 14 25 20 5 1
-14 5 25 20 7 1
-7 -14 -25 571 25 1
-14 7 -25 564 26 1
-14 7 -25 571 25 1
-7 -14 -25 578 24 1
7 14 25 558 24 1
7 14 25 571 29 1
-14 9 -25 277 16 1
-14 9 -25 288 15 1
-9 -14 -25 260 13 1
-9 -14 -25 275 14 1
9 14 25 273 14 1
-11 -14 -25 174 11 1
-14 11 -25 171 12 1
-11 -14 -25 170 11 1
-14 11 -25 145 14 1
11 14 25 165 11 1
-14 11 25 178 13 1
-13 -14 -25 127 8 1
-14 13 -25 111 9 1
-14 13 25 117 7 1
-15 -14 -25 295 16 1
-14 15 -25 270 16 1
14 -15 25 296 14 1
-14 15 25 305 16 1
-15 -12 -25 18 8 1
-12 15 25 26 5 1
-15 -10 -25 4 4 1
-15 -10 -25 4 3 1
-15 -10 -25 4 2 1
10 -15 -25 0 6 1
-10 15 25 6 2 1
10 -15 25 5 2 1
15 10 25 4 3 1
-15 -8 -25 62 2 1
-15 -8 -25 62 3 1
-15 -8 -25 62 2 1
8 -15 -25 60 4 1
15 8 25 62 3 1
-8 15 25 46 2 1
8 -15 25 60 2 1
6 -15 -25 264 13 1
-15 -6 -25 300 14 1
-15 -6 -25 302 11 1
6 -15 -25 309 13 1
15 6 25 283 12 1
6 -15 25 277 12 1
-15 -4 -25 605 22 1
4 -15 -25 587 22 1
4 -15 -25 582 22 1
-15 -4 -25 609 23 1
-15 -4 -25 573 25 1
-4 15 25 618 27 1
-4 15 25 590 25 1
-15 -4 25 609 25 1
4 -15 25 558 22 1
15 4 25 618 22 1
-15 -2 -25 767 36 1
2 -15 -25 805 36 1
-15 -2 -25 774 36 1
-15 -2 -25 778 40 1
-2 15 25 845 41 1
-15 -2 25 817 41 1
2 -15 25 837 36 1
-2 15 25 801 41 1
-15 0 -25 42 6 1
0 -15 -25 51 7 1
-15 0 -25 60 10 1
-15 0 -25 46 6 1
15 0 25 39 6 1
0 15 25 55 10 1
-15 0 25 60 8 1
0 15 25 45 10 1
-15 0 25 47 10 1
-15 2 -25 463 16 1
-15 2 -25 408 15 1
-2 -15 -25 448 15 1
-2 -15 -25 419 15 1
-15 2 25 431 19 1
15 -2 25 433 14 1
2 15 25 458 19 1
-15 2 25 403 17 1
2 15 25 454 19 1
2 15 25 441 15 1
-2 -15 25 422 16 1
-4 -15 -25 1114 50 1
-15 4 -25 1152 51 1
-15 4 -25 1181 51 1
-4 -15 -25 1185 50 1
4 15 25 1178 50 1
4 15 25 1205 57 1
-15 4 25 1236 57 1
15 -4 25 1141 49 1
-15 6 -25 508 19 1
-6 -15 -25 480 18 1
-15 6 25 505 23 1
6 15 25 510 18 1
6 15 25 494 22 1
-8 -15 -25 56 6 1
-15 8 -25 47 8 1
-15 8 -25 64 8 1
-8 -15 -25 48 6 1
8 15 25 62 7 1
-15 8 25 46 7 1
-10 -15 -25 9 3 1
-15 10 -25 14 4 1
-10 -15 -25 9 3 1
-15 10 25 13 2 1
-12 -15 -25 383 17 1
-15 12 -25 395 18 1
-15 12 25 408 19 1
-15 14 -25 1275 54 1
15 -14 25 1331 53 1
-15 14 25 1353 60 1
-16 -13 -25 208 13 1
-13 16 -25 220 14 1
13 -16 25 232 12 1
-13 16 25 232 13 1
-16 -11 -25 3382 131 1
-16 -11 -25 3481 145 1
11 -16 25 3594 132 1
-11 16 25 3682 148 1
-16 -9 -25 604 19 1
-16 -9 -25 607 20 1
9 -16 25 647 18 1
-9 16 25 621 20 1
-16 -7 -25 3 2 1
-16 -7 -25 1 4 1
7 -16 -25 5 4 1
-16 -7 -25 13 3 1
7 -16 25 15 2 1
5 -16 -25 66 8 1
-16 -5 -25 63 6 1
-16 -5 -25 47 7 1
-16 -5 -25 75 8 1
16 5 25 55 6 1
5 -16 25 59 6 1
-16 -5 25 46 8 1
3 -16 -25 132 8 1
3 -16 25 150 8 1
16 3 25 133 7 1
-16 -1 -25 598 23 1
-16 -1 -25 649 25 1
1 -16 -25 620 24 1
1 -16 -25 596 24 1
1 -16 25 637 24 1
16 1 25 630 23 1
-16 -1 25 595 28 1
-16 -1 25 673 27 1
-1 16 25 572 29 1
-16 1 -25 162 9 1
-1 -16 -25 150 8 1
-1 -16 -25 162 8 1
-16 1 -25 147 8 1
16 -1 25 144 8 1
1 16 25 150 9 1
1 16 25 156 13 1
-1 -16 25 170 9 1
-16 1 25 144 10 1
-16 1 25 160 12 1
-16 3 -25 27 3 1
-3 -16 25 31 3 1
-16 3 25 41 7 1
3 16 25 48 6 1
-16 3 25 29 5 1
16 -3 25 39 6 1
-5 -16 -25 1 2 1
-16 5 -25 1 3 1
-16 5 -25 0 3 1
-5 -16 -25 1 2 1
5 16 25 1 3 1
-7 -16 -25 1018 36 1
-7 -16 -25 1002 37 1
-16 7 25 923 42 1
7 16 25 1042 37 1
-16 9 -25 1070 38 1
-9 -16 -25 1045 37 1
-16 9 -25 1005 38 1
-9 -16 -25 942 36 1
9 16 25 1022 37 1
-16 11 -25 0 4 1
-11 -16 -25 13 3 1
-16 11 25 14 2 1
16 -11 25 13 1 1
-16 13 -25 5 4 1
-16 13 25 3 2 1
-17 -12 -25 1 2 1
12 -17 25 0 1 1
-12 17 25 0 2 1
-17 -10 -25 257 15 1
10 -17 25 275 11 1
-17 -8 -25 242 15 1
-17 -8 -25 229 15 1
-8 17 25 269 15 1
17 8 25 277 14 1
8 -17 25 246 14 1
6 -17 -25 92 9 1
-17 -6 -25 81 9 1
-17 -6 -25 62 7 1
17 6 25 55 8 1
6 -17 25 68 7 1
4 -17 -25 201 12 1
-17 -4 -25 205 12 1
-17 -4 -25 221 12 1
4 -17 -25 209 12 1
-17 -4 -25 203 13 1
4 -17 25 222 12 1
17 4 25 189 12 1
-4 17 25 235 13 1
-17 -4 25 213 13 1
2 -17 -25 93 8 1
-17 -2 -25 83 9 1
-17 -2 -25 107 8 1
2 -17 25 82 8 1
-17 -2 25 91 8 1
-2 17 25 79 9 1
-17 0 -25 3 3 1
0 -17 -25 1 3 1
-17 0 -25 1 3 1
0 -17 -25 1 2 1
-17 0 25 7 2 1
17 0 25 3 3 1
0 -17 25 1 2 1
-2 -17 -25 43 5 1
-17 2 -25 22 3 1
17 -2 25 14 3 1
-2 -17 25 25 3 1
2 17 25 32 4 1
-17 4 -25 191 11 1
-4 -17 -25 199 10 1
4 17 25 194 11 1
-17 4 25 196 11 1
17 -4 25 182 11 1
-6 -17 -25 734 27 1
-6 -17 -25 668 26 1
-17 6 25 738 30 1
6 17 25 708 26 1
-17 8 -25 340 19 1
-17 8 -25 396 20 1
-8 -17 -25 393 18 1
-17 8 25 396 21 1
-17 10 -25 536 25 1
-10 -17 -25 531 24 1
-17 12 -25 676 28 1
17 -12 25 630 26 1
-17 12 25 651 29 1
-18 -11 -25 93 8 1
-11 18 25 94 8 1
11 -18 25 105 7 1
-18 -9 -25 6 2 1
-9 18 25 10 2 1
-18 -7 -25 2 5 1
-18 -7 -25 2 2 1
7 -18 25 5 1 1
-7 18 25 3 2 1
-18 -5 -25 126 10 1
5 -18 -25 143 10 1
-18 -5 -25 146 12 1
-5 18 25 135 10 1
-18 -3 -25 26 4 1
-18 -3 -25 40 5 1
3 -18 -25 19 3 1
3 -18 -25 19 3 1
-3 18 25 21 3 1
-18 -3 25 18 3 1
3 -18 25 20 2 1
-18 -1 -25 82 7 1
-18 -1 -25 87 9 1
-18 -1 -25 85 7 1
1 -18 -25 103 6 1
1 -18 -25 78 7 1
1 -18 25 71 6 1
-18 -1 25 68 6 1
-18 1 -25 481 20 1
-1 -18 -25 550 20 1
-1 -18 -25 501 20 1
-18 1 -25 525 21 1
-18 1 -25 525 22 1
18 -1 25 496 20 1
-18 1 25 550 23 1
-3 -18 -25 288 15 1
-3 -18 -25 315 15 1
-18 3 -25 327 17 1
18 -3 25 290 16 1
-18 3 25 308 17 1
-3 -18 25 308 15 1
3 18 25 298 16 1
-5 -18 -25 100 8 1
-18 5 -25 95 9 1
-18 5 25 103 7 1
-7 -18 -25 0 3 1
-18 7 -25 0 4 1
-18 9 -25 202 12 1
-9 -18 -25 189 10 1
-18 9 25 182 10 1
-18 11 25 113 6 1
18 -11 25 92 5 1
-19 -10 -25 98 7 1
10 -19 25 99 6 1
-10 19 25 125 7 1
-19 -8 -25 234 12 1
-8 19 25 213 14 1
8 -19 25 243 11 1
-19 -6 -25 36 5 1
6 -19 25 35 4 1
-6 19 25 55 7 1
-19 -4 -25 137 13 1
-19 -4 -25 136 8 1
4 -19 25 151 7 1
-19 -2 -25 2379 89 1
-19 -2 -25 2516 98 1
2 -19 25 2494 89 1
-19 -2 25 2418 100 1
0 -19 -25 82 8 1
-19 0 -25 74 12 1
-19 0 -25 91 9 1
0 -19 25 92 7 1
-19 2 -25 113 11 1
-2 -19 -25 147 8 1
-2 -19 25 140 8 1
-19 2 25 152 8 1
-4 -19 -25 487 22 1
-19 4 -25 524 24 1
-19 4 25 491 24 1
-6 -19 -25 622 26 1
-19 6 -25 669 27 1
-19 6 25 705 29 1
-8 -19 -25 12 3 1
-19 8 25 8 2 1
-19 10 25 336 15 1
19 -10 25 328 13 1
-20 -7 -25 108 10 1
-7 20 25 84 11 1
7 -20 25 95 8 1
-20 -5 -25 41 6 1
5 -20 25 41 4 1
-20 -3 -25 1 2 1
3 -20 25 0 1 1
-20 -1 -25 181 10 1
-20 -1 25 162 10 1
1 -20 25 172 8 1
-20 1 -25 283 14 1
-20 1 25 287 14 1
-1 -20 25 290 13 1
-3 -20 -25 4 3 1
-20 3 25 13 4 1
-3 -20 25 8 2 1
-20 5 25 199 11 1
-20 7 25 187 10 1
-21 -6 -25 12 4 1
6 -21 25 25 3 1
-21 -4 -25 213 13 1
4 -21 25 195 11 1
-21 -2 -25 57 6 1
2 -21 25 49 5 1
-21 0 -25 372 17 1
-21 0 25 362 17 1
0 -21 25 327 15 1
-2 -21 25 1498 63 1
-21 2 25 1419 71 1
-21 4 25 39 4 1
0 0 -26 3593 133 1
-1 -1 -26 30 8 1
-1 1 -26 17 5 1
-1 1 -26 29 10 1
1 1 -26 26 5 1
-1 -1 -26 24 5 1
1 -1 -26 30 5 1
1 -1 26 33 7 1
-1 1 26 21 6 1
-1 -1 26 20 6 1
1 1 26 37 7 1
-1 -1 26 26 7 1
1 -1 26 27 7 1
1 1 26 33 7 1
-2 0 -26 154 12 1
-2 0 -26 158 11 1
0 -2 -26 149 11 1
2 0 -26 140 11 1
0 -2 -26 144 12 1
0 2 -26 145 11 1
0 -2 26 159 13 1
0 2 26 134 12 1
-2 0 26 157 13 1
2 0 26 130 12 1
-2 0 26 157 13 1
2 0 26 148 12 1
0 2 26 152 13 1
0 -2 26 141 13 1
-2 2 -26 13 4 1
-2 -2 -26 12 3 1
-2 2 -26 17 3 1
-2 -2 -26 13 3 1
2 -2 -26 11 3 1
2 2 -26 11 3 1
-2 -2 26 9 3 1
-2 2 26 12 3 1
-2 2 26 7 3 1
2 -2 26 29 7 1
2 -2 26 19 4 1
-2 -2 26 11 4 1
2 2 26 12 3 1
2 2 26 13 3 1
1 -3 -26 41 5 1
-3 -1 -26 23 5 1
1 -3 -26 46 8 1
-1 3 -26 34 5 1
-3 -1 -26 28 7 1
3 1 -26 36 5 1
1 -3 26 28 8 1
3 1 26 35 7 1
-3 -1 26 38 7 1
-3 -1 26 28 7 1
-1 3 26 43 7 1
-1 3 26 29 7 1
3 -1 -26 814 29 1
-1 -3 -26 819 29 1
1 3 -26 806 29 1
-3 1 -26 791 29 1
-1 -3 -26 801 29 1
-3 1 -26 821 30 1
3 -1 26 819 32 1
-1 -3 26 802 32 1
-3 1 26 827 33 1
3 -1 26 839 33 1
1 3 26 844 33 1
-3 3 -26 1391 49 1
3 3 -26 1389 49 1
-3 -3 -26 1381 49 1
3 -3 -26 1315 49 1
-3 3 -26 1330 50 1
-3 -3 -26 1430 49 1
-3 -3 26 1312 54 1
3 3 26 1450 56 1
3 -3 26 1332 54 1
-3 -3 26 1291 55 1
2 -4 -26 133 11 1
4 2 -26 136 9 1
-2 4 -26 135 9 1
-4 -2 -26 123 10 1
-4 -2 26 129 11 1
-2 4 26 145 11 1
-4 -2 26 122 11 1
4 2 26 126 11 1
2 -4 26 122 11 1
-2 4 26 124 11 1
2 -4 26 126 12 1
0 -4 -26 687 32 1
0 -4 -26 711 32 1
0 4 -26 733 32 1
4 0 -26 648 32 1
-4 0 -26 710 33 1
0 4 26 743 37 1
4 0 26 648 36 1
4 0 26 672 36 1
0 4 26 726 36 1
0 -4 26 733 36 1
-4 0 26 697 36 1
-4 0 26 688 37 1
2 4 -26 24 6 1
-2 -4 -26 23 6 1
-4 2 -26 35 8 1
-4 2 -26 24 5 1
4 -2 -26 35 6 1
-2 -4 -26 13 5 1
2 4 26 25 7 1
4 -2 26 28 8 1
-2 -4 26 29 8 1
-4 2 26 21 7 1
4 -2 26 25 7 1
-2 -4 26 22 7 1
2 4 26 21 6 1
4 -4 -26 1 3 1
4 4 -26 1 3 1
-4 4 -26 1 4 1
-4 -4 -26 0 2 1
-4 4 -26 1 2 1
-4 -4 -26 0 3 1
-4 -4 26 0 4 1
4 4 26 0 2 1
4 -4 26 2 3 1
-4 4 26 2 3 1
-4 -4 26 0 2 1
5 3 -26 269 14 1
3 -5 -26 260 13 1
-3 5 -26 264 14 1
-5 -3 -26 268 14 1
-5 -3 -26 262 14 1
3 -5 -26 240 15 1
-5 -3 26 241 16 1
5 3 26 247 16 1
5 3 26 290 16 1
3 -5 26 265 16 1
-5 -3 26 277 16 1
-5 -1 -26 139 9 1
5 1 -26 127 9 1
-1 5 -26 127 9 1
-5 -1 -26 130 8 1
1 -5 -26 127 8 1
5 1 26 129 10 1
-1 5 26 109 10 1
1 -5 26 129 10 1
5 1 26 145 10 1
-1 5 26 121 10 1
-5 -1 26 137 10 1
-5 -1 26 133 10 1
-1 -5 -26 530 20 1
-1 -5 -26 526 20 1
-5 1 -26 526 20 1
1 5 -26 544 20 1
5 -1 -26 519 20 1
-5 1 -26 554 21 1
-1 -5 26 470 23 1
-1 -5 26 500 23 1
5 -1 26 514 23 1
-5 1 26 500 23 1
1 5 26 549 24 1
-5 1 26 519 23 1
1 5 26 511 23 1
-5 3 -26 142 8 1
3 5 -26 141 9 1
-5 3 -26 128 10 1
5 -3 -26 131 8 1
-3 -5 -26 149 9 1
-3 -5 -26 137 8 1
-3 -5 26 120 11 1
-5 3 26 132 10 1
3 5 26 157 10 1
-5 3 26 131 10 1
-3 -5 26 144 10 1
5 -3 26 131 10 1
3 5 26 129 9 1
-5 -5 -26 177 10 1
-5 5 -26 204 10 1
5 5 -26 172 10 1
5 -5 -26 175 9 1
-5 5 -26 177 12 1
-5 -5 -26 163 9 1
-5 5 26 179 12 1
-5 -5 26 177 12 1
-5 5 26 172 11 1
5 -5 26 200 11 1
-5 -5 26 179 11 1
5 5 26 167 11 1
-4 6 -26 13 3 1
-6 -4 -26 4 2 1
4 -6 -26 7 3 1
4 -6 -26 7 4 1
-6 -4 -26 4 2 1
-6 -4 26 8 4 1
6 4 26 5 2 1
6 4 26 14 4 1
6 4 26 4 3 1
-4 6 26 8 2 1
4 -6 26 3 2 1
-6 -4 26 8 3 1
-2 6 -26 7 5 1
2 -6 -26 2 3 1
-6 -2 -26 6 5 1
-6 -2 26 6 4 1
6 2 26 3 3 1
-2 6 26 4 4 1
-2 6 26 5 3 1
2 -6 26 3 3 1
-6 -2 26 3 3 1
6 2 26 13 7 1
0 -6 -26 774 29 1
-6 0 -26 761 29 1
-6 0 -26 817 30 1
6 0 -26 766 29 1
0 6 -26 790 29 1
-6 0 26 745 33 1
0 -6 26 791 33 1
-6 0 26 823 33 1
6 0 26 769 32 1
6 -2 -26 27 7 1
-6 2 -26 21 6 1
2 6 -26 13 3 1
-6 2 -26 11 4 1
6 -2 26 20 7 1
2 6 26 19 6 1
-2 -6 26 29 7 1
2 6 26 27 7 1
6 -2 26 27 9 1
-6 2 26 20 7 1
-6 4 -26 210 10 1
-4 -6 -26 197 10 1
4 6 -26 202 11 1
-6 4 -26 192 12 1
6 -4 -26 213 10 1
4 6 26 220 12 1
-4 -6 26 183 13 1
-4 -6 26 197 12 1
4 6 26 209 12 1
-6 4 26 191 12 1
-6 6 -26 388 17 1
-6 -6 -26 424 16 1
-6 6 -26 419 18 1
-6 -6 -26 417 16 1
6 -6 -26 448 16 1
-6 6 26 415 19 1
6 6 26 429 19 1
-6 -6 26 422 19 1
6 -6 26 409 19 1
-6 6 26 416 19 1
-6 -6 26 391 19 1
6 6 26 432 15 1
-7 -5 -26 142 9 1
-5 7 -26 137 9 1
-5 7 -26 139 13 1
5 -7 -26 151 9 1
7 5 26 126 7 1
-5 7 26 143 11 1
7 5 26 134 11 1
-7 -5 26 145 11 1
-5 7 26 127 11 1
7 5 26 133 11 1
5 -7 26 146 10 1
-7 -5 26 125 12 1
-7 -3 -26 520 19 1
3 -7 -26 556 20 1
-3 7 -26 562 19 1
-7 -3 -26 579 19 1
-7 -3 26 560 22 1
-7 -3 26 545 22 1
7 3 26 559 22 1
3 -7 26 496 22 1
7 3 26 572 17 1
-7 -1 -26 1 3 1
-1 7 -26 0 3 1
1 -7 -26 0 2 1
1 -7 -26 0 3 1
-7 -1 -26 1 3 1
-7 -1 26 0 4 1
-1 7 26 2 3 1
-7 -1 26 0 3 1
-1 7 26 1 3 1
1 -7 26 0 3 1
7 1 26 2 4 1
-1 -7 -26 14 3 1
1 7 -26 10 3 1
-1 -7 -26 14 2 1
-7 1 -26 4 3 1
-7 1 -26 10 2 1
7 -1 26 1 3 1
1 7 26 5 3 1
1 7 26 14 3 1
7 -1 26 4 4 1
-7 1 26 3 3 1
-7 1 26 15 2 1
-7 3 -26 952 40 1
-3 -7 -26 894 40 1
7 -3 -26 903 40 1
-3 -7 -26 993 40 1
3 7 -26 989 40 1
-7 3 -26 961 41 1
7 -3 26 895 46 1
-3 -7 26 983 46 1
-7 3 26 949 46 1
-7 5 -26 780 28 1
-5 -7 -26 773 27 1
-5 -7 -26 726 27 1
-7 5 -26 792 27 1
5 7 26 735 30 1
-7 5 26 790 31 1
-7 5 26 734 31 1
5 7 26 763 25 1
5 7 26 807 31 1
-7 7 -26 86 10 1
7 -7 -26 72 8 1
-7 7 -26 95 8 1
-7 -7 -26 81 7 1
-7 -7 -26 107 8 1
7 7 26 103 9 1
-7 -7 26 104 10 1
7 7 26 88 6 1
-7 7 26 68 9 1
7 7 26 101 10 1
-7 7 26 89 9 1
-8 -6 -26 57 6 1
-6 8 -26 76 11 1
6 -8 -26 72 7 1
-8 -6 26 68 8 1
-6 8 26 56 7 1
-8 -6 26 69 11 1
8 6 26 60 5 1
8 6 26 48 8 1
-6 8 26 50 8 1
4 -8 -26 190 14 1
-8 -4 -26 193 13 1
-4 8 -26 203 13 1
-8 -4 -26 222 13 1
4 -8 -26 206 12 1
8 4 26 224 15 1
-4 8 26 230 15 1
8 4 26 216 11 1
8 4 26 194 15 1
4 -8 26 190 15 1
-4 8 26 195 15 1
2 -8 -26 57 7 1
2 -8 -26 40 5 1
-2 8 -26 54 6 1
-8 -2 -26 32 5 1
-8 -2 -26 27 6 1
-2 8 26 30 7 1
2 -8 26 31 7 1
8 2 26 33 4 1
8 2 26 38 7 1
-8 -2 26 38 7 1
8 2 26 41 8 1
-2 8 26 47 7 1
0 -8 -26 27 6 1
0 8 -26 15 3 1
-8 0 -26 17 3 1
0 8 26 12 3 1
-8 0 26 11 3 1
0 8 26 17 4 1
0 -8 26 12 3 1
8 0 26 29 8 1
-8 2 -26 297 16 1
-8 2 -26 292 17 1
-2 -8 -26 331 16 1
-2 -8 -26 328 16 1
-8 2 26 295 19 1
2 8 26 306 19 1
-2 -8 26 297 19 1
-8 2 26 338 19 1
8 -2 26 290 19 1
2 8 26 321 19 1
-8 4 -26 95 10 1
4 8 -26 102 10 1
-8 4 -26 85 8 1
-4 -8 -26 96 8 1
-4 -8 -26 107 8 1
-8 4 26 101 10 1
4 8 26 86 10 1
-8 4 26 100 10 1
-4 -8 26 104 10 1
4 8 26 106 7 1
4 8 26 88 10 1
-6 -8 -26 352 17 1
-8 6 -26 347 19 1
-8 6 -26 340 18 1
-6 -8 -26 360 17 1
-6 -8 26 366 20 1
6 8 26 336 20 1
-8 6 26 341 20 1
6 8 26 344 16 1
-8 6 26 348 20 1
-8 8 -26 12 3 1
-8 -8 -26 3 2 1
-8 -8 -26 6 3 1
-8 8 -26 11 4 1
8 8 26 11 2 1
-8 -8 26 10 3 1
-8 8 26 10 4 1
8 8 26 3 3 1
-8 8 26 10 3 1
8 8 26 16 4 1
-9 -7 -26 205 8 1
-7 9 -26 219 13 1
7 -9 -26 212 9 1
-9 -7 -26 188 8 1
-7 9 -26 202 9 1
-7 9 26 221 10 1
-7 9 26 217 11 1
9 7 26 221 7 1
9 7 26 214 11 1
9 7 26 213 10 1
-9 -7 26 234 11 1
-9 -5 -26 11 2 1
-9 -5 -26 7 2 1
5 -9 -26 1 4 1
5 -9 -26 1 3 1
-9 -5 26 4 3 1
9 5 26 4 4 1
-9 -5 26 5 5 1
-5 9 26 2 3 1
9 5 26 5 3 1
9 5 26 4 2 1
-9 -3 -26 79 5 1
3 -9 -26 92 6 1
-9 -3 -26 80 11 1
-9 -3 -26 81 6 1
-3 9 -26 65 6 1
9 3 26 77 4 1
-3 9 26 70 8 1
-9 -3 26 78 7 1
-3 9 26 92 7 1
9 3 26 72 9 1
-9 -1 -26 171 10 1
1 -9 -26 178 10 1
-9 -1 -26 183 10 1
1 -9 -26 198 10 1
9 1 26 190 12 1
1 -9 26 195 12 1
-1 9 26 225 12 1
-9 -1 26 171 12 1
-1 9 26 200 12 1
-9 -1 26 187 12 1
9 1 26 184 8 1
-9 1 -26 307 17 1
-1 -9 -26 281 16 1
-9 1 -26 350 17 1
1 9 -26 303 17 1
-1 -9 -26 310 16 1
-9 1 26 286 19 1
-1 -9 26 301 19 1
1 9 26 333 19 1
1 9 26 296 19 1
-9 1 26 320 19 1
9 -1 26 309 19 1
3 9 -26 13 4 1
-9 3 -26 18 3 1
-3 -9 -26 21 5 1
-3 -9 -26 9 3 1
-9 3 -26 19 3 1
-9 3 26 15 3 1
3 9 26 21 4 1
-3 -9 26 14 4 1
-3 -9 26 9 3 1
3 9 26 10 3 1
3 9 26 4 3 1
-5 -9 -26 247 10 1
-5 -9 -26 236 10 1
-9 5 -26 248 11 1
-9 5 -26 240 12 1
-5 -9 26 230 13 1
-9 5 26 223 13 1
-9 5 26 245 13 1
5 9 26 240 9 1
5 9 26 244 13 1
5 9 26 245 13 1
-9 7 -26 2166 83 1
-9 7 -26 2054 84 1
-7 -9 -26 2202 82 1
-7 -9 -26 2103 82 1
7 9 26 2131 92 1
-9 7 26 2061 94 1
-7 -9 26 2162 93 1
-9 7 26 2134 93 1
7 9 26 2103 82 1
7 9 26 2185 94 1
-9 -9 -26 125 9 1
-9 -9 -26 136 8 1
-9 9 -26 102 12 1
-9 9 26 121 11 1
9 9 26 124 12 1
9 9 26 124 8 1
9 9 26 125 12 1
-9 9 26 100 11 1
-9 -9 26 120 13 1
-10 -8 -26 27 6 1
-8 10 -26 23 6 1
-10 -8 -26 31 5 1
-10 -8 26 24 10 1
-8 10 26 27 7 1
10 8 26 32 9 1
-8 10 26 33 8 1
6 -10 -26 86 11 1
-10 -6 -26 90 8 1
-10 -6 -26 89 8 1
6 -10 -26 98 9 1
10 6 26 98 7 1
-10 -6 26 86 14 1
-6 10 26 85 10 1
10 6 26 95 12 1
-10 -6 26 92 10 1
-10 -4 -26 720 27 1
-10 -4 -26 742 31 1
4 -10 -26 757 28 1
-10 -4 -26 736 28 1
4 -10 -26 775 27 1
-10 -4 26 777 31 1
-10 -4 26 766 31 1
-4 10 26 717 31 1
10 4 26 756 26 1
-4 10 26 788 31 1
10 4 26 718 31 1
-10 -2 -26 4 12 1
2 -10 -26 1 7 1
-2 10 -26 5 7 1
-10 -2 -26 1 5 1
2 -10 -26 3 6 1
-10 -2 -26 3 6 1
-10 -2 26 1 8 1
-2 10 26 6 8 1
-2 10 26 7 7 1
10 2 26 3 5 1
10 2 26 0 10 1
-10 -2 26 1 7 1
-10 0 -26 12 6 1
0 10 -26 7 7 1
-10 0 -26 11 6 1
0 -10 -26 10 5 1
0 -10 -26 7 6 1
-10 0 26 15 8 1
10 0 26 14 4 1
0 10 26 6 7 1
0 -10 26 14 8 1
0 10 26 15 8 1
-10 0 26 10 7 1
-10 2 -26 216 15 1
-2 -10 -26 229 15 1
-2 -10 -26 243 15 1
-10 2 -26 222 16 1
2 10 -26 220 16 1
-2 -10 26 238 18 1
-10 2 26 272 18 1
-2 -10 26 239 16 1
2 10 26 241 18 1
-10 2 26 249 18 1
2 10 26 202 17 1
-10 4 -26 532 21 1
-10 4 -26 525 21 1
-4 -10 -26 551 20 1
-4 -10 -26 588 20 1
4 10 26 548 19 1
-10 4 26 494 24 1
-4 -10 26 568 24 1
4 10 26 543 24 1
-10 4 26 511 24 1
-10 6 -26 196 11 1
-6 -10 -26 199 10 1
-6 -10 -26 192 10 1
-6 -10 26 209 13 1
6 10 26 179 13 1
-10 6 26 212 13 1
6 10 26 209 9 1
6 10 26 206 13 1
-8 -10 -26 1 3 1
-10 8 -26 2 4 1
-8 -10 -26 0 2 1
-10 8 -26 3 3 1
8 10 26 0 2 1
8 10 26 0 4 1
-10 8 26 1 3 1
-8 -10 26 0 4 1
8 10 26 0 4 1
-10 -10 -26 76 6 1
-10 10 -26 45 11 1
-10 10 -26 57 8 1
10 10 26 54 6 1
-10 10 26 81 8 1
10 10 26 56 11 1
-10 10 26 56 10 1
-11 -9 -26 1 2 1
-9 11 -26 2 6 1
-11 -9 -26 1 2 1
-9 11 26 1 5 1
-9 11 26 2 3 1
11 9 26 7 5 1
7 -11 -26 3 4 1
-11 -7 -26 3 2 1
-11 -7 -26 2 2 1
7 -11 -26 3 4 1
11 7 26 10 2 1
-7 11 26 5 3 1
-11 -7 26 3 4 1
-7 11 26 3 4 1
11 7 26 10 5 1
-11 -5 -26 5 3 1
5 -11 -26 4 3 1
-11 -5 26 16 5 1
-5 11 26 1 4 1
-11 -5 26 10 3 1
-5 11 26 6 3 1
11 5 26 2 5 1
-11 -3 -26 59 7 1
-11 -3 -26 83 11 1
3 -11 -26 79 7 1
3 -11 -26 78 9 1
-11 -3 -26 63 7 1
11 3 26 62 6 1
11 3 26 73 12 1
-11 -3 26 62 10 1
-11 -3 26 77 9 1
-3 11 26 60 9 1
-3 11 26 66 9 1
-11 -1 -26 101 6 1
-1 11 -26 110 7 1
-11 -1 -26 119 7 1
1 -11 -26 123 7 1
1 -11 -26 119 6 1
1 -11 26 111 8 1
-11 -1 26 113 9 1
-1 11 26 135 8 1
11 1 26 112 5 1
-1 11 26 128 9 1
-11 -1 26 114 8 1
-1 -11 -26 80 8 1
-11 1 -26 77 9 1
-11 1 -26 72 8 1
-1 -11 -26 77 8 1
1 11 -26 79 10 1
11 -1 26 78 7 1
-11 1 26 73 10 1
1 11 26 84 10 1
-11 1 26 82 10 1
-1 -11 26 77 10 1
3 11 -26 1905 73 1
-11 3 -26 2073 74 1
-3 -11 -26 1910 73 1
-3 -11 -26 2004 73 1
-11 3 -26 2049 73 1
-11 3 26 2098 82 1
-3 -11 26 1986 74 1
-3 -11 26 2011 82 1
3 11 26 2014 72 1
-11 5 -26 3840 142 1
-5 -11 -26 3845 142 1
-5 -11 26 3924 160 1
5 11 26 3905 160 1
-11 5 26 3743 161 1
-11 5 26 3847 158 1
-7 -11 -26 4 2 1
-11 7 -26 10 4 1
-11 7 -26 7 3 1
7 11 26 6 2 1
7 11 26 6 4 1
7 11 26 6 4 1
-11 7 26 5 4 1
-9 -11 -26 28 5 1
-11 9 -26 36 9 1
-9 -11 -26 20 5 1
9 11 26 26 5 1
-11 9 26 26 7 1
9 11 26 23 10 1
-11 -11 -26 42 5 1
-11 11 -26 30 6 1
-11 11 -26 27 7 1
11 11 26 38 6 1
-11 11 26 51 8 1
-10 12 -26 147 15 1
-12 -10 -26 131 7 1
-12 -10 -26 122 8 1
12 10 26 148 8 1
-12 -8 -26 272 15 1
-12 -8 -26 284 14 1
8 -12 -26 243 18 1
-8 12 26 226 17 1
12 8 26 272 14 1
-8 12 26 224 18 1
-12 -6 -26 68 8 1
-12 -6 -26 60 7 1
6 -12 -26 50 9 1
-12 -6 -26 52 10 1
6 -12 -26 34 10 1
12 6 26 66 13 1
-6 12 26 48 9 1
-12 -6 26 50 14 1
-12 -6 26 68 11 1
12 6 26 71 7 1
-12 -4 -26 50 6 1
-12 -4 -26 71 9 1
4 -12 -26 71 7 1
4 -12 -26 63 8 1
-12 -4 -26 61 6 1
12 4 26 66 6 1
-12 -4 26 74 9 1
-4 12 26 70 8 1
-12 -4 26 63 11 1
-4 12 26 59 9 1
-12 -2 -26 48 12 1
-12 -2 -26 39 8 1
-12 -2 -26 46 8 1
2 -12 -26 59 7 1
-12 -2 26 55 9 1
12 2 26 42 14 1
2 -12 26 66 8 1
-2 12 26 46 10 1
-2 12 26 60 10 1
-12 -2 26 55 11 1
0 12 -26 172 14 1
-12 0 -26 164 13 1
0 -12 -26 169 12 1
0 12 26 193 15 1
0 -12 26 155 13 1
-12 0 26 145 14 1
-12 0 26 173 15 1
0 12 26 183 15 1
2 12 -26 913 40 1
-2 -12 -26 880 39 1
-12 2 26 910 44 1
2 12 26 875 44 1
2 12 26 853 44 1
-2 -12 26 909 39 1
-12 4 -26 130 7 1
-4 -12 -26 111 6 1
-12 4 -26 145 8 1
-4 -12 -26 119 6 1
-12 4 26 135 9 1
4 12 26 115 10 1
4 12 26 142 9 1
4 12 26 125 6 1
-12 4 26 110 8 1
-12 6 -26 186 9 1
-6 -12 -26 187 8 1
-6 -12 -26 178 8 1
-12 6 -26 189 10 1
-12 6 26 172 11 1
6 12 26 183 11 1
6 12 26 182 8 1
6 12 26 183 12 1
-12 6 26 162 10 1
-8 -12 -26 80 7 1
-12 8 -26 71 9 1
-12 8 -26 64 8 1
-8 -12 -26 74 6 1
8 12 26 95 6 1
-12 8 26 71 8 1
8 12 26 91 12 1
-12 8 26 64 11 1
8 12 26 77 10 1
-12 10 -26 8 4 1
-12 10 -26 32 10 1
10 12 26 15 3 1
-12 10 26 9 3 1
-12 -12 -26 126 9 1
-12 -12 -26 141 9 1
-12 12 -26 135 14 1
-12 12 -26 126 10 1
-12 12 26 152 9 1
12 12 26 119 9 1
-11 13 -26 1 7 1
-13 -11 -26 3 3 1
-11 13 -26 4 3 1
13 11 26 3 3 1
-11 13 26 0 2 1
11 -13 26 4 2 1
9 -13 -26 10 6 1
-9 13 -26 10 7 1
9 -13 26 8 2 1
-13 -7 -26 237 11 1
-13 -7 -26 226 13 1
7 -13 -26 243 14 1
-13 -7 -26 238 10 1
13 7 26 262 17 1
-7 13 26 208 15 1
13 7 26 246 11 1
7 -13 26 230 11 1
-7 13 26 235 13 1
5 -13 -26 813 34 1
-13 -5 -26 799 38 1
5 -13 -26 831 34 1
-13 -5 -26 809 33 1
-13 -5 -26 777 34 1
-13 -5 26 757 39 1
-5 13 26 762 39 1
5 -13 26 932 34 1
13 5 26 815 33 1
13 5 26 743 40 1
-13 -5 26 817 38 1
3 -13 -26 108 7 1
-13 -3 -26 106 10 1
3 -13 -26 127 9 1
-13 -3 -26 106 7 1
-13 -3 -26 107 8 1
13 3 26 90 15 1
-13 -3 26 99 12 1
-3 13 26 118 10 1
3 -13 26 105 8 1
-3 13 26 114 9 1
13 3 26 123 7 1
1 -13 -26 7 6 1
-13 -1 -26 8 5 1
1 -13 -26 4 3 1
-13 -1 -26 6 4 1
13 1 26 4 3 1
-13 -1 26 6 5 1
1 -13 26 4 3 1
1 13 -26 1459 49 1
-1 -13 -26 1408 48 1
-13 1 -26 1458 49 1
-13 1 -26 1466 49 1
-1 -13 -26 1437 48 1
-1 -13 26 1462 49 1
1 13 26 1398 55 1
-13 1 26 1461 55 1
-3 -13 -26 58 5 1
-13 3 -26 46 6 1
-3 -13 -26 69 5 1
-13 3 -26 48 6 1
3 13 26 64 9 1
3 13 26 51 6 1
-3 -13 26 50 4 1
-13 3 26 46 7 1
3 13 26 48 5 1
-13 5 -26 494 24 1
-13 5 -26 496 24 1
-5 -13 -26 547 24 1
-5 -13 -26 539 23 1
-13 5 26 523 28 1
5 13 26 539 28 1
5 13 26 522 23 1
5 13 26 494 28 1
-13 5 26 505 28 1
-13 7 -26 124 9 1
-7 -13 -26 123 8 1
-13 7 -26 99 10 1
-7 -13 -26 101 7 1
-13 7 26 112 10 1
7 13 26 97 12 1
7 13 26 103 7 1
-13 7 26 93 11 1
-9 -13 -26 6 3 1
-13 9 -26 10 3 1
-13 9 -26 12 4 1
9 13 26 3 3 1
-13 11 -26 100 7 1
-11 -13 -26 89 6 1
-11 -13 -26 91 6 1
-13 11 26 93 6 1
11 13 26 75 7 1
-13 -13 -26 2 3 1
-13 13 -26 4 4 1
-13 13 26 1 2 1
-12 14 -26 87 8 1
-12 14 26 107 6 1
-14 -10 -26 89 8 1
-14 -10 -26 86 7 1
-14 -10 -26 67 7 1
-10 14 26 82 7 1
14 10 26 84 8 1
10 -14 26 78 7 1
-14 -8 -26 37 7 1
8 -14 -26 41 11 1
-14 -8 -26 44 6 1
-14 -8 -26 39 6 1
-8 14 26 36 6 1
8 -14 26 44 6 1
14 8 26 29 6 1
-14 -6 -26 23 5 1
6 -14 -26 14 4 1
6 -14 -26 23 4 1
-14 -6 -26 30 7 1
-6 14 26 16 4 1
6 -14 26 17 6 1
14 6 26 30 6 1
-14 -6 26 28 8 1
-6 14 26 23 7 1
4 -14 -26 0 3 1
-14 -4 -26 0 3 1
4 -14 -26 3 3 1
-4 14 26 3 5 1
14 4 26 1 2 1
-4 14 26 1 3 1
4 -14 26 3 2 1
14 4 26 1 9 1
-14 -4 26 0 6 1
-14 -4 26 3 3 1
2 -14 -26 247 13 1
-14 -2 -26 263 16 1
-14 -2 -26 258 13 1
-14 -2 -26 249 13 1
2 -14 26 259 13 1
-14 -2 26 272 15 1
-14 -2 26 226 17 1
0 -14 -26 4 3 1
0 -14 -26 7 3 1
-14 0 -26 9 3 1
-14 0 -26 11 3 1
-14 0 26 2 3 1
-14 0 26 11 5 1
0 14 26 2 3 1
14 0 26 1 2 1
0 -14 26 8 3 1
-14 2 -26 1 3 1
-14 2 -26 1 3 1
2 14 -26 1 6 1
-2 -14 -26 4 2 1
-2 -14 -26 4 2 1
2 14 26 2 3 1
-14 2 26 2 3 1
2 14 26 2 4 1
-14 2 26 7 5 1
14 -2 26 1 2 1
2 14 26 5 4 1
-4 -14 -26 42 7 1
-14 4 -26 50 8 1
-14 4 -26 29 8 1
-4 -14 -26 48 7 1
4 14 26 48 10 1
4 14 26 43 12 1
-14 4 26 37 11 1
4 14 26 40 7 1
-14 4 26 37 9 1
-14 6 -26 8 3 1
-6 -14 -26 5 2 1
-14 6 26 12 2 1
6 14 26 3 5 1
-8 -14 -26 149 8 1
-14 8 -26 151 10 1
-14 8 -26 162 9 1
-8 -14 -26 147 7 1
8 14 26 143 8 1
-14 8 26 138 9 1
-10 -14 -26 98 7 1
-10 -14 -26 83 6 1
-14 10 -26 96 10 1
-14 10 26 75 6 1
10 14 26 96 7 1
-14 12 -26 2 3 1
-12 -14 -26 1 3 1
-14 12 26 1 2 1
-14 14 -26 3 4 1
-14 -14 -26 1 4 1
-14 14 26 0 2 1
14 -14 26 0 1 1
-15 -13 -26 152 10 1
-13 15 -26 138 12 1
13 -15 26 153 9 1
-13 15 26 152 11 1
-15 -11 -26 196 10 1
-15 -11 -26 240 11 1
11 -15 26 204 9 1
-11 15 26 182 10 1
-15 -9 -26 196 10 1
-15 -9 -26 194 9 1
-15 -9 -26 218 9 1
9 -15 26 240 9 1
15 9 26 232 9 1
-9 15 26 254 9 1
7 -15 -26 7 4 1
-15 -7 -26 4 3 1
15 7 26 4 3 1
-7 15 26 4 2 1
7 -15 26 5 2 1
-15 -5 -26 63 2 1
5 -15 -26 103 3 1
5 -15 -26 77 3 1
-15 -5 -26 79 3 1
-15 -5 -26 56 2 1
-5 15 26 60 2 1
-15 -5 26 59 3 1
15 5 26 97 3 1
5 -15 26 58 2 1
15 3 26 14 3 1
3 -15 26 14 2 1
1 -15 -26 4 3 1
1 -15 -26 3 3 1
-15 -1 -26 3 3 1
-15 -1 -26 3 2 1
15 1 26 6 3 1
-15 -1 26 1 3 1
1 -15 26 6 2 1
-15 -1 26 1 5 1
-15 1 -26 52 6 1
-1 -15 -26 42 6 1
-1 -15 -26 51 6 1
-15 1 -26 40 6 1
-15 1 26 44 11 1
-15 1 26 62 8 1
-1 -15 26 42 8 1
-3 -15 -26 14 2 1
-15 3 -26 12 3 1
-15 3 26 11 5 1
-15 3 26 10 3 1
15 -3 26 15 4 1
3 15 26 17 4 1
-3 -15 26 17 3 1
3 15 26 23 5 1
-5 -15 -26 114 8 1
-5 -15 -26 115 8 1
-15 5 -26 135 9 1
-15 5 -26 126 9 1
5 15 26 98 8 1
-15 7 -26 854 37 1
-7 -15 -26 874 36 1
-7 -15 -26 854 37 1
7 15 26 809 36 1
-15 7 26 920 42 1
-9 -15 -26 11 3 1
-15 9 -26 12 4 1
-15 9 -26 13 3 1
-9 -15 -26 16 3 1
-15 9 26 6 2 1
-11 -15 -26 297 16 1
-15 11 -26 324 17 1
-15 11 26 327 17 1
-13 -15 -26 88 8 1
-15 13 26 88 5 1
15 -13 26 78 4 1
-12 16 -26 42 8 1
-16 -12 -26 42 5 1
-12 16 26 46 5 1
-16 -10 -26 1 5 1
-16 -10 -26 0 2 1
-10 16 26 0 2 1
-16 -8 -26 40 6 1
-16 -8 -26 38 8 1
8 -16 26 38 6 1
-8 16 26 39 6 1
16 8 26 35 8 1
6 -16 -26 61 9 1
-16 -6 -26 53 7 1
-6 16 26 67 6 1
16 6 26 44 7 1
6 -16 26 52 6 1
4 -16 -26 9 6 1
-16 -4 -26 10 6 1
4 -16 -26 14 7 1
-16 -4 26 16 6 1
16 4 26 19 6 1
4 -16 26 18 6 1
-4 16 26 11 6 1
-16 -2 -26 47 7 1
2 -16 -26 43 6 1
-16 -2 -26 39 6 1
2 -16 26 36 6 1
-16 -2 26 52 6 1
-2 16 26 43 7 1
0 -16 -26 149 8 1
0 -16 -26 158 8 1
-16 0 -26 172 10 1
-16 0 -26 169 9 1
16 0 26 161 8 1
-16 0 26 201 9 1
0 -16 26 174 9 1
-16 2 -26 66 8 1
-16 2 -26 52 7 1
-2 -16 -26 48 6 1
-2 -16 -26 47 6 1
-16 2 26 55 6 1
16 -2 26 39 7 1
-2 -16 26 43 8 1
-16 4 -26 8 3 1
-16 4 -26 20 7 1
-4 -16 -26 13 5 1
-4 -16 -26 11 5 1
-16 4 26 12 5 1
4 16 26 10 4 1
-16 6 -26 30 7 1
-6 -16 -26 9 3 1
-16 6 -26 3 3 1
6 16 26 4 3 1
-16 8 -26 17 7 1
-8 -16 -26 18 6 1
-10 -16 -26 36 6 1
-16 10 26 48 5 1
-12 -16 -26 28 4 1
-16 12 26 36 4 1
-17 -11 -26 168 8 1
-11 17 26 195 8 1
11 -17 26 175 7 1
-17 -9 -26 1 2 1
-17 -9 -26 0 5 1
-9 17 26 3 2 1
-17 -7 -26 11 2 1
-17 -7 -26 18 4 1
-7 17 26 12 2 1
7 -17 26 11 1 1
5 -17 -26 113 9 1
-17 -5 -26 94 9 1
-17 -5 -26 106 7 1
17 5 26 95 8 1
-5 17 26 105 7 1
5 -17 26 107 7 1
-17 -3 -26 163 12 1
3 -17 -26 168 11 1
-17 -3 -26 175 11 1
-17 -3 -26 161 11 1
3 -17 -26 198 11 1
17 3 26 158 11 1
-17 -3 26 186 11 1
3 -17 26 194 11 1
-3 17 26 184 12 1
-17 -1 -26 190 10 1
1 -17 -26 178 9 1
-17 -1 -26 168 10 1
1 -17 -26 163 9 1
1 -17 26 201 9 1
-17 -1 26 192 9 1
-1 -17 -26 63 6 1
-17 1 -26 64 6 1
-1 -17 -26 74 6 1
-17 1 -26 75 8 1
17 -1 26 56 8 1
-17 1 26 64 5 1
-17 3 -26 146 10 1
-3 -17 -26 124 9 1
-3 -17 -26 118 8 1
-17 3 26 131 9 1
-5 -17 -26 1 3 1
-17 5 -26 2 4 1
-5 -17 -26 0 3 1
-17 5 26 3 2 1
-17 7 -26 29 8 1
-7 -17 -26 33 6 1
-17 9 -26 75 9 1
-9 -17 -26 68 7 1
-17 9 26 51 6 1
17 -11 26 176 10 1
-17 11 26 193 12 1
-18 -10 -26 8 4 1
10 -18 26 7 3 1
-18 -8 -26 32 6 1
8 -18 26 38 5 1
-8 18 26 43 6 1
-18 -6 -26 0 5 1
-18 -6 -26 2 2 1
6 -18 26 1 1 1
-6 18 26 2 2 1
-18 -4 -26 32 5 1
-18 -4 -26 33 5 1
-18 -2 -26 0 4 1
-18 -2 -26 0 3 1
2 -18 -26 1 3 1
-18 -2 26 0 2 1
-18 0 -26 95 8 1
0 -18 -26 82 7 1
-18 0 -26 82 9 1
0 -18 -26 82 8 1
0 -18 26 103 6 1
-18 0 26 104 7 1
-2 -18 -26 0 3 1
-18 2 -26 2 4 1
-2 -18 26 1 2 1
-18 2 26 0 2 1
-18 4 -26 124 10 1
-4 -18 -26 122 8 1
-18 4 26 126 8 1
-18 6 -26 6 4 1
-18 6 26 4 2 1
-8 -18 -26 62 7 1
-18 8 -26 63 11 1
-18 8 26 53 6 1
-18 10 26 124 7 1
18 -10 26 133 6 1
-19 -9 -26 13 4 1
9 -19 26 12 3 1
-19 -7 -26 56 5 1
7 -19 26 58 4 1
-7 19 26 52 7 1
-19 -5 -26 103 8 1
5 -19 26 95 6 1
-5 19 26 82 9 1
-19 -3 -26 9 6 1
-19 -3 -26 17 6 1
-19 -3 26 15 7 1
3 -19 26 19 4 1
1 -19 -26 158 9 1
-19 -1 -26 167 9 1
-19 -1 -26 141 12 1
-19 -1 26 188 9 1
1 -19 26 174 8 1
-19 1 -26 1 5 1
-1 -19 -26 0 3 1
-19 1 26 0 2 1
-1 -19 26 0 2 1
-3 -19 -26 17 3 1
-19 3 -26 10 5 1
-19 3 26 27 4 1
-5 -19 -26 23 6 1
-19 5 26 18 5 1
-7 -19 -26 11 3 1
-19 7 26 6 2 1
19 -9 26 1 1 1
-19 9 26 1 1 1
-20 -6 -26 1 2 1
6 -20 26 2 1 1
-20 -4 -26 143 8 1
4 -20 26 148 7 1
-20 -2 -26 115 9 1
2 -20 26 122 7 1
-20 -2 26 112 9 1
-20 0 -26 260 15 1
0 -20 26 270 13 1
-20 0 26 300 15 1
-2 -20 -26 178 10 1
-2 -20 26 178 9 1
-20 2 26 204 10 1
-4 -20 -26 1 3 1
-20 4 26 18 4 1
-20 6 26 10 2 1
-21 -1 -26 12 6 1
1 -21 26 9 4 1
-1 0 -27 2 2 1
0 1 -27 2 2 1
-1 0 -27 3 4 1
1 0 -27 4 3 1
0 -1 -27 1 2 1
-1 0 27 1 3 1
0 1 27 1 3 1
1 0 27 1 2 1
1 0 27 0 4 1
0 1 27 0 3 1
0 -1 27 4 4 1
-1 0 27 2 4 1
2 1 -27 494 19 1
-2 -1 -27 446 20 1
1 -2 -27 438 19 1
-2 -1 -27 441 19 1
-1 2 -27 491 19 1
2 1 27 442 22 1
-1 2 27 484 22 1
1 -2 27 474 22 1
-1 2 27 480 22 1
1 -2 27 478 22 1
-2 -1 27 476 22 1
-2 -1 27 453 22 1
-2 1 -27 30 4 1
1 2 -27 33 3 1
-1 -2 -27 29 2 1
-1 -2 -27 32 4 1
2 -1 -27 26 3 1
-1 -2 27 38 4 1
1 2 27 14 3 1
2 -1 27 23 3 1
-2 1 27 34 3 1
-2 1 27 26 3 1
2 -1 27 23 4 1
1 2 27 30 2 1
-1 -2 27 30 2 1
-2 3 -27 111 10 1
-3 -2 -27 110 10 1
-3 -2 -27 128 11 1
2 -3 -27 113 10 1
3 2 -27 130 10 1
3 2 27 110 12 1
-2 3 27 104 12 1
-2 3 27 122 12 1
-3 -2 27 132 12 1
2 -3 27 110 13 1
3 2 27 112 12 1
0 -3 -27 32 5 1
-3 0 -27 19 4 1
-3 0 -27 40 5 1
0 -3 -27 38 8 1
3 0 -27 24 6 1
0 -3 27 38 9 1
-3 0 27 22 7 1
3 0 27 27 7 1
0 -3 27 26 7 1
-3 0 27 18 4 1
0 3 27 27 7 1
3 0 27 32 8 1
0 3 27 27 7 1
-3 2 -27 834 35 1
3 -2 -27 837 34 1
2 3 -27 829 34 1
-2 -3 -27 858 34 1
-2 -3 -27 888 35 1
-2 -3 27 845 38 1
2 3 27 902 39 1
-3 2 27 912 40 1
3 -2 27 832 38 1
-2 -3 27 860 39 1
-3 2 27 822 38 1
2 3 27 871 39 1
-4 -3 -27 830 40 1
-3 4 -27 933 40 1
4 3 -27 862 40 1
3 -4 -27 855 39 1
-4 -3 -27 862 40 1
4 3 27 867 44 1
-4 -3 27 809 44 1
-3 4 27 934 46 1
4 3 27 895 46 1
4 1 -27 81 10 1
-1 4 -27 93 10 1
-4 -1 -27 78 11 1
-4 -1 -27 86 9 1
1 -4 -27 89 11 1
1 -4 -27 97 9 1
-4 -1 27 90 11 1
-1 4 27 91 11 1
1 -4 27 94 11 1
-1 4 27 110 12 1
-4 -1 27 72 12 1
4 1 27 98 12 1
-1 -4 -27 207 12 1
4 -1 -27 183 12 1
-1 -4 -27 214 13 1
-4 1 -27 191 12 1
1 4 -27 213 13 1
-4 1 -27 200 14 1
-4 1 27 200 15 1
-4 1 27 217 15 1
4 -1 27 197 15 1
4 -1 27 220 15 1
1 4 27 204 15 1
-1 -4 27 239 15 1
1 4 27 194 15 1
-1 -4 27 210 16 1
3 4 -27 121 7 1
-3 -4 -27 97 6 1
-4 3 -27 131 10 1
-3 -4 -27 106 8 1
4 -3 -27 115 7 1
-4 3 -27 116 7 1
4 -3 27 126 8 1
3 4 27 117 8 1
3 4 27 102 8 1
-4 3 27 106 8 1
-3 -4 27 119 10 1
-4 3 27 101 8 1
4 -5 -27 186 8 1
-5 -4 -27 190 8 1
-4 5 -27 176 8 1
5 4 -27 216 10 1
-5 -4 -27 197 9 1
-4 5 27 211 10 1
-4 5 27 188 10 1
5 4 27 189 10 1
4 -5 27 175 10 1
-5 -4 27 178 11 1
-5 -4 27 202 10 1
-2 5 -27 1013 39 1
-5 -2 -27 1066 39 1
2 -5 -27 1080 39 1
5 2 -27 1033 39 1
-5 -2 -27 1044 39 1
-2 5 27 1027 45 1
2 -5 27 1061 44 1
5 2 27 989 44 1
-5 -2 27 1023 44 1
-5 0 -27 700 35 1
-5 0 -27 725 35 1
0 5 -27 686 35 1
0 -5 -27 662 34 1
5 0 -27 697 34 1
5 0 27 666 39 1
0 5 27 687 40 1
0 -5 27 682 39 1
-5 0 27 682 39 1
-2 -5 -27 65 8 1
5 -2 -27 79 9 1
-5 2 -27 66 8 1
2 5 -27 69 9 1
-5 2 -27 68 10 1
-2 -5 -27 73 9 1
2 5 27 72 10 1
5 -2 27 57 12 1
-2 -5 27 63 10 1
5 -2 27 72 10 1
-5 2 27 78 10 1
-5 4 -27 13 5 1
-4 -5 -27 18 5 1
5 -4 -27 10 3 1
4 5 -27 16 4 1
-4 -5 -27 11 3 1
-5 4 27 9 4 1
-4 -5 27 8 5 1
-4 -5 27 16 7 1
-5 4 27 10 3 1
4 5 27 9 4 1
-5 6 -27 1600 61 1
-5 6 -27 1494 62 1
-6 -5 -27 1573 61 1
-6 -5 -27 1464 61 1
5 -6 -27 1561 60 1
5 -6 27 1503 69 1
-6 -5 27 1597 69 1
-5 6 27 1456 68 1
-5 6 27 1437 69 1
3 -6 -27 118 13 1
-3 6 -27 119 10 1
-6 -3 -27 105 10 1
-6 -3 -27 100 10 1
3 -6 -27 103 10 1
-3 6 27 92 12 1
3 -6 27 111 12 1
-6 -3 27 97 12 1
-3 6 27 111 12 1
1 -6 -27 3 3 1
-6 -1 -27 4 3 1
-6 -1 -27 4 2 1
-1 6 -27 3 3 1
1 -6 -27 0 3 1
-6 -1 27 5 3 1
-1 6 27 3 3 1
6 1 27 4 3 1
6 1 27 1 4 1
-1 6 27 3 3 1
1 -6 27 0 3 1
-6 1 -27 173 11 1
1 6 -27 171 11 1
-1 -6 -27 173 10 1
6 -1 -27 171 11 1
-6 1 -27 171 10 1
-1 -6 -27 195 11 1
6 -1 27 194 14 1
-6 1 27 187 12 1
6 -1 27 181 12 1
1 6 27 191 12 1
1 6 27 188 12 1
-1 -6 27 170 12 1
3 6 -27 690 27 1
-6 3 -27 655 28 1
-6 3 -27 674 27 1
-3 -6 -27 655 27 1
6 -3 -27 615 27 1
-6 3 27 661 31 1
-3 -6 27 689 31 1
-6 3 27 640 31 1
6 -5 -27 1855 73 1
-5 -6 -27 1775 73 1
-6 5 -27 1830 74 1
-6 5 -27 1842 74 1
-6 5 27 1884 83 1
-6 5 27 1762 82 1
-5 -6 27 1773 83 1
5 6 27 1798 82 1
5 6 27 1745 83 1
6 -7 -27 1026 32 1
-7 -6 -27 934 32 1
-6 7 -27 935 34 1
-6 7 -27 955 33 1
7 6 27 910 37 1
-6 7 27 1041 37 1
-7 -6 27 964 37 1
7 6 27 965 37 1
-6 7 27 936 37 1
7 6 27 993 31 1
4 -7 -27 159 9 1
-4 7 -27 168 9 1
-7 -4 -27 154 9 1
-7 -4 -27 158 9 1
4 -7 -27 158 12 1
-4 7 27 142 11 1
4 -7 27 172 10 1
-7 -4 27 150 11 1
-4 7 27 172 11 1
-7 -4 27 136 12 1
7 4 27 162 11 1
7 4 27 149 11 1
-2 7 -27 188 15 1
2 -7 -27 165 14 1
-7 -2 -27 177 15 1
-7 -2 -27 184 15 1
2 -7 -27 181 16 1
2 -7 27 173 17 1
-2 7 27 158 17 1
7 2 27 155 17 1
-7 -2 27 162 18 1
-7 -2 27 176 17 1
-2 7 27 159 17 1
0 -7 -27 2298 87 1
0 -7 -27 2402 88 1
-7 0 -27 2346 88 1
-7 0 -27 2352 88 1
0 7 -27 2345 88 1
0 -7 27 2365 99 1
7 0 27 2349 97 1
0 7 27 2229 99 1
0 7 27 2294 98 1
7 0 27 2367 99 1
-7 0 27 2425 97 1
-2 -7 -27 160 8 1
-7 2 -27 175 10 1
-2 -7 -27 166 9 1
2 7 -27 165 9 1
-7 2 -27 159 8 1
-7 2 27 171 11 1
-2 -7 27 159 10 1
2 7 27 166 10 1
2 7 27 165 10 1
-7 2 27 181 10 1
7 -2 27 189 10 1
-4 -7 -27 574 28 1
4 7 -27 540 28 1
-7 4 -27 567 29 1
-4 -7 -27 543 28 1
-7 4 -27 557 28 1
-7 4 27 484 32 1
4 7 27 487 32 1
-4 -7 27 533 32 1
-7 4 27 526 32 1
7 -4 27 490 32 1
-7 6 -27 449 23 1
-6 -7 -27 459 21 1
-6 -7 -27 463 21 1
7 -6 -27 475 21 1
-7 6 -27 495 22 1
6 7 27 502 24 1
6 7 27 454 19 1
-6 -7 27 456 24 1
-7 6 27 496 24 1
-7 8 -27 74 8 1
-7 8 -27 94 12 1
7 -8 -27 96 9 1
-8 -7 -27 80 7 1
-7 8 27 72 8 1
-7 8 27 78 9 1
-8 -7 27 100 9 1
8 7 27 91 10 1
8 7 27 82 9 1
-8 -5 -27 226 17 1
-8 -5 -27 226 17 1
5 -8 -27 250 19 1
5 -8 -27 232 17 1
-5 8 -27 244 18 1
8 5 27 237 20 1
8 5 27 218 16 1
8 5 27 219 20 1
-8 -5 27 221 20 1
-5 8 27 260 20 1
-8 -5 27 234 21 1
3 -8 -27 439 18 1
-8 -3 -27 476 19 1
-3 8 -27 440 19 1
3 -8 -27 433 19 1
-8 -3 -27 444 19 1
-8 -3 27 484 21 1
-3 8 27 484 22 1
8 3 27 475 22 1
3 -8 27 428 21 1
8 3 27 493 22 1
-8 -1 -27 5 2 1
-8 -1 -27 10 3 1
1 -8 -27 9 3 1
-1 8 -27 22 6 1
1 -8 -27 13 4 1
-1 8 27 7 3 1
1 -8 27 4 3 1
-8 -1 27 10 5 1
8 1 27 9 5 1
-8 -1 27 21 7 1
-1 8 27 9 4 1
-8 1 -27 1081 44 1
-8 1 -27 1061 44 1
-1 -8 -27 979 43 1
1 8 -27 1106 44 1
-1 -8 -27 1053 44 1
-8 1 27 989 49 1
-8 1 27 1092 49 1
1 8 27 976 49 1
8 -1 27 1111 50 1
-1 -8 27 1099 49 1
-3 -8 -27 426 17 1
-3 -8 -27 423 18 1
3 8 -27 438 18 1
-8 3 -27 419 18 1
-8 3 -27 435 19 1
3 8 27 414 20 1
-3 -8 27 411 20 1
-8 3 27 407 21 1
-8 5 -27 41 6 1
-8 5 -27 53 9 1
-5 -8 -27 44 5 1
-5 -8 -27 25 6 1
-8 5 27 44 9 1
-5 -8 27 40 9 1
-8 5 27 52 7 1
5 8 27 42 8 1
5 8 27 41 4 1
-8 7 -27 95 9 1
-7 -8 -27 96 8 1
-8 7 -27 91 12 1
-8 7 27 79 11 1
7 8 27 97 10 1
7 8 27 99 11 1
-8 7 27 108 10 1
-8 9 -27 44 12 1
-9 -8 -27 53 6 1
-8 9 -27 34 7 1
-9 -8 -27 46 6 1
9 8 27 48 5 1
9 8 27 38 11 1
-8 9 27 34 9 1
9 8 27 40 8 1
-8 9 27 35 8 1
-9 -8 27 38 9 1
-6 9 -27 149 12 1
6 -9 -27 162 12 1
-9 -6 -27 164 11 1
9 6 27 185 15 1
-6 9 27 135 13 1
-9 -6 27 169 17 1
-9 -6 27 162 13 1
9 6 27 160 13 1
-9 -4 -27 97 7 1
-9 -4 -27 95 12 1
-4 9 -27 108 8 1
4 -9 -27 67 10 1
4 -9 -27 105 8 1
-9 -4 -27 98 7 1
9 4 27 99 9 1
-4 9 27 110 10 1
-9 -4 27 98 12 1
9 4 27 94 6 1
-9 -4 27 101 9 1
-9 -2 -27 461 22 1
2 -9 -27 407 22 1
-2 9 -27 478 23 1
-9 -2 -27 468 22 1
2 -9 -27 446 22 1
-2 9 27 444 26 1
-9 -2 27 472 26 1
9 2 27 487 26 1
9 2 27 428 26 1
-2 9 27 422 25 1
-9 0 -27 390 17 1
0 9 -27 373 18 1
-9 0 -27 361 17 1
0 -9 -27 350 17 1
0 -9 -27 357 16 1
0 9 27 374 20 1
-9 0 27 377 20 1
-9 0 27 368 20 1
0 9 27 368 20 1
0 -9 27 386 19 1
9 0 27 378 19 1
2 9 -27 171 12 1
-9 2 -27 171 11 1
-2 -9 -27 162 11 1
-2 -9 -27 155 11 1
-9 2 -27 163 12 1
-2 -9 27 187 13 1
-9 2 27 164 13 1
2 9 27 159 13 1
-2 -9 27 182 13 1
2 9 27 155 13 1
-9 2 27 201 13 1
-9 4 -27 4797 180 1
-4 -9 -27 4918 180 1
-9 4 -27 4825 180 1
-4 -9 -27 4791 180 1
-4 -9 27 4980 203 1
4 9 27 4695 200 1
-6 -9 -27 183 9 1
-9 6 -27 184 10 1
6 9 27 177 11 1
-9 6 27 205 12 1
-6 -9 27 207 12 1
6 9 27 172 11 1
-9 8 -27 328 18 1
-9 8 -27 325 16 1
-8 -9 -27 363 15 1
-8 -9 -27 354 15 1
-9 8 27 354 18 1
8 9 27 346 14 1
8 9 27 362 18 1
-8 -9 27 342 18 1
-10 -9 -27 114 9 1
-9 10 -27 121 15 1
-10 -9 -27 114 9 1
-9 10 -27 117 10 1
10 9 27 140 14 1
-9 10 27 93 11 1
10 9 27 125 9 1
-9 10 27 104 13 1
-10 -7 -27 323 18 1
-10 -7 -27 295 17 1
-7 10 -27 283 19 1
7 -10 -27 323 19 1
-7 10 27 321 21 1
10 7 27 354 22 1
-10 -7 27 329 21 1
-7 10 27 323 21 1
10 7 27 322 17 1
-10 -5 -27 50 10 1
-5 10 -27 69 7 1
-10 -5 -27 43 6 1
5 -10 -27 44 7 1
-5 10 27 46 9 1
-10 -5 27 57 8 1
10 5 27 54 5 1
-10 -5 27 48 13 1
-5 10 27 54 7 1
-10 -3 -27 417 26 1
-10 -3 -27 422 22 1
-3 10 -27 432 23 1
3 -10 -27 450 22 1
3 -10 -27 425 22 1
10 3 27 429 20 1
-3 10 27 469 25 1
-10 -3 27 439 25 1
10 3 27 389 26 1
-10 -3 27 442 26 1
-1 10 -27 368 20 1
1 -10 -27 363 19 1
-10 -1 -27 344 20 1
-10 -1 -27 360 20 1
1 -10 -27 377 20 1
-10 -1 27 340 22 1
10 1 27 349 24 1
-1 10 27 351 23 1
-1 10 27 388 22 1
-10 1 -27 80 8 1
-1 -10 -27 102 8 1
-10 1 -27 82 9 1
1 10 -27 91 10 1
-1 -10 -27 89 8 1
-10 1 27 88 10 1
-1 -10 27 99 10 1
1 10 27 94 10 1
-1 -10 27 91 10 1
-10 3 -27 0 3 1
-10 3 -27 1 3 1
-3 -10 -27 1 3 1
-3 -10 -27 1 3 1
3 10 -27 1 5 1
3 10 27 1 3 1
-3 -10 27 1 3 1
-10 3 27 1 4 1
3 10 27 0 4 1
-5 -10 -27 33 5 1
-5 -10 -27 40 5 1
-10 5 -27 33 6 1
-10 5 27 36 7 1
5 10 27 46 9 1
-5 -10 27 36 9 1
5 10 27 52 9 1
-10 5 27 38 9 1
-10 7 -27 374 19 1
-7 -10 -27 383 18 1
-10 7 -27 358 20 1
-7 -10 -27 389 18 1
7 10 27 366 17 1
7 10 27 378 21 1
7 10 27 362 21 1
-10 7 27 391 21 1
-7 -10 27 365 21 1
-10 9 -27 353 16 1
-9 -10 -27 367 15 1
-10 9 -27 334 18 1
-9 -10 -27 340 14 1
-10 9 27 315 18 1
9 10 27 340 14 1
9 10 27 371 19 1
-10 9 27 319 17 1
-10 11 -27 248 19 1
-11 -10 -27 261 14 1
-10 11 -27 255 15 1
-11 -10 -27 258 14 1
11 10 27 251 14 1
-11 -8 -27 253 11 1
-8 11 -27 222 11 1
-11 -8 -27 253 10 1
11 8 27 252 16 1
-8 11 27 198 14 1
-8 11 27 208 12 1
11 8 27 238 10 1
-11 -6 -27 29 9 1
-11 -6 -27 41 6 1
6 -11 -27 37 7 1
-6 11 -27 65 7 1
-11 -6 -27 34 5 1
-11 -6 27 30 8 1
-11 -6 27 43 8 1
-6 11 27 40 8 1
-6 11 27 44 10 1
-11 -4 -27 79 7 1
-4 11 -27 69 8 1
-11 -4 -27 67 7 1
4 -11 -27 100 8 1
4 -11 -27 83 9 1
-11 -4 -27 84 11 1
-4 11 27 66 10 1
-11 -4 27 82 9 1
-11 -4 27 70 12 1
11 4 27 98 6 1
-4 11 27 83 9 1
11 4 27 88 13 1
-11 -2 -27 92 6 1
-2 11 -27 97 8 1
2 -11 -27 104 6 1
2 -11 -27 113 8 1
-11 -2 -27 100 7 1
-2 11 27 92 8 1
-2 11 27 118 9 1
-11 -2 27 116 11 1
-11 -2 27 92 8 1
-11 0 -27 525 22 1
0 11 -27 571 22 1
0 -11 -27 519 21 1
-11 0 -27 544 22 1
0 11 27 587 25 1
0 -11 27 575 22 1
-11 0 27 583 25 1
-11 0 27 538 25 1
-11 2 -27 727 33 1
-2 -11 -27 707 32 1
-2 -11 -27 715 32 1
-11 2 -27 768 33 1
2 11 -27 725 33 1
-2 -11 27 672 33 1
2 11 27 731 37 1
-11 2 27 680 36 1
-4 -11 -27 371 14 1
-11 4 -27 382 15 1
-11 4 -27 373 15 1
-4 -11 -27 369 14 1
-4 -11 27 384 17 1
-11 4 27 306 17 1
4 11 27 392 17 1
-11 4 27 308 17 1
4 11 27 373 13 1
-6 -11 -27 158 9 1
-6 -11 -27 158 9 1
-11 6 -27 154 10 1
-11 6 -27 146 11 1
6 11 27 148 12 1
6 11 27 152 8 1
6 11 27 154 12 1
-11 6 27 152 11 1
-11 6 27 155 12 1
-11 8 -27 1392 59 1
-8 -11 -27 1441 58 1
-8 -11 -27 1391 58 1
-11 8 -27 1431 59 1
8 11 27 1395 66 1
-11 8 27 1351 66 1
8 11 27 1477 66 1
8 11 27 1325 57 1
-11 8 27 1399 66 1
-11 10 -27 18 3 1
-10 -11 -27 19 2 1
-11 10 -27 18 5 1
-10 -11 -27 10 2 1
10 11 27 19 3 1
-12 -11 -27 21 6 1
-12 -11 -27 23 6 1
-11 12 -27 39 7 1
-11 12 27 24 5 1
-12 -9 -27 30 6 1
-12 -9 -27 30 6 1
-9 12 -27 30 7 1
-9 12 -27 17 8 1
12 9 27 37 6 1
7 -12 -27 17 5 1
-12 -7 -27 11 2 1
-7 12 -27 27 3 1
-12 -7 -27 25 3 1
-12 -7 -27 25 3 1
-7 12 27 37 3 1
12 7 27 25 2 1
-7 12 27 11 5 1
12 7 27 25 7 1
-12 -5 -27 74 10 1
-12 -5 -27 76 7 1
-12 -5 -27 80 7 1
5 -12 -27 75 8 1
5 -12 -27 66 9 1
-5 12 27 75 8 1
12 5 27 81 6 1
-12 -5 27 85 9 1
-12 -5 27 58 15 1
12 5 27 68 14 1
-5 12 27 77 11 1
3 -12 -27 126 8 1
-12 -3 -27 99 10 1
-12 -3 -27 153 6 1
-3 12 -27 160 8 1
-12 -3 -27 131 6 1
3 -12 -27 142 7 1
-12 -3 27 116 12 1
-3 12 27 125 8 1
-12 -3 27 127 8 1
3 -12 27 142 7 1
12 3 27 150 6 1
12 3 27 134 16 1
-12 -1 -27 728 30 1
1 -12 -27 735 30 1
-1 12 -27 712 31 1
-12 -1 -27 750 30 1
1 -12 -27 721 30 1
12 1 27 694 29 1
1 -12 27 710 30 1
-12 -1 27 760 34 1
-1 12 27 714 35 1
-12 -1 27 770 35 1
-12 1 -27 121 8 1
-12 1 -27 118 8 1
-1 -12 -27 118 7 1
-1 -12 -27 103 8 1
1 12 -27 94 11 1
1 12 27 118 10 1
-1 -12 27 129 9 1
1 12 27 103 10 1
-12 1 27 106 10 1
-12 1 27 105 10 1
-3 -12 -27 1616 60 1
-12 3 -27 1631 61 1
-12 3 -27 1641 61 1
-3 -12 -27 1666 60 1
3 12 27 1518 68 1
3 12 27 1614 68 1
-12 3 27 1651 69 1
-5 -12 -27 1015 41 1
-12 5 -27 1009 42 1
-12 5 -27 965 42 1
-5 -12 -27 1055 41 1
5 12 27 928 47 1
5 12 27 1003 47 1
-12 5 27 940 47 1
-12 5 27 906 47 1
5 12 27 1018 40 1
-12 7 -27 145 11 1
-7 -12 -27 127 8 1
-7 -12 -27 152 9 1
-12 7 -27 152 10 1
7 12 27 160 13 1
-12 7 27 120 13 1
7 12 27 140 8 1
-12 7 27 161 11 1
-12 9 -27 85 12 1
-9 -12 -27 106 8 1
-9 -12 -27 109 8 1
-12 9 -27 89 9 1
9 12 27 83 8 1
-11 -12 -27 2 3 1
-12 11 -27 15 6 1
-12 11 -27 15 3 1
-12 11 27 12 2 1
11 12 27 3 3 1
-13 -12 -27 1289 55 1
-12 13 -27 1390 56 1
12 -13 27 1345 55 1
-12 13 27 1422 62 1
-10 13 -27 323 15 1
-13 -10 -27 351 15 1
-13 -10 -27 315 15 1
-13 -10 -27 349 14 1
10 -13 27 336 14 1
-10 13 27 339 16 1
13 10 27 338 14 1
-13 -8 -27 31 5 1
-13 -8 -27 16 6 1
-13 -8 -27 23 6 1
-8 13 -27 22 7 1
13 8 27 23 6 1
8 -13 27 12 5 1
-8 13 27 25 5 1
-13 -6 -27 30 6 1
6 -13 -27 11 8 1
6 -13 -27 28 10 1
-13 -6 27 16 7 1
13 6 27 20 6 1
6 -13 27 31 6 1
-6 13 27 18 7 1
-6 13 27 24 13 1
4 -13 -27 66 10 1
-13 -4 -27 84 8 1
-13 -4 -27 99 11 1
4 -13 -27 82 9 1
-4 13 27 89 12 1
-13 -4 27 89 10 1
4 -13 27 81 8 1
13 4 27 76 18 1
13 4 27 87 8 1
-4 13 27 79 10 1
-13 -4 27 83 15 1
2 -13 -27 231 9 1
-2 13 -27 234 11 1
-13 -2 -27 219 13 1
2 -13 -27 231 10 1
-13 -2 -27 247 9 1
-13 -2 -27 217 9 1
-2 13 27 243 12 1
-13 -2 27 215 14 1
-13 -2 27 252 11 1
-2 13 27 222 11 1
2 -13 27 233 9 1
13 2 27 229 9 1
0 13 -27 365 19 1
-13 0 -27 368 17 1
-13 0 -27 361 17 1
0 -13 -27 361 17 1
0 -13 -27 405 17 1
0 13 27 354 20 1
0 -13 27 360 17 1
13 0 27 367 16 1
-13 0 27 335 21 1
-13 0 27 366 20 1
-13 2 -27 611 29 1
-2 -13 -27 602 29 1
-2 -13 -27 624 29 1
2 13 -27 580 30 1
-13 2 -27 624 29 1
-13 2 27 598 33 1
2 13 27 598 33 1
-2 -13 27 630 29 1
-13 2 27 574 33 1
2 13 27 642 33 1
-13 4 -27 98 8 1
-4 -13 -27 109 8 1
-4 -13 -27 91 7 1
4 13 27 113 11 1
-13 4 27 113 10 1
4 13 27 96 8 1
-13 4 27 101 11 1
4 13 27 92 11 1
-6 -13 -27 8 5 1
-13 6 -27 10 8 1
-13 6 27 17 10 1
6 13 27 6 8 1
6 13 27 15 10 1
-13 6 27 10 7 1
-8 -13 -27 104 8 1
-13 8 -27 106 9 1
8 13 27 94 8 1
-10 -13 -27 77 8 1
-10 -13 -27 98 8 1
-13 10 -27 91 12 1
10 13 27 95 9 1
-13 10 27 91 8 1
-12 -13 -27 5 3 1
-13 12 -27 3 4 1
-13 12 27 1 2 1
-13 14 -27 420 20 1
-14 -13 -27 463 21 1
13 -14 27 449 19 1
-13 14 27 440 21 1
-11 14 -27 33 8 1
-14 -11 -27 36 6 1
-14 -11 -27 46 8 1
-11 14 27 35 6 1
11 -14 27 31 5 1
-14 -9 -27 8 2 1
-9 14 -27 10 4 1
-14 -9 -27 12 3 1
-9 14 27 20 5 1
14 9 27 10 3 1
-14 -7 -27 0 3 1
7 -14 -27 2 5 1
-14 -7 -27 0 2 1
14 7 27 1 3 1
7 -14 27 10 2 1
-7 14 27 18 2 1
5 -14 -27 125 9 1
-14 -5 -27 105 8 1
5 -14 -27 136 11 1
-14 -5 -27 112 8 1
-14 -5 27 122 9 1
14 5 27 102 8 1
5 -14 27 132 8 1
-5 14 27 150 9 1
3 -14 -27 122 9 1
3 -14 -27 117 9 1
3 -14 27 117 8 1
-3 14 27 87 13 1
14 3 27 103 8 1
1 -14 -27 6 3 1
-14 -1 -27 4 3 1
-14 -1 -27 6 3 1
-1 14 27 3 5 1
-14 -1 27 3 3 1
1 -14 27 4 3 1
14 1 27 3 3 1
-14 -1 27 0 6 1
-1 -14 -27 277 15 1
-14 1 -27 288 15 1
-14 1 -27 301 15 1
1 14 -27 286 17 1
-14 1 27 304 17 1
1 14 27 289 18 1
-14 1 27 269 18 1
1 14 27 297 19 1
-1 -14 27 275 15 1
-14 3 -27 8 3 1
-3 -14 27 2 3 1
-14 3 27 6 3 1
3 14 27 11 5 1
-14 5 -27 30 7 1
-5 -14 -27 22 5 1
-5 -14 -27 26 5 1
5 14 27 36 9 1
5 14 27 21 7 1
-14 7 -27 631 28 1
-14 7 -27 548 27 1
-7 -14 -27 583 26 1
-7 -14 -27 592 27 1
7 14 27 561 26 1
-14 7 27 627 30 1
-14 9 -27 55 10 1
-9 -14 -27 91 6 1
-9 -14 -27 104 7 1
-14 9 -27 81 8 1
-14 9 27 80 6 1
9 14 27 108 7 1
-14 11 -27 358 17 1
-11 -14 -27 354 16 1
-14 11 27 373 17 1
-13 -14 -27 46 8 1
-14 13 -27 68 9 1
14 -13 27 49 5 1
-14 13 27 61 6 1
-15 -12 -27 8 2 1
-12 15 -27 16 4 1
12 -15 27 4 1 1
-10 15 -27 80 8 1
-15 -10 -27 50 6 1
-15 -10 -27 69 8 1
10 -15 27 61 4 1
-10 15 27 57 5 1
-15 -8 -27 16 6 1
-15 -8 -27 10 7 1
15 8 27 17 8 1
8 -15 27 15 5 1
-8 15 27 8 5 1
6 -15 -27 40 5 1
-15 -6 -27 11 3 1
-15 -6 -27 11 3 1
6 -15 -27 40 4 1
-15 -6 -27 11 2 1
-6 15 27 40 2 1
6 -15 27 1 2 1
15 6 27 11 3 1
-15 -4 -27 3 3 1
4 -15 -27 4 3 1
-15 -4 -27 0 3 1
4 -15 -27 6 3 1
-15 -4 -27 0 3 1
15 4 27 6 3 1
-15 -4 27 2 2 1
-4 15 27 4 2 1
4 -15 27 0 2 1
2 -15 -27 5 3 1
-15 -2 -27 6 3 1
2 -15 -27 6 3 1
-15 -2 -27 3 3 1
-15 -2 -27 6 3 1
2 -15 27 9 2 1
-2 15 27 7 2 1
15 2 27 4 3 1
-15 0 -27 94 7 1
-15 0 -27 101 7 1
0 15 -27 97 12 1
0 -15 -27 136 7 1
-15 0 27 119 7 1
0 -15 27 120 8 1
-2 -15 -27 106 9 1
-15 2 -27 112 9 1
-2 -15 -27 126 8 1
-15 2 27 139 9 1
-2 -15 27 134 10 1
2 15 27 139 10 1
-15 4 -27 315 18 1
-4 -15 -27 328 17 1
-4 -15 -27 350 17 1
-15 4 27 341 19 1
-6 -15 -27 485 20 1
-15 6 -27 432 21 1
-6 -15 -27 468 20 1
-15 6 -27 501 21 1
-15 6 27 485 23 1
6 15 27 466 20 1
-15 8 -27 18 7 1
-15 8 -27 5 4 1
-8 -15 -27 21 5 1
-8 -15 -27 21 7 1
-15 8 27 12 5 1
-10 -15 -27 77 7 1
-15 10 27 90 7 1
-15 12 -27 1 4 1
-12 -15 -27 3 4 1
-16 -11 -27 90 8 1
-11 16 -27 84 10 1
11 -16 27 81 6 1
-11 16 27 97 8 1
-16 -9 -27 8 2 1
-16 -9 -27 3 4 1
-9 16 -27 9 4 1
-9 16 27 6 2 1
9 -16 27 4 1 1
-16 -7 -27 1 4 1
-16 -7 -27 8 2 1
7 -16 27 7 1 1
-7 16 27 6 2 1
-16 -5 -27 0 3 1
5 -16 -27 6 4 1
5 -16 -27 6 4 1
-16 -5 -27 0 2 1
-16 -5 -27 2 3 1
-16 -5 27 2 3 1
5 -16 27 5 2 1
16 5 27 2 3 1
-5 16 27 2 2 1
-16 -3 -27 23 7 1
3 -16 -27 17 4 1
-16 -3 -27 16 3 1
-16 -3 27 26 6 1
3 -16 27 29 5 1
-16 -1 -27 139 10 1
1 -16 -27 106 8 1
-16 -1 -27 108 9 1
-1 16 -27 119 13 1
1 -16 27 114 9 1
16 1 27 114 9 1
-16 -1 27 124 8 1
-1 -16 -27 21 5 1
-16 1 -27 13 3 1
-16 1 -27 5 3 1
-1 -16 -27 8 3 1
1 16 27 8 3 1
-16 1 27 13 2 1
-16 3 -27 83 8 1
-3 -16 -27 86 7 1
-3 -16 -27 95 8 1
-16 3 -27 110 9 1
-16 3 27 86 8 1
-16 5 -27 9 4 1
-5 -16 -27 13 3 1
-5 -16 -27 15 3 1
-16 5 27 8 4 1
-7 -16 -27 1 3 1
-9 -16 -27 147 9 1
-16 9 -27 161 11 1
-16 9 27 132 9 1
-16 11 -27 35 9 1
16 -11 27 22 4 1
-17 -10 -27 21 5 1
10 -17 27 29 3 1
-17 -8 -27 52 11 1
-17 -8 -27 32 5 1
-8 17 27 37 5 1
-17 -6 -27 17 5 1
-17 -6 -27 11 4 1
6 -17 27 16 3 1
-6 17 27 22 6 1
4 -17 -27 23 5 1
-17 -4 -27 20 4 1
-17 -4 27 23 3 1
-4 17 27 27 6 1
4 -17 27 16 4 1
-17 -2 -27 68 7 1
-17 -2 -27 41 8 1
2 -17 -27 65 7 1
-17 -2 27 59 6 1
-17 0 -27 35 8 1
0 -17 -27 52 7 1
-17 0 27 47 5 1
0 -17 27 64 5 1
-17 2 -27 1 3 1
-2 -17 -27 7 3 1
-2 -17 -27 5 3 1
-17 2 -27 8 4 1
-2 -17 27 2 2 1
-17 2 27 4 2 1
-17 4 -27 9 4 1
-17 4 27 4 2 1
-17 6 -27 85 9 1
-6 -17 -27 88 7 1
-17 6 27 99 7 1
-17 8 -27 3 9 1
-17 10 27 3 2 1
17 -10 27 3 1 1
-18 -9 -27 150 10 1
9 -18 27 151 9 1
-9 18 27 156 11 1
-18 -7 -27 265 14 1
7 -18 27 270 13 1
-7 18 27 259 14 1
-18 -5 -27 48 12 1
-18 -5 -27 52 6 1
5 -18 27 40 4 1
-18 -3 -27 363 18 1
-18 -3 -27 335 19 1
-3 18 27 345 19 1
3 -18 27 328 16 1
1 -18 -27 84 8 1
-18 -1 -27 86 10 1
-18 -1 -27 103 9 1
-18 -1 27 100 7 1
-18 1 -27 1324 55 1
-18 1 27 1353 61 1
-18 3 -27 460 20 1
-3 -18 -27 428 19 1
-18 3 27 411 20 1
-18 5 -27 2 4 1
-5 -18 -27 2 3 1
-18 5 27 0 2 1
-7 -18 -27 20 3 1
-18 7 27 26 4 1
-18 9 27 3 1 1
18 -9 27 1 1 1
-19 -6 -27 79 6 1
6 -19 27 83 5 1
-6 19 27 73 8 1
-19 -4 -27 37 6 1
4 -19 27 42 4 1
-19 -2 -27 59 7 1
2 -19 27 56 4 1
-19 -2 27 50 7 1
0 -19 -27 189 12 1
-19 0 27 171 12 1
0 -19 27 209 10 1
-2 -19 -27 52 7 1
-2 -19 27 52 6 1
-19 2 27 65 5 1
-4 -19 -27 120 8 1
-19 4 27 113 8 1
-19 6 27 46 5 1
-20 -3 -27 141 9 1
3 -20 27 141 7 1
1 -20 27 382 17 1
-20 -1 27 374 20 1
-20 1 27 57 6 1
-20 3 27 53 5 1
0 0 -28 358 16 1
0 0 28 352 19 1
-1 1 -28 446 21 1
-1 -1 -28 436 21 1
1 1 -28 383 21 1
-1 -1 -28 431 22 1
1 -1 28 407 24 1
1 1 28 406 24 1
1 1 28 445 24 1
-1 1 28 416 24 1
-1 -1 28 407 24 1
-1 1 28 419 24 1
-2 0 -28 254 10 1
-2 0 -28 240 12 1
2 0 -28 258 10 1
0 2 -28 274 10 1
0 -2 -28 266 10 1
0 -2 28 256 13 1
2 0 28 273 12 1
0 2 28 289 12 1
-2 0 28 226 11 1
0 -2 28 267 12 1
-2 0 28 227 12 1
2 0 28 241 12 1
2 -2 -28 3 6 1
-2 -2 -28 3 5 1
2 2 -28 10 6 1
-2 2 -28 3 5 1
-2 -2 -28 4 8 1
-2 2 28 2 3 1
-2 -2 28 3 5 1
2 2 28 3 7 1
2 -2 28 2 6 1
-2 -2 28 7 7 1
-3 -1 -28 536 18 1
1 -3 -28 575 17 1
3 1 -28 557 17 1
-3 -1 -28 532 17 1
-1 3 -28 544 17 1
1 -3 28 527 21 1
3 1 28 589 20 1
-1 3 28 565 20 1
-3 -1 28 587 20 1
1 -3 28 530 20 1
-3 -1 28 571 21 1
-1 3 28 543 20 1
3 -1 -28 1115 51 1
-3 1 -28 1066 51 1
-1 -3 -28 1097 52 1
1 3 -28 1126 51 1
-3 1 -28 1053 52 1
-1 -3 -28 1162 51 1
3 -1 28 1097 57 1
-1 -3 28 1152 58 1
3 -1 28 1120 58 1
-1 -3 28 1115 57 1
1 3 28 1030 58 1
-3 3 -28 194 9 1
-3 -3 -28 169 9 1
3 -3 -28 201 9 1
3 3 -28 173 9 1
-3 -3 -28 184 10 1
-3 -3 28 182 10 1
3 3 28 197 11 1
3 -3 28 192 11 1
3 3 28 165 11 1
-3 3 28 159 11 1
-3 -3 28 168 12 1
4 2 -28 68 8 1
2 -4 -28 80 7 1
-4 -2 -28 44 8 1
-4 -2 -28 55 7 1
-2 4 -28 66 7 1
2 -4 28 72 9 1
4 2 28 67 9 1
-2 4 28 75 9 1
4 2 28 69 10 1
-4 -2 28 51 9 1
0 4 -28 4 3 1
4 0 -28 5 3 1
0 -4 -28 22 4 1
-4 0 -28 6 4 1
0 -4 -28 11 3 1
0 4 28 22 3 1
4 0 28 3 3 1
4 0 28 7 5 1
-4 0 28 0 2 1
-4 0 28 5 4 1
0 4 28 22 4 1
0 -4 28 6 3 1
4 -2 -28 2279 75 1
2 4 -28 2205 75 1
-2 -4 -28 2230 75 1
-2 -4 -28 2227 75 1
-4 2 -28 2131 76 1
-4 2 -28 2261 75 1
-4 2 28 2134 84 1
-4 2 28 2257 85 1
4 -2 28 2098 85 1
-2 -4 28 2230 85 1
-2 -4 28 2188 84 1
2 4 28 2108 84 1
-4 -4 -28 587 24 1
4 -4 -28 579 24 1
-4 -4 -28 639 25 1
-4 4 -28 619 24 1
4 4 -28 632 24 1
-4 -4 28 657 28 1
4 -4 28 612 27 1
4 4 28 668 28 1
4 4 28 673 28 1
-4 4 28 607 28 1
-4 4 28 652 28 1
-5 -3 -28 90 6 1
-5 -3 -28 78 7 1
-3 5 -28 74 6 1
3 -5 -28 91 6 1
5 3 28 90 9 1
3 -5 28 70 7 1
5 3 28 73 7 1
-3 5 28 71 8 1
-3 5 28 69 8 1
-5 -3 28 83 11 1
-5 -3 28 91 7 1
-5 -1 -28 872 35 1
-1 5 -28 881 34 1
1 -5 -28 865 35 1
5 1 -28 873 34 1
1 -5 -28 877 34 1
1 -5 28 914 39 1
5 1 28 822 39 1
-1 5 28 869 39 1
-5 -1 28 926 39 1
-1 5 28 832 39 1
-5 -1 28 871 39 1
5 1 28 834 39 1
1 5 -28 98 7 1
5 -1 -28 98 8 1
-1 -5 -28 92 6 1
-5 1 -28 97 9 1
5 -1 28 103 8 1
-1 -5 28 108 8 1
-5 1 28 64 9 1
-5 1 28 78 8 1
5 -1 28 75 7 1
1 5 28 95 8 1
-3 -5 -28 117 8 1
5 -3 -28 94 8 1
3 5 -28 107 8 1
-5 3 -28 105 7 1
-5 3 -28 83 10 1
-3 -5 -28 110 7 1
3 5 28 110 9 1
-5 3 28 106 9 1
-3 -5 28 113 9 1
-5 3 28 104 9 1
5 -3 28 123 9 1
3 5 28 117 9 1
-5 5 -28 1369 56 1
-5 -5 -28 1290 56 1
-5 5 -28 1231 57 1
5 -5 -28 1316 55 1
-5 -5 -28 1321 56 1
5 5 28 1366 63 1
5 -5 28 1362 63 1
-5 5 28 1266 63 1
-5 -5 28 1313 63 1
5 5 28 1265 62 1
-4 6 -28 294 17 1
-6 -4 -28 272 17 1
4 -6 -28 305 17 1
-4 6 28 300 20 1
-4 6 28 299 20 1
-6 -4 28 318 21 1
6 4 28 285 20 1
-6 -4 28 305 19 1
4 -6 28 300 19 1
6 4 28 281 20 1
2 -6 -28 1 5 1
2 -6 -28 0 5 1
-6 -2 -28 1 3 1
-2 6 -28 0 3 1
-6 -2 -28 0 3 1
-6 -2 28 0 5 1
6 2 28 1 3 1
-2 6 28 1 3 1
-6 -2 28 2 3 1
-2 6 28 2 4 1
2 -6 28 1 3 1
0 -6 -28 121 7 1
-6 0 -28 122 8 1
-6 0 -28 119 6 1
0 -6 -28 128 9 1
0 6 -28 123 8 1
-6 0 28 99 8 1
6 0 28 100 8 1
0 6 28 115 9 1
0 6 28 141 9 1
0 -6 28 124 8 1
6 0 28 136 12 1
-6 2 -28 465 27 1
-2 -6 -28 500 26 1
2 6 -28 503 26 1
-2 -6 -28 500 27 1
-6 2 -28 484 26 1
-2 -6 28 491 30 1
2 6 28 516 30 1
-6 2 28 477 30 1
6 -2 28 509 30 1
-4 -6 -28 80 6 1
-4 -6 -28 63 8 1
-6 4 -28 73 7 1
-6 4 -28 67 10 1
6 -4 -28 68 9 1
4 6 -28 63 9 1
-6 4 28 63 8 1
-4 -6 28 63 8 1
6 -4 28 79 8 1
-6 4 28 71 9 1
4 6 28 52 9 1
4 6 28 82 9 1
6 -6 -28 261 10 1
-6 6 -28 212 13 1
-6 6 -28 231 9 1
-6 -6 -28 235 9 1
-6 -6 -28 213 10 1
-6 6 28 226 11 1
6 6 28 232 11 1
-6 6 28 216 12 1
6 6 28 218 11 1
-6 -6 28 235 11 1
5 -7 -28 4 3 1
-7 -5 -28 2 3 1
-7 -5 -28 2 3 1
-5 7 -28 2 3 1
7 5 28 2 3 1
-7 -5 28 4 7 1
-7 -5 28 4 3 1
7 5 28 12 4 1
-5 7 28 2 3 1
-5 7 28 2 4 1
3 -7 -28 230 12 1
3 -7 -28 243 9 1
-7 -3 -28 226 9 1
-7 -3 -28 219 8 1
-3 7 -28 253 9 1
7 3 28 197 12 1
-7 -3 28 239 11 1
-3 7 28 234 11 1
7 3 28 210 10 1
-3 7 28 243 11 1
3 -7 28 241 10 1
-7 -3 28 212 13 1
1 -7 -28 98 10 1
-1 7 -28 86 8 1
1 -7 -28 90 8 1
-7 -1 -28 73 8 1
-7 -1 -28 58 9 1
-1 7 28 75 10 1
-7 -1 28 72 11 1
7 1 28 76 12 1
1 -7 28 88 9 1
-7 -1 28 70 9 1
7 1 28 67 9 1
-1 7 28 70 10 1
-7 1 -28 820 37 1
-7 1 -28 792 36 1
1 7 -28 864 36 1
-1 -7 -28 907 36 1
-1 -7 -28 890 36 1
-7 1 28 889 41 1
1 7 28 959 41 1
1 7 28 831 41 1
-1 -7 28 880 41 1
-7 3 -28 617 21 1
-3 -7 -28 632 21 1
-7 3 -28 628 22 1
3 7 -28 607 21 1
-3 -7 -28 620 20 1
7 -3 28 593 24 1
-7 3 28 572 24 1
-3 -7 28 632 24 1
3 7 28 582 24 1
-7 3 28 568 24 1
3 7 28 632 24 1
-7 5 -28 551 23 1
-7 5 -28 581 24 1
-5 -7 -28 533 22 1
-5 -7 -28 583 23 1
-5 -7 28 566 26 1
5 7 28 580 26 1
-7 5 28 582 26 1
-7 5 28 552 26 1
-7 7 -28 418 18 1
-7 7 -28 378 21 1
-7 -7 -28 397 18 1
-7 -7 -28 410 18 1
7 7 28 378 21 1
7 7 28 436 21 1
-7 -7 28 426 21 1
-7 7 28 389 21 1
-7 7 28 411 21 1
-8 -6 -28 273 13 1
6 -8 -28 255 14 1
-6 8 -28 288 14 1
-8 -6 28 295 16 1
8 6 28 294 17 1
-6 8 28 263 16 1
-6 8 28 268 16 1
4 -8 -28 506 20 1
-8 -4 -28 544 19 1
4 -8 -28 517 18 1
-4 8 -28 554 19 1
-4 8 28 506 21 1
8 4 28 554 23 1
-8 -4 28 535 23 1
-4 8 28 566 22 1
-8 -4 28 531 21 1
-2 8 -28 57 8 1
2 -8 -28 51 7 1
-8 -2 -28 52 7 1
-8 -2 -28 50 8 1
2 -8 -28 48 9 1
-2 8 28 45 9 1
-2 8 28 46 9 1
8 2 28 52 9 1
-8 -2 28 65 11 1
-8 -2 28 49 8 1
8 2 28 34 12 1
2 -8 28 48 8 1
-8 0 -28 1868 72 1
0 -8 -28 1902 72 1
-8 0 -28 1849 72 1
0 8 -28 1892 72 1
0 -8 -28 1968 72 1
0 -8 28 1941 82 1
8 0 28 2031 82 1
0 8 28 2060 81 1
-2 -8 -28 348 17 1
-8 2 -28 310 17 1
-2 -8 -28 316 17 1
2 8 -28 334 18 1
-8 2 -28 309 18 1
8 -2 28 324 19 1
-8 2 28 279 20 1
2 8 28 292 19 1
2 8 28 328 19 1
-8 2 28 274 19 1
-2 -8 28 345 19 1
-8 4 -28 286 19 1
-4 -8 -28 297 17 1
-8 4 -28 308 18 1
4 8 28 312 20 1
-4 -8 28 325 20 1
-8 4 28 310 20 1
4 8 28 304 20 1
-6 -8 -28 74 7 1
-6 -8 -28 77 7 1
-8 6 -28 96 12 1
-8 6 -28 86 7 1
-8 6 28 79 10 1
6 8 28 74 10 1
-8 6 28 83 9 1
6 8 28 71 9 1
-6 -8 28 95 9 1
-8 8 -28 112 8 1
-8 -8 -28 143 7 1
-8 -8 -28 135 7 1
-8 8 -28 88 13 1
8 8 28 120 9 1
-8 8 28 98 8 1
8 8 28 160 11 1
-8 -8 28 140 10 1
-8 8 28 114 11 1
-7 9 -28 63 7 1
-9 -7 -28 80 6 1
-9 -7 -28 64 7 1
9 7 28 54 8 1
9 7 28 71 6 1
9 7 28 77 12 1
-7 9 28 32 10 1
-7 9 28 44 8 1
-9 -7 28 61 9 1
-9 -5 -28 55 5 1
5 -9 -28 68 4 1
-5 9 -28 82 3 1
5 -9 -28 59 5 1
-9 -5 -28 51 3 1
9 5 28 49 6 1
-5 9 28 65 3 1
9 5 28 45 3 1
-9 -5 28 48 7 1
-9 -5 28 47 3 1
-5 9 28 59 4 1
3 -9 -28 71 7 1
-9 -3 -28 99 7 1
-3 9 -28 87 8 1
-9 -3 -28 87 7 1
-9 -3 28 105 9 1
-3 9 28 89 9 1
9 3 28 86 9 1
-3 9 28 87 9 1
9 3 28 97 12 1
-9 -1 -28 104 6 1
1 -9 -28 133 7 1
-1 9 -28 132 8 1
9 1 28 106 8 1
-1 9 28 109 9 1
-1 9 28 128 9 1
-9 -1 28 121 11 1
-9 -1 28 98 8 1
1 -9 28 101 8 1
1 9 -28 445 23 1
-1 -9 -28 416 22 1
-9 1 -28 426 23 1
1 9 28 396 26 1
-9 1 28 425 26 1
-9 1 28 449 26 1
1 9 28 430 26 1
-1 -9 28 454 23 1
-1 -9 28 459 26 1
3 9 -28 1280 53 1
-3 -9 -28 1220 53 1
-9 3 -28 1250 53 1
-3 -9 -28 1170 52 1
-9 3 28 1346 60 1
3 9 28 1336 60 1
3 9 28 1309 59 1
-3 -9 28 1329 59 1
-9 5 -28 848 29 1
-5 -9 -28 853 28 1
-9 5 -28 830 28 1
-5 -9 -28 802 28 1
5 9 28 850 32 1
-5 -9 28 871 32 1
-9 5 28 845 32 1
-9 5 28 809 32 1
-7 -9 -28 39 5 1
-9 7 -28 32 5 1
-9 7 -28 38 6 1
7 9 28 28 4 1
7 9 28 22 6 1
-9 7 28 44 9 1
-7 -9 28 38 9 1
-9 7 28 39 7 1
-9 9 -28 2 6 1
-9 -9 -28 5 3 1
-9 -9 -28 4 3 1
-9 9 -28 12 3 1
-9 9 28 5 5 1
-9 9 28 9 3 1
9 9 28 6 3 1
9 9 28 16 6 1
-10 -8 -28 244 13 1
-10 -8 -28 228 12 1
-8 10 -28 238 14 1
10 8 28 209 18 1
-8 10 28 183 16 1
10 8 28 226 12 1
6 -10 -28 683 24 1
6 -10 -28 647 27 1
-6 10 -28 695 25 1
-10 -6 -28 644 27 1
-10 -6 -28 650 24 1
-10 -6 -28 622 24 1
-10 -6 28 687 27 1
10 6 28 678 29 1
-6 10 28 617 28 1
10 6 28 616 23 1
-6 10 28 641 28 1
-4 10 -28 63 8 1
-10 -4 -28 59 6 1
4 -10 -28 57 7 1
-10 -4 -28 88 12 1
4 -10 -28 56 10 1
-10 -4 -28 64 7 1
-10 -4 28 78 9 1
10 4 28 72 14 1
-4 10 28 79 10 1
-10 -4 28 47 14 1
-4 10 28 77 8 1
2 -10 -28 70 3 1
-2 10 -28 59 4 1
-10 -2 -28 31 3 1
-10 -2 -28 51 2 1
2 -10 -28 38 3 1
-10 -2 28 50 3 1
-2 10 28 33 4 1
10 2 28 18 7 1
-2 10 28 48 3 1
-10 -2 28 22 5 1
-10 0 -28 743 27 1
-10 0 -28 751 27 1
0 10 -28 797 27 1
0 -10 -28 711 27 1
0 -10 -28 690 27 1
-10 0 28 669 30 1
0 10 28 664 30 1
0 -10 28 766 27 1
-10 0 28 695 31 1
-10 2 -28 114 3 1
-2 -10 -28 120 2 1
2 10 -28 98 5 1
-10 2 -28 81 3 1
-2 -10 -28 120 3 1
-2 -10 28 119 3 1
-10 2 28 25 5 1
2 10 28 99 3 1
-2 -10 28 90 3 1
2 10 28 61 4 1
-10 2 28 41 3 1
-4 -10 -28 155 9 1
-4 -10 -28 138 9 1
-10 4 -28 160 10 1
-10 4 -28 161 9 1
4 10 28 132 11 1
4 10 28 149 12 1
-10 4 28 151 12 1
-10 4 28 125 11 1
-4 -10 28 163 11 1
-10 6 -28 856 41 1
-6 -10 -28 902 39 1
-10 6 -28 906 40 1
-6 -10 -28 945 39 1
6 10 28 913 45 1
6 10 28 912 45 1
-10 6 28 876 45 1
-6 -10 28 921 45 1
-10 8 -28 2053 79 1
-8 -10 -28 2097 78 1
-8 -10 -28 2184 78 1
-10 8 -28 2035 79 1
-10 8 28 2120 89 1
-10 8 28 1970 88 1
8 10 28 2061 77 1
-10 10 -28 149 10 1
-10 -10 -28 146 9 1
-10 -10 -28 137 9 1
-10 10 28 147 10 1
10 10 28 141 10 1
-9 11 -28 345 15 1
-11 -9 -28 336 13 1
-9 11 -28 304 21 1
-11 -9 -28 338 14 1
-9 11 28 358 15 1
11 9 28 355 14 1
-11 -7 -28 188 9 1
-7 11 28 153 11 1
-7 11 28 171 13 1
11 7 28 171 9 1
-11 -5 -28 1 3 1
5 -11 -28 30 4 1
-11 -5 -28 1 3 1
-11 -5 -28 0 4 1
-5 11 -28 30 4 1
5 -11 -28 16 4 1
11 5 28 1 3 1
-11 -5 28 0 8 1
-11 -5 28 3 3 1
-5 11 28 41 3 1
11 5 28 1 7 1
-5 11 28 41 5 1
-11 -3 -28 207 9 1
-3 11 -28 203 11 1
3 -11 -28 200 11 1
3 -11 -28 199 9 1
-11 -3 -28 211 9 1
11 3 28 199 8 1
-11 -3 28 192 11 1
11 3 28 178 17 1
-3 11 28 189 12 1
-3 11 28 210 11 1
-1 11 -28 31 10 1
-11 -1 -28 27 8 1
1 -11 -28 44 8 1
-11 -1 -28 31 8 1
-1 11 28 23 10 1
-1 11 28 26 11 1
-11 -1 28 46 10 1
1 -11 28 54 9 1
-11 1 -28 7 3 1
1 11 -28 11 4 1
-11 1 -28 8 3 1
-1 -11 -28 6 3 1
1 11 28 8 5 1
1 11 28 9 3 1
-1 -11 28 8 3 1
-11 1 28 19 5 1
-11 1 28 12 3 1
-3 -11 -28 170 7 1
-11 3 -28 178 9 1
-3 -11 -28 170 8 1
-11 3 -28 190 8 1
3 11 28 155 11 1
-11 3 28 193 10 1
3 11 28 178 10 1
-11 3 28 183 11 1
-5 -11 -28 1721 69 1
-11 5 -28 1636 70 1
-5 -11 -28 1762 69 1
-11 5 -28 1724 70 1
-11 5 28 1770 79 1
-11 5 28 1794 78 1
5 11 28 1627 78 1
-5 -11 28 1782 78 1
-11 7 -28 651 30 1
-7 -11 -28 644 28 1
-11 7 28 650 33 1
7 11 28 615 33 1
7 11 28 646 27 1
-11 9 -28 6 3 1
-9 -11 -28 7 2 1
-11 9 -28 17 5 1
-9 -11 -28 7 2 1
-11 9 28 7 2 1
9 11 28 13 3 1
-11 -11 -28 158 9 1
-11 -11 -28 161 9 1
-11 11 -28 150 10 1
11 11 28 150 10 1
-11 11 28 143 9 1
-12 -10 -28 6 3 1
-10 12 28 12 4 1
12 10 28 6 4 1
-8 12 -28 162 10 1
-12 -8 -28 162 9 1
-12 -8 -28 162 9 1
-12 -8 -28 160 10 1
8 -12 28 147 9 1
-8 12 28 136 10 1
12 8 28 162 9 1
-12 -6 -28 12 3 1
-12 -6 -28 9 3 1
-12 -6 -28 13 3 1
6 -12 -28 10 4 1
-6 12 -28 10 4 1
6 -12 -28 7 5 1
12 6 28 8 3 1
6 -12 28 7 2 1
4 -12 -28 161 14 1
-4 12 -28 164 13 1
-12 -4 -28 146 15 1
-12 -4 -28 167 12 1
-4 12 28 163 15 1
12 4 28 141 22 1
-4 12 28 174 13 1
-12 -4 28 168 14 1
12 4 28 157 11 1
-12 -4 28 146 19 1
4 -12 28 152 12 1
2 -12 -28 192 14 1
-2 12 -28 204 14 1
2 -12 -28 214 13 1
-12 -2 -28 230 13 1
-12 -2 -28 228 13 1
-12 -2 28 217 14 1
2 -12 28 212 13 1
-12 -2 28 221 18 1
-2 12 28 234 15 1
0 12 -28 10 9 1
-12 0 -28 9 6 1
0 -12 -28 16 7 1
0 -12 -28 16 6 1
-12 0 -28 7 7 1
0 -12 28 16 7 1
0 12 28 11 7 1
-12 0 28 13 7 1
0 12 28 10 10 1
-12 2 -28 450 24 1
-2 -12 -28 431 23 1
-2 -12 -28 414 23 1
-12 2 -28 463 24 1
-12 2 28 459 27 1
2 12 28 419 27 1
-12 2 28 502 27 1
2 12 28 412 28 1
-2 -12 28 421 24 1
-12 4 -28 222 10 1
-4 -12 -28 220 9 1
-12 4 -28 223 11 1
4 12 28 225 13 1
-12 4 28 200 13 1
-12 4 28 224 11 1
4 12 28 206 12 1
-12 6 -28 121 11 1
-6 -12 -28 106 8 1
-12 6 -28 118 9 1
6 12 28 132 10 1
-12 6 28 105 11 1
-8 -12 -28 239 13 1
-12 8 -28 211 14 1
-12 8 -28 210 16 1
-8 -12 -28 244 13 1
8 12 28 237 13 1
-12 8 28 227 15 1
-10 -12 -28 2 3 1
-12 10 -28 3 3 1
-10 -12 -28 1 3 1
-12 10 28 0 2 1
10 12 28 2 3 1
-12 12 -28 57 8 1
-12 -12 -28 47 7 1
-12 12 28 53 6 1
-13 -11 -28 2 4 1
-13 -11 -28 0 2 1
-11 13 -28 0 4 1
11 -13 28 1 1 1
-11 13 28 3 2 1
-13 -9 -28 10 3 1
-13 -9 -28 21 3 1
-13 -9 -28 10 2 1
9 -13 28 3 2 1
-9 13 28 10 2 1
-13 -7 -28 3 3 1
-7 13 -28 1 4 1
-13 -7 -28 4 2 1
-13 -7 -28 3 3 1
7 -13 -28 2 6 1
-13 -7 28 7 3 1
-7 13 28 1 2 1
7 -13 28 0 2 1
13 7 28 8 3 1
5 -13 -28 1 8 1
5 -13 -28 3 5 1
-13 -5 -28 1 6 1
-13 -5 -28 1 7 1
-13 -5 -28 1 6 1
13 5 28 2 7 1
5 -13 28 0 5 1
-13 -5 28 1 6 1
3 -13 -28 32 9 1
3 -13 -28 38 7 1
-13 -3 -28 39 8 1
-13 -3 -28 35 6 1
-3 13 -28 50 9 1
13 3 28 44 7 1
3 -13 28 42 7 1
1 -13 -28 30 3 1
-1 13 -28 32 5 1
-1 13 28 64 11 1
-1 13 28 53 8 1
-13 -1 28 40 7 1
-1 -13 -28 224 10 1
1 13 -28 233 13 1
-13 1 28 237 14 1
-13 1 28 211 11 1
-1 -13 28 221 10 1
1 13 28 219 12 1
-3 -13 -28 1153 50 1
-13 3 -28 1113 51 1
3 13 28 1259 57 1
-13 3 28 1224 58 1
-5 -13 -28 135 7 1
-13 5 -28 122 7 1
-5 -13 -28 122 7 1
5 13 28 131 8 1
-13 5 28 115 7 1
-7 -13 -28 10 6 1
-13 7 -28 1 3 1
-7 -13 -28 2 3 1
-13 7 28 5 4 1
7 13 28 16 8 1
-9 -13 -28 58 7 1
-9 -13 -28 52 6 1
-13 9 -28 45 7 1
-13 9 28 42 6 1
-11 -13 -28 112 9 1
-13 11 -28 141 10 1
-13 11 28 136 9 1
-13 13 -28 704 31 1
-13 -13 -28 622 31 1
13 -13 28 698 30 1
-12 14 -28 219 18 1
-14 -12 -28 239 18 1
-12 14 28 254 18 1
12 -14 28 232 16 1
-14 -10 -28 164 8 1
-10 14 -28 162 10 1
-14 -10 -28 143 9 1
-10 14 28 156 8 1
10 -14 28 155 7 1
-8 14 -28 316 19 1
-14 -8 -28 312 18 1
-14 -8 -28 312 19 1
-8 14 28 327 19 1
-14 -6 -28 227 11 1
-6 14 -28 253 13 1
-14 -6 -28 234 11 1
6 -14 -28 198 13 1
-6 14 28 211 11 1
6 -14 28 234 10 1
14 6 28 222 11 1
-14 -6 28 225 12 1
-14 -4 -28 267 13 1
-14 -4 -28 244 12 1
-14 -4 -28 240 12 1
4 -14 -28 262 12 1
-4 14 -28 226 14 1
-14 -4 28 282 13 1
14 4 28 274 12 1
-14 -2 -28 352 18 1
2 -14 -28 388 19 1
-2 14 -28 387 20 1
2 -14 -28 393 18 1
-14 -2 -28 373 18 1
2 -14 28 379 18 1
14 2 28 385 18 1
-2 14 28 413 20 1
-14 -2 28 407 20 1
-14 0 -28 439 22 1
-14 0 -28 422 22 1
0 -14 -28 408 22 1
0 -14 -28 441 22 1
0 -14 28 434 22 1
0 14 28 425 24 1
-14 2 -28 57 6 1
-14 2 -28 73 7 1
-2 -14 -28 54 6 1
2 14 28 62 7 1
-14 2 28 67 6 1
-2 -14 28 73 8 1
-14 4 -28 569 29 1
-14 4 -28 566 29 1
-4 -14 -28 576 28 1
-4 -14 -28 597 28 1
-14 4 28 621 32 1
4 14 28 631 32 1
-14 6 -28 1411 61 1
-6 -14 -28 1416 60 1
-6 -14 -28 1378 59 1
-14 6 28 1474 68 1
-8 -14 -28 12 3 1
-14 8 -28 11 3 1
-8 -14 -28 9 3 1
-10 -14 -28 48 6 1
-14 10 28 33 5 1
-14 12 -28 95 9 1
-12 -14 -28 99 9 1
-14 12 28 86 7 1
14 -12 28 90 5 1
-15 -11 -28 255 14 1
-11 15 -28 268 15 1
11 -15 28 300 13 1
-11 15 28 300 14 1
-9 15 -28 242 17 1
-15 -9 -28 265 16 1
-15 -9 -28 241 16 1
-9 15 28 227 16 1
9 -15 28 250 14 1
-15 -7 -28 55 6 1
-7 15 -28 58 9 1
-15 -7 -28 64 8 1
-7 15 28 43 6 1
7 -15 28 53 5 1
-15 -5 -28 73 8 1
-5 15 -28 72 10 1
-15 -5 -28 70 8 1
-5 15 28 73 7 1
-15 -5 28 80 8 1
3 -15 -28 70 7 1
-15 -3 -28 58 7 1
-15 -3 -28 64 7 1
-3 15 -28 56 10 1
3 -15 -28 64 8 1
-15 -3 -28 76 8 1
3 -15 28 72 7 1
-15 -3 28 64 6 1
15 3 28 88 9 1
-3 15 28 70 6 1
-15 -1 -28 62 6 1
-1 15 -28 37 6 1
1 -15 -28 59 6 1
-1 15 28 71 6 1
1 -15 28 58 6 1
-15 -1 28 60 5 1
-15 1 -28 1 3 1
-1 -15 -28 0 3 1
-1 -15 -28 0 2 1
-15 1 -28 7 3 1
1 15 28 0 3 1
-15 1 28 3 2 1
-15 3 -28 15 6 1
-3 -15 -28 16 5 1
-15 3 28 18 5 1
3 15 28 32 8 1
-5 -15 -28 137 8 1
-5 -15 -28 139 8 1
-15 5 -28 125 9 1
-15 5 28 133 8 1
-7 -15 -28 322 14 1
-9 -15 -28 32 6 1
-15 9 28 27 5 1
-15 11 -28 140 11 1
-15 11 28 145 9 1
15 -11 28 140 8 1
-16 -10 -28 85 8 1
-10 16 28 99 8 1
10 -16 28 93 7 1
-8 16 -28 176 13 1
-16 -8 -28 189 10 1
-16 -8 -28 168 12 1
-8 16 28 181 10 1
8 -16 28 184 9 1
-6 16 -28 237 16 1
-16 -6 -28 234 14 1
-16 -6 -28 238 14 1
-6 16 28 249 14 1
6 -16 28 243 12 1
-4 16 -28 178 15 1
-16 -4 -28 161 13 1
4 -16 28 203 11 1
-16 -4 28 165 13 1
-4 16 28 178 13 1
-2 16 -28 1 6 1
-16 -2 -28 13 4 1
2 -16 -28 12 3 1
2 -16 28 11 2 1
-16 -2 28 18 5 1
0 -16 -28 112 9 1
-16 0 -28 100 10 1
0 -16 28 126 8 1
0 16 28 123 10 1
-16 0 28 134 9 1
-2 -16 -28 1 3 1
-16 2 -28 14 3 1
-16 2 -28 7 3 1
-2 -16 -28 1 3 1
-16 2 28 3 2 1
-2 -16 28 0 2 1
-16 4 -28 29 7 1
-4 -16 -28 18 5 1
-16 4 28 23 5 1
-6 -16 -28 11 3 1
-16 6 -28 19 4 1
-16 6 28 10 2 1
-16 8 -28 197 11 1
-8 -16 -28 168 10 1
-16 8 28 167 10 1
-16 10 28 10 2 1
-17 -9 -28 97 7 1
-9 17 28 103 7 1
9 -17 28 106 6 1
-17 -7 -28 6 2 1
-7 17 28 5 2 1
7 -17 28 6 1 1
-17 -5 -28 86 7 1
5 -17 28 64 5 1
-5 17 28 72 7 1
-17 -3 -28 602 33 1
-17 -3 -28 627 31 1
-3 17 28 669 34 1
3 -17 28 632 30 1
-17 -3 28 641 34 1
1 -17 -28 218 12 1
-17 -1 -28 238 14 1
-17 -1 28 239 13 1
-1 17 28 232 13 1
-17 1 -28 238 14 1
-1 -17 -28 237 12 1
-17 1 28 263 13 1
-1 -17 28 260 11 1
-17 3 -28 159 12 1
-3 -17 -28 161 10 1
-17 3 28 157 11 1
-5 -17 -28 114 8 1
-17 5 -28 107 10 1
-17 5 28 119 7 1
-7 -17 -28 119 9 1
-17 7 28 120 8 1
-17 9 28 40 4 1
-18 -6 -28 26 6 1
6 -18 28 17 4 1
-6 18 28 14 6 1
-18 -4 -28 300 13 1
4 -18 28 290 11 1
-4 18 28 311 14 1
2 -18 -28 107 10 1
-18 -2 28 110 8 1
2 -18 28 126 6 1
0 -18 -28 611 28 1
-18 0 -28 637 29 1
0 -18 28 658 27 1
-18 0 28 677 31 1
-18 2 -28 117 11 1
-18 2 28 150 7 1
-4 -18 -28 36 6 1
-18 4 28 34 5 1
-18 6 28 9 4 1
-19 -3 -28 97 9 1
3 -19 28 116 7 1
-19 -1 28 367 16 1
1 -19 28 370 14 1
-19 1 28 251 14 1
-1 -19 28 272 13 1
-19 3 28 83 6 1
0 1 -29 83 7 1
-1 0 -29 81 7 1
0 -1 -29 66 7 1
1 0 -29 79 8 1
1 0 29 89 9 1
-1 0 29 72 9 1
0 -1 29 89 9 1
0 1 29 63 11 1
1 0 29 69 11 1
0 1 29 61 8 1
-1 0 29 62 11 1
0 -1 29 71 12 1
-2 -1 -29 740 26 1
-1 2 -29 700 26 1
-2 -1 -29 675 27 1
1 -2 -29 729 26 1
2 1 -29 794 26 1
1 -2 29 709 30 1
2 1 29 783 30 1
-2 -1 29 761 30 1
-2 -1 29 795 30 1
1 -2 29 699 31 1
-1 2 29 696 30 1
-1 2 29 710 30 1
-1 -2 -29 989 39 1
-1 -2 -29 1033 38 1
-2 1 -29 1046 38 1
2 -1 -29 1020 38 1
1 2 29 966 44 1
-1 -2 29 1058 44 1
2 -1 29 1076 44 1
-2 1 29 1034 44 1
-2 1 29 1017 43 1
2 -1 29 1000 43 1
1 2 29 991 43 1
3 2 -29 1 4 1
-3 -2 -29 1 3 1
-3 -2 -29 1 4 1
-2 3 -29 2 3 1
-2 3 29 0 5 1
2 -3 29 0 3 1
-3 -2 29 0 5 1
-2 3 29 1 3 1
-3 -2 29 0 3 1
3 2 29 0 3 1
3 2 29 2 5 1
-3 0 -29 85 7 1
0 3 -29 83 7 1
-3 0 -29 84 11 1
3 0 -29 74 8 1
0 -3 -29 79 7 1
0 -3 -29 82 11 1
0 3 29 88 10 1
0 -3 29 76 9 1
0 3 29 80 9 1
3 0 29 82 11 1
-3 0 29 71 9 1
3 0 29 97 9 1
-3 0 29 74 11 1
-3 2 -29 150 11 1
3 -2 -29 148 11 1
-2 -3 -29 131 12 1
-2 -3 -29 126 10 1
-2 -3 29 111 15 1
2 3 29 128 14 1
3 -2 29 131 12 1
-3 2 29 138 13 1
-3 2 29 141 14 1
-2 -3 29 120 12 1
3 -4 -29 706 27 1
-3 4 -29 640 27 1
4 3 -29 676 27 1
-4 -3 -29 689 27 1
-4 -3 -29 692 28 1
-3 4 29 631 31 1
3 -4 29 713 31 1
-4 -3 29 692 31 1
4 3 29 699 31 1
-3 4 29 676 31 1
4 3 29 650 31 1
-4 -3 29 670 32 1
-4 -1 -29 25 8 1
-4 -1 -29 6 3 1
4 1 -29 9 4 1
1 -4 -29 9 3 1
-1 4 -29 8 3 1
1 -4 29 7 3 1
-4 -1 29 3 3 1
-1 4 29 9 4 1
-1 4 29 9 3 1
-4 -1 29 5 5 1
4 1 29 13 6 1
4 1 29 6 3 1
4 -1 -29 16 4 1
-4 1 -29 6 2 1
-4 1 -29 8 4 1
-1 -4 -29 26 3 1
1 4 -29 10 3 1
-1 -4 -29 33 4 1
4 -1 29 5 3 1
1 4 29 44 3 1
-4 1 29 16 5 1
-4 1 29 18 3 1
-1 -4 29 3 3 1
1 4 29 44 4 1
4 -3 -29 182 12 1
-3 -4 -29 163 11 1
-4 3 -29 156 11 1
-3 -4 -29 137 12 1
3 4 -29 149 12 1
-4 3 29 145 14 1
-4 3 29 160 13 1
3 4 29 155 14 1
4 -3 29 158 13 1
-3 -4 29 142 13 1
3 4 29 151 13 1
-5 -4 -29 117 3 1
-4 5 -29 49 3 1
4 -5 -29 67 3 1
-5 -4 29 86 3 1
-4 5 29 112 3 1
-4 5 29 74 4 1
4 -5 29 70 3 1
5 4 29 149 3 1
5 4 29 92 5 1
-5 -2 -29 304 15 1
-5 -2 -29 314 16 1
2 -5 -29 321 15 1
-2 5 -29 324 15 1
-2 5 29 307 18 1
5 2 29 309 19 1
5 2 29 292 17 1
-5 -2 29 299 19 1
2 -5 29 351 17 1
-5 -2 29 343 17 1
-2 5 29 349 18 1
0 -5 -29 512 15 1
0 5 -29 475 16 1
0 -5 -29 480 17 1
-5 0 -29 472 15 1
5 0 -29 449 16 1
-5 0 -29 471 17 1
-5 0 29 460 19 1
-5 0 29 496 18 1
5 0 29 467 20 1
0 5 29 532 19 1
0 5 29 465 17 1
5 0 29 500 18 1
0 -5 29 488 17 1
5 -2 -29 55 8 1
-2 -5 -29 52 6 1
2 5 -29 59 7 1
-5 2 -29 59 5 1
-5 2 -29 65 10 1
-5 2 29 39 5 1
2 5 29 49 9 1
2 5 29 53 7 1
5 -2 29 46 7 1
-2 -5 29 52 7 1
-4 -5 -29 441 20 1
-5 4 -29 484 20 1
-5 4 -29 468 22 1
5 -4 -29 448 20 1
5 -4 29 456 22 1
-5 4 29 449 23 1
-4 -5 29 433 22 1
-5 4 29 415 23 1
4 5 29 464 23 1
-5 6 -29 201 12 1
-6 -5 -29 177 11 1
5 -6 -29 173 12 1
-6 -5 29 171 13 1
-5 6 29 208 14 1
6 5 29 198 15 1
-5 6 29 185 14 1
6 5 29 161 13 1
-6 -3 -29 439 16 1
3 -6 -29 458 16 1
-3 6 -29 430 17 1
6 3 29 433 20 1
3 -6 29 470 19 1
-3 6 29 417 19 1
-6 -3 29 485 19 1
-6 -3 29 444 21 1
1 -6 -29 18 3 1
1 -6 -29 41 4 1
-1 6 -29 40 3 1
-6 -1 -29 14 3 1
-6 -1 -29 30 2 1
-1 6 29 18 4 1
6 1 29 3 6 1
1 -6 29 24 3 1
-6 -1 29 16 3 1
-1 6 29 23 3 1
-6 -1 29 8 5 1
6 1 29 30 3 1
1 6 -29 466 19 1
-6 1 -29 448 19 1
-1 -6 -29 455 20 1
-6 1 -29 435 20 1
1 6 29 470 22 1
-6 1 29 468 22 1
-1 -6 29 450 22 1
-3 -6 -29 1304 52 1
-6 3 -29 1339 53 1
-6 3 -29 1284 53 1
-3 -6 -29 1380 53 1
3 6 -29 1309 52 1
3 6 29 1287 59 1
-3 -6 29 1407 59 1
6 -3 29 1392 59 1
-5 -6 -29 93 7 1
-6 5 -29 104 8 1
-6 5 29 107 11 1
-5 -6 29 105 9 1
5 6 29 102 10 1
-6 5 29 96 9 1
5 6 29 98 11 1
6 -7 -29 29 9 1
-6 7 -29 50 7 1
-7 -6 -29 33 7 1
-7 -6 -29 38 6 1
7 6 29 47 10 1
-6 7 29 40 9 1
-7 -6 29 37 8 1
-6 7 29 37 8 1
4 -7 -29 192 10 1
-4 7 -29 195 10 1
-7 -4 -29 180 9 1
-7 -4 29 213 16 1
7 4 29 173 14 1
7 4 29 181 11 1
-7 -4 29 207 11 1
-4 7 29 201 13 1
4 -7 29 175 11 1
-4 7 29 193 11 1
-7 -2 -29 77 2 1
2 -7 -29 33 3 1
-2 7 -29 77 3 1
-2 7 29 58 3 1
7 2 29 47 6 1
2 -7 29 47 3 1
7 2 29 44 3 1
-2 7 29 54 4 1
-7 -2 29 71 3 1
-7 -2 29 71 5 1
0 -7 -29 15 4 1
0 7 -29 10 4 1
-7 0 -29 7 2 1
0 -7 -29 13 3 1
0 -7 29 8 3 1
0 7 29 14 4 1
-7 0 29 11 3 1
-7 0 29 12 5 1
7 0 29 9 3 1
0 7 29 13 3 1
-7 2 -29 38 6 1
-2 -7 -29 33 6 1
2 7 -29 40 9 1
2 7 29 39 9 1
-2 -7 29 26 8 1
2 7 29 42 8 1
7 -2 29 53 8 1
-4 -7 -29 22 6 1
-7 4 -29 36 10 1
-7 4 -29 19 6 1
4 7 29 18 8 1
-4 -7 29 20 7 1
4 7 29 18 9 1
-7 6 -29 79 13 1
-7 6 -29 99 7 1
-6 -7 -29 99 7 1
-6 -7 -29 111 8 1
-7 6 29 104 10 1
-7 6 29 97 8 1
-6 -7 29 112 9 1
6 7 29 90 11 1
6 7 29 94 9 1
-8 -7 -29 46 6 1
-7 8 -29 46 6 1
-8 -7 -29 35 5 1
-7 8 29 58 7 1
-7 8 29 65 10 1
8 7 29 29 4 1
-8 -7 29 40 8 1
-8 -5 -29 23 2 1
5 -8 -29 33 4 1
8 5 29 22 3 1
-5 8 29 33 3 1
-8 -5 29 9 3 1
8 5 29 14 5 1
-5 8 29 19 5 1
3 -8 -29 223 11 1
-8 -3 -29 217 12 1
-8 -3 -29 199 11 1
-3 8 -29 207 12 1
-8 -3 29 201 17 1
8 3 29 222 17 1
-8 -3 29 234 13 1
-3 8 29 225 13 1
8 3 29 194 13 1
-3 8 29 195 14 1
-8 -1 -29 124 7 1
-1 8 -29 109 8 1
-8 -1 -29 99 8 1
1 -8 -29 122 7 1
1 -8 -29 83 9 1
1 -8 29 100 8 1
-8 -1 29 125 11 1
8 1 29 107 8 1
-8 -1 29 103 8 1
-1 8 29 114 9 1
-8 1 -29 58 9 1
-1 -8 -29 58 6 1
-1 -8 -29 50 8 1
1 8 -29 72 8 1
-8 1 -29 60 6 1
1 8 29 59 8 1
1 8 29 55 10 1
-1 -8 29 50 8 1
8 -1 29 73 8 1
-8 1 29 60 7 1
-8 3 -29 2 3 1
-3 -8 -29 1 2 1
-3 -8 -29 2 3 1
-8 3 -29 1 4 1
3 8 29 2 3 1
3 8 29 0 4 1
-8 3 29 2 5 1
-8 3 29 2 3 1
-5 -8 -29 8 3 1
-8 5 -29 1 3 1
-8 5 -29 2 5 1
-5 -8 -29 8 2 1
-5 -8 29 12 3 1
5 8 29 8 3 1
-8 5 29 1 5 1
-8 5 29 2 3 1
5 8 29 1 5 1
-7 -8 -29 559 21 1
-7 -8 -29 539 21 1
-8 7 -29 539 22 1
-8 7 -29 507 24 1
-7 -8 29 524 24 1
-8 7 29 503 25 1
7 8 29 560 26 1
-8 7 29 521 26 1
7 8 29 534 25 1
-8 9 -29 140 10 1
-9 -8 -29 147 9 1
-9 -8 29 149 10 1
-8 9 29 142 11 1
-9 -6 -29 1 4 1
-9 -6 -29 1 2 1
-6 9 -29 4 3 1
-9 -6 -29 0 2 1
-6 9 29 1 3 1
9 6 29 8 6 1
-9 -6 29 1 3 1
-6 9 29 3 5 1
9 6 29 0 3 1
-9 -4 -29 133 9 1
4 -9 -29 166 10 1
4 -9 -29 126 13 1
-4 9 -29 151 10 1
-9 -4 -29 129 9 1
-9 -4 29 146 11 1
-4 9 29 178 13 1
-9 -4 29 99 17 1
-4 9 29 151 11 1
9 4 29 154 16 1
9 4 29 140 11 1
2 -9 -29 35 3 1
-2 9 -29 6 4 1
-9 -2 -29 11 3 1
-9 -2 -29 12 3 1
2 -9 -29 40 4 1
-9 -2 29 32 3 1
-9 -2 29 32 6 1
-2 9 29 28 4 1
-2 9 29 37 3 1
-9 0 -29 38 3 1
0 9 -29 62 4 1
-9 0 -29 34 3 1
0 -9 -29 47 3 1
0 -9 -29 42 3 1
-9 0 29 28 5 1
0 9 29 33 3 1
0 9 29 31 4 1
-9 0 29 34 3 1
0 -9 29 62 3 1
-2 -9 -29 137 8 1
-9 2 -29 134 10 1
-2 -9 -29 115 9 1
2 9 -29 138 11 1
-9 2 -29 140 8 1
-9 2 29 135 12 1
2 9 29 120 11 1
-2 -9 29 140 10 1
2 9 29 142 10 1
-9 2 29 117 9 1
-9 4 -29 473 19 1
-9 4 -29 461 20 1
-4 -9 -29 464 18 1
-4 -9 -29 476 19 1
-9 4 29 478 21 1
4 9 29 473 21 1
-4 -9 29 451 21 1
-9 4 29 408 22 1
-6 -9 -29 4 3 1
-6 -9 -29 1 3 1
-9 6 -29 3 3 1
-9 6 -29 1 5 1
-9 6 29 3 5 1
-6 -9 29 2 3 1
6 9 29 2 3 1
-9 6 29 1 3 1
6 9 29 3 5 1
-8 -9 -29 1 3 1
-9 8 -29 1 6 1
-9 8 29 1 3 1
-8 -9 29 0 3 1
-10 -9 -29 49 6 1
-10 -9 -29 55 6 1
-9 10 -29 68 7 1
-9 10 -29 99 18 1
-9 10 29 76 6 1
-10 -7 -29 1 3 1
-7 10 -29 8 3 1
-10 -7 -29 6 3 1
-10 -7 -29 4 3 1
-10 -7 29 2 2 1
-10 -5 -29 74 7 1
5 -10 -29 77 13 1
-10 -5 -29 74 7 1
-5 10 -29 106 8 1
-5 10 29 86 12 1
-10 -5 29 90 9 1
10 5 29 117 16 1
-5 10 29 98 9 1
-3 10 -29 415 16 1
-10 -3 -29 421 15 1
3 -10 -29 365 17 1
-10 -3 -29 414 15 1
3 -10 -29 390 15 1
-3 10 29 396 17 1
-10 -3 29 369 21 1
-10 -3 29 419 17 1
-3 10 29 360 18 1
1 -10 -29 13 4 1
-10 -1 -29 17 4 1
-10 -1 -29 27 5 1
-1 10 -29 16 5 1
1 -10 -29 25 6 1
-1 10 29 28 8 1
-10 -1 29 22 7 1
1 -10 29 25 7 1
-1 10 29 33 9 1
1 10 -29 171 12 1
-1 -10 -29 164 10 1
-10 1 -29 174 11 1
-10 1 -29 182 10 1
1 10 29 154 13 1
-10 1 29 186 12 1
-1 -10 29 175 11 1
1 10 29 174 11 1
-10 3 -29 2 3 1
-3 -10 -29 4 3 1
-3 -10 -29 0 3 1
-10 3 29 1 3 1
-10 3 29 1 5 1
3 10 29 4 5 1
3 10 29 0 3 1
-3 -10 29 1 3 1
-10 5 -29 1764 60 1
-5 -10 -29 1668 60 1
-5 -10 -29 1721 60 1
-10 5 -29 1768 61 1
5 10 29 1668 68 1
-5 -10 29 1696 68 1
-7 -10 -29 6 3 1
-10 7 -29 6 3 1
-10 7 -29 10 5 1
-7 -10 -29 4 3 1
7 10 29 5 2 1
-7 -10 29 10 3 1
-10 9 -29 10 6 1
-9 -10 -29 3 2 1
-10 9 -29 5 3 1
-9 -10 -29 5 3 1
-10 9 29 9 2 1
-10 11 -29 4 4 1
-11 -10 -29 1 3 1
-11 -10 -29 4 3 1
-10 11 29 0 2 1
-8 11 -29 150 10 1
-11 -8 -29 136 8 1
-11 -8 -29 137 9 1
-11 -8 -29 124 8 1
-8 11 29 161 9 1
-11 -6 -29 994 44 1
-11 -6 -29 935 40 1
6 -11 -29 981 40 1
-6 11 -29 1044 40 1
-11 -6 -29 921 39 1
-11 -6 29 976 44 1
4 -11 -29 428 19 1
4 -11 -29 404 17 1
-4 11 29 372 19 1
-11 -2 -29 252 11 1
2 -11 -29 238 12 1
2 -11 -29 245 11 1
-11 -2 -29 254 11 1
-2 11 -29 259 12 1
-2 11 29 237 14 1
-2 11 29 251 13 1
2 -11 29 260 11 1
0 -11 -29 53 8 1
-11 0 -29 58 7 1
-11 0 -29 50 6 1
-11 0 29 59 7 1
-11 0 29 77 13 1
0 -11 29 71 7 1
0 11 29 54 8 1
0 11 29 53 10 1
-11 2 -29 325 14 1
-2 -11 -29 305 13 1
-2 -11 -29 325 12 1
-11 2 29 291 15 1
2 11 29 340 15 1
2 11 29 343 17 1
-11 4 -29 425 18 1
-4 -11 -29 433 17 1
4 11 29 410 21 1
-11 4 29 417 21 1
-11 4 29 445 20 1
-11 6 -29 345 17 1
-6 -11 -29 305 15 1
-11 6 -29 337 16 1
-6 -11 -29 307 15 1
-11 8 -29 177 9 1
-11 8 -29 212 13 1
-8 -11 -29 194 8 1
-8 -11 -29 196 8 1
-11 8 29 180 8 1
-10 -11 -29 3 3 1
-11 10 -29 11 3 1
-10 -11 -29 7 3 1
-11 10 29 18 2 1
-12 -11 -29 13 2 1
-12 -11 -29 8 3 1
-12 -9 -29 3 2 1
-9 12 -29 1 4 1
-12 -9 -29 2 3 1
-9 12 29 0 2 1
-12 -7 -29 153 11 1
-12 -7 -29 167 10 1
-12 -7 -29 161 10 1
-7 12 -29 178 11 1
-7 12 29 169 10 1
-12 -7 29 167 11 1
7 -12 29 179 10 1
5 -12 -29 74 9 1
-12 -5 -29 79 7 1
-5 12 -29 60 9 1
5 -12 -29 52 12 1
-12 -5 -29 97 7 1
-12 -5 -29 103 9 1
5 -12 29 53 7 1
-5 12 29 75 7 1
-12 -5 29 90 7 1
3 -12 -29 878 38 1
-12 -3 -29 869 38 1
-12 -3 -29 840 38 1
-3 12 -29 835 39 1
3 -12 -29 845 38 1
3 -12 29 782 38 1
-12 -3 29 886 42 1
-12 -1 -29 30 7 1
-1 12 -29 42 10 1
1 -12 -29 33 7 1
1 -12 29 29 7 1
-12 1 -29 79 8 1
-1 -12 -29 56 8 1
-1 -12 -29 68 7 1
1 12 -29 80 12 1
-12 3 -29 133 11 1
-3 -12 -29 148 9 1
-12 3 -29 129 9 1
-3 -12 -29 133 9 1
3 12 29 144 9 1
-5 -12 -29 1090 42 1
-12 5 -29 1088 43 1
-5 -12 -29 1080 42 1
-12 5 29 1055 48 1
-7 -12 -29 275 12 1
-7 -12 -29 266 13 1
-12 7 -29 233 13 1
-12 7 -29 237 16 1
-12 7 29 243 14 1
7 12 29 233 14 1
-12 9 -29 26 7 1
-9 -12 -29 33 6 1
-9 -12 -29 37 6 1
-12 9 29 40 5 1
-11 -12 -29 192 11 1
-12 11 -29 173 11 1
-12 11 29 205 11 1
-13 -12 -29 73 6 1
-12 13 -29 73 9 1
-12 13 29 70 6 1
12 -13 29 65 5 1
-13 -10 -29 190 12 1
-13 -10 -29 175 12 1
-10 13 -29 190 13 1
-10 13 29 199 12 1
10 -13 29 194 11 1
-13 -8 -29 2 3 1
-8 13 -29 5 4 1
-13 -8 -29 5 3 1
-8 13 29 4 2 1
-13 -6 -29 79 8 1
-13 -6 -29 55 7 1
-13 -6 -29 60 7 1
-6 13 -29 48 8 1
-13 -6 29 63 7 1
-6 13 29 74 6 1
6 -13 29 78 6 1
4 -13 -29 17 5 1
4 -13 -29 1 4 1
-13 -4 -29 23 3 1
-4 13 -29 20 4 1
-13 -4 -29 11 3 1
4 -13 29 20 2 1
-13 -4 29 10 2 1
-4 13 29 17 2 1
2 -13 -29 104 9 1
-13 -2 -29 79 6 1
-2 13 -29 100 10 1
-13 -2 -29 77 7 1
2 -13 -29 94 7 1
-13 -2 29 101 6 1
2 -13 29 75 7 1
-2 13 29 93 6 1
0 13 -29 2 6 1
-13 0 -29 6 3 1
0 -13 -29 9 3 1
-13 0 -29 9 3 1
0 -13 -29 9 3 1
0 -13 29 10 2 1
-13 0 29 7 2 1
0 13 29 11 2 1
-2 -13 -29 20 3 1
-13 2 -29 5 3 1
-13 2 -29 5 3 1
-2 -13 -29 21 3 1
-13 2 29 9 2 1
2 13 29 21 2 1
-4 -13 -29 518 21 1
-13 4 -29 547 23 1
-13 4 -29 554 22 1
-4 -13 -29 509 21 1
-13 4 29 526 24 1
-6 -13 -29 278 11 1
-13 6 -29 258 13 1
-13 6 -29 276 11 1
-6 -13 -29 260 11 1
-13 6 29 283 12 1
6 13 29 304 12 1
-8 -13 -29 4 3 1
-13 8 -29 1 3 1
-10 -13 -29 73 8 1
-13 10 29 78 8 1
-13 12 -29 600 26 1
-13 12 29 607 28 1
13 -12 29 650 24 1
-11 14 -29 118 10 1
-14 -11 -29 95 6 1
11 -14 29 100 5 1
-11 14 29 117 6 1
-9 14 -29 10 4 1
-14 -9 -29 1 2 1
-14 -9 -29 10 4 1
9 -14 29 5 1 1
-7 14 -29 914 42 1
-14 -7 -29 944 45 1
-14 -7 -29 895 41 1
-7 14 29 915 46 1
7 -14 29 996 41 1
5 -14 -29 151 11 1
-14 -5 -29 151 9 1
-14 -5 -29 141 10 1
-14 -5 29 143 9 1
-5 14 29 145 8 1
-14 -3 -29 133 10 1
-3 14 -29 123 13 1
-14 -3 -29 147 10 1
3 -14 -29 152 11 1
3 -14 -29 135 12 1
3 -14 29 147 10 1
-3 14 29 148 10 1
-14 -3 29 138 10 1
-14 -1 -29 7 3 1
1 -14 -29 2 4 1
-1 14 -29 16 6 1
1 -14 -29 23 6 1
-14 -1 -29 15 3 1
-14 -1 29 13 2 1
-1 -14 -29 213 10 1
-14 1 -29 216 11 1
-14 1 -29 226 11 1
-14 1 29 237 11 1
-1 -14 29 210 10 1
1 14 29 225 11 1
-14 3 -29 206 11 1
-3 -14 -29 195 10 1
-14 3 -29 219 10 1
-3 -14 -29 203 9 1
-14 3 29 219 10 1
-5 -14 -29 25 6 1
-5 -14 -29 23 6 1
-14 5 29 25 5 1
-14 7 -29 14 4 1
-7 -14 -29 14 3 1
-14 7 29 21 5 1
-14 9 -29 2 4 1
-9 -14 -29 3 3 1
-14 9 29 2 2 1
-14 11 -29 135 11 1
14 -11 29 119 7 1
-14 11 29 127 8 1
-15 -10 -29 23 6 1
-10 15 29 16 5 1
10 -15 29 22 4 1
-15 -8 -29 8 2 1
-15 -8 -29 3 4 1
-8 15 -29 5 5 1
-8 15 29 6 2 1
-6 15 -29 76 11 1
-15 -6 -29 92 8 1
6 -15 29 86 6 1
-6 15 29 77 7 1
-15 -4 -29 319 19 1
-15 -4 -29 329 18 1
-4 15 -29 306 20 1
4 -15 -29 318 19 1
4 -15 29 319 17 1
-4 15 29 354 19 1
-15 -4 29 301 19 1
-2 15 -29 28 6 1
-15 -2 29 16 2 1
-15 0 -29 4 3 1
0 -15 -29 4 3 1
-15 0 29 2 2 1
0 15 29 4 3 1
0 -15 29 1 2 1
-15 2 29 9 5 1
-15 4 -29 107 10 1
-4 -15 -29 130 9 1
-15 4 29 117 9 1
-6 -15 -29 4 3 1
-15 6 -29 3 4 1
-15 6 29 8 2 1
-8 -15 -29 10 3 1
-15 8 -29 3 4 1
-15 8 29 7 2 1
-15 10 29 0 2 1
-16 -9 -29 101 8 1
-9 16 29 93 7 1
9 -16 29 95 6 1
-16 -7 -29 83 7 1
7 -16 29 67 5 1
-7 16 29 74 6 1
-16 -5 -29 6 3 1
-16 -5 -29 12 4 1
-5 16 -29 2 5 1
5 -16 29 9 1 1
3 -16 -29 94 10 1
-16 -3 -29 105 9 1
-16 -3 29 116 8 1
3 -16 29 125 6 1
-16 -1 -29 148 10 1
1 -16 29 158 7 1
-1 16 29 154 10 1
-16 -1 29 169 9 1
-1 -16 -29 72 9 1
-16 1 29 84 8 1
-1 -16 29 93 8 1
-3 -16 -29 27 6 1
-16 3 29 34 5 1
-16 5 -29 56 8 1
-5 -16 -29 44 6 1
-16 5 29 41 5 1
-7 -16 -29 167 10 1
-16 7 -29 152 11 1
-16 7 29 155 10 1
-16 9 29 122 9 1
-17 -6 -29 10 3 1
-6 17 29 3 2 1
6 -17 29 2 1 1
-4 17 29 22 6 1
-17 -2 -29 6 4 1
-17 -2 29 1 2 1
-2 17 29 11 3 1
2 -17 29 7 1 1
0 -17 -29 94 8 1
-17 0 -29 94 9 1
-17 0 29 76 6 1
0 -17 29 73 6 1
-17 2 -29 46 9 1
-2 -17 -29 49 7 1
-17 2 29 53 5 1
-17 4 -29 19 5 1
-17 4 29 24 4 1
-17 6 29 130 8 1
-18 -5 -29 2 3 1
-5 18 29 17 7 1
3 -18 29 5 1 1
1 -18 29 219 10 1
-18 -1 29 197 11 1
-1 -18 29 64 6 1
-18 1 29 60 6 1
-18 3 29 58 6 1
-18 5 29 0 2 1
0 0 -30 100 10 1
0 0 30 111 11 1
0 0 30 90 15 1
1 -1 -30 0 3 1
-1 -1 -30 3 3 1
1 1 -30 4 3 1
-1 1 -30 1 3 1
-1 -1 30 1 6 1
1 -1 30 7 7 1
1 -1 30 3 3 1
1 1 30 0 3 1
-1 1 30 5 2 1
1 1 30 3 5 1
-1 -1 30 0 3 1
-1 1 30 5 5 1
0 -2 -30 0 3 1
2 0 -30 0 4 1
0 2 -30 0 3 1
-2 0 30 0 3 1
2 0 30 0 3 1
0 2 30 0 3 1
0 2 30 0 5 1
2 0 30 7 6 1
-2 0 30 0 6 1
0 -2 30 1 3 1
-2 -2 -30 26 10 1
-2 -2 -30 15 6 1
2 2 -30 42 7 1
-2 2 -30 13 6 1
2 -2 -30 22 7 1
-2 2 30 16 7 1
2 2 30 14 6 1
-2 -2 30 22 7 1
2 2 30 19 7 1
-2 2 30 15 6 1
2 -2 30 14 7 1
-3 -1 -30 7 4 1
-1 3 -30 47 3 1
3 1 -30 32 4 1
1 -3 -30 10 3 1
-3 -1 -30 9 3 1
-1 3 30 8 5 1
1 -3 30 47 3 1
-3 -1 30 24 2 1
-3 -1 30 32 6 1
3 1 30 9 3 1
3 1 30 7 6 1
-3 1 -30 31 5 1
-1 -3 -30 50 11 1
1 3 -30 28 7 1
3 -1 -30 33 7 1
-1 -3 -30 30 6 1
3 -1 30 31 7 1
-3 1 30 35 7 1
1 3 30 36 7 1
1 3 30 35 10 1
-3 1 30 38 10 1
-1 -3 30 31 7 1
3 -3 -30 120 9 1
-3 3 -30 139 9 1
-3 -3 -30 98 9 1
3 3 -30 123 10 1
-3 3 30 104 13 1
-3 3 30 132 11 1
3 3 30 110 14 1
3 3 30 102 10 1
-3 -3 30 112 10 1
3 -3 30 144 11 1
4 2 -30 740 32 1
2 -4 -30 829 31 1
-4 -2 -30 760 31 1
-2 4 -30 763 32 1
-2 4 30 725 36 1
4 2 30 710 37 1
4 2 30 820 36 1
-4 0 -30 163 9 1
-4 0 -30 206 14 1
0 -4 -30 171 9 1
0 -4 -30 152 13 1
4 0 -30 158 11 1
0 4 -30 172 9 1
-4 0 30 139 13 1
0 4 30 180 10 1
0 4 30 177 12 1
-4 0 30 164 11 1
4 0 30 165 11 1
0 -4 30 191 10 1
-2 -4 -30 739 26 1
4 -2 -30 776 27 1
2 4 -30 804 27 1
-4 2 -30 812 27 1
-4 2 30 791 31 1
-4 2 30 767 31 1
-2 -4 30 795 30 1
4 -2 30 769 30 1
2 4 30 735 30 1
4 -4 -30 224 13 1
-4 -4 -30 201 13 1
-4 4 -30 226 12 1
-4 -4 -30 212 12 1
-4 4 30 218 16 1
-4 -4 30 226 14 1
4 4 30 234 14 1
4 -4 30 244 14 1
4 4 30 223 16 1
-4 4 30 248 14 1
-3 5 -30 194 9 1
3 -5 -30 185 9 1
-5 -3 -30 157 10 1
-5 -3 -30 165 8 1
-5 -3 30 193 10 1
5 3 30 164 10 1
-5 -3 30 184 16 1
5 3 30 179 13 1
-3 5 30 143 12 1
-3 5 30 170 10 1
3 -5 30 169 10 1
-1 5 -30 696 36 1
1 -5 -30 741 35 1
-5 -1 -30 673 35 1
5 1 30 665 41 1
-1 5 30 714 40 1
1 -5 30 740 40 1
-5 -1 30 706 41 1
-5 -1 30 723 40 1
5 1 30 736 40 1
1 5 -30 407 15 1
-5 1 -30 427 14 1
-1 -5 -30 412 14 1
1 5 30 426 18 1
1 5 30 430 17 1
-5 1 30 371 17 1
-1 -5 30 400 16 1
-3 -5 -30 50 10 1
-5 3 -30 72 13 1
-3 -5 -30 50 7 1
5 -3 -30 41 9 1
-5 3 -30 44 7 1
3 5 -30 59 10 1
3 5 30 70 11 1
-5 3 30 34 11 1
3 5 30 55 8 1
5 -3 30 51 8 1
-5 3 30 41 8 1
-3 -5 30 61 9 1
-5 -5 -30 89 8 1
-5 -5 -30 73 9 1
-5 5 -30 108 9 1
-5 5 30 87 12 1
5 5 30 105 14 1
-5 5 30 83 9 1
5 5 30 88 10 1
5 -5 30 101 9 1
-5 -5 30 89 9 1
-6 -4 -30 779 33 1
-4 6 -30 772 33 1
-6 -4 -30 783 33 1
4 -6 -30 745 33 1
-4 6 30 777 38 1
6 4 30 789 37 1
4 -6 30 796 37 1
-4 6 30 791 37 1
-6 -4 30 770 37 1
-6 -2 -30 568 27 1
-6 -2 -30 581 27 1
2 -6 -30 636 27 1
-2 6 -30 642 27 1
-2 6 30 608 31 1
2 -6 30 583 30 1
6 2 30 589 31 1
-2 6 30 632 31 1
-6 -2 30 595 32 1
6 2 30 561 32 1
-6 -2 30 645 30 1
0 6 -30 226 10 1
0 -6 -30 219 9 1
-6 0 -30 213 9 1
0 -6 -30 206 13 1
-6 0 -30 202 11 1
6 0 30 209 11 1
-6 0 30 208 11 1
0 6 30 222 11 1
-6 0 30 232 14 1
0 -6 30 200 10 1
-2 -6 -30 783 30 1
2 6 -30 796 30 1
-6 2 -30 810 30 1
-2 -6 -30 796 31 1
-6 2 -30 809 32 1
2 6 30 733 34 1
-2 -6 30 821 34 1
-6 2 30 773 34 1
6 -2 30 807 34 1
2 6 30 761 34 1
-6 2 30 729 34 1
-4 -6 -30 6 3 1
-6 4 -30 14 6 1
-4 -6 -30 7 4 1
4 6 30 28 11 1
-6 4 30 8 3 1
4 6 30 10 4 1
-6 4 30 8 5 1
-4 -6 30 15 8 1
-6 -6 -30 43 7 1
-6 6 -30 72 7 1
-6 -6 -30 46 6 1
-6 6 30 46 7 1
6 6 30 55 8 1
-6 6 30 84 11 1
-6 -6 30 49 8 1
6 6 30 66 13 1
-5 7 -30 72 7 1
-7 -5 -30 72 8 1
5 -7 -30 72 9 1
-7 -5 -30 62 7 1
7 5 30 64 8 1
-5 7 30 69 9 1
7 5 30 81 14 1
-7 -5 30 64 8 1
-5 7 30 56 11 1
-3 7 -30 126 9 1
3 -7 -30 129 9 1
-7 -3 -30 122 9 1
-7 -3 -30 122 8 1
-7 -3 30 100 16 1
-3 7 30 119 10 1
7 3 30 90 16 1
-3 7 30 146 12 1
7 3 30 116 10 1
3 -7 30 122 9 1
-7 -3 30 115 9 1
1 -7 -30 627 25 1
-7 -1 -30 589 26 1
1 -7 -30 595 27 1
-1 7 -30 641 26 1
-7 -1 -30 622 25 1
-7 -1 30 581 30 1
-7 -1 30 638 29 1
-1 7 30 639 29 1
1 -7 30 606 28 1
7 1 30 612 29 1
-7 1 -30 14 4 1
-7 1 -30 21 3 1
1 7 -30 26 5 1
-1 -7 -30 21 4 1
-7 1 30 15 5 1
-1 -7 30 11 3 1
1 7 30 13 3 1
1 7 30 7 5 1
7 -1 30 22 7 1
-3 -7 -30 1988 80 1
-7 3 -30 1863 81 1
-3 -7 -30 1937 80 1
-3 -7 30 1946 90 1
3 7 30 2023 91 1
-7 3 30 2050 91 1
-7 5 -30 826 38 1
-7 5 -30 921 37 1
-5 -7 -30 958 36 1
-5 -7 -30 982 37 1
-7 5 30 894 42 1
-7 5 30 957 42 1
5 7 30 953 41 1
-5 -7 30 965 41 1
-7 -7 -30 126 10 1
-7 7 -30 145 10 1
-7 -7 -30 111 10 1
7 7 30 121 11 1
-7 7 30 126 11 1
7 7 30 148 16 1
-7 7 30 139 14 1
-8 -6 -30 0 3 1
-8 -6 -30 0 3 1
-6 8 30 1 5 1
-6 8 30 1 3 1
8 6 30 2 3 1
4 -8 -30 712 27 1
-8 -4 -30 667 27 1
-8 -4 -30 678 26 1
-4 8 -30 693 27 1
-4 8 30 664 31 1
8 4 30 628 33 1
-4 8 30 696 30 1
8 4 30 697 30 1
-8 -2 -30 104 7 1
-2 8 -30 124 9 1
-8 -2 -30 109 9 1
2 -8 -30 121 8 1
2 -8 -30 81 11 1
2 -8 30 120 9 1
8 2 30 110 9 1
-2 8 30 107 9 1
-8 -2 30 120 9 1
0 -8 -30 80 8 1
0 8 -30 85 9 1
-8 0 -30 63 9 1
0 -8 -30 52 10 1
-8 0 -30 74 7 1
8 0 30 58 8 1
0 8 30 56 11 1
-8 0 30 92 13 1
-8 0 30 86 9 1
0 -8 30 63 8 1
0 8 30 63 8 1
2 8 -30 1114 48 1
-2 -8 -30 1132 48 1
-8 2 -30 1096 49 1
-2 -8 -30 1156 48 1
-8 2 -30 1178 48 1
2 8 30 1153 54 1
-2 -8 30 1177 54 1
2 8 30 1096 54 1
-8 2 30 1095 54 1
-8 2 30 1211 55 1
-4 -8 -30 182 12 1
-8 4 -30 160 11 1
-8 4 -30 156 14 1
-4 -8 -30 160 11 1
-8 4 30 160 15 1
-4 -8 30 170 13 1
4 8 30 156 13 1
-8 4 30 145 13 1
4 8 30 146 15 1
-6 -8 -30 1106 41 1
-8 6 -30 1025 43 1
-8 6 30 1031 47 1
6 8 30 1053 48 1
-8 8 -30 5 3 1
-8 -8 -30 1 2 1
-8 -8 -30 1 3 1
-8 -8 30 0 2 1
-7 9 -30 56 8 1
-9 -7 -30 45 7 1
-9 -7 -30 46 9 1
-9 -7 -30 45 8 1
-7 9 30 39 7 1
-9 -5 -30 45 7 1
5 -9 -30 40 9 1
-5 9 30 32 8 1
-9 -3 -30 280 17 1
-9 -3 -30 262 17 1
3 -9 -30 260 19 1
-3 9 -30 295 18 1
-9 -3 30 275 19 1
-9 -3 30 222 24 1
-3 9 30 240 20 1
-3 9 30 293 20 1
1 -9 -30 325 14 1
-9 -1 -30 342 14 1
1 -9 -30 302 16 1
-9 -1 -30 336 15 1
-1 9 -30 355 15 1
-1 9 30 322 18 1
-9 -1 30 290 19 1
-1 9 30 330 16 1
-9 -1 30 301 16 1
-9 1 -30 9 4 1
-1 -9 -30 4 3 1
-1 -9 -30 10 3 1
-9 1 -30 22 2 1
1 9 -30 5 5 1
-1 -9 30 15 3 1
-9 1 30 4 6 1
-1 -9 30 8 3 1
1 9 30 3 5 1
1 9 30 5 3 1
-3 -9 -30 142 9 1
-9 3 -30 144 12 1
-3 -9 -30 145 8 1
-9 3 -30 128 8 1
-9 3 30 120 14 1
-3 -9 30 148 10 1
-9 3 30 128 10 1
3 9 30 159 13 1
3 9 30 159 10 1
-5 -9 -30 174 9 1
-9 5 -30 189 13 1
-9 5 30 178 10 1
-7 -9 -30 1 3 1
-9 7 -30 5 3 1
-9 7 -30 1 6 1
-9 7 30 8 5 1
-9 -9 -30 218 10 1
-9 -9 -30 222 10 1
-9 9 -30 235 11 1
-9 -9 30 214 11 1
-8 10 -30 46 7 1
-10 -8 -30 55 6 1
-10 -8 -30 51 8 1
-10 -8 -30 36 6 1
-8 10 30 47 6 1
-10 -8 30 53 7 1
-10 -6 -30 30 6 1
-6 10 -30 27 7 1
-10 -6 -30 24 7 1
-6 10 30 27 5 1
-10 -6 30 25 6 1
4 -10 -30 50 6 1
4 -10 -30 66 8 1
-4 10 -30 67 8 1
-10 -4 -30 56 6 1
-10 -4 30 65 6 1
2 -10 -30 81 8 1
-10 -2 -30 91 8 1
-2 10 -30 77 9 1
-10 -2 30 101 9 1
2 -10 30 80 8 1
-2 10 30 87 12 1
-2 10 30 70 9 1
0 -10 -30 6 4 1
-10 0 -30 7 3 1
-10 0 -30 3 4 1
0 10 -30 5 5 1
0 10 30 6 3 1
0 -10 30 5 2 1
0 10 30 6 5 1
-10 0 30 2 3 1
-10 2 -30 1591 73 1
-2 -10 -30 1585 72 1
2 10 30 1660 82 1
-10 2 30 1797 82 1
-10 4 -30 369 19 1
-4 -10 -30 355 17 1
-4 -10 -30 377 17 1
-10 4 -30 372 18 1
-4 -10 30 375 19 1
-6 -10 -30 134 9 1
-10 6 -30 166 9 1
-6 -10 -30 155 9 1
-10 6 -30 173 14 1
6 10 30 157 9 1
-6 -10 30 167 10 1
-8 -10 -30 293 15 1
-8 -10 -30 284 15 1
-10 8 -30 347 16 1
-10 8 -30 337 21 1
-10 8 30 345 17 1
-10 -10 -30 1 3 1
-10 10 -30 13 3 1
-10 10 30 1 2 1
-11 -9 -30 151 9 1
-11 -9 -30 162 9 1
-9 11 -30 154 10 1
-7 11 -30 103 10 1
-11 -7 -30 88 9 1
-11 -7 -30 110 8 1
-7 11 30 105 8 1
5 -11 -30 45 10 1
-5 11 -30 47 8 1
-11 -5 -30 50 7 1
-11 -5 -30 70 7 1
-5 11 30 55 6 1
5 -11 30 57 6 1
-11 -5 30 53 6 1
3 -11 -30 20 5 1
-11 -3 -30 25 7 1
-3 11 -30 8 4 1
-11 -3 -30 11 3 1
3 -11 -30 32 7 1
3 -11 30 8 3 1
-11 -3 30 12 2 1
-1 11 -30 92 11 1
-11 -1 -30 103 9 1
1 -11 -30 89 10 1
-11 -1 -30 106 8 1
1 -11 -30 115 8 1
1 -11 30 98 8 1
-11 -1 30 109 8 1
-1 11 30 116 8 1
1 11 -30 100 13 1
-11 1 -30 101 7 1
-11 1 -30 87 9 1
-1 -11 -30 94 9 1
-1 -11 -30 119 8 1
-1 -11 30 84 9 1
1 11 30 95 7 1
-3 -11 -30 129 10 1
-3 -11 -30 143 9 1
-11 3 -30 129 12 1
-11 3 -30 137 9 1
-11 3 30 126 9 1
3 11 30 136 9 1
-11 5 -30 3027 114 1
-5 -11 -30 2892 113 1
-11 5 -30 2877 114 1
-5 -11 -30 2990 113 1
-11 5 30 3194 129 1
5 11 30 3032 128 1
-11 7 -30 100 9 1
-7 -11 -30 94 8 1
-11 7 -30 107 14 1
-7 -11 -30 97 8 1
-11 7 30 111 8 1
7 11 30 91 9 1
-11 9 -30 280 17 1
-9 -11 -30 289 16 1
-11 9 30 298 18 1
-11 -11 -30 53 7 1
-11 -11 -30 53 7 1
-11 11 -30 48 9 1
-11 11 30 55 6 1
11 -11 30 39 5 1
-12 -10 -30 540 21 1
-10 12 -30 538 22 1
-12 -10 -30 591 23 1
10 -12 30 582 21 1
-12 -8 -30 108 7 1
-12 -8 -30 91 7 1
8 -12 30 86 5 1
-8 12 30 95 6 1
-12 -6 -30 10 3 1
-6 12 -30 10 4 1
-12 -6 -30 10 3 1
-12 -6 30 11 3 1
6 -12 30 20 5 1
-12 -4 -30 186 10 1
-12 -4 -30 171 9 1
4 -12 -30 187 11 1
-4 12 -30 153 11 1
4 -12 -30 149 14 1
-4 12 30 187 9 1
4 -12 30 156 9 1
-12 -4 30 188 9 1
2 -12 -30 132 12 1
-12 -2 -30 106 9 1
-2 12 -30 142 12 1
2 -12 -30 138 10 1
-2 12 30 149 10 1
2 -12 30 152 10 1
-12 -2 30 135 10 1
0 12 -30 17 6 1
-12 0 -30 29 8 1
0 -12 -30 35 6 1
-12 0 -30 29 6 1
-12 0 30 32 5 1
0 12 30 26 5 1
-2 -12 -30 209 11 1
-2 -12 -30 203 11 1
-12 2 -30 224 13 1
-12 2 -30 225 11 1
-12 2 30 210 12 1
-4 -12 -30 0 3 1
-12 4 -30 3 5 1
-4 -12 -30 3 3 1
-12 4 -30 1 3 1
4 12 30 1 2 1
-12 4 30 3 2 1
-6 -12 -30 712 31 1
-12 6 -30 745 32 1
-12 6 30 721 35 1
-8 -12 -30 57 7 1
-12 8 -30 69 8 1
-12 8 30 69 6 1
-10 -12 -30 74 7 1
-12 10 -30 73 8 1
-12 10 30 78 6 1
-12 -12 -30 120 8 1
12 -12 30 100 7 1
-12 12 30 110 8 1
-13 -11 -30 12 2 1
-11 13 30 19 4 1
-9 13 -30 70 9 1
-13 -9 -30 49 7 1
-13 -9 -30 69 8 1
9 -13 30 60 5 1
-13 -7 -30 12 6 1
7 -13 30 5 4 1
-13 -5 -30 376 15 1
5 -13 -30 353 17 1
-13 -5 -30 368 15 1
-5 13 -30 395 16 1
-5 13 30 341 16 1
5 -13 30 404 14 1
-13 -5 30 338 15 1
-3 13 -30 89 11 1
-13 -3 -30 79 9 1
-13 -3 -30 91 8 1
3 -13 -30 101 10 1
-13 -3 30 89 8 1
-3 13 30 76 7 1
1 -13 -30 25 7 1
-1 13 -30 40 12 1
-13 -1 -30 34 6 1
-13 -1 -30 25 8 1
-13 -1 30 22 5 1
-13 1 -30 292 14 1
-13 1 -30 276 15 1
-1 -13 -30 289 14 1
-1 -13 -30 272 14 1
-13 1 30 299 15 1
-1 -13 30 256 13 1
1 13 30 263 15 1
-13 3 -30 906 36 1
-13 3 -30 825 36 1
-3 -13 -30 899 35 1
3 13 30 906 39 1
-13 5 -30 48 7 1
-5 -13 -30 46 8 1
-5 -13 -30 47 6 1
-13 5 30 57 6 1
5 13 30 55 7 1
-7 -13 -30 494 18 1
-13 7 -30 505 19 1
-13 7 30 528 21 1
-9 -13 -30 714 28 1
-13 9 -30 698 28 1
-13 9 30 688 31 1
13 -11 30 195 9 1
-13 11 30 189 11 1
-14 -10 -30 33 6 1
-10 14 30 22 5 1
10 -14 30 24 3 1
-14 -8 -30 15 3 1
-14 -8 -30 20 4 1
-8 14 -30 29 5 1
8 -14 30 15 1 1
-8 14 30 32 4 1
-14 -6 -30 259 13 1
-14 -6 -30 238 12 1
-6 14 -30 245 14 1
-6 14 30 248 12 1
6 -14 30 246 11 1
-14 -4 -30 95 8 1
-4 14 -30 99 12 1
4 -14 -30 111 11 1
-4 14 30 100 7 1
4 -14 30 99 6 1
-14 -4 30 102 8 1
-2 14 -30 131 13 1
-14 -2 -30 147 9 1
2 -14 -30 145 10 1
2 -14 30 150 8 1
-14 -2 30 153 9 1
-2 14 30 162 9 1
0 -14 -30 372 17 1
-14 0 -30 342 17 1
-14 0 30 393 18 1
0 -14 30 350 16 1
0 14 30 361 18 1
-2 -14 -30 305 14 1
-14 2 -30 311 15 1
-14 2 30 302 15 1
-4 -14 -30 259 13 1
-14 4 -30 245 14 1
-14 4 30 258 14 1
4 14 30 279 15 1
-14 6 -30 471 19 1
-6 -14 -30 480 18 1
-14 6 30 487 20 1
-14 8 -30 7 4 1
-8 -14 -30 12 6 1
-14 8 30 2 2 1
-14 10 30 155 9 1
14 -10 30 143 7 1
-15 -9 -30 18 3 1
-9 15 30 31 4 1
9 -15 30 25 3 1
-15 -7 -30 51 7 1
7 -15 30 62 4 1
-7 15 30 71 5 1
-15 -5 -30 2 4 1
-5 15 -30 2 6 1
5 -15 30 2 1 1
-15 -5 30 13 3 1
-5 15 30 9 2 1
3 -15 -30 8 5 1
-3 15 -30 7 6 1
-15 -3 -30 3 3 1
-3 15 30 16 5 1
-15 -1 -30 15 4 1
1 -15 -30 19 4 1
-15 -1 30 18 5 1
1 -15 30 14 2 1
-15 1 -30 9 4 1
-1 -15 -30 12 3 1
1 15 30 3 3 1
-15 3 -30 37 7 1
-3 -15 -30 40 6 1
-15 3 30 47 5 1
-15 5 -30 1 3 1
-5 -15 -30 1 3 1
-15 5 30 2 2 1
-15 7 -30 31 8 1
-15 7 30 38 5 1
-15 9 30 76 6 1
-16 -6 -30 52 8 1
6 -16 30 40 4 1
-6 16 30 53 6 1
-16 -4 30 15 3 1
2 -16 30 311 16 1
-16 -2 30 318 18 1
-2 16 30 326 18 1
0 -16 -30 471 21 1
-16 0 -30 487 21 1
0 16 30 520 23 1
-16 0 30 516 22 1
0 -16 30 523 20 1
-16 2 -30 214 12 1
-2 -16 -30 242 11 1
-4 -16 -30 309 14 1
-16 6 30 19 4 1
5 -17 30 50 4 1
3 -17 30 137 7 1
-17 -3 30 152 9 1
-17 -1 30 153 8 1
1 -17 30 187 7 1
-17 1 30 175 11 1
-17 3 30 404 19 1
0 1 -31 435 15 1
1 0 -31 398 15 1
-1 0 -31 395 15 1
0 -1 -31 452 15 1
-1 0 31 454 18 1
0 -1 31 406 17 1
0 1 31 404 21 1
1 0 31 405 22 1
1 0 31 426 18 1
-1 0 31 455 21 1
-1 2 -31 383 17 1
-2 -1 -31 383 17 1
1 -2 -31 380 17 1
2 1 -31 390 17 1
-1 2 31 401 19 1
-2 -1 31 374 19 1
-2 -1 31 390 23 1
-1 2 31 379 22 1
1 -2 31 397 19 1
2 1 31 420 19 1
-2 1 -31 23 3 1
-1 -2 -31 18 3 1
2 -1 -31 8 3 1
1 2 -31 21 3 1
-1 -2 31 18 2 1
-2 1 31 29 6 1
1 2 31 18 6 1
1 2 31 19 3 1
2 -1 31 9 2 1
-2 3 -31 15 3 1
2 -3 -31 12 4 1
-3 -2 -31 6 3 1
-3 -2 -31 6 5 1
3 2 -31 17 5 1
-2 3 31 12 3 1
-3 -2 31 9 3 1
-2 3 31 10 6 1
3 2 31 26 7 1
3 2 31 0 7 1
2 -3 31 13 3 1
3 0 -31 122 10 1
0 3 -31 135 9 1
0 -3 -31 123 8 1
-3 0 -31 120 8 1
0 3 31 114 14 1
0 -3 31 125 9 1
-3 0 31 124 15 1
0 3 31 141 10 1
3 0 31 123 10 1
3 -2 -31 291 11 1
-2 -3 -31 259 10 1
-3 2 -31 269 10 1
2 3 -31 293 11 1
-2 -3 -31 230 14 1
-3 2 31 282 15 1
-3 2 31 246 11 1
2 3 31 253 11 1
-2 -3 31 294 11 1
3 -2 31 292 12 1
-3 4 -31 93 9 1
-4 -3 -31 77 11 1
-4 -3 -31 83 8 1
3 -4 -31 72 9 1
-3 4 31 85 14 1
4 3 31 71 10 1
3 -4 31 89 10 1
4 3 31 76 16 1
-3 4 31 94 10 1
-4 -3 31 84 10 1
1 -4 -31 595 23 1
-4 -1 -31 546 25 1
-4 -1 -31 594 23 1
-1 4 -31 581 23 1
-4 -1 31 561 26 1
-1 4 31 608 26 1
4 1 31 589 26 1
-1 4 31 586 27 1
-1 -4 -31 197 15 1
4 -1 -31 198 13 1
-1 -4 -31 210 11 1
1 4 -31 184 12 1
-4 1 -31 185 10 1
-4 1 31 191 12 1
1 4 31 197 15 1
-1 -4 31 188 12 1
4 -1 31 165 12 1
1 4 31 199 12 1
-3 -4 -31 101 8 1
-4 3 -31 98 8 1
4 -3 -31 96 10 1
-4 3 31 91 10 1
-4 3 31 82 14 1
4 -3 31 114 10 1
3 4 31 92 10 1
3 4 31 97 15 1
-3 -4 31 103 10 1
-5 -4 -31 2 5 1
-4 5 -31 7 4 1
4 -5 -31 4 5 1
-4 5 31 0 11 1
4 -5 31 7 3 1
-4 5 31 11 3 1
-5 -4 31 1 7 1
5 4 31 4 3 1
-5 -2 -31 121 7 1
-5 -2 -31 108 10 1
-2 5 -31 139 8 1
2 -5 -31 127 8 1
-2 5 31 130 12 1
5 2 31 135 9 1
-2 5 31 140 9 1
-5 -2 31 127 9 1
2 -5 31 133 9 1
0 5 -31 6 4 1
0 -5 -31 4 3 1
-5 0 -31 6 5 1
0 -5 -31 0 6 1
-5 0 -31 9 3 1
5 0 31 5 3 1
-5 0 31 4 7 1
0 -5 31 4 3 1
-5 0 31 5 3 1
0 5 31 7 6 1
0 5 31 11 3 1
-2 -5 -31 353 13 1
-5 2 -31 303 17 1
2 5 -31 328 14 1
-5 2 -31 345 13 1
-2 -5 -31 337 16 1
-2 -5 31 354 15 1
2 5 31 357 15 1
5 -2 31 313 15 1
-5 2 31 310 17 1
2 5 31 334 18 1
-5 2 31 320 15 1
-4 -5 -31 44 10 1
-4 -5 -31 54 6 1
-5 4 -31 57 7 1
-5 4 31 35 12 1
-4 -5 31 58 8 1
5 -4 31 62 8 1
4 5 31 39 8 1
-5 4 31 50 8 1
-6 -5 -31 85 7 1
-6 -5 -31 89 10 1
6 5 31 77 9 1
-5 6 31 91 9 1
6 5 31 85 18 1
-6 -5 31 72 9 1
-6 -3 -31 57 8 1
3 -6 -31 55 8 1
-6 -3 -31 58 6 1
-3 6 -31 49 7 1
6 3 31 62 8 1
3 -6 31 72 7 1
6 3 31 113 17 1
-6 -3 31 62 7 1
-3 6 31 69 7 1
-1 6 -31 12 4 1
1 -6 -31 12 4 1
-6 -1 -31 24 5 1
-6 -1 31 19 8 1
6 1 31 22 7 1
-6 -1 31 9 3 1
-1 6 31 14 6 1
1 -6 31 8 3 1
-1 6 31 9 3 1
-6 1 -31 98 12 1
-1 -6 -31 106 12 1
-6 1 -31 94 7 1
1 6 -31 108 9 1
6 -1 31 106 8 1
1 6 31 82 8 1
-6 1 31 90 9 1
-6 1 31 113 14 1
-1 -6 31 88 8 1
1 6 31 81 12 1
-3 -6 -31 1109 50 1
-3 -6 -31 1202 49 1
-6 3 -31 1138 51 1
6 -3 31 1158 56 1
3 6 31 1144 56 1
-5 -6 -31 4 3 1
-5 -6 -31 4 2 1
-6 5 -31 2 3 1
-6 5 31 10 6 1
5 6 31 3 7 1
5 6 31 0 3 1
-6 5 31 2 3 1
-5 -6 31 1 3 1
-7 -6 -31 28 8 1
-7 -6 -31 28 6 1
-6 7 -31 33 7 1
-7 -6 31 27 6 1
4 -7 -31 299 14 1
7 4 31 300 15 1
-7 -4 31 292 15 1
-4 7 31 317 16 1
-4 7 31 271 17 1
2 -7 -31 25 7 1
-7 -2 -31 23 6 1
-7 -2 -31 28 9 1
-7 -2 31 28 7 1
2 -7 31 13 7 1
7 2 31 23 7 1
-2 7 31 18 7 1
-2 7 31 17 6 1
-7 0 -31 162 12 1
-7 0 -31 191 9 1
0 7 -31 192 11 1
0 -7 -31 188 10 1
0 -7 -31 186 13 1
0 -7 31 195 11 1
7 0 31 188 11 1
0 7 31 177 11 1
0 7 31 164 13 1
-7 0 31 191 11 1
-7 0 31 205 17 1
-2 -7 -31 96 6 1
-2 -7 -31 102 10 1
-7 2 -31 68 12 1
-7 2 -31 97 7 1
2 7 31 72 8 1
-2 -7 31 82 8 1
-7 2 31 107 13 1
-7 2 31 89 8 1
-4 -7 -31 296 12 1
-7 4 -31 322 16 1
-4 -7 31 308 12 1
4 7 31 333 13 1
-7 4 31 300 13 1
-7 6 -31 211 13 1
-6 -7 -31 200 13 1
-6 -7 -31 217 12 1
-6 -7 31 245 13 1
-7 8 -31 466 20 1
-8 -7 -31 444 19 1
-7 8 31 458 22 1
-8 -7 31 473 21 1
8 7 31 466 21 1
-8 -5 -31 50 5 1
-8 -5 -31 65 8 1
-5 8 -31 48 4 1
-8 -5 31 36 2 1
8 5 31 30 2 1
3 -8 -31 185 10 1
-8 -3 -31 159 10 1
-3 8 -31 163 10 1
-3 8 31 171 11 1
8 3 31 149 10 1
-1 8 -31 604 26 1
-8 -1 -31 589 25 1
-8 -1 -31 575 25 1
-1 8 31 622 28 1
-8 -1 31 551 28 1
-8 1 -31 206 12 1
1 8 -31 179 12 1
-1 -8 -31 185 11 1
1 8 31 179 10 1
-8 1 31 155 10 1
-1 -8 31 203 11 1
-1 -8 31 188 10 1
1 8 31 183 14 1
-3 -8 -31 972 36 1
-3 -8 -31 980 36 1
-8 3 -31 988 38 1
-8 3 31 963 41 1
-8 5 -31 55 7 1
-5 -8 -31 74 6 1
-8 5 -31 61 14 1
-5 -8 -31 52 8 1
5 8 31 79 7 1
-5 -8 31 82 7 1
-7 -8 -31 236 15 1
-8 7 -31 242 15 1
7 8 31 277 15 1
-7 -8 31 258 15 1
-8 9 -31 1 3 1
-9 -8 -31 2 3 1
-9 -8 -31 3 3 1
-9 -8 -31 0 3 1
-8 9 31 2 2 1
-9 -8 31 0 3 1
-6 9 -31 44 7 1
-9 -6 -31 28 6 1
-9 -6 -31 37 7 1
-6 9 31 45 5 1
-9 -6 31 40 6 1
-9 -4 -31 858 37 1
-9 -4 -31 868 37 1
-4 9 -31 892 38 1
4 -9 -31 894 38 1
-9 -4 31 889 42 1
-4 9 31 912 42 1
2 -9 -31 7 5 1
-9 -2 -31 5 3 1
-9 -2 -31 4 4 1
2 -9 -31 10 4 1
0 9 -31 12 5 1
0 -9 -31 2 3 1
-9 0 -31 12 4 1
0 -9 -31 9 4 1
-9 0 -31 17 3 1
0 -9 31 3 3 1
-2 -9 -31 4 3 1
-9 2 -31 3 5 1
-9 2 -31 4 2 1
-2 -9 -31 0 4 1
-9 4 -31 70 8 1
-4 -9 -31 94 7 1
-4 -9 -31 88 9 1
-9 4 -31 68 13 1
-4 -9 31 89 7 1
-9 4 31 68 8 1
-6 -9 -31 199 11 1
-6 -9 -31 189 12 1
-9 6 -31 178 18 1
-9 6 -31 199 12 1
-9 6 31 229 12 1
6 9 31 222 12 1
-6 -9 31 231 12 1
-8 -9 -31 121 9 1
-8 -9 -31 134 9 1
-9 8 -31 144 10 1
-9 8 31 149 9 1
-8 -9 31 148 10 1
-10 -9 -31 2 3 1
-9 10 -31 4 4 1
-10 -9 -31 2 3 1
-9 10 31 9 2 1
-10 -7 -31 81 7 1
-10 -7 -31 74 8 1
-10 -7 31 81 7 1
-7 10 31 59 7 1
-5 10 -31 126 9 1
-10 -5 -31 110 7 1
-10 -5 31 124 6 1
-5 10 31 94 6 1
-3 10 -31 238 13 1
3 -10 -31 213 13 1
-10 -3 -31 223 12 1
-10 -3 31 228 12 1
3 -10 31 256 12 1
-1 10 -31 20 5 1
1 -10 -31 56 5 1
-10 -1 -31 31 3 1
-10 -1 -31 19 4 1
1 -10 -31 27 3 1
-10 -1 31 26 2 1
1 -10 31 27 3 1
-1 -10 -31 283 16 1
-10 1 -31 295 16 1
-1 -10 -31 257 17 1
-10 1 31 277 17 1
-10 3 -31 14 5 1
-3 -10 -31 5 4 1
-3 -10 -31 33 6 1
-10 3 -31 17 3 1
-10 3 31 26 5 1
-5 -10 -31 14 3 1
-10 5 -31 22 6 1
-10 5 -31 42 13 1
-5 -10 -31 14 3 1
-10 5 31 20 5 1
-7 -10 -31 1 3 1
-10 7 -31 3 3 1
-7 -10 -31 1 3 1
7 10 31 1 2 1
-7 -10 31 1 3 1
-10 7 31 2 2 1
-10 9 -31 421 18 1
-9 -10 -31 421 17 1
-10 11 -31 115 10 1
-11 -10 -31 100 9 1
-11 -10 -31 90 9 1
-10 11 31 88 8 1
10 -11 31 94 7 1
-8 11 -31 193 11 1
-11 -8 -31 221 10 1
-11 -8 -31 203 11 1
-8 11 31 224 11 1
8 -11 31 199 9 1
-11 -6 -31 135 8 1
-11 -6 -31 126 9 1
-6 11 -31 132 10 1
-6 11 31 132 8 1
-11 -6 31 115 8 1
-4 11 -31 164 13 1
-11 -4 -31 190 12 1
4 -11 -31 172 13 1
-11 -4 -31 188 11 1
-4 11 31 187 12 1
-11 -4 31 186 11 1
4 -11 31 161 11 1
-2 11 -31 177 13 1
2 -11 -31 170 14 1
-11 -2 -31 166 9 1
2 -11 -31 185 11 1
-11 -2 -31 166 11 1
-2 11 31 169 9 1
-11 -2 31 183 10 1
0 -11 -31 219 10 1
-11 0 -31 209 10 1
0 -11 -31 200 12 1
0 11 -31 173 15 1
-11 0 -31 193 12 1
-11 0 31 203 10 1
0 11 31 197 10 1
-2 -11 -31 18 4 1
-11 2 -31 18 3 1
-11 2 -31 9 4 1
2 11 31 13 2 1
-4 -11 -31 3 3 1
-4 -11 -31 2 3 1
-11 4 -31 5 5 1
-11 4 -31 19 3 1
4 11 31 3 2 1
-11 6 -31 245 13 1
-6 -11 -31 233 12 1
-11 6 31 304 14 1
6 11 31 276 13 1
-11 8 -31 6 3 1
-8 -11 -31 2 3 1
-11 8 31 7 2 1
-10 -11 -31 4 3 1
-10 -11 -31 4 6 1
11 -12 31 45 4 1
-11 12 31 34 5 1
-9 12 -31 506 23 1
-12 -9 -31 490 22 1
-9 12 31 490 24 1
9 -12 31 557 21 1
-7 12 -31 159 11 1
-12 -7 -31 180 10 1
-12 -7 31 189 10 1
7 -12 31 152 8 1
-7 12 31 166 9 1
-5 12 -31 84 10 1
-12 -5 -31 83 8 1
-12 -5 31 69 7 1
5 -12 31 76 6 1
-5 12 31 67 7 1
-12 -3 -31 180 9 1
-3 12 -31 139 12 1
3 -12 -31 175 11 1
-12 -3 -31 170 10 1
-3 12 31 151 9 1
3 -12 31 172 8 1
-12 -3 31 201 9 1
-12 -1 -31 192 12 1
-12 -1 -31 174 10 1
1 -12 -31 197 11 1
-1 12 -31 200 15 1
-12 -1 31 196 11 1
1 -12 31 198 10 1
-1 12 31 199 11 1
-1 -12 -31 27 6 1
-12 1 -31 14 4 1
-1 -12 -31 17 4 1
-12 1 -31 24 6 1
-12 1 31 23 5 1
-1 -12 31 24 6 1
-3 -12 -31 218 12 1
-12 3 -31 212 12 1
3 12 31 245 13 1
-12 5 -31 388 19 1
-5 -12 -31 370 18 1
5 12 31 407 25 1
-12 5 31 445 21 1
-7 -12 -31 239 11 1
-12 7 -31 237 12 1
-12 7 31 242 12 1
-9 -12 -31 106 9 1
-12 9 -31 131 10 1
-12 9 31 135 9 1
-11 -12 -31 59 6 1
-12 11 31 54 5 1
12 -11 31 47 4 1
-13 -10 -31 26 7 1
10 -13 31 15 3 1
-13 -8 -31 2 3 1
-8 13 -31 3 5 1
-13 -8 -31 14 7 1
8 -13 31 4 3 1
-8 13 31 4 4 1
-13 -6 -31 93 9 1
-6 13 -31 98 11 1
-6 13 31 93 8 1
6 -13 31 100 7 1
-4 13 -31 132 13 1
4 -13 -31 137 13 1
-13 -4 -31 145 10 1
-13 -4 31 144 9 1
4 -13 31 149 8 1
-4 13 31 126 9 1
-2 13 -31 44 7 1
-13 -2 -31 51 6 1
2 -13 -31 70 8 1
2 -13 31 59 5 1
-13 -2 31 58 5 1
0 -13 -31 6 3 1
-13 0 -31 5 3 1
-13 0 31 8 2 1
0 13 31 0 2 1
0 -13 31 0 2 1
-2 -13 -31 101 9 1
-13 2 -31 125 9 1
-13 2 31 120 9 1
2 13 31 132 9 1
-13 4 -31 9 3 1
-4 -13 -31 9 3 1
-13 4 31 6 2 1
4 13 31 7 3 1
-6 -13 -31 0 6 1
-13 6 -31 2 4 1
-13 6 31 2 2 1
-8 -13 -31 2 3 1
-13 8 -31 2 4 1
-13 8 31 2 2 1
-13 10 31 80 7 1
13 -10 31 63 6 1
-14 -9 -31 129 9 1
-9 14 31 145 8 1
9 -14 31 160 7 1
7 -14 31 26 4 1
-7 14 31 23 5 1
-14 -5 -31 304 13 1
-5 14 31 329 13 1
5 -14 31 311 11 1
-14 -5 31 298 13 1
-14 -3 -31 90 8 1
-3 14 -31 95 14 1
3 -14 -31 82 11 1
3 -14 31 99 5 1
-3 14 31 109 7 1
-14 -3 31 103 7 1
-14 -1 -31 559 27 1
1 -14 -31 528 27 1
1 -14 31 579 26 1
-14 -1 31 575 29 1
-1 14 31 584 29 1
1 14 31 47 6 1
-14 1 31 54 5 1
-1 -14 31 57 6 1
-3 -14 -31 2 3 1
-14 3 -31 3 4 1
-14 3 31 3 4 1
-14 5 -31 90 8 1
-5 -14 -31 89 7 1
-14 5 31 106 7 1
-7 -14 -31 30 6 1
-14 7 31 26 4 1
-14 9 31 165 11 1
6 -15 31 74 5 1
-6 15 31 73 7 1
4 -15 31 1 1 1
-4 15 31 1 2 1
-15 -4 31 3 3 1
-15 -2 -31 17 4 1
2 -15 31 21 4 1
-2 15 31 32 5 1
-15 -2 31 20 5 1
0 -15 -31 141 11 1
-15 0 31 146 10 1
0 15 31 122 10 1
0 -15 31 149 9 1
-15 2 31 29 5 1
-15 4 -31 110 10 1
-4 -15 -31 123 9 1
-15 4 31 133 8 1
-15 6 31 60 6 1
-3 16 31 292 17 1
-16 -3 31 260 14 1
3 -16 31 255 12 1
-16 -1 31 57 5 1
1 -16 31 71 5 1
-16 1 31 46 5 1
-16 3 31 69 6 1
-1 -1 -32 13 7 1
1 -1 -32 22 8 1
-1 1 -32 16 7 1
1 1 -32 14 8 1
-1 -1 32 9 8 1
1 1 32 11 11 1
1 1 32 16 8 1
-1 1 32 23 17 1
1 -1 32 14 8 1
-1 1 32 19 8 1
0 -2 -32 209 13 1
2 0 -32 246 13 1
0 2 -32 227 13 1
-2 0 -32 241 13 1
2 0 32 243 14 1
0 2 32 231 14 1
0 2 32 191 20 1
-2 0 32 245 14 1
0 -2 32 210 14 1
-2 2 -32 87 7 1
2 2 -32 66 9 1
-2 -2 -32 65 7 1
-2 2 32 73 15 1
2 2 32 63 17 1
2 -2 32 70 8 1
-2 2 32 60 8 1
2 2 32 62 8 1
-2 -2 32 64 8 1
1 -3 -32 481 25 1
-3 -1 -32 513 25 1
-1 3 -32 493 25 1
-1 3 32 519 28 1
-1 3 32 458 31 1
3 1 32 468 28 1
1 -3 32 437 28 1
1 3 -32 160 10 1
-3 1 -32 169 9 1
-1 -3 -32 147 9 1
3 -1 32 140 10 1
-1 -3 32 142 10 1
-3 1 32 161 17 1
1 3 32 152 10 1
1 3 32 124 17 1
-3 -3 -32 130 7 1
-3 3 -32 108 8 1
3 3 32 95 17 1
-3 3 32 92 9 1
-3 3 32 108 15 1
3 3 32 115 9 1
3 -3 32 119 9 1
-3 -3 32 118 9 1
-4 -2 -32 68 13 1
-4 -2 -32 65 8 1
-2 4 32 47 15 1
-4 -2 32 68 9 1
4 2 32 63 10 1
2 -4 32 77 10 1
-2 4 32 68 10 1
0 -4 -32 57 7 1
-4 0 -32 40 6 1
4 0 32 44 8 1
0 -4 32 49 7 1
0 4 32 61 14 1
0 4 32 57 8 1
-4 0 32 37 9 1
-2 -4 -32 1483 64 1
-4 2 -32 1451 64 1
2 4 32 1431 73 1
-2 -4 32 1527 72 1
-4 2 32 1455 72 1
-4 -4 -32 344 21 1
-4 -4 32 350 22 1
4 -4 32 309 21 1
4 4 32 337 21 1
-4 4 32 328 22 1
3 -5 -32 75 11 1
-3 5 -32 81 10 1
-5 -3 -32 73 12 1
-3 5 32 66 11 1
5 3 32 65 11 1
-5 -3 32 73 11 1
3 -5 32 81 11 1
-5 -1 -32 48 12 1
5 1 32 34 8 1
1 -5 32 42 7 1
-5 -1 32 35 7 1
-1 5 32 58 8 1
-5 1 -32 33 7 1
1 5 -32 14 9 1
-1 -5 -32 40 6 1
1 5 32 27 7 1
-1 -5 32 31 7 1
-5 1 32 35 7 1
1 5 32 14 14 1
5 -1 32 22 7 1
-5 3 -32 2 3 1
-3 -5 -32 12 5 1
-5 3 32 8 3 1
3 5 32 0 3 1
5 -3 32 3 3 1
-3 -5 32 7 3 1
-5 5 -32 424 19 1
-5 -5 -32 397 18 1
-5 -5 -32 404 20 1
-5 -5 32 431 20 1
-4 6 -32 0 3 1
-6 -4 -32 1 3 1
4 -6 -32 2 6 1
-6 -4 32 2 2 1
-6 -2 -32 255 15 1
-2 6 -32 247 15 1
2 -6 -32 256 15 1
-6 -2 -32 236 17 1
-2 6 32 230 17 1
2 -6 32 199 17 1
0 -6 -32 86 9 1
0 6 -32 93 10 1
-6 0 -32 77 13 1
0 -6 -32 112 15 1
0 -6 32 70 10 1
0 6 32 93 10 1
6 0 32 95 10 1
-6 0 32 87 10 1
-6 2 -32 29 6 1
-2 -6 -32 31 5 1
-6 2 32 21 3 1
6 -2 32 16 3 1
-4 -6 -32 3 3 1
-4 -6 -32 3 5 1
-6 4 -32 4 3 1
-4 -6 32 4 2 1
4 6 32 5 2 1
-6 6 -32 159 12 1
-6 -6 -32 162 12 1
-6 6 32 161 13 1
-6 -6 32 163 12 1
6 6 32 162 12 1
-7 -5 -32 452 19 1
-5 7 -32 448 20 1
-7 -5 -32 448 20 1
-5 7 32 485 21 1
7 5 32 501 21 1
-7 -5 32 459 21 1
-7 -3 -32 3 3 1
-3 7 -32 2 4 1
3 -7 -32 5 5 1
7 3 32 9 5 1
-3 7 32 5 5 1
-7 -1 -32 23 4 1
-7 -1 -32 18 3 1
1 -7 -32 15 4 1
-1 7 -32 21 5 1
-7 1 -32 9 5 1
-1 -7 -32 9 3 1
-1 -7 -32 8 5 1
1 7 -32 3 5 1
-7 1 -32 7 3 1
-1 -7 32 7 2 1
-1 -7 32 5 3 1
-3 -7 -32 43 7 1
-3 -7 -32 40 11 1
-7 3 -32 44 7 1
-7 3 -32 50 15 1
-3 -7 32 47 6 1
-7 3 32 41 6 1
3 7 32 34 6 1
-5 -7 -32 73 7 1
-7 5 -32 62 8 1
-5 -7 -32 79 10 1
-7 5 32 50 7 1
-5 -7 32 60 7 1
5 7 32 61 7 1
-7 -7 -32 57 7 1
-7 7 -32 58 8 1
7 7 32 81 7 1
-7 -7 32 74 7 1
-7 7 32 59 7 1
-8 -6 -32 36 6 1
-8 -6 -32 44 8 1
-6 8 -32 26 4 1
-6 8 32 32 5 1
-8 -6 32 40 5 1
-4 8 -32 2 4 1
-8 -4 -32 2 3 1
4 -8 -32 2 5 1
-4 8 32 2 2 1
-8 -2 -32 31 3 1
2 -8 -32 31 4 1
-2 8 -32 25 4 1
-8 -2 -32 39 4 1
-2 8 32 29 2 1
-8 -2 32 47 4 1
-8 0 -32 27 11 1
0 -8 -32 23 8 1
0 8 -32 20 11 1
0 -8 -32 22 12 1
0 -8 32 31 9 1
0 -8 32 30 6 1
0 8 32 19 6 1
-8 0 32 25 7 1
-2 -8 -32 2 5 1
-8 2 -32 1 3 1
-2 -8 -32 1 3 1
-8 2 -32 7 6 1
-2 -8 32 4 2 1
-8 4 -32 3 3 1
-8 4 -32 2 7 1
-4 -8 -32 12 4 1
-4 -8 -32 0 3 1
-8 4 32 15 2 1
-4 -8 32 4 2 1
-8 6 -32 0 3 1
-6 -8 -32 2 2 1
-6 -8 -32 2 3 1
-8 6 32 8 2 1
6 8 32 5 2 1
-6 -8 32 10 2 1
-8 -8 -32 8 3 1
-8 8 -32 6 4 1
-8 8 32 21 2 1
-9 -7 -32 154 11 1
-7 9 -32 150 12 1
-7 9 32 153 11 1
-9 -7 32 160 11 1
-9 -5 -32 12 6 1
-5 9 -32 12 8 1
-9 -5 32 13 5 1
-5 9 32 9 5 1
-3 9 -32 210 16 1
-9 -3 -32 213 14 1
-9 -3 32 238 15 1
-3 9 32 224 15 1
1 -9 -32 468 23 1
-1 9 -32 448 24 1
-9 -1 -32 453 23 1
-9 -1 -32 470 22 1
-1 9 32 493 25 1
-9 1 -32 90 8 1
-1 -9 -32 79 11 1
-9 1 32 75 7 1
1 9 32 74 7 1
-9 3 -32 10 3 1
-9 3 -32 6 6 1
-3 -9 32 3 2 1
-5 -9 -32 195 11 1
-9 5 -32 194 11 1
-5 -9 32 191 11 1
-9 5 32 184 12 1
-9 7 -32 49 8 1
-7 -9 -32 57 6 1
7 9 32 63 6 1
-9 7 32 58 6 1
-7 -9 32 62 7 1
-9 -9 -32 438 19 1
-9 9 -32 472 20 1
-9 9 32 486 22 1
-8 10 -32 179 11 1
-10 -8 -32 168 10 1
-8 10 32 183 10 1
-10 -8 32 205 11 1
6 -10 32 42 4 1
-10 -6 32 34 3 1
-10 -4 -32 230 13 1
-10 -4 -32 250 15 1
-4 10 -32 235 15 1
4 -10 32 227 13 1
-10 -4 32 237 14 1
-4 10 32 256 15 1
-10 -2 -32 49 7 1
-2 10 -32 54 12 1
-2 10 32 69 7 1
2 -10 32 60 6 1
-10 -2 32 61 7 1
-10 0 -32 48 9 1
0 -10 -32 53 7 1
-10 0 -32 50 6 1
0 10 32 48 5 1
0 -10 32 44 6 1
-10 0 32 44 5 1
-10 2 -32 11 3 1
-10 2 -32 11 5 1
-2 -10 -32 3 4 1
-2 -10 -32 17 3 1
2 10 32 17 2 1
-10 2 32 6 2 1
-4 -10 -32 266 12 1
-10 4 -32 275 13 1
4 10 32 295 13 1
-10 4 32 296 13 1
-6 -10 -32 163 8 1
-10 6 -32 154 9 1
-10 6 32 178 9 1
-10 8 -32 347 18 1
-8 -10 -32 342 18 1
-8 -10 -32 378 20 1
-10 8 32 366 20 1
-10 -10 -32 10 3 1
-10 10 -32 0 4 1
-10 -10 -32 1 3 1
-10 10 32 4 2 1
-9 11 -32 138 11 1
-11 -9 -32 136 10 1
9 -11 32 119 8 1
-9 11 32 134 9 1
-11 -7 -32 6 3 1
-7 11 -32 0 4 1
-11 -7 32 5 3 1
7 -11 32 5 1 1
-7 11 32 6 2 1
-11 -5 -32 130 8 1
-5 11 -32 149 11 1
-11 -5 32 121 8 1
-5 11 32 112 8 1
5 -11 32 118 7 1
-3 11 -32 55 10 1
3 -11 -32 31 6 1
-11 -3 32 51 5 1
-3 11 32 51 5 1
3 -11 32 37 4 1
1 -11 -32 45 8 1
-11 -1 -32 53 6 1
-1 11 -32 38 7 1
-11 -1 32 46 5 1
-1 11 32 47 5 1
-1 -11 -32 33 6 1
1 11 32 19 5 1
-11 1 32 13 5 1
-11 3 -32 211 12 1
-3 -11 -32 214 12 1
-11 3 32 196 12 1
3 11 32 210 12 1
-5 -11 -32 102 7 1
-11 5 -32 94 8 1
5 11 32 93 7 1
-11 5 32 102 7 1
-7 -11 -32 116 7 1
-11 7 -32 134 8 1
-9 -11 -32 7 3 1
-9 -11 -32 6 3 1
-11 9 -32 2 4 1
-11 9 32 7 2 1
-11 -11 -32 48 8 1
11 -11 32 65 5 1
-11 11 32 56 5 1
8 -12 32 637 31 1
-6 12 -32 14 5 1
-12 -6 -32 17 3 1
-6 12 32 23 5 1
6 -12 32 12 2 1
-4 12 -32 1 6 1
-12 -4 -32 4 3 1
-12 -4 32 0 2 1
-2 12 -32 9 7 1
-12 -2 -32 10 3 1
2 -12 -32 7 5 1
-2 12 32 5 2 1
-12 -2 32 8 2 1
0 -12 -32 63 8 1
-12 0 -32 64 6 1
0 -12 32 77 6 1
0 12 32 61 6 1
-12 0 32 61 5 1
-12 2 -32 3 3 1
-2 -12 -32 16 3 1
2 12 32 16 2 1
-4 -12 -32 2 3 1
-12 4 -32 1 3 1
-12 4 32 11 4 1
4 12 32 0 2 1
-12 6 -32 156 9 1
-6 -12 -32 159 8 1
-12 6 32 174 8 1
-8 -12 -32 11 3 1
-12 8 -32 7 4 1
-12 8 32 2 2 1
7 -13 32 168 8 1
-7 13 32 175 10 1
-13 -5 -32 929 40 1
-5 13 32 1059 44 1
5 -13 32 994 39 1
-13 -5 32 981 44 1
-13 -3 -32 40 7 1
-13 -3 32 30 5 1
-3 13 32 29 5 1
3 -13 32 24 4 1
-13 -1 -32 8 3 1
1 -13 -32 0 4 1
1 -13 32 3 2 1
-1 13 32 8 2 1
-13 -1 32 8 2 1
-1 -13 -32 299 13 1
-13 1 -32 314 13 1
1 13 32 333 14 1
-13 1 32 327 14 1
-3 -13 -32 678 32 1
-13 3 -32 694 33 1
3 13 32 766 36 1
-13 3 32 723 36 1
-13 5 -32 7 3 1
-5 -13 -32 1 3 1
-13 5 32 6 2 1
-13 7 32 3 2 1
-6 14 32 242 12 1
6 -14 32 215 11 1
4 -14 32 33 4 1
-4 14 32 41 5 1
-14 -2 -32 240 15 1
2 -14 32 264 13 1
-2 14 32 256 15 1
-14 -2 32 278 15 1
-14 0 -32 3 4 1
0 -14 32 2 2 1
0 14 32 3 2 1
-14 0 32 1 2 1
-2 -14 -32 0 4 1
-14 2 -32 0 4 1
2 14 32 1 3 1
-14 2 32 1 2 1
-14 4 32 54 5 1
-14 6 32 292 14 1
-15 -3 32 74 7 1
-3 15 32 65 7 1
3 -15 32 69 6 1
1 -15 32 200 11 1
-15 -1 32 177 12 1
-1 15 32 174 12 1
-15 1 32 11 5 1
1 15 32 12 3 1
-15 3 32 19 2 1
0 -1 -33 542 17 1
1 0 -33 505 17 1
-1 0 -33 502 17 1
0 1 -33 499 17 1
0 -1 33 520 19 1
1 0 33 501 19 1
0 1 33 554 19 1
-1 2 -33 47 4 1
2 1 -33 39 5 1
-2 -1 -33 43 3 1
1 -2 -33 42 4 1
-1 2 33 54 3 1
2 1 33 50 3 1
-2 1 -33 148 11 1
-1 -2 -33 151 11 1
1 2 -33 150 12 1
2 -1 33 129 13 1
2 -3 -33 18 5 1
-3 -2 -33 28 6 1
-2 3 -33 34 7 1
0 3 -33 91 11 1
-3 0 -33 102 9 1
0 -3 -33 111 10 1
-2 -3 -33 120 10 1
-3 2 -33 101 10 1
-4 -3 -33 124 8 1
3 -4 -33 110 11 1
-3 4 -33 130 10 1
-4 -3 33 118 8 1
-3 4 33 119 8 1
4 3 33 133 8 1
-4 -1 -33 9 3 1
-1 4 -33 0 4 1
1 -4 -33 1 4 1
1 -4 33 2 2 1
1 4 -33 132 13 1
-4 1 -33 155 10 1
-1 -4 -33 162 10 1
-4 1 33 136 10 1
-1 -4 33 177 10 1
-4 3 -33 252 13 1
-3 -4 -33 219 17 1
-3 -4 -33 247 13 1
4 -3 33 253 14 1
3 4 33 270 14 1
-3 -4 33 256 14 1
-5 -4 -33 107 9 1
-4 5 -33 103 10 1
-5 -4 -33 93 14 1
-4 5 33 88 9 1
5 4 33 105 9 1
-5 -4 33 99 8 1
2 -5 -33 197 13 1
-5 -2 -33 208 12 1
-5 -2 -33 201 16 1
-2 5 -33 228 14 1
-2 5 33 203 13 1
2 -5 33 210 12 1
-5 -2 33 212 13 1
5 2 33 237 13 1
0 5 -33 249 14 1
-5 0 -33 220 12 1
-5 0 -33 209 17 1
0 -5 -33 217 12 1
0 5 33 234 12 1
-5 0 33 226 12 1
0 -5 33 231 12 1
5 0 33 198 12 1
-2 -5 -33 4 6 1
-5 2 -33 8 3 1
-2 -5 -33 4 3 1
-2 -5 33 3 2 1
2 5 33 4 2 1
5 -2 33 8 2 1
-5 2 33 11 2 1
-5 4 -33 41 7 1
-4 -5 -33 52 7 1
4 5 33 47 6 1
-5 4 33 41 6 1
-6 -5 -33 232 15 1
-5 6 -33 248 13 1
-6 -5 -33 239 13 1
6 5 33 240 13 1
-5 6 33 228 13 1
-6 -5 33 257 13 1
-3 6 -33 15 4 1
3 -6 -33 26 6 1
-3 6 33 25 5 1
6 3 33 25 5 1
-6 -3 33 23 5 1
-1 6 -33 23 10 1
1 -6 -33 11 4 1
-6 -1 -33 4 6 1
-1 6 33 18 5 1
-6 -1 33 9 5 1
1 -6 33 11 4 1
-1 -6 -33 271 19 1
-6 1 -33 283 14 1
-1 -6 -33 248 14 1
1 6 33 274 15 1
-1 -6 33 259 15 1
-6 1 33 251 15 1
6 -1 33 270 15 1
-3 -6 -33 11 6 1
-3 -6 -33 3 3 1
-6 3 -33 5 3 1
-6 3 33 4 2 1
3 6 33 11 5 1
-3 -6 33 2 2 1
-6 5 -33 87 8 1
-5 -6 -33 81 7 1
-5 -6 -33 95 11 1
5 6 33 101 7 1
-5 -6 33 102 6 1
-6 5 33 88 6 1
-7 -6 -33 173 12 1
-6 7 -33 184 13 1
-6 7 33 182 13 1
-7 -4 -33 154 10 1
-7 -4 -33 146 14 1
-4 7 -33 147 12 1
-7 -4 33 154 10 1
7 4 33 140 10 1
-4 7 33 147 11 1
-2 7 -33 18 5 1
2 -7 -33 11 5 1
-7 -2 -33 12 3 1
-7 -2 -33 12 5 1
-7 -2 33 12 2 1
7 2 33 19 4 1
-2 7 33 15 2 1
-7 0 -33 740 29 1
0 -7 -33 745 30 1
-7 0 -33 714 32 1
0 -7 -33 760 33 1
0 7 -33 764 31 1
0 -7 33 729 29 1
-7 0 33 729 33 1
0 -7 33 746 33 1
0 7 33 699 33 1
-7 2 -33 15 6 1
-2 -7 -33 9 6 1
-7 2 33 9 5 1
-2 -7 33 15 5 1
2 7 33 11 5 1
-7 4 -33 12 3 1
-4 -7 -33 55 3 1
-4 -7 -33 28 5 1
-4 -7 33 28 2 1
-7 6 -33 4 4 1
-6 -7 -33 9 6 1
-6 -7 33 6 5 1
6 7 33 13 5 1
-7 8 -33 0 4 1
-8 -7 -33 2 3 1
-8 -7 33 0 2 1
-7 8 33 2 2 1
-5 8 -33 3 4 1
-8 -5 -33 0 3 1
-5 8 33 1 2 1
-8 -5 33 8 2 1
-8 -3 -33 230 12 1
-3 8 -33 221 15 1
3 -8 -33 208 15 1
-3 8 33 222 13 1
-8 -3 33 238 13 1
-8 -1 -33 356 21 1
-8 -1 -33 389 18 1
-1 8 -33 335 20 1
1 -8 -33 354 19 1
-8 -1 33 364 20 1
1 -8 33 344 17 1
-1 8 33 357 20 1
-1 -8 -33 228 13 1
-8 1 -33 255 13 1
-1 -8 33 253 13 1
-8 1 33 244 13 1
1 8 33 238 13 1
-3 -8 -33 1 3 1
-8 3 -33 0 3 1
-3 -8 33 1 2 1
3 8 33 1 2 1
-8 5 -33 4 3 1
-5 -8 -33 3 3 1
-8 5 33 1 2 1
-5 -8 33 0 2 1
5 8 33 4 2 1
-8 7 -33 7 3 1
-7 -8 -33 8 3 1
-8 7 33 7 2 1
-7 -8 33 2 2 1
-8 9 -33 83 9 1
-9 -8 -33 75 7 1
-9 -8 33 78 7 1
-8 9 33 99 6 1
-6 9 -33 25 5 1
-9 -6 -33 24 3 1
-6 9 33 17 2 1
-4 9 -33 7 5 1
-9 -4 -33 5 3 1
-4 9 33 14 4 1
4 -9 33 6 2 1
-9 -4 33 4 2 1
-2 9 -33 3 6 1
2 -9 -33 2 5 1
-9 -2 -33 3 3 1
-2 9 33 1 2 1
2 -9 33 3 2 1
-9 -2 33 10 5 1
0 -9 -33 334 15 1
-9 0 -33 345 14 1
-9 0 33 371 16 1
0 9 33 361 15 1
0 -9 33 375 14 1
-2 -9 -33 120 8 1
-9 2 -33 103 8 1
2 9 33 99 7 1
-9 2 33 93 7 1
-4 -9 -33 934 39 1
-9 4 33 910 44 1
-9 6 -33 168 10 1
-6 -9 -33 142 9 1
-9 6 33 159 10 1
-6 -9 33 176 9 1
6 9 33 153 9 1
-8 -9 -33 0 3 1
-9 8 -33 1 4 1
-9 8 33 1 2 1
-9 10 33 3 2 1
9 -10 33 3 1 1
-7 10 -33 50 10 1
-10 -7 -33 48 7 1
7 -10 33 61 5 1
-10 -7 33 63 7 1
-7 10 33 64 6 1
-5 10 -33 70 10 1
5 -10 33 75 5 1
-5 10 33 87 6 1
-10 -5 33 88 6 1
3 -10 -33 5 7 1
-3 10 -33 6 6 1
-10 -3 -33 0 3 1
-10 -3 33 4 2 1
3 -10 33 1 2 1
-3 10 33 1 2 1
-10 -1 -33 154 9 1
-1 10 33 156 9 1
1 -10 33 153 8 1
-10 -1 33 160 9 1
-1 -10 -33 68 7 1
-10 1 -33 57 7 1
-10 1 33 52 5 1
1 10 33 51 6 1
-3 -10 -33 4 3 1
-10 3 -33 2 3 1
-10 3 33 7 2 1
3 10 33 4 2 1
-10 5 -33 8 3 1
-5 -10 -33 12 3 1
-10 5 33 3 2 1
5 10 33 4 2 1
-10 7 -33 366 16 1
-7 -10 -33 388 15 1
-10 9 33 118 9 1
8 -11 33 0 1 1
-8 11 33 1 2 1
-11 -6 -33 549 23 1
-6 11 33 547 25 1
6 -11 33 540 22 1
-11 -6 33 565 24 1
-4 11 -33 106 14 1
-11 -4 -33 126 9 1
-11 -4 33 127 8 1
-4 11 33 139 8 1
4 -11 33 137 7 1
2 -11 -33 4 5 1
-11 -2 -33 4 3 1
2 -11 33 3 2 1
-11 0 -33 21 6 1
0 -11 -33 10 5 1
0 11 33 24 5 1
-11 0 33 18 4 1
-11 2 -33 1 3 1
-2 -11 -33 5 3 1
2 11 33 7 2 1
-11 4 -33 273 13 1
-4 -11 -33 263 12 1
-11 4 33 267 13 1
4 11 33 291 13 1
-6 -11 -33 230 11 1
-11 6 -33 206 12 1
-11 6 33 223 12 1
-11 8 33 139 10 1
7 -12 33 28 4 1
-7 12 33 27 5 1
-12 -5 -33 71 8 1
-5 12 33 73 6 1
-12 -5 33 63 6 1
-12 -3 -33 189 12 1
-12 -3 33 197 12 1
3 -12 33 208 10 1
-12 -1 -33 3 3 1
-12 -1 33 3 2 1
-1 12 33 3 2 1
1 -12 33 4 2 1
-1 -12 -33 93 9 1
-12 1 -33 68 8 1
-12 1 33 83 7 1
-3 -12 -33 180 13 1
-12 3 -33 201 13 1
-12 3 33 209 13 1
3 12 33 189 13 1
-12 5 -33 6 4 1
-12 5 33 12 4 1
5 12 33 24 6 1
-12 7 33 129 9 1
6 -13 33 159 7 1
-6 13 33 160 9 1
4 -13 33 27 4 1
-13 -4 33 18 2 1
-2 13 33 84 7 1
-13 -2 33 69 7 1
2 -13 33 71 6 1
-13 0 -33 27 4 1
-13 0 33 37 4 1
2 13 33 398 19 1
-13 2 33 399 19 1
-13 4 33 1 2 1
-13 6 33 131 6 1
3 -14 33 335 13 1
-3 14 33 316 15 1
-14 -3 33 337 15 1
-14 -1 33 75 6 1
1 -14 33 72 6 1
-1 14 33 67 6 1
-14 1 33 22 2 1
1 14 33 23 3 1
-14 3 33 59 7 1
0 0 -34 1034 46 1
0 0 34 1056 51 1
-1 -1 -34 6 4 1
-1 1 -34 4 4 1
1 1 -34 9 6 1
-1 -1 34 11 5 1
0 2 -34 24 5 1
-2 0 -34 21 5 1
-2 0 34 31 5 1
2 0 34 28 5 1
-2 -2 -34 323 17 1
-2 2 -34 278 17 1
2 2 34 318 18 1
-2 -2 34 324 18 1
2 -2 34 285 18 1
-1 3 -34 530 25 1
-3 -1 -34 542 24 1
1 -3 -34 493 25 1
-3 -1 34 508 27 1
3 1 34 494 27 1
1 -3 34 539 27 1
-1 3 34 556 27 1
-1 -3 -34 1060 57 1
-3 1 -34 1116 57 1
3 -1 34 1191 64 1
1 3 34 1155 64 1
-1 -3 34 1182 64 1
-3 3 -34 11 4 1
-3 -3 -34 1 3 1
3 -3 34 10 2 1
-3 3 34 9 2 1
-2 4 -34 179 13 1
-4 -2 -34 190 11 1
2 -4 -34 157 13 1
-2 4 34 171 11 1
4 2 34 187 11 1
2 -4 34 180 11 1
-4 -2 34 168 11 1
-4 0 -34 122 10 1
0 4 -34 96 13 1
0 -4 -34 110 11 1
4 0 34 107 9 1
0 -4 34 125 9 1
0 4 34 135 9 1
-4 0 34 104 9 1
-4 2 -34 1 4 1
-2 -4 -34 2 3 1
-2 -4 34 2 2 1
4 -2 34 1 2 1
-4 4 -34 56 8 1
-4 -4 -34 63 8 1
-4 4 34 50 6 1
-4 -4 34 65 6 1
4 4 34 58 6 1
-3 5 -34 7 4 1
-5 -3 -34 17 7 1
5 3 34 5 4 1
1 -5 -34 1 5 1
-1 5 -34 6 5 1
-5 -1 -34 2 3 1
1 -5 34 1 2 1
-1 5 34 0 2 1
-5 -1 34 3 2 1
5 1 34 1 2 1
-1 -5 -34 66 8 1
-5 1 -34 67 7 1
5 -1 34 60 5 1
-1 -5 34 76 5 1
-5 1 34 68 5 1
1 5 34 82 5 1
-3 -5 -34 558 29 1
-5 3 -34 559 30 1
3 5 34 593 33 1
-5 3 34 617 33 1
-3 -5 34 611 33 1
-5 5 -34 250 16 1
-5 -5 34 294 16 1
-5 5 34 255 16 1
5 5 34 270 16 1
-6 -4 -34 151 10 1
-4 6 -34 130 11 1
-6 -4 34 145 9 1
-4 6 34 129 10 1
2 -6 -34 172 14 1
-2 6 -34 214 14 1
-6 -2 -34 207 12 1
-2 6 34 175 12 1
6 2 34 206 12 1
-6 -2 34 193 12 1
0 -6 -34 439 26 1
-6 0 -34 482 26 1
0 -6 34 486 28 1
-6 0 34 508 28 1
0 6 34 512 28 1
-6 2 -34 333 15 1
-2 -6 -34 320 15 1
-2 -6 34 341 15 1
-6 2 34 300 16 1
2 6 34 327 15 1
-6 4 -34 3 4 1
-4 -6 -34 4 3 1
-4 -6 34 9 5 1
4 6 34 3 2 1
-6 4 34 2 2 1
-6 -6 -34 88 8 1
-6 6 -34 98 10 1
6 6 34 84 8 1
-6 6 34 78 8 1
-6 -6 34 102 8 1
-7 -5 -34 209 12 1
-5 7 -34 196 14 1
-7 -5 34 217 13 1
-5 7 34 203 13 1
-3 7 -34 42 9 1
-7 -3 -34 55 7 1
-7 -3 34 44 5 1
-3 7 34 44 6 1
-7 -1 -34 42 7 1
-1 7 -34 25 6 1
1 -7 -34 20 5 1
-1 7 34 31 5 1
-7 -1 34 35 5 1
-7 1 -34 5 3 1
-1 -7 -34 1 4 1
-7 1 34 2 2 1
1 7 34 2 2 1
-1 -7 34 3 2 1
-3 -7 -34 678 29 1
-7 3 -34 719 29 1
3 7 34 729 32 1
-7 3 34 683 32 1
-3 -7 34 724 32 1
-7 5 -34 339 16 1
-5 -7 -34 337 15 1
-7 5 34 341 17 1
-5 -7 34 368 16 1
-7 -7 -34 5 3 1
-7 7 -34 0 4 1
-7 7 34 5 2 1
-7 -7 34 8 2 1
-8 -6 -34 90 8 1
-6 8 -34 128 10 1
-6 8 34 108 7 1
-8 -6 34 97 7 1
-4 8 -34 1 5 1
-4 8 34 2 2 1
-8 -4 34 1 2 1
2 -8 -34 60 12 1
-2 8 -34 42 11 1
-8 -2 -34 57 7 1
-2 8 34 52 6 1
-8 -2 34 45 5 1
2 -8 34 42 5 1
-8 0 -34 70 8 1
0 8 34 60 6 1
-8 0 34 70 6 1
-2 -8 -34 80 10 1
-8 2 -34 68 10 1
2 8 34 72 9 1
-8 2 34 74 9 1
-8 4 -34 195 12 1
-4 -8 -34 188 11 1
4 8 34 212 11 1
-4 -8 34 198 11 1
-8 4 34 207 12 1
-6 -8 -34 199 11 1
-8 6 -34 224 12 1
6 8 34 199 11 1
-8 6 34 180 11 1
-6 -8 34 198 11 1
-8 -8 -34 269 16 1
-8 -8 34 281 17 1
-9 -7 -34 0 3 1
7 -9 34 1 1 1
-9 -7 34 2 2 1
-7 9 34 3 2 1
-5 9 -34 89 11 1
-9 -5 -34 94 7 1
-5 9 34 92 6 1
-3 9 -34 152 15 1
-9 -3 34 167 10 1
3 -9 34 179 9 1
-3 9 34 171 10 1
1 -9 -34 78 11 1
-9 -1 -34 79 8 1
-9 -1 34 81 7 1
-1 9 34 74 8 1
-9 1 -34 126 10 1
-1 -9 -34 135 11 1
-9 1 34 137 9 1
1 9 34 121 9 1
-9 3 -34 2 3 1
-3 -9 -34 2 4 1
-9 3 34 10 2 1
-9 5 -34 12 4 1
-5 -9 -34 2 3 1
5 9 34 10 2 1
-9 5 34 12 2 1
-7 -9 -34 1 4 1
-9 7 34 3 2 1
-9 9 34 160 11 1
9 -9 34 151 9 1
8 -10 34 23 3 1
-8 10 34 20 4 1
-10 -6 34 883 46 1
-6 10 34 881 47 1
6 -10 34 849 41 1
-10 -4 -34 91 9 1
-4 10 34 105 9 1
-10 -4 34 97 9 1
-10 -2 -34 183 9 1
2 -10 34 183 7 1
-10 -2 34 169 8 1
-2 10 34 151 8 1
-10 0 -34 161 12 1
-10 0 34 161 11 1
0 10 34 190 12 1
-2 -10 -34 91 9 1
-10 2 -34 91 9 1
-10 2 34 89 7 1
2 10 34 103 8 1
-10 4 -34 0 3 1
4 10 34 0 2 1
-10 4 34 1 2 1
-10 6 34 191 11 1
-10 8 34 69 6 1
-11 -5 34 15 6 1
5 -11 34 10 4 1
-5 11 34 11 4 1
-11 -3 -34 46 7 1
-11 -3 34 43 5 1
-3 11 34 49 5 1
-11 -1 -34 53 7 1
-1 11 34 71 5 1
-11 -1 34 76 5 1
-11 1 34 130 9 1
-11 3 -34 127 10 1
3 11 34 110 9 1
-11 3 34 121 9 1
-11 5 34 236 13 1
4 -12 34 41 4 1
-4 12 34 45 5 1
-12 -4 34 43 6 1
-12 -2 34 1078 55 1
-2 12 34 1006 55 1
2 -12 34 1123 49 1
-12 0 34 127 8 1
0 12 34 143 8 1
2 12 34 20 5 1
-12 4 34 54 5 1
4 12 34 38 6 1
0 -1 -35 35 11 1
-1 0 -35 7 5 1
0 1 35 25 5 1
-1 0 35 13 5 1
-1 2 -35 213 15 1
-2 -1 -35 235 14 1
2 1 35 264 13 1
-2 -1 35 245 13 1
-1 2 35 224 13 1
1 -2 35 242 13 1
-1 -2 -35 716 28 1
-1 -2 35 722 30 1
-2 1 35 737 30 1
1 2 35 734 30 1
2 -1 35 739 30 1
-3 -2 -35 308 14 1
-2 3 -35 322 16 1
3 2 35 349 15 1
-2 3 35 373 15 1
-3 -2 35 380 15 1
2 -3 35 358 15 1
0 3 35 26 5 1
-3 0 35 13 5 1
3 0 35 16 5 1
0 -3 35 22 5 1
-2 -3 -35 0 4 1
-2 -3 35 0 2 1
2 3 35 1 2 1
3 -2 35 0 2 1
-4 -3 -35 231 12 1
-4 -3 35 257 11 1
4 3 35 249 11 1
-3 4 35 233 11 1
-1 4 -35 37 7 1
-4 -1 -35 75 8 1
1 -4 -35 40 6 1
-1 4 35 60 5 1
1 -4 35 62 4 1
-4 -1 35 57 5 1
4 1 35 46 4 1
-4 1 -35 114 9 1
-1 -4 -35 105 10 1
-1 -4 35 118 7 1
4 -1 35 111 7 1
1 4 35 131 7 1
-4 1 35 106 7 1
-4 3 -35 63 4 1
-4 3 35 63 2 1
-3 -4 35 42 2 1
3 4 35 42 2 1
-5 -4 -35 22 7 1
5 4 35 21 5 1
-5 -4 35 19 5 1
-4 5 35 22 5 1
-5 -2 -35 72 8 1
-2 5 -35 68 12 1
-5 -2 35 50 5 1
5 2 35 48 5 1
-5 0 -35 29 8 1
5 0 35 34 5 1
0 5 35 37 5 1
-5 0 35 37 5 1
0 -5 35 44 5 1
-2 -5 -35 14 5 1
-5 2 -35 10 4 1
-5 2 35 19 5 1
-2 -5 35 23 4 1
-5 4 -35 42 9 1
-4 -5 -35 28 8 1
4 5 35 25 5 1
-4 -5 35 38 5 1
-5 4 35 18 5 1
-6 -5 -35 47 7 1
6 5 35 43 5 1
-6 -5 35 32 5 1
-5 6 35 36 5 1
-3 6 -35 84 12 1
-6 -3 -35 96 9 1
-3 6 35 86 8 1
-6 -3 35 78 7 1
1 -6 -35 6 6 1
1 -6 35 14 2 1
-6 -1 35 23 2 1
-6 1 -35 10 4 1
-1 -6 -35 15 5 1
-3 -6 -35 12 8 1
-6 3 -35 16 8 1
-3 -6 35 6 5 1
-6 3 35 11 5 1
3 6 35 8 5 1
-5 -6 -35 24 7 1
-6 5 -35 42 9 1
-5 -6 35 36 5 1
5 6 35 36 5 1
-6 5 35 34 5 1
-7 -6 -35 68 7 1
-6 7 35 81 6 1
-7 -6 35 98 6 1
-7 -4 -35 20 7 1
-4 7 35 11 5 1
-7 -4 35 20 5 1
-7 -2 -35 78 8 1
-7 -2 35 68 5 1
-2 7 35 61 5 1
-7 0 -35 149 9 1
-7 0 35 155 8 1
0 7 35 142 8 1
-7 2 -35 129 9 1
-2 -7 -35 128 10 1
-7 2 35 135 8 1
-2 -7 35 127 7 1
2 7 35 144 8 1
-7 4 -35 7 4 1
-4 -7 -35 1 4 1
4 7 35 3 2 1
-4 -7 35 1 2 1
-7 4 35 0 2 1
-6 -7 35 19 5 1
-8 -7 35 5 2 1
-7 8 35 7 2 1
-8 -5 -35 2 4 1
-8 -5 35 1 2 1
-5 8 35 1 2 1
5 -8 35 0 1 1
3 -8 35 35 4 1
-8 -3 35 27 5 1
-3 8 35 24 4 1
-8 -1 35 41 6 1
1 -8 35 55 6 1
-1 8 35 41 6 1
-8 1 -35 38 7 1
-8 1 35 30 4 1
-8 3 -35 18 4 1
-3 -8 -35 23 4 1
-8 5 35 39 5 1
5 8 35 33 5 1
-8 7 35 120 7 1
-6 9 35 89 5 1
-9 -6 35 81 6 1
-9 -4 35 2 2 1
4 -9 35 1 1 1
-9 -2 35 2 2 1
-2 9 35 5 2 1
2 -9 35 1 2 1
-9 0 -35 82 8 1
-9 0 35 88 5 1
0 9 35 99 6 1
-9 2 -35 4 4 1
2 9 35 7 2 1
-9 2 35 6 2 1
4 9 35 99 7 1
-9 4 35 80 7 1
-9 6 35 10 2 1
-5 10 35 14 2 1
-10 -5 35 16 2 1
5 -10 35 16 2 1
3 -10 35 1 2 1
-3 10 35 7 2 1
-10 -3 35 8 2 1
1 -10 35 110 8 1
-1 10 35 98 8 1
-10 -1 35 92 7 1
1 10 35 63 6 1
-10 1 35 61 6 1
-10 3 35 82 6 1
3 10 35 61 6 1
-10 5 35 85 5 1
2 -11 35 230 10 1
-2 11 35 230 11 1
-11 -2 35 214 10 1
0 11 35 4 2 1
-11 0 35 0 2 1
2 11 35 20 2 1
0 0 36 2042 93 1
-1 -1 -36 2 6 1
1 1 36 0 2 1
-1 1 36 2 2 1
-1 -1 36 0 2 1
-2 0 -36 92 12 1
0 -2 36 93 7 1
-2 0 36 112 7 1
0 2 36 107 7 1
2 0 36 83 7 1
-2 -2 -36 199 14 1
-2 -2 36 200 11 1
2 -2 36 204 11 1
2 2 36 213 12 1
-2 2 36 198 12 1
-3 -1 -36 264 15 1
-3 -1 36 309 15 1
1 -3 36 283 15 1
3 1 36 259 14 1
-1 3 36 292 15 1
-3 1 -36 191 13 1
3 -1 36 166 10 1
1 3 36 204 10 1
-1 -3 36 184 10 1
-3 1 36 169 10 1
-3 -3 -36 121 10 1
3 3 36 93 7 1
-3 -3 36 105 7 1
-3 3 36 105 7 1
-4 -2 -36 314 17 1
4 2 36 330 17 1
-2 4 36 337 17 1
-4 -2 36 315 17 1
-4 0 -36 3 5 1
-4 0 36 2 4 1
0 -4 36 5 2 1
-2 -4 36 6 2 1
-4 2 36 4 2 1
2 4 36 9 2 1
-4 -4 -36 25 9 1
-4 -4 36 40 6 1
4 4 36 42 6 1
-5 -3 -36 18 4 1
-3 5 36 7 2 1
5 3 36 11 2 1
-5 -3 36 19 4 1
-5 -1 -36 115 10 1
-1 5 36 111 7 1
-5 -1 36 110 7 1
-5 1 -36 14 4 1
-1 -5 36 11 2 1
-5 3 36 405 16 1
3 5 36 427 16 1
-3 -5 36 396 16 1
-5 5 36 14 4 1
5 5 36 13 4 1
-5 -5 36 17 5 1
-4 6 36 35 5 1
-6 -4 36 42 5 1
-6 -2 -36 3 4 1
-6 -2 36 0 2 1
-2 6 36 4 2 1
-6 0 -36 102 9 1
0 6 36 105 6 1
-6 0 36 88 6 1
-2 -6 36 243 12 1
-6 2 36 230 12 1
2 6 36 248 12 1
4 6 36 88 6 1
-4 -6 36 65 6 1
-6 4 36 77 6 1
-6 6 36 118 6 1
-6 -6 36 116 6 1
5 -7 36 31 4 1
-5 7 36 25 4 1
-7 -5 36 36 5 1
3 -7 36 9 2 1
-1 7 36 128 9 1
-7 -1 36 141 9 1
1 7 36 40 5 1
-7 1 36 52 5 1
-7 3 36 7 2 1
3 7 36 12 2 1
-7 5 36 46 5 1
5 7 36 75 5 1
-4 8 36 7 2 1
-8 -4 36 6 2 1
4 -8 36 19 4 1
2 -8 36 2 2 1
-8 -2 36 0 2 1
-2 8 36 1 2 1
-8 0 36 0 2 1
2 8 36 90 8 1
-8 2 36 81 8 1
-8 4 36 2 2 1
4 8 36 3 2 1
-9 -1 36 34 5 1
-1 9 36 45 5 1
-9 1 36 6 2 1
1 9 36 14 2 1
0 -1 37 193 12 1
-1 0 37 205 12 1
1 0 37 165 12 1
0 1 37 199 12 1
1 -2 37 49 5 1
-1 2 37 55 6 1
2 1 37 44 5 1
-2 -1 37 46 5 1
-2 1 37 507 21 1
2 -1 37 447 21 1
-1 -2 37 498 21 1
1 2 37 499 21 1
-3 -2 37 315 18 1
-2 3 37 341 18 1
3 2 37 351 18 1
3 0 37 1 2 1
0 3 37 3 2 1
2 3 37 80 6 1
-3 2 37 79 6 1
-2 -3 37 63 6 1
4 3 37 41 4 1
-4 -1 37 588 30 1
-1 4 37 583 30 1
1 4 37 26 4 1
-4 1 37 34 4 1
-1 -4 37 15 4 1
-4 3 37 2 2 1
3 4 37 1 1 1
-3 -4 37 5 2 1
-4 5 37 229 12 1
-5 -4 37 230 11 1
2 -5 37 14 2 1
-5 -2 37 16 2 1
0 5 37 54 5 1
-5 0 37 60 5 1
-2 -5 37 384 21 1
-5 2 37 379 21 1
2 5 37 379 21 1
-4 -5 37 61 5 1
4 5 37 52 5 1
-5 4 37 57 5 1
-6 -1 37 23 4 1
1 6 37 98 7 1
-6 1 37 94 7 1
